# generated using pymatgen
data_ZnH12C18N2O3
_symmetry_space_group_name_H-M   'P 1'
_cell_length_a   26.71300000
_cell_length_b   26.71300000
_cell_length_c   5.08830000
_cell_angle_alpha   90.00000000
_cell_angle_beta   90.00000000
_cell_angle_gamma   90.00000000
_symmetry_Int_Tables_number   1
_chemical_formula_structural   ZnH12C18N2O3
_chemical_formula_sum   'Zn8 H96 C144 N16 O24'
_cell_volume   3630.93134478
_cell_formula_units_Z   8
loop_
 _symmetry_equiv_pos_site_id
 _symmetry_equiv_pos_as_xyz
  1  'x, y, z'
loop_
 _atom_site_type_symbol
 _atom_site_label
 _atom_site_symmetry_multiplicity
 _atom_site_fract_x
 _atom_site_fract_y
 _atom_site_fract_z
 _atom_site_occupancy
 _atom_site_charge
  Zn  Zn1  1  0.786700  0.770910  0.300510  1.0  0.9996
  Zn  Zn2  1  0.286700  0.270910  0.800510  1.0  0.9996
  Zn  Zn3  1  0.213300  0.229090  0.300510  1.0  0.9971
  Zn  Zn4  1  0.713300  0.729090  0.800510  1.0  0.9971
  Zn  Zn5  1  0.770910  0.213300  0.699490  1.0  0.9997
  Zn  Zn6  1  0.270910  0.713300  0.199490  1.0  0.9997
  Zn  Zn7  1  0.229090  0.786700  0.699490  1.0  0.9984
  Zn  Zn8  1  0.729090  0.286700  0.199490  1.0  0.9984
  H  H9  1  0.892900  0.792300  0.057800  1.0  0.1062
  H  H10  1  0.820300  0.688000  0.714400  1.0  0.1135
  H  H11  1  0.828300  0.622200  0.061500  1.0  0.104
  H  H12  1  0.876500  0.563300  0.281400  1.0  0.096
  H  H13  1  0.962000  0.553400  0.176100  1.0  0.0892
  H  H14  1  0.998400  0.599300  0.846800  1.0  0.1044
  H  H15  1  0.993900  0.668400  0.520800  1.0  0.1207
  H  H16  1  0.961500  0.778100  0.783300  1.0  0.1123
  H  H17  1  0.039400  0.799900  0.602000  1.0  0.0966
  H  H18  1  0.107000  0.763500  0.286500  1.0  0.128
  H  H19  1  0.029700  0.744300  0.473000  1.0  0.1047
  H  H20  1  0.256180  0.189070  0.623800  1.0  0.4631
  H  H21  1  0.392900  0.292300  0.557800  1.0  0.1062
  H  H22  1  0.320300  0.188000  0.214400  1.0  0.1135
  H  H23  1  0.328300  0.122200  0.561500  1.0  0.1042
  H  H24  1  0.376500  0.063300  0.781400  1.0  0.096
  H  H25  1  0.462000  0.053400  0.676100  1.0  0.0892
  H  H26  1  0.498400  0.099300  0.346800  1.0  0.1044
  H  H27  1  0.493900  0.168400  0.020800  1.0  0.1207
  H  H28  1  0.461500  0.278100  0.283300  1.0  0.1123
  H  H29  1  0.539400  0.299900  0.102000  1.0  0.0966
  H  H30  1  0.607000  0.263500  0.786500  1.0  0.128
  H  H31  1  0.529700  0.244300  0.973000  1.0  0.1047
  H  H32  1  0.756180  0.689070  0.123800  1.0  0.4631
  H  H33  1  0.107100  0.207700  0.057800  1.0  0.1062
  H  H34  1  0.179700  0.312000  0.714400  1.0  0.1129
  H  H35  1  0.171700  0.377800  0.061500  1.0  0.1042
  H  H36  1  0.123500  0.436700  0.281400  1.0  0.0956
  H  H37  1  0.038000  0.446600  0.176100  1.0  0.0895
  H  H38  1  0.001600  0.400700  0.846800  1.0  0.1047
  H  H39  1  0.006100  0.331600  0.520800  1.0  0.1208
  H  H40  1  0.038500  0.221900  0.783300  1.0  0.1122
  H  H41  1  0.960600  0.200100  0.602000  1.0  0.0959
  H  H42  1  0.893000  0.236500  0.286500  1.0  0.1278
  H  H43  1  0.970300  0.255700  0.473000  1.0  0.1061
  H  H44  1  0.743820  0.810930  0.623800  1.0  0.4642
  H  H45  1  0.607100  0.707700  0.557800  1.0  0.1062
  H  H46  1  0.679700  0.812000  0.214400  1.0  0.1128
  H  H47  1  0.671700  0.877800  0.561500  1.0  0.1044
  H  H48  1  0.623500  0.936700  0.781400  1.0  0.0956
  H  H49  1  0.538000  0.946600  0.676100  1.0  0.0895
  H  H50  1  0.501600  0.900700  0.346800  1.0  0.1047
  H  H51  1  0.506100  0.831600  0.020800  1.0  0.1208
  H  H52  1  0.538500  0.721900  0.283300  1.0  0.1122
  H  H53  1  0.460600  0.700100  0.102000  1.0  0.0959
  H  H54  1  0.393000  0.736500  0.786500  1.0  0.1278
  H  H55  1  0.470300  0.755700  0.973000  1.0  0.1061
  H  H56  1  0.243820  0.310930  0.123800  1.0  0.4642
  H  H57  1  0.792300  0.107100  0.942200  1.0  0.1051
  H  H58  1  0.688000  0.179700  0.285600  1.0  0.1134
  H  H59  1  0.622200  0.171700  0.938500  1.0  0.1044
  H  H60  1  0.563300  0.123500  0.718600  1.0  0.0964
  H  H61  1  0.553400  0.038000  0.823900  1.0  0.0891
  H  H62  1  0.599300  0.001600  0.153200  1.0  0.105
  H  H63  1  0.668400  0.006100  0.479200  1.0  0.1211
  H  H64  1  0.778100  0.038500  0.216700  1.0  0.1116
  H  H65  1  0.799900  0.960600  0.398000  1.0  0.0977
  H  H66  1  0.763500  0.893000  0.713500  1.0  0.1281
  H  H67  1  0.744300  0.970300  0.527000  1.0  0.1037
  H  H68  1  0.189070  0.743820  0.376200  1.0  0.4623
  H  H69  1  0.292300  0.607100  0.442200  1.0  0.1051
  H  H70  1  0.188000  0.679700  0.785600  1.0  0.1134
  H  H71  1  0.122200  0.671700  0.438500  1.0  0.1041
  H  H72  1  0.063300  0.623500  0.218600  1.0  0.0964
  H  H73  1  0.053400  0.538000  0.323900  1.0  0.0891
  H  H74  1  0.099300  0.501600  0.653200  1.0  0.105
  H  H75  1  0.168400  0.506100  0.979200  1.0  0.1211
  H  H76  1  0.278100  0.538500  0.716700  1.0  0.1116
  H  H77  1  0.299900  0.460600  0.898000  1.0  0.0977
  H  H78  1  0.263500  0.393000  0.213500  1.0  0.1281
  H  H79  1  0.244300  0.470300  0.027000  1.0  0.1037
  H  H80  1  0.689070  0.243820  0.876200  1.0  0.4623
  H  H81  1  0.207700  0.892900  0.942200  1.0  0.1061
  H  H82  1  0.312000  0.820300  0.285600  1.0  0.1135
  H  H83  1  0.377800  0.828300  0.938500  1.0  0.1047
  H  H84  1  0.436700  0.876500  0.718600  1.0  0.0961
  H  H85  1  0.446600  0.962000  0.823900  1.0  0.0888
  H  H86  1  0.400700  0.998400  0.153200  1.0  0.1043
  H  H87  1  0.331600  0.993900  0.479200  1.0  0.1208
  H  H88  1  0.221900  0.961500  0.216700  1.0  0.111
  H  H89  1  0.200100  0.039400  0.398000  1.0  0.0987
  H  H90  1  0.236500  0.107000  0.713500  1.0  0.1283
  H  H91  1  0.255700  0.029700  0.527000  1.0  0.105
  H  H92  1  0.810930  0.256180  0.376200  1.0  0.4634
  H  H93  1  0.707700  0.392900  0.442200  1.0  0.1061
  H  H94  1  0.812000  0.320300  0.785600  1.0  0.1135
  H  H95  1  0.877800  0.328300  0.438500  1.0  0.1044
  H  H96  1  0.936700  0.376500  0.218600  1.0  0.0961
  H  H97  1  0.946600  0.462000  0.323900  1.0  0.0888
  H  H98  1  0.900700  0.498400  0.653200  1.0  0.1043
  H  H99  1  0.831600  0.493900  0.979200  1.0  0.1208
  H  H100  1  0.721900  0.461500  0.716700  1.0  0.111
  H  H101  1  0.700100  0.539400  0.898000  1.0  0.0987
  H  H102  1  0.736500  0.607000  0.213500  1.0  0.1283
  H  H103  1  0.755700  0.529700  0.027000  1.0  0.105
  H  H104  1  0.310930  0.756180  0.876200  1.0  0.4634
  C  C105  1  0.896170  0.766470  0.185000  1.0  0.2137
  C  C106  1  0.877990  0.711560  0.489700  1.0  0.1397
  C  C107  1  0.854860  0.683670  0.676400  1.0  -0.1698
  C  C108  1  0.883840  0.648040  0.811700  1.0  0.0425
  C  C109  1  0.862570  0.618040  0.016000  1.0  -0.1198
  C  C110  1  0.891100  0.583300  0.147400  1.0  -0.0976
  C  C111  1  0.942520  0.577230  0.082800  1.0  -0.0816
  C  C112  1  0.964290  0.604830  0.890600  1.0  -0.1308
  C  C113  1  0.936270  0.642280  0.753200  1.0  0.0511
  C  C114  1  0.959410  0.672070  0.561500  1.0  -0.1873
  C  C115  1  0.930020  0.706940  0.434500  1.0  0.0535
  C  C116  1  0.988110  0.757490  0.137600  1.0  0.1203
  C  C117  1  0.080220  0.785280  0.939100  1.0  -0.1097
  C  C118  1  0.129660  0.800230  0.821500  1.0  0.6019
  C  C119  1  0.991000  0.775100  0.885900  1.0  -0.2162
  C  C120  1  0.037000  0.788600  0.778700  1.0  -0.0356
  C  C121  1  0.077300  0.767400  0.186000  1.0  -0.0267
  C  C122  1  0.031800  0.754700  0.295000  1.0  -0.1629
  C  C123  1  0.396170  0.266470  0.685000  1.0  0.2137
  C  C124  1  0.377990  0.211560  0.989700  1.0  0.1397
  C  C125  1  0.354860  0.183670  0.176400  1.0  -0.1698
  C  C126  1  0.383840  0.148040  0.311700  1.0  0.0425
  C  C127  1  0.362570  0.118040  0.516000  1.0  -0.1198
  C  C128  1  0.391100  0.083300  0.647400  1.0  -0.0976
  C  C129  1  0.442520  0.077230  0.582800  1.0  -0.0816
  C  C130  1  0.464290  0.104830  0.390600  1.0  -0.1308
  C  C131  1  0.436270  0.142280  0.253200  1.0  0.0511
  C  C132  1  0.459410  0.172070  0.061500  1.0  -0.1873
  C  C133  1  0.430020  0.206940  0.934500  1.0  0.0535
  C  C134  1  0.488110  0.257490  0.637600  1.0  0.1203
  C  C135  1  0.580220  0.285280  0.439100  1.0  -0.1097
  C  C136  1  0.629660  0.300230  0.321500  1.0  0.6019
  C  C137  1  0.491000  0.275100  0.385900  1.0  -0.2162
  C  C138  1  0.537000  0.288600  0.278700  1.0  -0.0356
  C  C139  1  0.577300  0.267400  0.686000  1.0  -0.0267
  C  C140  1  0.531800  0.254700  0.795000  1.0  -0.1629
  C  C141  1  0.103830  0.233530  0.185000  1.0  0.2127
  C  C142  1  0.122010  0.288440  0.489700  1.0  0.1386
  C  C143  1  0.145140  0.316330  0.676400  1.0  -0.171
  C  C144  1  0.116160  0.351960  0.811700  1.0  0.0424
  C  C145  1  0.137430  0.381960  0.016000  1.0  -0.1227
  C  C146  1  0.108900  0.416700  0.147400  1.0  -0.0981
  C  C147  1  0.057480  0.422770  0.082800  1.0  -0.0816
  C  C148  1  0.035710  0.395170  0.890600  1.0  -0.1289
  C  C149  1  0.063730  0.357720  0.753200  1.0  0.0508
  C  C150  1  0.040590  0.327930  0.561500  1.0  -0.1884
  C  C151  1  0.069980  0.293060  0.434500  1.0  0.0532
  C  C152  1  0.011890  0.242510  0.137600  1.0  0.1212
  C  C153  1  0.919780  0.214720  0.939100  1.0  -0.1102
  C  C154  1  0.870340  0.199770  0.821500  1.0  0.6019
  C  C155  1  0.009000  0.224900  0.885900  1.0  -0.2186
  C  C156  1  0.963000  0.211400  0.778700  1.0  -0.039
  C  C157  1  0.922700  0.232600  0.186000  1.0  -0.0242
  C  C158  1  0.968200  0.245300  0.295000  1.0  -0.1647
  C  C159  1  0.603830  0.733530  0.685000  1.0  0.2127
  C  C160  1  0.622010  0.788440  0.989700  1.0  0.1386
  C  C161  1  0.645140  0.816330  0.176400  1.0  -0.171
  C  C162  1  0.616160  0.851960  0.311700  1.0  0.0424
  C  C163  1  0.637430  0.881960  0.516000  1.0  -0.1227
  C  C164  1  0.608900  0.916700  0.647400  1.0  -0.0981
  C  C165  1  0.557480  0.922770  0.582800  1.0  -0.0816
  C  C166  1  0.535710  0.895170  0.390600  1.0  -0.1289
  C  C167  1  0.563730  0.857720  0.253200  1.0  0.0508
  C  C168  1  0.540590  0.827930  0.061500  1.0  -0.1884
  C  C169  1  0.569980  0.793060  0.934500  1.0  0.0532
  C  C170  1  0.511890  0.742510  0.637600  1.0  0.1212
  C  C171  1  0.419780  0.714720  0.439100  1.0  -0.1102
  C  C172  1  0.370340  0.699770  0.321500  1.0  0.6019
  C  C173  1  0.509000  0.724900  0.385900  1.0  -0.2186
  C  C174  1  0.463000  0.711400  0.278700  1.0  -0.039
  C  C175  1  0.422700  0.732600  0.686000  1.0  -0.0242
  C  C176  1  0.468200  0.745300  0.795000  1.0  -0.1647
  C  C177  1  0.766470  0.103830  0.815000  1.0  0.2124
  C  C178  1  0.711560  0.122010  0.510300  1.0  0.1398
  C  C179  1  0.683670  0.145140  0.323600  1.0  -0.1722
  C  C180  1  0.648040  0.116160  0.188300  1.0  0.0429
  C  C181  1  0.618040  0.137430  0.984000  1.0  -0.1209
  C  C182  1  0.583300  0.108900  0.852600  1.0  -0.0992
  C  C183  1  0.577230  0.057480  0.917200  1.0  -0.0819
  C  C184  1  0.604830  0.035710  0.109400  1.0  -0.1296
  C  C185  1  0.642280  0.063730  0.246800  1.0  0.0502
  C  C186  1  0.672070  0.040590  0.438500  1.0  -0.1904
  C  C187  1  0.706940  0.069980  0.565500  1.0  0.053
  C  C188  1  0.757490  0.011890  0.862400  1.0  0.1226
  C  C189  1  0.785280  0.919780  0.060900  1.0  -0.1092
  C  C190  1  0.800230  0.870340  0.178500  1.0  0.6032
  C  C191  1  0.775100  0.009000  0.114100  1.0  -0.214
  C  C192  1  0.788600  0.963000  0.221300  1.0  -0.0395
  C  C193  1  0.767400  0.922700  0.814000  1.0  -0.0242
  C  C194  1  0.754700  0.968200  0.705000  1.0  -0.162
  C  C195  1  0.266470  0.603830  0.315000  1.0  0.2124
  C  C196  1  0.211560  0.622010  0.010300  1.0  0.1398
  C  C197  1  0.183670  0.645140  0.823600  1.0  -0.1722
  C  C198  1  0.148040  0.616160  0.688300  1.0  0.0429
  C  C199  1  0.118040  0.637430  0.484000  1.0  -0.1209
  C  C200  1  0.083300  0.608900  0.352600  1.0  -0.0992
  C  C201  1  0.077230  0.557480  0.417200  1.0  -0.0819
  C  C202  1  0.104830  0.535710  0.609400  1.0  -0.1296
  C  C203  1  0.142280  0.563730  0.746800  1.0  0.0502
  C  C204  1  0.172070  0.540590  0.938500  1.0  -0.1904
  C  C205  1  0.206940  0.569980  0.065500  1.0  0.053
  C  C206  1  0.257490  0.511890  0.362400  1.0  0.1226
  C  C207  1  0.285280  0.419780  0.560900  1.0  -0.1092
  C  C208  1  0.300230  0.370340  0.678500  1.0  0.6032
  C  C209  1  0.275100  0.509000  0.614100  1.0  -0.214
  C  C210  1  0.288600  0.463000  0.721300  1.0  -0.0395
  C  C211  1  0.267400  0.422700  0.314000  1.0  -0.0242
  C  C212  1  0.254700  0.468200  0.205000  1.0  -0.162
  C  C213  1  0.233530  0.896170  0.815000  1.0  0.2131
  C  C214  1  0.288440  0.877990  0.510300  1.0  0.1404
  C  C215  1  0.316330  0.854860  0.323600  1.0  -0.1707
  C  C216  1  0.351960  0.883840  0.188300  1.0  0.0432
  C  C217  1  0.381960  0.862570  0.984000  1.0  -0.121
  C  C218  1  0.416700  0.891100  0.852600  1.0  -0.0995
  C  C219  1  0.422770  0.942520  0.917200  1.0  -0.0828
  C  C220  1  0.395170  0.964290  0.109400  1.0  -0.13
  C  C221  1  0.357720  0.936270  0.246800  1.0  0.0498
  C  C222  1  0.327930  0.959410  0.438500  1.0  -0.1896
  C  C223  1  0.293060  0.930020  0.565500  1.0  0.0529
  C  C224  1  0.242510  0.988110  0.862400  1.0  0.1211
  C  C225  1  0.214720  0.080220  0.060900  1.0  -0.1088
  C  C226  1  0.199770  0.129660  0.178500  1.0  0.6013
  C  C227  1  0.224900  0.991000  0.114100  1.0  -0.2153
  C  C228  1  0.211400  0.037000  0.221300  1.0  -0.0414
  C  C229  1  0.232600  0.077300  0.814000  1.0  -0.0258
  C  C230  1  0.245300  0.031800  0.705000  1.0  -0.1632
  C  C231  1  0.733530  0.396170  0.315000  1.0  0.2131
  C  C232  1  0.788440  0.377990  0.010300  1.0  0.1404
  C  C233  1  0.816330  0.354860  0.823600  1.0  -0.1707
  C  C234  1  0.851960  0.383840  0.688300  1.0  0.0432
  C  C235  1  0.881960  0.362570  0.484000  1.0  -0.121
  C  C236  1  0.916700  0.391100  0.352600  1.0  -0.0995
  C  C237  1  0.922770  0.442520  0.417200  1.0  -0.0828
  C  C238  1  0.895170  0.464290  0.609400  1.0  -0.13
  C  C239  1  0.857720  0.436270  0.746800  1.0  0.0498
  C  C240  1  0.827930  0.459410  0.938500  1.0  -0.1896
  C  C241  1  0.793060  0.430020  0.065500  1.0  0.0529
  C  C242  1  0.742510  0.488110  0.362400  1.0  0.1211
  C  C243  1  0.714720  0.580220  0.560900  1.0  -0.1088
  C  C244  1  0.699770  0.629660  0.678500  1.0  0.6013
  C  C245  1  0.724900  0.491000  0.614100  1.0  -0.2153
  C  C246  1  0.711400  0.537000  0.721300  1.0  -0.0414
  C  C247  1  0.732600  0.577300  0.314000  1.0  -0.0258
  C  C248  1  0.745300  0.531800  0.205000  1.0  -0.1632
  N  N249  1  0.858440  0.749120  0.324600  1.0  -0.4209
  N  N250  1  0.940120  0.743500  0.242300  1.0  -0.0338
  N  N251  1  0.358440  0.249120  0.824600  1.0  -0.4209
  N  N252  1  0.440120  0.243500  0.742300  1.0  -0.0338
  N  N253  1  0.141560  0.250880  0.324600  1.0  -0.4194
  N  N254  1  0.059880  0.256500  0.242300  1.0  -0.0338
  N  N255  1  0.641560  0.750880  0.824600  1.0  -0.4194
  N  N256  1  0.559880  0.756500  0.742300  1.0  -0.0338
  N  N257  1  0.749120  0.141560  0.675400  1.0  -0.4178
  N  N258  1  0.743500  0.059880  0.757700  1.0  -0.0336
  N  N259  1  0.249120  0.641560  0.175400  1.0  -0.4178
  N  N260  1  0.243500  0.559880  0.257700  1.0  -0.0336
  N  N261  1  0.250880  0.858440  0.675400  1.0  -0.4149
  N  N262  1  0.256500  0.940120  0.757700  1.0  -0.0354
  N  N263  1  0.750880  0.358440  0.175400  1.0  -0.4149
  N  N264  1  0.756500  0.440120  0.257700  1.0  -0.0354
  O  O265  1  0.748690  0.719020  0.123800  1.0  -0.8973
  O  O266  1  0.168220  0.780260  0.916700  1.0  -0.5749
  O  O267  1  0.129800  0.816500  0.580200  1.0  -0.5948
  O  O268  1  0.248690  0.219020  0.623800  1.0  -0.8973
  O  O269  1  0.668220  0.280260  0.416700  1.0  -0.5749
  O  O270  1  0.629800  0.316500  0.080200  1.0  -0.5948
  O  O271  1  0.251310  0.280980  0.123800  1.0  -0.8991
  O  O272  1  0.831780  0.219740  0.916700  1.0  -0.574
  O  O273  1  0.870200  0.183500  0.580200  1.0  -0.5937
  O  O274  1  0.751310  0.780980  0.623800  1.0  -0.8991
  O  O275  1  0.331780  0.719740  0.416700  1.0  -0.574
  O  O276  1  0.370200  0.683500  0.080200  1.0  -0.5937
  O  O277  1  0.719020  0.251310  0.876200  1.0  -0.8951
  O  O278  1  0.780260  0.831780  0.083300  1.0  -0.5751
  O  O279  1  0.816500  0.870200  0.419800  1.0  -0.5907
  O  O280  1  0.219020  0.751310  0.376200  1.0  -0.8951
  O  O281  1  0.280260  0.331780  0.583300  1.0  -0.5751
  O  O282  1  0.316500  0.370200  0.919800  1.0  -0.5907
  O  O283  1  0.280980  0.748690  0.876200  1.0  -0.896
  O  O284  1  0.219740  0.168220  0.083300  1.0  -0.5754
  O  O285  1  0.183500  0.129800  0.419800  1.0  -0.5888
  O  O286  1  0.780980  0.248690  0.376200  1.0  -0.896
  O  O287  1  0.719740  0.668220  0.583300  1.0  -0.5754
  O  O288  1  0.683500  0.629800  0.919800  1.0  -0.5888
