# generated using pymatgen
data_ZnH12C18N2O3
_symmetry_space_group_name_H-M   'P 1'
_cell_length_a   5.39600000
_cell_length_b   18.71590000
_cell_length_c   18.71590000
_cell_angle_alpha   88.80930000
_cell_angle_beta   81.71190000
_cell_angle_gamma   81.71160000
_symmetry_Int_Tables_number   1
_chemical_formula_structural   ZnH12C18N2O3
_chemical_formula_sum   'Zn4 H48 C72 N8 O12'
_cell_volume   1850.86002232
_cell_formula_units_Z   4
loop_
 _symmetry_equiv_pos_site_id
 _symmetry_equiv_pos_as_xyz
  1  'x, y, z'
loop_
 _atom_site_type_symbol
 _atom_site_label
 _atom_site_symmetry_multiplicity
 _atom_site_fract_x
 _atom_site_fract_y
 _atom_site_fract_z
 _atom_site_occupancy
 _atom_site_charge
  Zn  Zn1  1  0.661260  0.942310  0.488650  1.0  0.9784
  Zn  Zn2  1  0.092220  0.057690  0.511350  1.0  0.9424
  Zn  Zn3  1  0.850090  0.488650  0.057690  1.0  0.9865
  Zn  Zn4  1  0.396430  0.511350  0.942310  1.0  1.0252
  H  H5  1  0.744700  0.845400  0.166400  1.0  0.1089
  H  H6  1  0.423300  0.905300  0.092900  1.0  0.0986
  H  H7  1  0.003700  0.042400  0.293800  1.0  0.1039
  H  H8  1  0.195800  0.651000  0.129000  1.0  0.0923
  H  H9  1  0.659000  0.667500  0.276900  1.0  0.0999
  H  H10  1  0.040000  0.816600  0.401200  1.0  0.1008
  H  H11  1  0.845600  0.052600  0.184400  1.0  0.0993
  H  H12  1  0.328600  0.987700  0.368100  1.0  0.1166
  H  H13  1  0.907200  0.745200  0.184400  1.0  0.1075
  H  H14  1  0.379900  0.765500  0.330300  1.0  0.1166
  H  H15  1  0.060900  0.984700  0.083500  1.0  0.095
  H  H16  1  0.756500  0.154600  0.833600  1.0  0.1089
  H  H17  1  0.421500  0.094700  0.907100  1.0  0.0993
  H  H18  1  0.339900  0.957600  0.706200  1.0  0.104
  H  H19  1  0.975800  0.349000  0.871000  1.0  0.0891
  H  H20  1  0.603400  0.332500  0.723100  1.0  0.1004
  H  H21  1  0.257800  0.183400  0.598800  1.0  0.0931
  H  H22  1  0.082600  0.947400  0.815600  1.0  0.0995
  H  H23  1  0.684400  0.012300  0.631900  1.0  0.1174
  H  H24  1  0.836800  0.254800  0.815600  1.0  0.1074
  H  H25  1  0.475700  0.234500  0.669700  1.0  0.115
  H  H26  1  0.129100  0.015300  0.916500  1.0  0.0936
  H  H27  1  0.088900  0.166400  0.154600  1.0  0.1094
  H  H28  1  0.483800  0.092900  0.094700  1.0  0.0992
  H  H29  1  0.702500  0.293800  0.957600  1.0  0.1005
  H  H30  1  0.675200  0.129000  0.349000  1.0  0.0872
  H  H31  1  0.064100  0.276900  0.332500  1.0  0.1013
  H  H32  1  0.558800  0.401200  0.183400  1.0  0.1017
  H  H33  1  0.970000  0.184400  0.947400  1.0  0.1006
  H  H34  1  0.303300  0.368100  0.012300  1.0  0.1177
  H  H35  1  0.908400  0.184400  0.254800  1.0  0.1083
  H  H36  1  0.289800  0.330300  0.234500  1.0  0.1165
  H  H37  1  0.855600  0.083500  0.015300  1.0  0.0943
  H  H38  1  0.409900  0.833600  0.845400  1.0  0.1087
  H  H39  1  0.671400  0.907100  0.905300  1.0  0.0992
  H  H40  1  0.953900  0.706200  0.042400  1.0  0.1021
  H  H41  1  0.153200  0.871000  0.651000  1.0  0.084
  H  H42  1  0.673500  0.723100  0.667500  1.0  0.1
  H  H43  1  0.143400  0.598800  0.816600  1.0  0.1077
  H  H44  1  0.101800  0.815600  0.052600  1.0  0.1001
  H  H45  1  0.683700  0.631900  0.987700  1.0  0.1169
  H  H46  1  0.347600  0.815600  0.745200  1.0  0.1073
  H  H47  1  0.854600  0.669700  0.765500  1.0  0.1163
  H  H48  1  0.954400  0.916500  0.984700  1.0  0.0943
  H  H49  1  0.728260  0.425460  0.966690  1.0  0.3432
  H  H50  1  0.641470  0.083340  0.484170  1.0  0.1139
  H  H51  1  0.230470  0.925910  0.525070  1.0  0.3545
  H  H52  1  0.172740  0.574540  0.033310  1.0  0.2651
  C  C53  1  0.113230  0.763280  0.264060  1.0  0.1354
  C  C54  1  0.658400  0.873210  0.206790  1.0  -0.1853
  C  C55  1  0.631760  0.585230  0.164450  1.0  0.6592
  C  C56  1  0.741780  0.865450  0.272790  1.0  0.063
  C  C57  1  0.441810  0.923330  0.200450  1.0  0.04
  C  C58  1  0.339990  0.932420  0.134000  1.0  -0.1299
  C  C59  1  0.089870  0.014300  0.253560  1.0  -0.1261
  C  C60  1  0.619230  0.909280  0.332260  1.0  0.1514
  C  C61  1  0.313880  0.966150  0.261090  1.0  0.0332
  C  C62  1  0.230940  0.672820  0.171100  1.0  -0.019
  C  C63  1  0.449740  0.647580  0.198540  1.0  -0.1367
  C  C64  1  0.505740  0.683120  0.258200  1.0  -0.0211
  C  C65  1  0.926480  0.839330  0.370510  1.0  0.2145
  C  C66  1  0.996370  0.020620  0.188640  1.0  -0.0954
  C  C67  1  0.408390  0.958960  0.327660  1.0  -0.1766
  C  C68  1  0.059840  0.729500  0.203420  1.0  -0.1839
  C  C69  1  0.338880  0.741220  0.290420  1.0  -0.2074
  C  C70  1  0.124780  0.979510  0.128330  1.0  -0.0889
  C  C71  1  0.140570  0.236720  0.735940  1.0  0.1346
  C  C72  1  0.738400  0.126790  0.793210  1.0  -0.1862
  C  C73  1  0.381440  0.414770  0.835550  1.0  0.6739
  C  C74  1  0.880020  0.134550  0.727210  1.0  0.0626
  C  C75  1  0.565590  0.076670  0.799550  1.0  0.0376
  C  C76  1  0.406410  0.067580  0.866000  1.0  -0.1278
  C  C77  1  0.357730  0.985700  0.746440  1.0  -0.1273
  C  C78  1  0.860770  0.090720  0.667740  1.0  0.1496
  C  C79  1  0.541120  0.033850  0.738910  1.0  0.0339
  C  C80  1  0.074860  0.327180  0.828900  1.0  -0.0033
  C  C81  1  0.295860  0.352420  0.801460  1.0  -0.1372
  C  C82  1  0.447060  0.316880  0.741800  1.0  -0.0242
  C  C83  1  0.136320  0.160670  0.629490  1.0  0.2119
  C  C84  1  0.205630  0.979380  0.811360  1.0  -0.0946
  C  C85  1  0.695010  0.041040  0.672340  1.0  -0.1721
  C  C86  1  0.992760  0.270500  0.796580  1.0  -0.1845
  C  C87  1  0.370520  0.258780  0.709580  1.0  -0.2034
  C  C88  1  0.232620  0.020490  0.871670  1.0  -0.0877
  C  C89  1  0.622710  0.264060  0.236720  1.0  0.1353
  C  C90  1  0.134810  0.206790  0.126790  1.0  -0.1851
  C  C91  1  0.203790  0.164450  0.414770  1.0  0.6748
  C  C92  1  0.985430  0.272790  0.134550  1.0  0.0619
  C  C93  1  0.357740  0.200450  0.076670  1.0  0.0366
  C  C94  1  0.526010  0.134000  0.067580  1.0  -0.1298
  C  C95  1  0.656570  0.253560  0.985700  1.0  -0.1337
  C  C96  1  0.048510  0.332260  0.090720  1.0  0.1478
  C  C97  1  0.425030  0.261090  0.033850  1.0  0.0306
  C  C98  1  0.597960  0.171100  0.327180  1.0  -0.005
  C  C99  1  0.351720  0.198540  0.352420  1.0  -0.134
  C  C100  1  0.236060  0.258200  0.316880  1.0  -0.0228
  C  C101  1  0.703010  0.370510  0.160670  1.0  0.207
  C  C102  1  0.814990  0.188640  0.979380  1.0  -0.0947
  C  C103  1  0.263950  0.327660  0.041040  1.0  -0.1284
  C  C104  1  0.736740  0.203420  0.270500  1.0  -0.1808
  C  C105  1  0.370700  0.290420  0.258780  1.0  -0.2083
  C  C106  1  0.746890  0.128330  0.020490  1.0  -0.0883
  C  C107  1  0.123490  0.735940  0.763280  1.0  0.135
  C  C108  1  0.468390  0.793210  0.873210  1.0  -0.1866
  C  C109  1  0.783010  0.835550  0.585230  1.0  0.6807
  C  C110  1  0.392770  0.727210  0.865450  1.0  0.062
  C  C111  1  0.634860  0.799550  0.923330  1.0  0.0366
  C  C112  1  0.727590  0.866000  0.932420  1.0  -0.1275
  C  C113  1  0.895830  0.746440  0.014300  1.0  -0.1324
  C  C114  1  0.471490  0.667740  0.909280  1.0  0.1554
  C  C115  1  0.719970  0.738910  0.966150  1.0  0.0305
  C  C116  1  0.096240  0.828900  0.672820  1.0  -0.0037
  C  C117  1  0.902680  0.801460  0.647580  1.0  -0.1344
  C  C118  1  0.811140  0.741800  0.683120  1.0  -0.0219
  C  C119  1  0.234190  0.629490  0.839330  1.0  0.2069
  C  C120  1  0.983010  0.811360  0.020620  1.0  -0.0956
  C  C121  1  0.632650  0.672340  0.958960  1.0  -0.1558
  C  C122  1  0.210660  0.796580  0.729500  1.0  -0.1833
  C  C123  1  0.919900  0.709580  0.741220  1.0  -0.2074
  C  C124  1  0.895710  0.871670  0.979510  1.0  -0.0878
  N  N125  1  0.743330  0.891150  0.391990  1.0  -0.4236
  N  N126  1  0.939440  0.820750  0.299570  1.0  -0.0377
  N  N127  1  0.026470  0.108850  0.608010  1.0  -0.4166
  N  N128  1  0.059760  0.179250  0.700430  1.0  -0.0395
  N  N129  1  0.864680  0.391990  0.108850  1.0  -0.4213
  N  N130  1  0.760990  0.299570  0.179250  1.0  -0.0388
  N  N131  1  0.365520  0.608010  0.891150  1.0  -0.4099
  N  N132  1  0.239810  0.700430  0.820750  1.0  -0.0397
  O  O133  1  0.306160  0.965580  0.521100  1.0  -0.8728
  O  O134  1  0.577270  0.558940  0.107720  1.0  -0.5957
  O  O135  1  0.825380  0.564570  0.192070  1.0  -0.5672
  O  O136  1  0.792840  0.034420  0.478900  1.0  -0.6425
  O  O137  1  0.243930  0.441060  0.892280  1.0  -0.6026
  O  O138  1  0.582020  0.435430  0.807930  1.0  -0.5721
  O  O139  1  0.172740  0.521100  0.034420  1.0  -0.6628
  O  O140  1  0.315010  0.107720  0.441060  1.0  -0.6046
  O  O141  1  0.982550  0.192070  0.435430  1.0  -0.575
  O  O142  1  0.728260  0.478900  0.965580  1.0  -0.7039
  O  O143  1  0.863790  0.892280  0.558940  1.0  -0.5907
  O  O144  1  0.610050  0.807930  0.564570  1.0  -0.5687
