# generated using pymatgen
data_CdHgC4(SN)4
_symmetry_space_group_name_H-M   'P 1'
_cell_length_a   14.82900000
_cell_length_b   16.14650000
_cell_length_c   19.28200000
_cell_angle_alpha   90.00000000
_cell_angle_beta   91.27000000
_cell_angle_gamma   90.00000000
_symmetry_Int_Tables_number   1
_chemical_formula_structural   CdHgC4(SN)4
_chemical_formula_sum   'Cd8 Hg8 C32 S32 N32'
_cell_volume   4615.67948590
_cell_formula_units_Z   8
loop_
 _symmetry_equiv_pos_site_id
 _symmetry_equiv_pos_as_xyz
  1  'x, y, z'
loop_
 _atom_site_type_symbol
 _atom_site_label
 _atom_site_symmetry_multiplicity
 _atom_site_fract_x
 _atom_site_fract_y
 _atom_site_fract_z
 _atom_site_occupancy
 _atom_site_charge
  Cd  Cd1  1  0.770570  0.374560  0.435070  1.0  0.9704
  Cd  Cd2  1  0.729070  0.631490  0.939370  1.0  1.0217
  Cd  Cd3  1  0.229430  0.874560  0.064930  1.0  0.9618
  Cd  Cd4  1  0.270930  0.131490  0.560630  1.0  1.0223
  Cd  Cd5  1  0.229430  0.625440  0.564930  1.0  0.9628
  Cd  Cd6  1  0.270930  0.368510  0.060630  1.0  1.0234
  Cd  Cd7  1  0.770570  0.125440  0.935070  1.0  0.9705
  Cd  Cd8  1  0.729070  0.868510  0.439370  1.0  1.0221
  Hg  Hg9  1  0.630730  0.622280  0.653650  1.0  0.4611
  Hg  Hg10  1  0.879730  0.378790  0.153940  1.0  0.4654
  Hg  Hg11  1  0.369270  0.122280  0.846350  1.0  0.4614
  Hg  Hg12  1  0.120270  0.878790  0.346060  1.0  0.4651
  Hg  Hg13  1  0.369270  0.377720  0.346350  1.0  0.4607
  Hg  Hg14  1  0.120270  0.621210  0.846060  1.0  0.4656
  Hg  Hg15  1  0.630730  0.877720  0.153650  1.0  0.4609
  Hg  Hg16  1  0.879730  0.121210  0.653940  1.0  0.4652
  C  C17  1  0.762700  0.273700  0.590700  1.0  0.315
  C  C18  1  0.640300  0.528200  0.509000  1.0  0.3478
  C  C19  1  0.422700  0.675000  0.659500  1.0  0.3635
  C  C20  1  0.798900  0.472100  0.278900  1.0  0.3937
  C  C21  1  0.689600  0.523900  0.790000  1.0  0.3697
  C  C22  1  0.909400  0.657000  0.831700  1.0  0.3133
  C  C23  1  0.863500  0.479100  0.011600  1.0  0.331
  C  C24  1  0.762500  0.754700  0.585000  1.0  0.3439
  C  C25  1  0.237300  0.773700  0.909300  1.0  0.3167
  C  C26  1  0.359700  0.028200  0.991000  1.0  0.35
  C  C27  1  0.577300  0.175000  0.840500  1.0  0.363
  C  C28  1  0.201100  0.972100  0.221100  1.0  0.3935
  C  C29  1  0.310400  0.023900  0.710000  1.0  0.3696
  C  C30  1  0.090600  0.157000  0.668300  1.0  0.3136
  C  C31  1  0.136500  0.979100  0.488400  1.0  0.3312
  C  C32  1  0.237500  0.254700  0.915000  1.0  0.344
  C  C33  1  0.237300  0.726300  0.409300  1.0  0.3173
  C  C34  1  0.359700  0.471800  0.491000  1.0  0.3499
  C  C35  1  0.577300  0.325000  0.340500  1.0  0.3635
  C  C36  1  0.201100  0.527900  0.721100  1.0  0.3936
  C  C37  1  0.310400  0.476100  0.210000  1.0  0.3696
  C  C38  1  0.090600  0.343000  0.168300  1.0  0.3136
  C  C39  1  0.136500  0.520900  0.988400  1.0  0.33
  C  C40  1  0.237500  0.245300  0.415000  1.0  0.3426
  C  C41  1  0.762700  0.226300  0.090700  1.0  0.3154
  C  C42  1  0.640300  0.971800  0.009000  1.0  0.3483
  C  C43  1  0.422700  0.825000  0.159500  1.0  0.3641
  C  C44  1  0.798900  0.027900  0.778900  1.0  0.3938
  C  C45  1  0.689600  0.976100  0.290000  1.0  0.3701
  C  C46  1  0.909400  0.843000  0.331700  1.0  0.3133
  C  C47  1  0.863500  0.020900  0.511600  1.0  0.3305
  C  C48  1  0.762500  0.745300  0.085000  1.0  0.3441
  S  S49  1  0.764500  0.717500  0.663800  1.0  -0.2097
  S  S50  1  0.685100  0.487700  0.710450  1.0  -0.2177
  S  S51  1  0.500600  0.685600  0.719870  1.0  -0.2028
  S  S52  1  0.566300  0.593500  0.535920  1.0  -0.196
  S  S53  1  0.932700  0.403100  0.033570  1.0  -0.2148
  S  S54  1  0.982700  0.649700  0.769050  1.0  -0.219
  S  S55  1  0.804300  0.509900  0.200200  1.0  -0.2347
  S  S56  1  0.770700  0.239400  0.670500  1.0  -0.2294
  S  S57  1  0.235500  0.217500  0.836200  1.0  -0.2084
  S  S58  1  0.314900  0.987700  0.789550  1.0  -0.2179
  S  S59  1  0.499400  0.185600  0.780130  1.0  -0.2031
  S  S60  1  0.433700  0.093500  0.964080  1.0  -0.1942
  S  S61  1  0.067300  0.903100  0.466430  1.0  -0.2151
  S  S62  1  0.017300  0.149700  0.730950  1.0  -0.2208
  S  S63  1  0.195700  0.009900  0.299800  1.0  -0.2377
  S  S64  1  0.229300  0.739400  0.829500  1.0  -0.2304
  S  S65  1  0.235500  0.282500  0.336200  1.0  -0.2088
  S  S66  1  0.314900  0.512300  0.289550  1.0  -0.217
  S  S67  1  0.499400  0.314400  0.280130  1.0  -0.2033
  S  S68  1  0.433700  0.406500  0.464080  1.0  -0.1944
  S  S69  1  0.067300  0.596900  0.966430  1.0  -0.2144
  S  S70  1  0.017300  0.350300  0.230950  1.0  -0.221
  S  S71  1  0.195700  0.490100  0.799800  1.0  -0.2377
  S  S72  1  0.229300  0.760600  0.329500  1.0  -0.2312
  S  S73  1  0.764500  0.782500  0.163800  1.0  -0.2104
  S  S74  1  0.685100  0.012300  0.210450  1.0  -0.2174
  S  S75  1  0.500600  0.814400  0.219870  1.0  -0.2029
  S  S76  1  0.566300  0.906500  0.035920  1.0  -0.1964
  S  S77  1  0.932700  0.096900  0.533570  1.0  -0.2145
  S  S78  1  0.982700  0.850300  0.269050  1.0  -0.2194
  S  S79  1  0.804300  0.990100  0.700200  1.0  -0.2355
  S  S80  1  0.770700  0.260600  0.170500  1.0  -0.2305
  N  N81  1  0.754200  0.295000  0.534700  1.0  -0.4602
  N  N82  1  0.688300  0.480300  0.487300  1.0  -0.4963
  N  N83  1  0.367500  0.664900  0.618600  1.0  -0.4272
  N  N84  1  0.793400  0.448100  0.334400  1.0  -0.5172
  N  N85  1  0.690200  0.549600  0.845300  1.0  -0.596
  N  N86  1  0.853900  0.661900  0.872600  1.0  -0.5442
  N  N87  1  0.818300  0.532700  0.992900  1.0  -0.469
  N  N88  1  0.761300  0.780100  0.530700  1.0  -0.4555
  N  N89  1  0.245800  0.795000  0.965300  1.0  -0.4587
  N  N90  1  0.311700  0.980300  0.012700  1.0  -0.4966
  N  N91  1  0.632500  0.164900  0.881400  1.0  -0.4294
  N  N92  1  0.206600  0.948100  0.165600  1.0  -0.5195
  N  N93  1  0.309800  0.049600  0.654700  1.0  -0.5964
  N  N94  1  0.146100  0.161900  0.627400  1.0  -0.5391
  N  N95  1  0.181700  0.032700  0.507100  1.0  -0.4694
  N  N96  1  0.238700  0.280100  0.969300  1.0  -0.4571
  N  N97  1  0.245800  0.705000  0.465300  1.0  -0.4601
  N  N98  1  0.311700  0.519700  0.512700  1.0  -0.497
  N  N99  1  0.632500  0.335100  0.381400  1.0  -0.4325
  N  N100  1  0.206600  0.551900  0.665600  1.0  -0.5198
  N  N101  1  0.309800  0.450400  0.154700  1.0  -0.596
  N  N102  1  0.146100  0.338100  0.127400  1.0  -0.5411
  N  N103  1  0.181700  0.467300  0.007100  1.0  -0.4688
  N  N104  1  0.238700  0.219900  0.469300  1.0  -0.4579
  N  N105  1  0.754200  0.205000  0.034700  1.0  -0.4607
  N  N106  1  0.688300  0.019700  0.987300  1.0  -0.497
  N  N107  1  0.367500  0.835100  0.118600  1.0  -0.4297
  N  N108  1  0.793400  0.051900  0.834400  1.0  -0.5171
  N  N109  1  0.690200  0.950400  0.345300  1.0  -0.5957
  N  N110  1  0.853900  0.838100  0.372600  1.0  -0.5432
  N  N111  1  0.818300  0.967300  0.492900  1.0  -0.4682
  N  N112  1  0.761300  0.719900  0.030700  1.0  -0.4563
