# generated using pymatgen
data_CeZr(CO2)8
_symmetry_space_group_name_H-M   'P 1'
_cell_length_a   9.10340000
_cell_length_b   9.10340000
_cell_length_c   25.47080000
_cell_angle_alpha   90.00000000
_cell_angle_beta   90.00000000
_cell_angle_gamma   120.00000000
_symmetry_Int_Tables_number   1
_chemical_formula_structural   CeZr(CO2)8
_chemical_formula_sum   'Ce3 Zr3 C24 O48'
_cell_volume   1828.01800587
_cell_formula_units_Z   3
loop_
 _symmetry_equiv_pos_site_id
 _symmetry_equiv_pos_as_xyz
  1  'x, y, z'
loop_
 _atom_site_type_symbol
 _atom_site_label
 _atom_site_symmetry_multiplicity
 _atom_site_fract_x
 _atom_site_fract_y
 _atom_site_fract_z
 _atom_site_occupancy
 _atom_site_charge
  Ce  Ce1  1  0.500130  0.500130  0.333333  1.0  2.2009
  Ce  Ce2  1  0.000000  0.499870  0.666667  1.0  2.2005
  Ce  Ce3  1  0.499870  0.000000  0.000000  1.0  2.2001
  Zr  Zr4  1  0.999940  0.000000  0.500000  1.0  2.0163
  Zr  Zr5  1  0.000060  0.000060  0.833330  1.0  2.0154
  Zr  Zr6  1  0.000000  0.999940  0.166670  1.0  2.0162
  C  C7  1  0.154400  0.241000  0.408400  1.0  0.5482
  C  C8  1  0.304400  0.235500  0.433800  1.0  0.5919
  C  C9  1  0.698100  0.767600  0.433400  1.0  0.5742
  C  C10  1  0.844800  0.753700  0.409500  1.0  0.5429
  C  C11  1  0.086600  0.845600  0.741730  1.0  0.548
  C  C12  1  0.931100  0.695600  0.767130  1.0  0.592
  C  C13  1  0.069500  0.301900  0.766730  1.0  0.5707
  C  C14  1  0.908900  0.155200  0.742830  1.0  0.5445
  C  C15  1  0.759000  0.913400  0.075070  1.0  0.5468
  C  C16  1  0.764500  0.068900  0.100470  1.0  0.5905
  C  C17  1  0.232400  0.930500  0.100070  1.0  0.572
  C  C18  1  0.246300  0.091100  0.076170  1.0  0.5436
  C  C19  1  0.913400  0.759000  0.591600  1.0  0.5477
  C  C20  1  0.068900  0.764500  0.566200  1.0  0.5913
  C  C21  1  0.930500  0.232400  0.566600  1.0  0.574
  C  C22  1  0.091100  0.246300  0.590500  1.0  0.5435
  C  C23  1  0.241000  0.154400  0.258270  1.0  0.5487
  C  C24  1  0.235500  0.304400  0.232870  1.0  0.5899
  C  C25  1  0.767600  0.698100  0.233270  1.0  0.5713
  C  C26  1  0.753700  0.844800  0.257170  1.0  0.5445
  C  C27  1  0.845600  0.086600  0.924930  1.0  0.5462
  C  C28  1  0.695600  0.931100  0.899530  1.0  0.5913
  C  C29  1  0.301900  0.069500  0.899930  1.0  0.5702
  C  C30  1  0.155200  0.908900  0.923830  1.0  0.5449
  O  O31  1  0.188300  0.336300  0.369700  1.0  -0.5674
  O  O32  1  0.448000  0.317000  0.415500  1.0  -0.5638
  O  O33  1  0.014400  0.160300  0.431900  1.0  -0.5197
  O  O34  1  0.264300  0.138900  0.473100  1.0  -0.529
  O  O35  1  0.736200  0.860700  0.474000  1.0  -0.506
  O  O36  1  0.986500  0.837200  0.432300  1.0  -0.5287
  O  O37  1  0.553800  0.683600  0.414800  1.0  -0.5759
  O  O38  1  0.812800  0.666300  0.368500  1.0  -0.572
  O  O39  1  0.148000  0.811700  0.703030  1.0  -0.5669
  O  O40  1  0.869000  0.552000  0.748830  1.0  -0.5619
  O  O41  1  0.145900  0.985600  0.765230  1.0  -0.5193
  O  O42  1  0.874600  0.735700  0.806430  1.0  -0.5288
  O  O43  1  0.124500  0.263800  0.807330  1.0  -0.5095
  O  O44  1  0.850700  0.013500  0.765630  1.0  -0.53
  O  O45  1  0.129800  0.446200  0.748130  1.0  -0.5738
  O  O46  1  0.853500  0.187200  0.701830  1.0  -0.5737
  O  O47  1  0.663700  0.852000  0.036370  1.0  -0.5664
  O  O48  1  0.683000  0.131000  0.082170  1.0  -0.5662
  O  O49  1  0.839700  0.854100  0.098570  1.0  -0.5189
  O  O50  1  0.861100  0.125400  0.139770  1.0  -0.5321
  O  O51  1  0.139300  0.875500  0.140670  1.0  -0.5096
  O  O52  1  0.162800  0.149300  0.098970  1.0  -0.525
  O  O53  1  0.316400  0.870200  0.081470  1.0  -0.5757
  O  O54  1  0.333700  0.146500  0.035170  1.0  -0.5713
  O  O55  1  0.852000  0.663700  0.630300  1.0  -0.5663
  O  O56  1  0.131000  0.683000  0.584500  1.0  -0.5647
  O  O57  1  0.854100  0.839700  0.568100  1.0  -0.5204
  O  O58  1  0.125400  0.861100  0.526900  1.0  -0.526
  O  O59  1  0.875500  0.139300  0.526000  1.0  -0.5047
  O  O60  1  0.149300  0.162800  0.567700  1.0  -0.5284
  O  O61  1  0.870200  0.316400  0.585200  1.0  -0.5758
  O  O62  1  0.146500  0.333700  0.631500  1.0  -0.5726
  O  O63  1  0.336300  0.188300  0.296970  1.0  -0.5699
  O  O64  1  0.317000  0.448000  0.251170  1.0  -0.563
  O  O65  1  0.160300  0.014400  0.234770  1.0  -0.5201
  O  O66  1  0.138900  0.264300  0.193570  1.0  -0.5269
  O  O67  1  0.860700  0.736200  0.192670  1.0  -0.5069
  O  O68  1  0.837200  0.986500  0.234370  1.0  -0.5315
  O  O69  1  0.683600  0.553800  0.251870  1.0  -0.5743
  O  O70  1  0.666300  0.812800  0.298170  1.0  -0.5723
  O  O71  1  0.811700  0.148000  0.963630  1.0  -0.5673
  O  O72  1  0.552000  0.869000  0.917830  1.0  -0.565
  O  O73  1  0.985600  0.145900  0.901430  1.0  -0.5191
  O  O74  1  0.735700  0.874600  0.860230  1.0  -0.5297
  O  O75  1  0.263800  0.124500  0.859330  1.0  -0.5081
  O  O76  1  0.013500  0.850700  0.901030  1.0  -0.5266
  O  O77  1  0.446200  0.129800  0.918530  1.0  -0.5771
  O  O78  1  0.187200  0.853500  0.964830  1.0  -0.5701
