# generated using pymatgen
data_ZrCdH10C10(NO8)2
_symmetry_space_group_name_H-M   'P 1'
_cell_length_a   9.10500000
_cell_length_b   9.10500000
_cell_length_c   23.65600000
_cell_angle_alpha   90.00000000
_cell_angle_beta   90.00000000
_cell_angle_gamma   120.00000000
_symmetry_Int_Tables_number   1
_chemical_formula_structural   ZrCdH10C10(NO8)2
_chemical_formula_sum   'Zr3 Cd3 H30 C30 N6 O48'
_cell_volume   1698.36817618
_cell_formula_units_Z   3
loop_
 _symmetry_equiv_pos_site_id
 _symmetry_equiv_pos_as_xyz
  1  'x, y, z'
loop_
 _atom_site_type_symbol
 _atom_site_label
 _atom_site_symmetry_multiplicity
 _atom_site_fract_x
 _atom_site_fract_y
 _atom_site_fract_z
 _atom_site_occupancy
 _atom_site_charge
  Zr  Zr1  1  0.148720  0.851290  0.833330  1.0  2.0316
  Zr  Zr2  1  0.702570  0.851290  0.500000  1.0  2.0366
  Zr  Zr3  1  0.148720  0.297440  0.166670  1.0  2.0357
  Cd  Cd4  1  0.186690  0.373380  0.666667  1.0  0.9851
  Cd  Cd5  1  0.186690  0.813310  0.333333  1.0  0.9836
  Cd  Cd6  1  0.626620  0.813310  0.000000  1.0  0.9832
  H  H7  1  0.556900  0.081100  0.714300  1.0  0.112
  H  H8  1  0.739800  0.193500  0.689800  1.0  0.1053
  H  H9  1  0.545000  0.328400  0.737900  1.0  0.1446
  H  H10  1  0.744100  0.442300  0.715500  1.0  0.134
  H  H11  1  0.699200  0.316800  0.771600  1.0  0.1408
  H  H12  1  0.524200  0.081100  0.619030  1.0  0.1109
  H  H13  1  0.453700  0.193500  0.643530  1.0  0.1071
  H  H14  1  0.783400  0.328400  0.595430  1.0  0.1429
  H  H15  1  0.698200  0.442300  0.617830  1.0  0.1338
  H  H16  1  0.617600  0.316800  0.561730  1.0  0.1407
  H  H17  1  0.524200  0.443100  0.380970  1.0  0.1122
  H  H18  1  0.453700  0.260200  0.356470  1.0  0.1105
  H  H19  1  0.783400  0.455000  0.404570  1.0  0.1426
  H  H20  1  0.698200  0.255900  0.382170  1.0  0.1367
  H  H21  1  0.617600  0.300800  0.438270  1.0  0.1407
  H  H22  1  0.556900  0.475800  0.285700  1.0  0.1037
  H  H23  1  0.739800  0.546300  0.310200  1.0  0.108
  H  H24  1  0.545000  0.216600  0.262100  1.0  0.1404
  H  H25  1  0.744100  0.301800  0.284500  1.0  0.1395
  H  H26  1  0.699200  0.382400  0.228400  1.0  0.1402
  H  H27  1  0.918900  0.475800  0.047630  1.0  0.1014
  H  H28  1  0.806500  0.546300  0.023130  1.0  0.1073
  H  H29  1  0.671600  0.216600  0.071230  1.0  0.1399
  H  H30  1  0.557700  0.301800  0.048830  1.0  0.1382
  H  H31  1  0.683200  0.382400  0.104930  1.0  0.1407
  H  H32  1  0.918900  0.443100  0.952370  1.0  0.1141
  H  H33  1  0.806500  0.260200  0.976870  1.0  0.1097
  H  H34  1  0.671600  0.455000  0.928770  1.0  0.1427
  H  H35  1  0.557700  0.255900  0.951170  1.0  0.1368
  H  H36  1  0.683200  0.300800  0.895070  1.0  0.1402
  C  C37  1  0.282700  0.681400  0.751910  1.0  0.6357
  C  C38  1  0.089100  0.575200  0.748520  1.0  0.6713
  C  C39  1  0.911800  0.150000  0.578130  1.0  0.681
  C  C40  1  0.000400  0.045700  0.582780  1.0  0.6105
  C  C41  1  0.398700  0.717300  0.418580  1.0  0.6349
  C  C42  1  0.486100  0.910900  0.415190  1.0  0.674
  C  C43  1  0.238200  0.088200  0.244800  1.0  0.6805
  C  C44  1  0.045300  0.999600  0.249450  1.0  0.6097
  C  C45  1  0.318600  0.601300  0.085240  1.0  0.6341
  C  C46  1  0.424800  0.513900  0.081850  1.0  0.672
  C  C47  1  0.850000  0.761800  0.911460  1.0  0.6822
  C  C48  1  0.954300  0.954700  0.916110  1.0  0.6115
  C  C49  1  0.398700  0.681400  0.581420  1.0  0.6355
  C  C50  1  0.486100  0.575200  0.584810  1.0  0.6723
  C  C51  1  0.238200  0.150000  0.755200  1.0  0.6816
  C  C52  1  0.045300  0.045700  0.750550  1.0  0.61
  C  C53  1  0.318600  0.717300  0.914760  1.0  0.6361
  C  C54  1  0.424800  0.910900  0.918150  1.0  0.6739
  C  C55  1  0.850000  0.088200  0.088540  1.0  0.6804
  C  C56  1  0.954300  0.999600  0.083890  1.0  0.6105
  C  C57  1  0.282700  0.601300  0.248090  1.0  0.6344
  C  C58  1  0.089100  0.513900  0.251480  1.0  0.6723
  C  C59  1  0.911800  0.761800  0.421870  1.0  0.6819
  C  C60  1  0.000400  0.954700  0.417220  1.0  0.6106
  C  C61  1  0.631400  0.187500  0.695500  1.0  0.0284
  C  C62  1  0.556100  0.187500  0.637830  1.0  0.029
  C  C63  1  0.556100  0.368600  0.362170  1.0  0.0286
  C  C64  1  0.631400  0.443900  0.304500  1.0  0.0275
  C  C65  1  0.812500  0.443900  0.028830  1.0  0.0282
  C  C66  1  0.812500  0.368600  0.971170  1.0  0.0296
  N  N67  1  0.657000  0.330100  0.733100  1.0  -0.342
  N  N68  1  0.673100  0.330100  0.600230  1.0  -0.3416
  N  N69  1  0.673100  0.343000  0.399770  1.0  -0.3409
  N  N70  1  0.657000  0.326900  0.266900  1.0  -0.3409
  N  N71  1  0.669900  0.326900  0.066430  1.0  -0.34
  N  N72  1  0.669900  0.343000  0.933570  1.0  -0.3404
  O  O73  1  0.336300  0.811600  0.782710  1.0  -0.5612
  O  O74  1  0.366900  0.632300  0.725470  1.0  -0.5488
  O  O75  1  0.319300  0.280300  0.726490  1.0  -0.5537
  O  O76  1  0.010800  0.625700  0.780960  1.0  -0.5596
  O  O77  1  0.021200  0.453000  0.716190  1.0  -0.5601
  O  O78  1  0.926400  0.905900  0.554210  1.0  -0.5578
  O  O79  1  0.970600  0.098600  0.720930  1.0  -0.5471
  O  O80  1  0.787700  0.092200  0.544420  1.0  -0.5397
  O  O81  1  0.475300  0.663700  0.449380  1.0  -0.5617
  O  O82  1  0.265400  0.633100  0.392140  1.0  -0.5458
  O  O83  1  0.961000  0.680700  0.393160  1.0  -0.5529
  O  O84  1  0.614900  0.989200  0.447630  1.0  -0.5619
  O  O85  1  0.431800  0.978800  0.382860  1.0  -0.5587
  O  O86  1  0.979500  0.073600  0.220880  1.0  -0.5586
  O  O87  1  0.128000  0.029400  0.387600  1.0  -0.5496
  O  O88  1  0.304500  0.212300  0.211090  1.0  -0.5399
  O  O89  1  0.188400  0.524700  0.116040  1.0  -0.559
  O  O90  1  0.367700  0.734600  0.058800  1.0  -0.5479
  O  O91  1  0.719700  0.039000  0.059820  1.0  -0.5521
  O  O92  1  0.374300  0.385100  0.114290  1.0  -0.561
  O  O93  1  0.547000  0.568200  0.049520  1.0  -0.5599
  O  O94  1  0.094100  0.020500  0.887540  1.0  -0.5629
  O  O95  1  0.901400  0.872000  0.054260  1.0  -0.5502
  O  O96  1  0.907800  0.695500  0.877750  1.0  -0.5403
  O  O97  1  0.475300  0.811600  0.550620  1.0  -0.5623
  O  O98  1  0.265400  0.632300  0.607860  1.0  -0.5502
  O  O99  1  0.961000  0.280300  0.606840  1.0  -0.5551
  O  O100  1  0.614900  0.625700  0.552370  1.0  -0.5601
  O  O101  1  0.431800  0.453000  0.617140  1.0  -0.5601
  O  O102  1  0.979500  0.905900  0.779120  1.0  -0.56
  O  O103  1  0.128000  0.098600  0.612400  1.0  -0.5492
  O  O104  1  0.304500  0.092200  0.788910  1.0  -0.542
  O  O105  1  0.188400  0.663700  0.883960  1.0  -0.5609
  O  O106  1  0.367700  0.633100  0.941200  1.0  -0.5462
  O  O107  1  0.719700  0.680700  0.940180  1.0  -0.553
  O  O108  1  0.374300  0.989200  0.885710  1.0  -0.5618
  O  O109  1  0.547000  0.978800  0.950480  1.0  -0.5584
  O  O110  1  0.094100  0.073600  0.112460  1.0  -0.5597
  O  O111  1  0.901400  0.029400  0.945740  1.0  -0.5502
  O  O112  1  0.907800  0.212300  0.122250  1.0  -0.5412
  O  O113  1  0.336300  0.524700  0.217290  1.0  -0.5582
  O  O114  1  0.366900  0.734600  0.274530  1.0  -0.5483
  O  O115  1  0.319300  0.039000  0.273510  1.0  -0.5536
  O  O116  1  0.010800  0.385100  0.219040  1.0  -0.561
  O  O117  1  0.021200  0.568200  0.283810  1.0  -0.5602
  O  O118  1  0.926400  0.020500  0.445790  1.0  -0.5627
  O  O119  1  0.970600  0.872000  0.279070  1.0  -0.5504
  O  O120  1  0.787700  0.695500  0.455580  1.0  -0.5407
