# generated using pymatgen
data_ZrCdH8C8(NO8)2
_symmetry_space_group_name_H-M   'P 1'
_cell_length_a   9.06100000
_cell_length_b   9.06100000
_cell_length_c   23.39400000
_cell_angle_alpha   90.00000000
_cell_angle_beta   90.00000000
_cell_angle_gamma   120.00000000
_symmetry_Int_Tables_number   1
_chemical_formula_structural   ZrCdH8C8(NO8)2
_chemical_formula_sum   'Zr3 Cd3 H24 C24 N6 O48'
_cell_volume   1663.36430723
_cell_formula_units_Z   3
loop_
 _symmetry_equiv_pos_site_id
 _symmetry_equiv_pos_as_xyz
  1  'x, y, z'
loop_
 _atom_site_type_symbol
 _atom_site_label
 _atom_site_symmetry_multiplicity
 _atom_site_fract_x
 _atom_site_fract_y
 _atom_site_fract_z
 _atom_site_occupancy
 _atom_site_charge
  Zr  Zr1  1  0.500000  0.500000  0.500000  1.0  2.0285
  Zr  Zr2  1  0.000000  0.500000  0.166670  1.0  2.0286
  Zr  Zr3  1  0.500000  0.000000  0.833330  1.0  2.0285
  Cd  Cd4  1  0.000000  0.500000  0.666667  1.0  1.017
  Cd  Cd5  1  0.500000  0.000000  0.333333  1.0  1.0169
  Cd  Cd6  1  0.500000  0.500000  0.000000  1.0  1.0169
  H  H7  1  0.921000  0.021000  0.642300  1.0  0.2188
  H  H8  1  0.079000  0.979000  0.642300  1.0  0.2187
  H  H9  1  0.079000  0.100000  0.691030  1.0  0.2158
  H  H10  1  0.921000  0.900000  0.691030  1.0  0.2171
  H  H11  1  0.100200  0.025800  0.524400  1.0  0.2336
  H  H12  1  0.899800  0.974200  0.524400  1.0  0.2341
  H  H13  1  0.025800  0.100200  0.475600  1.0  0.2336
  H  H14  1  0.974200  0.899800  0.475600  1.0  0.2327
  H  H15  1  0.100000  0.079000  0.308970  1.0  0.2165
  H  H16  1  0.900000  0.921000  0.308970  1.0  0.2165
  H  H17  1  0.021000  0.921000  0.357700  1.0  0.2158
  H  H18  1  0.979000  0.079000  0.357700  1.0  0.2165
  H  H19  1  0.925600  0.899800  0.191070  1.0  0.2325
  H  H20  1  0.074400  0.100200  0.191070  1.0  0.233
  H  H21  1  0.074400  0.974200  0.142270  1.0  0.2344
  H  H22  1  0.925600  0.025800  0.142270  1.0  0.2348
  H  H23  1  0.979000  0.900000  0.975630  1.0  0.2165
  H  H24  1  0.021000  0.100000  0.975630  1.0  0.2169
  H  H25  1  0.900000  0.979000  0.024370  1.0  0.218
  H  H26  1  0.100000  0.021000  0.024370  1.0  0.2177
  H  H27  1  0.974200  0.074400  0.857730  1.0  0.2336
  H  H28  1  0.025800  0.925600  0.857730  1.0  0.2321
  H  H29  1  0.899800  0.925600  0.808930  1.0  0.2334
  H  H30  1  0.100200  0.074400  0.808930  1.0  0.2335
  C  C31  1  0.208400  0.419300  0.581430  1.0  0.6464
  C  C32  1  0.314600  0.615700  0.582370  1.0  0.636
  C  C33  1  0.210900  0.791600  0.248100  1.0  0.6441
  C  C34  1  0.301100  0.685400  0.249040  1.0  0.6371
  C  C35  1  0.580700  0.789100  0.914760  1.0  0.6455
  C  C36  1  0.384300  0.698900  0.915700  1.0  0.6359
  C  C37  1  0.791600  0.580700  0.581430  1.0  0.6463
  C  C38  1  0.685400  0.384300  0.582370  1.0  0.6373
  C  C39  1  0.789100  0.208400  0.248100  1.0  0.6443
  C  C40  1  0.698900  0.314600  0.249040  1.0  0.636
  C  C41  1  0.419300  0.210900  0.914760  1.0  0.6442
  C  C42  1  0.615700  0.301100  0.915700  1.0  0.6364
  C  C43  1  0.789100  0.580700  0.085240  1.0  0.6461
  C  C44  1  0.698900  0.384300  0.084300  1.0  0.6383
  C  C45  1  0.419300  0.208400  0.418570  1.0  0.6438
  C  C46  1  0.615700  0.314600  0.417630  1.0  0.6369
  C  C47  1  0.791600  0.210900  0.751900  1.0  0.6454
  C  C48  1  0.685400  0.301100  0.750960  1.0  0.6359
  C  C49  1  0.210900  0.419300  0.085240  1.0  0.6458
  C  C50  1  0.301100  0.615700  0.084300  1.0  0.6372
  C  C51  1  0.580700  0.791600  0.418570  1.0  0.6444
  C  C52  1  0.384300  0.685400  0.417630  1.0  0.6353
  C  C53  1  0.208400  0.789100  0.751900  1.0  0.6449
  C  C54  1  0.314600  0.698900  0.750960  1.0  0.6371
  N  N55  1  0.000000  0.000000  0.666667  1.0  -0.6771
  N  N56  1  0.000000  0.000000  0.500000  1.0  -0.675
  N  N57  1  0.000000  0.000000  0.333333  1.0  -0.6771
  N  N58  1  0.000000  0.000000  0.166670  1.0  -0.6749
  N  N59  1  0.000000  0.000000  0.000000  1.0  -0.6771
  N  N60  1  0.000000  0.000000  0.833330  1.0  -0.675
  O  O61  1  0.080100  0.343000  0.611010  1.0  -0.5306
  O  O62  1  0.265600  0.348800  0.547840  1.0  -0.5679
  O  O63  1  0.453900  0.674800  0.554240  1.0  -0.5341
  O  O64  1  0.261200  0.696600  0.608660  1.0  -0.526
  O  O65  1  0.262900  0.919900  0.277680  1.0  -0.5316
  O  O66  1  0.083200  0.734400  0.214510  1.0  -0.5674
  O  O67  1  0.220900  0.546100  0.220910  1.0  -0.5316
  O  O68  1  0.435400  0.738800  0.275330  1.0  -0.5261
  O  O69  1  0.657000  0.737100  0.944340  1.0  -0.5291
  O  O70  1  0.651200  0.916800  0.881170  1.0  -0.5683
  O  O71  1  0.325200  0.779100  0.887570  1.0  -0.5298
  O  O72  1  0.303400  0.564600  0.941990  1.0  -0.5262
  O  O73  1  0.919900  0.657000  0.611010  1.0  -0.5313
  O  O74  1  0.734400  0.651200  0.547840  1.0  -0.5684
  O  O75  1  0.546100  0.325200  0.554240  1.0  -0.5316
  O  O76  1  0.738800  0.303400  0.608660  1.0  -0.5262
  O  O77  1  0.737100  0.080100  0.277680  1.0  -0.5315
  O  O78  1  0.916800  0.265600  0.214510  1.0  -0.5678
  O  O79  1  0.779100  0.453900  0.220910  1.0  -0.5329
  O  O80  1  0.564600  0.261200  0.275330  1.0  -0.5261
  O  O81  1  0.343000  0.262900  0.944340  1.0  -0.53
  O  O82  1  0.348800  0.083200  0.881170  1.0  -0.5692
  O  O83  1  0.674800  0.220900  0.887570  1.0  -0.5314
  O  O84  1  0.696600  0.435400  0.941990  1.0  -0.5257
  O  O85  1  0.737100  0.657000  0.055660  1.0  -0.5306
  O  O86  1  0.916800  0.651200  0.118830  1.0  -0.5685
  O  O87  1  0.779100  0.325200  0.112430  1.0  -0.5313
  O  O88  1  0.564600  0.303400  0.058010  1.0  -0.5246
  O  O89  1  0.343000  0.080100  0.388990  1.0  -0.5321
  O  O90  1  0.348800  0.265600  0.452160  1.0  -0.5678
  O  O91  1  0.674800  0.453900  0.445760  1.0  -0.5302
  O  O92  1  0.696600  0.261200  0.391340  1.0  -0.5244
  O  O93  1  0.919900  0.262900  0.722320  1.0  -0.5293
  O  O94  1  0.734400  0.083200  0.785490  1.0  -0.569
  O  O95  1  0.546100  0.220900  0.779090  1.0  -0.5297
  O  O96  1  0.738800  0.435400  0.724670  1.0  -0.5258
  O  O97  1  0.262900  0.343000  0.055660  1.0  -0.5311
  O  O98  1  0.083200  0.348800  0.118830  1.0  -0.5678
  O  O99  1  0.220900  0.674800  0.112430  1.0  -0.5314
  O  O100  1  0.435400  0.696600  0.058010  1.0  -0.525
  O  O101  1  0.657000  0.919900  0.388990  1.0  -0.5309
  O  O102  1  0.651200  0.734400  0.452160  1.0  -0.5675
  O  O103  1  0.325200  0.546100  0.445760  1.0  -0.5313
  O  O104  1  0.303400  0.738800  0.391340  1.0  -0.5249
  O  O105  1  0.080100  0.737100  0.722320  1.0  -0.5292
  O  O106  1  0.265600  0.916800  0.785490  1.0  -0.5684
  O  O107  1  0.453900  0.779100  0.779090  1.0  -0.53
  O  O108  1  0.261200  0.564600  0.724670  1.0  -0.5249
