# generated using pymatgen
data_TbH7C15O7F
_symmetry_space_group_name_H-M   'P 1'
_cell_length_a   12.96530000
_cell_length_b   13.90600000
_cell_length_c   14.62000000
_cell_angle_alpha   95.94830000
_cell_angle_beta   90.00000000
_cell_angle_gamma   117.78600000
_symmetry_Int_Tables_number   1
_chemical_formula_structural   TbH7C15O7F
_chemical_formula_sum   'Tb4 H28 C60 O28 F4'
_cell_volume   2315.93060301
_cell_formula_units_Z   4
loop_
 _symmetry_equiv_pos_site_id
 _symmetry_equiv_pos_as_xyz
  1  'x, y, z'
loop_
 _atom_site_type_symbol
 _atom_site_label
 _atom_site_symmetry_multiplicity
 _atom_site_fract_x
 _atom_site_fract_y
 _atom_site_fract_z
 _atom_site_occupancy
 _atom_site_charge
  Tb  Tb1  1  0.467490  0.345480  0.467900  1.0  2.2298
  Tb  Tb2  1  0.122010  0.654520  0.032100  1.0  2.2364
  Tb  Tb3  1  0.532510  0.654520  0.532100  1.0  2.2333
  Tb  Tb4  1  0.877990  0.345480  0.967900  1.0  2.2289
  H  H5  1  0.330600  0.262800  0.728300  1.0  0.0948
  H  H6  1  0.318300  0.543600  0.790100  1.0  0.1098
  H  H7  1  0.133800  0.286600  0.931500  1.0  0.1012
  H  H8  1  0.337500  0.001200  0.891200  1.0  0.1184
  H  H9  1  0.040000  0.092000  0.884700  1.0  0.0957
  H  H10  1  0.008300  0.926200  0.935100  1.0  0.0986
  H  H11  1  0.523000  0.192800  0.409200  1.0  0.4343
  H  H12  1  0.067800  0.737200  0.771700  1.0  0.0945
  H  H13  1  0.774700  0.456400  0.709900  1.0  0.1094
  H  H14  1  0.847200  0.713400  0.568500  1.0  0.1013
  H  H15  1  0.336300  0.998800  0.608800  1.0  0.1188
  H  H16  1  0.948000  0.908000  0.615300  1.0  0.0957
  H  H17  1  0.082100  0.073800  0.564900  1.0  0.099
  H  H18  1  0.330200  0.807200  0.090800  1.0  0.4365
  H  H19  1  0.669400  0.737200  0.271700  1.0  0.0945
  H  H20  1  0.681700  0.456400  0.209900  1.0  0.1093
  H  H21  1  0.866200  0.713400  0.068500  1.0  0.1012
  H  H22  1  0.662500  0.998800  0.108800  1.0  0.1196
  H  H23  1  0.960000  0.908000  0.115300  1.0  0.0951
  H  H24  1  0.991700  0.073800  0.064900  1.0  0.0991
  H  H25  1  0.477000  0.807200  0.590800  1.0  0.4359
  H  H26  1  0.932200  0.262800  0.228300  1.0  0.0949
  H  H27  1  0.225300  0.543600  0.290100  1.0  0.1095
  H  H28  1  0.152800  0.286600  0.431500  1.0  0.1012
  H  H29  1  0.663700  0.001200  0.391200  1.0  0.1199
  H  H30  1  0.052000  0.092000  0.384700  1.0  0.0955
  H  H31  1  0.917900  0.926200  0.435100  1.0  0.0991
  H  H32  1  0.669800  0.192800  0.909200  1.0  0.4349
  C  C33  1  0.232900  0.256800  0.836800  1.0  0.0144
  C  C34  1  0.302400  0.303400  0.764700  1.0  -0.0551
  C  C35  1  0.330800  0.407600  0.745300  1.0  -0.156
  C  C36  1  0.293900  0.471400  0.800000  1.0  0.0129
  C  C37  1  0.219100  0.426000  0.870900  1.0  -0.1624
  C  C38  1  0.186700  0.318000  0.887000  1.0  -0.0716
  C  C39  1  0.210300  0.147800  0.860900  1.0  0.0792
  C  C40  1  0.293300  0.114800  0.860800  1.0  0.3267
  C  C41  1  0.276500  0.018800  0.891100  1.0  -0.1074
  C  C42  1  0.101200  0.074800  0.887100  1.0  -0.1369
  C  C43  1  0.404600  0.451600  0.664500  1.0  0.7882
  C  C44  1  0.151900  0.846800  0.960700  1.0  0.6783
  C  C45  1  0.171300  0.949200  0.921100  1.0  -0.1472
  C  C46  1  0.081800  0.974600  0.917600  1.0  -0.0483
  C  C47  1  0.177600  0.493400  0.928900  1.0  0.7349
  C  C48  1  0.976100  0.743200  0.663200  1.0  0.0144
  C  C49  1  0.999000  0.696600  0.735300  1.0  -0.0542
  C  C50  1  0.923200  0.592400  0.754700  1.0  -0.1563
  C  C51  1  0.822500  0.528600  0.700000  1.0  0.0122
  C  C52  1  0.793100  0.574000  0.629100  1.0  -0.1625
  C  C53  1  0.868700  0.682000  0.613000  1.0  -0.0706
  C  C54  1  0.062500  0.852200  0.639100  1.0  0.0788
  C  C55  1  0.178500  0.885200  0.639200  1.0  0.3266
  C  C56  1  0.257700  0.981200  0.608900  1.0  -0.1073
  C  C57  1  0.026400  0.925200  0.612900  1.0  -0.1367
  C  C58  1  0.953000  0.548400  0.835500  1.0  0.789
  C  C59  1  0.305100  0.153200  0.539300  1.0  0.6771
  C  C60  1  0.222100  0.050800  0.578900  1.0  -0.1473
  C  C61  1  0.107200  0.025400  0.582400  1.0  -0.0473
  C  C62  1  0.684200  0.506600  0.571100  1.0  0.7349
  C  C63  1  0.767100  0.743200  0.163200  1.0  0.0141
  C  C64  1  0.697600  0.696600  0.235300  1.0  -0.0536
  C  C65  1  0.669200  0.592400  0.254700  1.0  -0.1565
  C  C66  1  0.706100  0.528600  0.200000  1.0  0.0117
  C  C67  1  0.780900  0.574000  0.129100  1.0  -0.1619
  C  C68  1  0.813300  0.682000  0.113000  1.0  -0.0689
  C  C69  1  0.789700  0.852200  0.139100  1.0  0.0779
  C  C70  1  0.706700  0.885200  0.139200  1.0  0.3281
  C  C71  1  0.723500  0.981200  0.108900  1.0  -0.1066
  C  C72  1  0.898800  0.925200  0.112900  1.0  -0.1356
  C  C73  1  0.595400  0.548400  0.335500  1.0  0.7894
  C  C74  1  0.848100  0.153200  0.039300  1.0  0.6774
  C  C75  1  0.828700  0.050800  0.078900  1.0  -0.1461
  C  C76  1  0.918200  0.025400  0.082400  1.0  -0.0483
  C  C77  1  0.822400  0.506600  0.071100  1.0  0.7337
  C  C78  1  0.023900  0.256800  0.336800  1.0  0.0141
  C  C79  1  0.001000  0.303400  0.264700  1.0  -0.0546
  C  C80  1  0.076800  0.407600  0.245300  1.0  -0.156
  C  C81  1  0.177500  0.471400  0.300000  1.0  0.0123
  C  C82  1  0.206900  0.426000  0.370900  1.0  -0.1621
  C  C83  1  0.131300  0.318000  0.387000  1.0  -0.0697
  C  C84  1  0.937500  0.147800  0.360900  1.0  0.0786
  C  C85  1  0.821500  0.114800  0.360800  1.0  0.3296
  C  C86  1  0.742300  0.018800  0.391100  1.0  -0.1066
  C  C87  1  0.973600  0.074800  0.387100  1.0  -0.1359
  C  C88  1  0.047000  0.451600  0.164500  1.0  0.7883
  C  C89  1  0.694900  0.846800  0.460700  1.0  0.6772
  C  C90  1  0.777900  0.949200  0.421100  1.0  -0.1458
  C  C91  1  0.892800  0.974600  0.417600  1.0  -0.0487
  C  C92  1  0.315800  0.493400  0.428900  1.0  0.7335
  O  O93  1  0.427500  0.545400  0.648100  1.0  -0.7202
  O  O94  1  0.437000  0.388600  0.621000  1.0  -0.6945
  O  O95  1  0.244300  0.595200  0.945000  1.0  -0.6321
  O  O96  1  0.078200  0.449000  0.960600  1.0  -0.8069
  O  O97  1  0.234200  0.822800  0.962800  1.0  -0.6886
  O  O98  1  0.059100  0.791400  0.994200  1.0  -0.627
  O  O99  1  0.567400  0.253600  0.389800  1.0  -0.7174
  O  O100  1  0.882100  0.454600  0.851900  1.0  -0.7192
  O  O101  1  0.048400  0.611400  0.879000  1.0  -0.6943
  O  O102  1  0.649100  0.404800  0.555000  1.0  -0.6338
  O  O103  1  0.629200  0.551000  0.539400  1.0  -0.8067
  O  O104  1  0.411400  0.177200  0.537200  1.0  -0.6895
  O  O105  1  0.267700  0.208600  0.505800  1.0  -0.6297
  O  O106  1  0.313800  0.746400  0.110200  1.0  -0.7172
  O  O107  1  0.572500  0.454600  0.351900  1.0  -0.7184
  O  O108  1  0.563000  0.611400  0.379000  1.0  -0.6951
  O  O109  1  0.755700  0.404800  0.055000  1.0  -0.6314
  O  O110  1  0.921800  0.551000  0.039400  1.0  -0.8063
  O  O111  1  0.765800  0.177200  0.037200  1.0  -0.6892
  O  O112  1  0.940900  0.208600  0.005800  1.0  -0.6283
  O  O113  1  0.432600  0.746400  0.610200  1.0  -0.7182
  O  O114  1  0.117900  0.545400  0.148100  1.0  -0.7199
  O  O115  1  0.951600  0.388600  0.121000  1.0  -0.6955
  O  O116  1  0.350900  0.595200  0.445000  1.0  -0.6345
  O  O117  1  0.370800  0.449000  0.460600  1.0  -0.8062
  O  O118  1  0.588600  0.822800  0.462800  1.0  -0.6888
  O  O119  1  0.732300  0.791400  0.494200  1.0  -0.628
  O  O120  1  0.686200  0.253600  0.889800  1.0  -0.7187
  F  F121  1  0.396700  0.175800  0.827600  1.0  -0.15
  F  F122  1  0.220900  0.824200  0.672400  1.0  -0.1504
  F  F123  1  0.603300  0.824200  0.172400  1.0  -0.1496
  F  F124  1  0.779100  0.175800  0.327600  1.0  -0.1498
