# generated using pymatgen
data_Mn3Mo2(CN)14
_symmetry_space_group_name_H-M   'P 1'
_cell_length_a   25.85460000
_cell_length_b   12.39060000
_cell_length_c   13.53820000
_cell_angle_alpha   90.00000000
_cell_angle_beta   116.41700000
_cell_angle_gamma   90.00000000
_symmetry_Int_Tables_number   1
_chemical_formula_structural   Mn3Mo2(CN)14
_chemical_formula_sum   'Mn12 Mo8 C56 N56'
_cell_volume   3884.14444993
_cell_formula_units_Z   4
loop_
 _symmetry_equiv_pos_site_id
 _symmetry_equiv_pos_as_xyz
  1  'x, y, z'
loop_
 _atom_site_type_symbol
 _atom_site_label
 _atom_site_symmetry_multiplicity
 _atom_site_fract_x
 _atom_site_fract_y
 _atom_site_fract_z
 _atom_site_occupancy
 _atom_site_charge
  Mn  Mn1  1  0.788200  0.483510  0.041260  1.0  1.0933
  Mn  Mn2  1  0.288200  0.983510  0.041260  1.0  1.0933
  Mn  Mn3  1  0.211800  0.483510  0.458740  1.0  1.0933
  Mn  Mn4  1  0.711800  0.983510  0.458740  1.0  1.0933
  Mn  Mn5  1  0.211800  0.516490  0.958740  1.0  1.0934
  Mn  Mn6  1  0.711800  0.016490  0.958740  1.0  1.0934
  Mn  Mn7  1  0.788200  0.516490  0.541260  1.0  1.0933
  Mn  Mn8  1  0.288200  0.016490  0.541260  1.0  1.0933
  Mn  Mn9  1  0.000000  0.922210  0.750000  1.0  1.0942
  Mn  Mn10  1  0.500000  0.422210  0.750000  1.0  1.0942
  Mn  Mn11  1  0.000000  0.077790  0.250000  1.0  1.094
  Mn  Mn12  1  0.500000  0.577790  0.250000  1.0  1.094
  Mo  Mo13  1  0.857850  0.805680  0.324610  1.0  0.3899
  Mo  Mo14  1  0.357850  0.305680  0.324610  1.0  0.3899
  Mo  Mo15  1  0.142150  0.805680  0.175390  1.0  0.3891
  Mo  Mo16  1  0.642150  0.305680  0.175390  1.0  0.3891
  Mo  Mo17  1  0.142150  0.194320  0.675390  1.0  0.3888
  Mo  Mo18  1  0.642150  0.694320  0.675390  1.0  0.3888
  Mo  Mo19  1  0.857850  0.194320  0.824610  1.0  0.3895
  Mo  Mo20  1  0.357850  0.694320  0.824610  1.0  0.3895
  C  C21  1  0.912100  0.860400  0.490800  1.0  0.1999
  C  C22  1  0.817950  0.699400  0.189400  1.0  0.0543
  C  C23  1  0.915400  0.090100  0.794900  1.0  0.1797
  C  C24  1  0.806000  0.903500  0.189000  1.0  0.1579
  C  C25  1  0.792800  0.871300  0.364000  1.0  0.1738
  C  C26  1  0.834510  0.676400  0.405900  1.0  0.1995
  C  C27  1  0.926230  0.688900  0.352000  1.0  0.0868
  C  C28  1  0.412100  0.360400  0.490800  1.0  0.1999
  C  C29  1  0.317950  0.199400  0.189400  1.0  0.0543
  C  C30  1  0.415400  0.590100  0.794900  1.0  0.1797
  C  C31  1  0.306000  0.403500  0.189000  1.0  0.1579
  C  C32  1  0.292800  0.371300  0.364000  1.0  0.1738
  C  C33  1  0.334510  0.176400  0.405900  1.0  0.1995
  C  C34  1  0.426230  0.188900  0.352000  1.0  0.0868
  C  C35  1  0.087900  0.860400  0.009200  1.0  0.1996
  C  C36  1  0.182050  0.699400  0.310600  1.0  0.0543
  C  C37  1  0.084600  0.090100  0.705100  1.0  0.1791
  C  C38  1  0.194000  0.903500  0.311000  1.0  0.1573
  C  C39  1  0.207200  0.871300  0.136000  1.0  0.1744
  C  C40  1  0.165490  0.676400  0.094100  1.0  0.2019
  C  C41  1  0.073770  0.688900  0.148000  1.0  0.0839
  C  C42  1  0.587900  0.360400  0.009200  1.0  0.1996
  C  C43  1  0.682050  0.199400  0.310600  1.0  0.0543
  C  C44  1  0.584600  0.590100  0.705100  1.0  0.1791
  C  C45  1  0.694000  0.403500  0.311000  1.0  0.1573
  C  C46  1  0.707200  0.371300  0.136000  1.0  0.1744
  C  C47  1  0.665490  0.176400  0.094100  1.0  0.2019
  C  C48  1  0.573770  0.188900  0.148000  1.0  0.0839
  C  C49  1  0.087900  0.139600  0.509200  1.0  0.1997
  C  C50  1  0.182050  0.300600  0.810600  1.0  0.0539
  C  C51  1  0.084600  0.909900  0.205100  1.0  0.1789
  C  C52  1  0.194000  0.096500  0.811000  1.0  0.1575
  C  C53  1  0.207200  0.128700  0.636000  1.0  0.1752
  C  C54  1  0.165490  0.323600  0.594100  1.0  0.2007
  C  C55  1  0.073770  0.311100  0.648000  1.0  0.0833
  C  C56  1  0.587900  0.639600  0.509200  1.0  0.1997
  C  C57  1  0.682050  0.800600  0.810600  1.0  0.0539
  C  C58  1  0.584600  0.409900  0.205100  1.0  0.1789
  C  C59  1  0.694000  0.596500  0.811000  1.0  0.1575
  C  C60  1  0.707200  0.628700  0.636000  1.0  0.1752
  C  C61  1  0.665490  0.823600  0.594100  1.0  0.2007
  C  C62  1  0.573770  0.811100  0.648000  1.0  0.0833
  C  C63  1  0.912100  0.139600  0.990800  1.0  0.2
  C  C64  1  0.817950  0.300600  0.689400  1.0  0.0543
  C  C65  1  0.915400  0.909900  0.294900  1.0  0.1791
  C  C66  1  0.806000  0.096500  0.689000  1.0  0.1583
  C  C67  1  0.792800  0.128700  0.864000  1.0  0.1741
  C  C68  1  0.834510  0.323600  0.905900  1.0  0.1984
  C  C69  1  0.926230  0.311100  0.852000  1.0  0.0844
  C  C70  1  0.412100  0.639600  0.990800  1.0  0.2
  C  C71  1  0.317950  0.800600  0.689400  1.0  0.0543
  C  C72  1  0.415400  0.409900  0.294900  1.0  0.1791
  C  C73  1  0.306000  0.596500  0.689000  1.0  0.1583
  C  C74  1  0.292800  0.628700  0.864000  1.0  0.1741
  C  C75  1  0.334510  0.823600  0.905900  1.0  0.1984
  C  C76  1  0.426230  0.811100  0.852000  1.0  0.0844
  N  N77  1  0.941910  0.888500  0.580000  1.0  -0.4784
  N  N78  1  0.799850  0.636100  0.118500  1.0  -0.4384
  N  N79  1  0.945530  0.030200  0.781600  1.0  -0.4358
  N  N80  1  0.776400  0.953800  0.111200  1.0  -0.4422
  N  N81  1  0.757980  0.902100  0.389300  1.0  -0.4406
  N  N82  1  0.822030  0.610600  0.452300  1.0  -0.4705
  N  N83  1  0.958680  0.618400  0.365900  1.0  -0.3707
  N  N84  1  0.441910  0.388500  0.580000  1.0  -0.4784
  N  N85  1  0.299850  0.136100  0.118500  1.0  -0.4384
  N  N86  1  0.445530  0.530200  0.781600  1.0  -0.4358
  N  N87  1  0.276400  0.453800  0.111200  1.0  -0.4422
  N  N88  1  0.257980  0.402100  0.389300  1.0  -0.4406
  N  N89  1  0.322030  0.110600  0.452300  1.0  -0.4705
  N  N90  1  0.458680  0.118400  0.365900  1.0  -0.3707
  N  N91  1  0.058090  0.888500  0.920000  1.0  -0.4797
  N  N92  1  0.200150  0.636100  0.381500  1.0  -0.4374
  N  N93  1  0.054470  0.030200  0.718400  1.0  -0.4405
  N  N94  1  0.223600  0.953800  0.388800  1.0  -0.4428
  N  N95  1  0.242020  0.902100  0.110700  1.0  -0.4398
  N  N96  1  0.177970  0.610600  0.047700  1.0  -0.4692
  N  N97  1  0.041320  0.618400  0.134100  1.0  -0.371
  N  N98  1  0.558090  0.388500  0.920000  1.0  -0.4797
  N  N99  1  0.700150  0.136100  0.381500  1.0  -0.4374
  N  N100  1  0.554470  0.530200  0.718400  1.0  -0.4405
  N  N101  1  0.723600  0.453800  0.388800  1.0  -0.4428
  N  N102  1  0.742020  0.402100  0.110700  1.0  -0.4398
  N  N103  1  0.677970  0.110600  0.047700  1.0  -0.4692
  N  N104  1  0.541320  0.118400  0.134100  1.0  -0.371
  N  N105  1  0.058090  0.111500  0.420000  1.0  -0.4799
  N  N106  1  0.200150  0.363900  0.881500  1.0  -0.4369
  N  N107  1  0.054470  0.969800  0.218400  1.0  -0.4373
  N  N108  1  0.223600  0.046200  0.888800  1.0  -0.4424
  N  N109  1  0.242020  0.097900  0.610700  1.0  -0.4399
  N  N110  1  0.177970  0.389400  0.547700  1.0  -0.4695
  N  N111  1  0.041320  0.381600  0.634100  1.0  -0.3724
  N  N112  1  0.558090  0.611500  0.420000  1.0  -0.4799
  N  N113  1  0.700150  0.863900  0.881500  1.0  -0.4369
  N  N114  1  0.554470  0.469800  0.218400  1.0  -0.4373
  N  N115  1  0.723600  0.546200  0.888800  1.0  -0.4424
  N  N116  1  0.742020  0.597900  0.610700  1.0  -0.4399
  N  N117  1  0.677970  0.889400  0.547700  1.0  -0.4695
  N  N118  1  0.541320  0.881600  0.634100  1.0  -0.3724
  N  N119  1  0.941910  0.111500  0.080000  1.0  -0.478
  N  N120  1  0.799850  0.363900  0.618500  1.0  -0.4376
  N  N121  1  0.945530  0.969800  0.281600  1.0  -0.4416
  N  N122  1  0.776400  0.046200  0.611200  1.0  -0.4418
  N  N123  1  0.757980  0.097900  0.889300  1.0  -0.4406
  N  N124  1  0.822030  0.389400  0.952300  1.0  -0.4712
  N  N125  1  0.958680  0.381600  0.865900  1.0  -0.3729
  N  N126  1  0.441910  0.611500  0.080000  1.0  -0.478
  N  N127  1  0.299850  0.863900  0.618500  1.0  -0.4376
  N  N128  1  0.445530  0.469800  0.281600  1.0  -0.4416
  N  N129  1  0.276400  0.546200  0.611200  1.0  -0.4418
  N  N130  1  0.257980  0.597900  0.889300  1.0  -0.4406
  N  N131  1  0.322030  0.889400  0.952300  1.0  -0.4712
  N  N132  1  0.458680  0.881600  0.865900  1.0  -0.3729
