# generated using pymatgen
data_Cr9Cu6H108C126N18Cl14O39
_symmetry_space_group_name_H-M   'P 1'
_cell_length_a   26.38800000
_cell_length_b   29.72000000
_cell_length_c   29.72000000
_cell_angle_alpha   120.00000000
_cell_angle_beta   90.00000000
_cell_angle_gamma   90.00000000
_symmetry_Int_Tables_number   1
_chemical_formula_structural   Cr9Cu6H108C126N18Cl14O39
_chemical_formula_sum   'Cr18 Cu12 H216 C252 N36 Cl28 O78'
_cell_volume   20185.27717318
_cell_formula_units_Z   2
loop_
 _symmetry_equiv_pos_site_id
 _symmetry_equiv_pos_as_xyz
  1  'x, y, z'
loop_
 _atom_site_type_symbol
 _atom_site_label
 _atom_site_symmetry_multiplicity
 _atom_site_fract_x
 _atom_site_fract_y
 _atom_site_fract_z
 _atom_site_occupancy
 _atom_site_charge
  Cr  Cr1  1  0.750000  0.000000  0.583700  1.0  1.4033
  Cr  Cr2  1  0.750000  0.583700  0.000000  1.0  1.4074
  Cr  Cr3  1  0.750000  0.416300  0.416300  1.0  1.4096
  Cr  Cr4  1  0.250000  0.000000  0.416300  1.0  1.3991
  Cr  Cr5  1  0.250000  0.416300  0.000000  1.0  1.4114
  Cr  Cr6  1  0.250000  0.583700  0.583700  1.0  1.4085
  Cr  Cr7  1  0.688000  0.000000  0.678100  1.0  1.4788
  Cr  Cr8  1  0.688000  0.678100  0.000000  1.0  1.4793
  Cr  Cr9  1  0.688000  0.321900  0.321900  1.0  1.4787
  Cr  Cr10  1  0.188000  0.000000  0.321900  1.0  1.4806
  Cr  Cr11  1  0.188000  0.321900  0.000000  1.0  1.4792
  Cr  Cr12  1  0.188000  0.678100  0.678100  1.0  1.4796
  Cr  Cr13  1  0.812000  0.321900  0.321900  1.0  1.4754
  Cr  Cr14  1  0.812000  0.678100  0.000000  1.0  1.4762
  Cr  Cr15  1  0.812000  0.000000  0.678100  1.0  1.4751
  Cr  Cr16  1  0.312000  0.678100  0.678100  1.0  1.4761
  Cr  Cr17  1  0.312000  0.321900  0.000000  1.0  1.4756
  Cr  Cr18  1  0.312000  0.000000  0.321900  1.0  1.4764
  Cu  Cu19  1  0.500000  0.763460  0.381730  1.0  0.5547
  Cu  Cu20  1  0.500000  0.618270  0.236540  1.0  0.5506
  Cu  Cu21  1  0.500000  0.618270  0.381730  1.0  0.5512
  Cu  Cu22  1  0.000000  0.236540  0.618270  1.0  0.5508
  Cu  Cu23  1  0.000000  0.381730  0.763460  1.0  0.553
  Cu  Cu24  1  0.000000  0.381730  0.618270  1.0  0.5519
  Cu  Cu25  1  0.500000  0.236540  0.618270  1.0  0.5508
  Cu  Cu26  1  0.500000  0.381730  0.763460  1.0  0.553
  Cu  Cu27  1  0.500000  0.381730  0.618270  1.0  0.5519
  Cu  Cu28  1  0.000000  0.763460  0.381730  1.0  0.5547
  Cu  Cu29  1  0.000000  0.618270  0.236540  1.0  0.5506
  Cu  Cu30  1  0.000000  0.618270  0.381730  1.0  0.5512
  H  H31  1  0.553100  0.733900  0.432700  1.0  0.2917
  H  H32  1  0.585700  0.731400  0.390900  1.0  0.3288
  H  H33  1  0.637300  0.805400  0.405500  1.0  0.111
  H  H34  1  0.595400  0.875600  0.576800  1.0  0.103
  H  H35  1  0.550800  0.803600  0.515600  1.0  0.1169
  H  H36  1  0.672900  0.884800  0.465500  1.0  0.1233
  H  H37  1  0.673700  0.785300  0.673700  1.0  0.1273
  H  H38  1  0.673600  0.868400  0.683800  1.0  0.1094
  H  H39  1  0.778900  0.709600  0.664400  1.0  0.3465
  H  H40  1  0.553100  0.698800  0.266100  1.0  0.2927
  H  H41  1  0.585700  0.659500  0.268600  1.0  0.3275
  H  H42  1  0.637300  0.600100  0.194600  1.0  0.1112
  H  H43  1  0.595400  0.701200  0.124400  1.0  0.1038
  H  H44  1  0.550800  0.712000  0.196400  1.0  0.1172
  H  H45  1  0.672900  0.580700  0.115200  1.0  0.1229
  H  H46  1  0.673700  0.888400  0.214700  1.0  0.1264
  H  H47  1  0.673600  0.815400  0.131600  1.0  0.1089
  H  H48  1  0.778900  0.954800  0.290400  1.0  0.3458
  H  H49  1  0.553100  0.567300  0.301200  1.0  0.2921
  H  H50  1  0.585700  0.609100  0.340500  1.0  0.3284
  H  H51  1  0.637300  0.594500  0.399900  1.0  0.1108
  H  H52  1  0.595400  0.423200  0.298800  1.0  0.1023
  H  H53  1  0.550800  0.484400  0.288000  1.0  0.1154
  H  H54  1  0.672900  0.534500  0.419300  1.0  0.123
  H  H55  1  0.673700  0.326300  0.111600  1.0  0.1274
  H  H56  1  0.673600  0.316200  0.184600  1.0  0.1093
  H  H57  1  0.778900  0.335600  0.045200  1.0  0.3455
  H  H58  1  0.053100  0.266100  0.567300  1.0  0.2923
  H  H59  1  0.085700  0.268600  0.609100  1.0  0.327
  H  H60  1  0.137300  0.194600  0.594500  1.0  0.1104
  H  H61  1  0.095400  0.124400  0.423200  1.0  0.1028
  H  H62  1  0.050800  0.196400  0.484400  1.0  0.1162
  H  H63  1  0.172900  0.115200  0.534500  1.0  0.1234
  H  H64  1  0.173700  0.214700  0.326300  1.0  0.1271
  H  H65  1  0.173600  0.131600  0.316200  1.0  0.1094
  H  H66  1  0.278900  0.290400  0.335600  1.0  0.3457
  H  H67  1  0.053100  0.301200  0.733900  1.0  0.2923
  H  H68  1  0.085700  0.340500  0.731400  1.0  0.3298
  H  H69  1  0.137300  0.399900  0.805400  1.0  0.1116
  H  H70  1  0.095400  0.298800  0.875600  1.0  0.1038
  H  H71  1  0.050800  0.288000  0.803600  1.0  0.1161
  H  H72  1  0.172900  0.419300  0.884800  1.0  0.1235
  H  H73  1  0.173700  0.111600  0.785300  1.0  0.127
  H  H74  1  0.173600  0.184600  0.868400  1.0  0.1088
  H  H75  1  0.278900  0.045200  0.709600  1.0  0.3461
  H  H76  1  0.053100  0.432700  0.698800  1.0  0.2915
  H  H77  1  0.085700  0.390900  0.659500  1.0  0.3285
  H  H78  1  0.137300  0.405500  0.600100  1.0  0.111
  H  H79  1  0.095400  0.576800  0.701200  1.0  0.1026
  H  H80  1  0.050800  0.515600  0.712000  1.0  0.1161
  H  H81  1  0.172900  0.465500  0.580700  1.0  0.1228
  H  H82  1  0.173700  0.673700  0.888400  1.0  0.1276
  H  H83  1  0.173600  0.683800  0.815400  1.0  0.1092
  H  H84  1  0.278900  0.664400  0.954800  1.0  0.3455
  H  H85  1  0.946900  0.301200  0.567300  1.0  0.2928
  H  H86  1  0.914300  0.340500  0.609100  1.0  0.3286
  H  H87  1  0.862700  0.399900  0.594500  1.0  0.1121
  H  H88  1  0.904600  0.298800  0.423200  1.0  0.1032
  H  H89  1  0.949200  0.288000  0.484400  1.0  0.1167
  H  H90  1  0.827100  0.419300  0.534500  1.0  0.123
  H  H91  1  0.826300  0.111600  0.326300  1.0  0.127
  H  H92  1  0.826400  0.184600  0.316200  1.0  0.1095
  H  H93  1  0.721100  0.045200  0.335600  1.0  0.3479
  H  H94  1  0.946900  0.432700  0.733900  1.0  0.2924
  H  H95  1  0.914300  0.390900  0.731400  1.0  0.329
  H  H96  1  0.862700  0.405500  0.805400  1.0  0.1112
  H  H97  1  0.904600  0.576800  0.875600  1.0  0.1029
  H  H98  1  0.949200  0.515600  0.803600  1.0  0.1167
  H  H99  1  0.827100  0.465500  0.884800  1.0  0.1227
  H  H100  1  0.826300  0.673700  0.785300  1.0  0.128
  H  H101  1  0.826400  0.683800  0.868400  1.0  0.1094
  H  H102  1  0.721100  0.664400  0.709600  1.0  0.3469
  H  H103  1  0.946900  0.266100  0.698800  1.0  0.2927
  H  H104  1  0.914300  0.268600  0.659500  1.0  0.3288
  H  H105  1  0.862700  0.194600  0.600100  1.0  0.111
  H  H106  1  0.904600  0.124400  0.701200  1.0  0.1028
  H  H107  1  0.949200  0.196400  0.712000  1.0  0.1173
  H  H108  1  0.827100  0.115200  0.580700  1.0  0.1227
  H  H109  1  0.826300  0.214700  0.888400  1.0  0.1276
  H  H110  1  0.826400  0.131600  0.815400  1.0  0.1101
  H  H111  1  0.721100  0.290400  0.954800  1.0  0.3471
  H  H112  1  0.446900  0.698800  0.432700  1.0  0.2937
  H  H113  1  0.414300  0.659500  0.390900  1.0  0.33
  H  H114  1  0.362700  0.600100  0.405500  1.0  0.1117
  H  H115  1  0.404600  0.701200  0.576800  1.0  0.1037
  H  H116  1  0.449200  0.712000  0.515600  1.0  0.117
  H  H117  1  0.327100  0.580700  0.465500  1.0  0.1222
  H  H118  1  0.326300  0.888400  0.673700  1.0  0.1276
  H  H119  1  0.326400  0.815400  0.683800  1.0  0.109
  H  H120  1  0.221100  0.954800  0.664400  1.0  0.3476
  H  H121  1  0.446900  0.567300  0.266100  1.0  0.2926
  H  H122  1  0.414300  0.609100  0.268600  1.0  0.3288
  H  H123  1  0.362700  0.594500  0.194600  1.0  0.1117
  H  H124  1  0.404600  0.423200  0.124400  1.0  0.1022
  H  H125  1  0.449200  0.484400  0.196400  1.0  0.1163
  H  H126  1  0.327100  0.534500  0.115200  1.0  0.1227
  H  H127  1  0.326300  0.326300  0.214700  1.0  0.1275
  H  H128  1  0.326400  0.316200  0.131600  1.0  0.1093
  H  H129  1  0.221100  0.335600  0.290400  1.0  0.3474
  H  H130  1  0.446900  0.733900  0.301200  1.0  0.2917
  H  H131  1  0.414300  0.731400  0.340500  1.0  0.3287
  H  H132  1  0.362700  0.805400  0.399900  1.0  0.1113
  H  H133  1  0.404600  0.875600  0.298800  1.0  0.103
  H  H134  1  0.449200  0.803600  0.288000  1.0  0.1168
  H  H135  1  0.327100  0.884800  0.419300  1.0  0.1227
  H  H136  1  0.326300  0.785300  0.111600  1.0  0.1278
  H  H137  1  0.326400  0.868400  0.184600  1.0  0.1098
  H  H138  1  0.221100  0.709600  0.045200  1.0  0.3479
  H  H139  1  0.446900  0.266100  0.567300  1.0  0.2923
  H  H140  1  0.414300  0.268600  0.609100  1.0  0.3279
  H  H141  1  0.362700  0.194600  0.594500  1.0  0.1111
  H  H142  1  0.404600  0.124400  0.423200  1.0  0.1031
  H  H143  1  0.449200  0.196400  0.484400  1.0  0.1168
  H  H144  1  0.327100  0.115200  0.534500  1.0  0.123
  H  H145  1  0.326300  0.214700  0.326300  1.0  0.1279
  H  H146  1  0.326400  0.131600  0.316200  1.0  0.1096
  H  H147  1  0.221100  0.290400  0.335600  1.0  0.3471
  H  H148  1  0.446900  0.301200  0.733900  1.0  0.2929
  H  H149  1  0.414300  0.340500  0.731400  1.0  0.3297
  H  H150  1  0.362700  0.399900  0.805400  1.0  0.1118
  H  H151  1  0.404600  0.298800  0.875600  1.0  0.1032
  H  H152  1  0.449200  0.288000  0.803600  1.0  0.1169
  H  H153  1  0.327100  0.419300  0.884800  1.0  0.123
  H  H154  1  0.326300  0.111600  0.785300  1.0  0.1273
  H  H155  1  0.326400  0.184600  0.868400  1.0  0.1093
  H  H156  1  0.221100  0.045200  0.709600  1.0  0.348
  H  H157  1  0.446900  0.432700  0.698800  1.0  0.2921
  H  H158  1  0.414300  0.390900  0.659500  1.0  0.3292
  H  H159  1  0.362700  0.405500  0.600100  1.0  0.1112
  H  H160  1  0.404600  0.576800  0.701200  1.0  0.1021
  H  H161  1  0.449200  0.515600  0.712000  1.0  0.1165
  H  H162  1  0.327100  0.465500  0.580700  1.0  0.1223
  H  H163  1  0.326300  0.673700  0.888400  1.0  0.1277
  H  H164  1  0.326400  0.683800  0.815400  1.0  0.1095
  H  H165  1  0.221100  0.664400  0.954800  1.0  0.3476
  H  H166  1  0.946900  0.733900  0.432700  1.0  0.2925
  H  H167  1  0.914300  0.731400  0.390900  1.0  0.329
  H  H168  1  0.862700  0.805400  0.405500  1.0  0.111
  H  H169  1  0.904600  0.875600  0.576800  1.0  0.1026
  H  H170  1  0.949200  0.803600  0.515600  1.0  0.1174
  H  H171  1  0.827100  0.884800  0.465500  1.0  0.1228
  H  H172  1  0.826300  0.785300  0.673700  1.0  0.1275
  H  H173  1  0.826400  0.868400  0.683800  1.0  0.1102
  H  H174  1  0.721100  0.709600  0.664400  1.0  0.3476
  H  H175  1  0.946900  0.698800  0.266100  1.0  0.2935
  H  H176  1  0.914300  0.659500  0.268600  1.0  0.3288
  H  H177  1  0.862700  0.600100  0.194600  1.0  0.1121
  H  H178  1  0.904600  0.701200  0.124400  1.0  0.1038
  H  H179  1  0.949200  0.712000  0.196400  1.0  0.1176
  H  H180  1  0.827100  0.580700  0.115200  1.0  0.1224
  H  H181  1  0.826300  0.888400  0.214700  1.0  0.1268
  H  H182  1  0.826400  0.815400  0.131600  1.0  0.1093
  H  H183  1  0.721100  0.954800  0.290400  1.0  0.3479
  H  H184  1  0.946900  0.567300  0.301200  1.0  0.2923
  H  H185  1  0.914300  0.609100  0.340500  1.0  0.329
  H  H186  1  0.862700  0.594500  0.399900  1.0  0.1117
  H  H187  1  0.904600  0.423200  0.298800  1.0  0.1029
  H  H188  1  0.949200  0.484400  0.288000  1.0  0.1161
  H  H189  1  0.827100  0.534500  0.419300  1.0  0.1226
  H  H190  1  0.826300  0.326300  0.111600  1.0  0.1278
  H  H191  1  0.826400  0.316200  0.184600  1.0  0.1095
  H  H192  1  0.721100  0.335600  0.045200  1.0  0.3468
  H  H193  1  0.053100  0.698800  0.432700  1.0  0.2929
  H  H194  1  0.085700  0.659500  0.390900  1.0  0.3298
  H  H195  1  0.137300  0.600100  0.405500  1.0  0.1113
  H  H196  1  0.095400  0.701200  0.576800  1.0  0.1041
  H  H197  1  0.050800  0.712000  0.515600  1.0  0.1165
  H  H198  1  0.172900  0.580700  0.465500  1.0  0.1229
  H  H199  1  0.173700  0.888400  0.673700  1.0  0.1268
  H  H200  1  0.173600  0.815400  0.683800  1.0  0.1086
  H  H201  1  0.278900  0.954800  0.664400  1.0  0.3462
  H  H202  1  0.053100  0.567300  0.266100  1.0  0.2917
  H  H203  1  0.085700  0.609100  0.268600  1.0  0.3277
  H  H204  1  0.137300  0.594500  0.194600  1.0  0.1112
  H  H205  1  0.095400  0.423200  0.124400  1.0  0.1023
  H  H206  1  0.050800  0.484400  0.196400  1.0  0.1157
  H  H207  1  0.172900  0.534500  0.115200  1.0  0.1232
  H  H208  1  0.173700  0.326300  0.214700  1.0  0.1274
  H  H209  1  0.173600  0.316200  0.131600  1.0  0.1091
  H  H210  1  0.278900  0.335600  0.290400  1.0  0.3453
  H  H211  1  0.053100  0.733900  0.301200  1.0  0.2919
  H  H212  1  0.085700  0.731400  0.340500  1.0  0.3279
  H  H213  1  0.137300  0.805400  0.399900  1.0  0.1104
  H  H214  1  0.095400  0.875600  0.298800  1.0  0.1028
  H  H215  1  0.050800  0.803600  0.288000  1.0  0.1164
  H  H216  1  0.172900  0.884800  0.419300  1.0  0.1232
  H  H217  1  0.173700  0.785300  0.111600  1.0  0.1274
  H  H218  1  0.173600  0.868400  0.184600  1.0  0.1095
  H  H219  1  0.278900  0.709600  0.045200  1.0  0.3463
  H  H220  1  0.553100  0.301200  0.567300  1.0  0.292
  H  H221  1  0.585700  0.340500  0.609100  1.0  0.3275
  H  H222  1  0.637300  0.399900  0.594500  1.0  0.1117
  H  H223  1  0.595400  0.298800  0.423200  1.0  0.1031
  H  H224  1  0.550800  0.288000  0.484400  1.0  0.1159
  H  H225  1  0.672900  0.419300  0.534500  1.0  0.1234
  H  H226  1  0.673700  0.111600  0.326300  1.0  0.127
  H  H227  1  0.673600  0.184600  0.316200  1.0  0.109
  H  H228  1  0.778900  0.045200  0.335600  1.0  0.3455
  H  H229  1  0.553100  0.432700  0.733900  1.0  0.2924
  H  H230  1  0.585700  0.390900  0.731400  1.0  0.3288
  H  H231  1  0.637300  0.405500  0.805400  1.0  0.1107
  H  H232  1  0.595400  0.576800  0.875600  1.0  0.1031
  H  H233  1  0.550800  0.515600  0.803600  1.0  0.1163
  H  H234  1  0.672900  0.465500  0.884800  1.0  0.1231
  H  H235  1  0.673700  0.673700  0.785300  1.0  0.1274
  H  H236  1  0.673600  0.683800  0.868400  1.0  0.109
  H  H237  1  0.778900  0.664400  0.709600  1.0  0.3456
  H  H238  1  0.553100  0.266100  0.698800  1.0  0.292
  H  H239  1  0.585700  0.268600  0.659500  1.0  0.3285
  H  H240  1  0.637300  0.194600  0.600100  1.0  0.1109
  H  H241  1  0.595400  0.124400  0.701200  1.0  0.1034
  H  H242  1  0.550800  0.196400  0.712000  1.0  0.1166
  H  H243  1  0.672900  0.115200  0.580700  1.0  0.1232
  H  H244  1  0.673700  0.214700  0.888400  1.0  0.127
  H  H245  1  0.673600  0.131600  0.815400  1.0  0.1094
  H  H246  1  0.778900  0.290400  0.954800  1.0  0.346
  C  C247  1  0.589300  0.799600  0.454700  1.0  0.2397
  C  C248  1  0.627100  0.821800  0.440900  1.0  -0.0769
  C  C249  1  0.641300  0.884200  0.527900  1.0  -0.1445
  C  C250  1  0.603500  0.861300  0.541100  1.0  -0.0489
  C  C251  1  0.576700  0.818800  0.505400  1.0  -0.2097
  C  C252  1  0.650900  0.866600  0.476100  1.0  -0.1228
  C  C253  1  0.669700  0.929900  0.568200  1.0  0.7278
  C  C254  1  0.704800  0.802400  0.675800  1.0  -0.0969
  C  C255  1  0.705000  0.851800  0.681800  1.0  -0.0379
  C  C256  1  0.589300  0.655100  0.200400  1.0  0.2392
  C  C257  1  0.627100  0.619100  0.178200  1.0  -0.0798
  C  C258  1  0.641300  0.643700  0.115800  1.0  -0.1473
  C  C259  1  0.603500  0.679800  0.138700  1.0  -0.0492
  C  C260  1  0.576700  0.686600  0.181200  1.0  -0.2054
  C  C261  1  0.650900  0.609500  0.133400  1.0  -0.1205
  C  C262  1  0.669700  0.638300  0.070100  1.0  0.729
  C  C263  1  0.704800  0.873400  0.197600  1.0  -0.0981
  C  C264  1  0.705000  0.830000  0.148200  1.0  -0.0378
  C  C265  1  0.589300  0.545300  0.344900  1.0  0.2404
  C  C266  1  0.627100  0.559100  0.380900  1.0  -0.0789
  C  C267  1  0.641300  0.472100  0.356300  1.0  -0.1436
  C  C268  1  0.603500  0.458900  0.320200  1.0  -0.0478
  C  C269  1  0.576700  0.494600  0.313400  1.0  -0.2081
  C  C270  1  0.650900  0.523900  0.390500  1.0  -0.1211
  C  C271  1  0.669700  0.431800  0.361700  1.0  0.7282
  C  C272  1  0.704800  0.324200  0.126600  1.0  -0.0971
  C  C273  1  0.705000  0.318200  0.170000  1.0  -0.0366
  C  C274  1  0.089300  0.200400  0.545300  1.0  0.2395
  C  C275  1  0.127100  0.178200  0.559100  1.0  -0.0778
  C  C276  1  0.141300  0.115800  0.472100  1.0  -0.1445
  C  C277  1  0.103500  0.138700  0.458900  1.0  -0.0489
  C  C278  1  0.076700  0.181200  0.494600  1.0  -0.2046
  C  C279  1  0.150900  0.133400  0.523900  1.0  -0.1211
  C  C280  1  0.169700  0.070100  0.431800  1.0  0.7269
  C  C281  1  0.204800  0.197600  0.324200  1.0  -0.0977
  C  C282  1  0.205000  0.148200  0.318200  1.0  -0.0373
  C  C283  1  0.089300  0.344900  0.799600  1.0  0.2395
  C  C284  1  0.127100  0.380900  0.821800  1.0  -0.0794
  C  C285  1  0.141300  0.356300  0.884200  1.0  -0.1454
  C  C286  1  0.103500  0.320200  0.861300  1.0  -0.048
  C  C287  1  0.076700  0.313400  0.818800  1.0  -0.2079
  C  C288  1  0.150900  0.390500  0.866600  1.0  -0.1223
  C  C289  1  0.169700  0.361700  0.929900  1.0  0.7285
  C  C290  1  0.204800  0.126600  0.802400  1.0  -0.0971
  C  C291  1  0.205000  0.170000  0.851800  1.0  -0.0378
  C  C292  1  0.089300  0.454700  0.655100  1.0  0.24
  C  C293  1  0.127100  0.440900  0.619100  1.0  -0.0792
  C  C294  1  0.141300  0.527900  0.643700  1.0  -0.1438
  C  C295  1  0.103500  0.541100  0.679800  1.0  -0.0487
  C  C296  1  0.076700  0.505400  0.686600  1.0  -0.2141
  C  C297  1  0.150900  0.476100  0.609500  1.0  -0.1216
  C  C298  1  0.169700  0.568200  0.638300  1.0  0.7283
  C  C299  1  0.204800  0.675800  0.873400  1.0  -0.0976
  C  C300  1  0.205000  0.681800  0.830000  1.0  -0.0365
  C  C301  1  0.910700  0.344900  0.545300  1.0  0.2397
  C  C302  1  0.872900  0.380900  0.559100  1.0  -0.0802
  C  C303  1  0.858700  0.356300  0.472100  1.0  -0.148
  C  C304  1  0.896500  0.320200  0.458900  1.0  -0.0437
  C  C305  1  0.923300  0.313400  0.494600  1.0  -0.205
  C  C306  1  0.849100  0.390500  0.523900  1.0  -0.1228
  C  C307  1  0.830300  0.361700  0.431800  1.0  0.7276
  C  C308  1  0.795200  0.126600  0.324200  1.0  -0.0972
  C  C309  1  0.795000  0.170000  0.318200  1.0  -0.0377
  C  C310  1  0.910700  0.454700  0.799600  1.0  0.2422
  C  C311  1  0.872900  0.440900  0.821800  1.0  -0.0805
  C  C312  1  0.858700  0.527900  0.884200  1.0  -0.1455
  C  C313  1  0.896500  0.541100  0.861300  1.0  -0.0422
  C  C314  1  0.923300  0.505400  0.818800  1.0  -0.2078
  C  C315  1  0.849100  0.476100  0.866600  1.0  -0.1189
  C  C316  1  0.830300  0.568200  0.929900  1.0  0.7269
  C  C317  1  0.795200  0.675800  0.802400  1.0  -0.0976
  C  C318  1  0.795000  0.681800  0.851800  1.0  -0.0359
  C  C319  1  0.910700  0.200400  0.655100  1.0  0.2405
  C  C320  1  0.872900  0.178200  0.619100  1.0  -0.0797
  C  C321  1  0.858700  0.115800  0.643700  1.0  -0.1458
  C  C322  1  0.896500  0.138700  0.679800  1.0  -0.0417
  C  C323  1  0.923300  0.181200  0.686600  1.0  -0.2037
  C  C324  1  0.849100  0.133400  0.609500  1.0  -0.12
  C  C325  1  0.830300  0.070100  0.638300  1.0  0.7264
  C  C326  1  0.795200  0.197600  0.873400  1.0  -0.0981
  C  C327  1  0.795000  0.148200  0.830000  1.0  -0.0364
  C  C328  1  0.410700  0.655100  0.454700  1.0  0.2405
  C  C329  1  0.372900  0.619100  0.440900  1.0  -0.0817
  C  C330  1  0.358700  0.643700  0.527900  1.0  -0.1474
  C  C331  1  0.396500  0.679800  0.541100  1.0  -0.0428
  C  C332  1  0.423300  0.686600  0.505400  1.0  -0.2054
  C  C333  1  0.349100  0.609500  0.476100  1.0  -0.1194
  C  C334  1  0.330300  0.638300  0.568200  1.0  0.728
  C  C335  1  0.295200  0.873400  0.675800  1.0  -0.0981
  C  C336  1  0.295000  0.830000  0.681800  1.0  -0.0367
  C  C337  1  0.410700  0.545300  0.200400  1.0  0.2402
  C  C338  1  0.372900  0.559100  0.178200  1.0  -0.0803
  C  C339  1  0.358700  0.472100  0.115800  1.0  -0.1442
  C  C340  1  0.396500  0.458900  0.138700  1.0  -0.0416
  C  C341  1  0.423300  0.494600  0.181200  1.0  -0.2069
  C  C342  1  0.349100  0.523900  0.133400  1.0  -0.1201
  C  C343  1  0.330300  0.431800  0.070100  1.0  0.7273
  C  C344  1  0.295200  0.324200  0.197600  1.0  -0.098
  C  C345  1  0.295000  0.318200  0.148200  1.0  -0.0361
  C  C346  1  0.410700  0.799600  0.344900  1.0  0.241
  C  C347  1  0.372900  0.821800  0.380900  1.0  -0.0784
  C  C348  1  0.358700  0.884200  0.356300  1.0  -0.1451
  C  C349  1  0.396500  0.861300  0.320200  1.0  -0.0439
  C  C350  1  0.423300  0.818800  0.313400  1.0  -0.2045
  C  C351  1  0.349100  0.866600  0.390500  1.0  -0.122
  C  C352  1  0.330300  0.929900  0.361700  1.0  0.7262
  C  C353  1  0.295200  0.802400  0.126600  1.0  -0.0976
  C  C354  1  0.295000  0.851800  0.170000  1.0  -0.0378
  C  C355  1  0.410700  0.200400  0.545300  1.0  0.2415
  C  C356  1  0.372900  0.178200  0.559100  1.0  -0.0791
  C  C357  1  0.358700  0.115800  0.472100  1.0  -0.1454
  C  C358  1  0.396500  0.138700  0.458900  1.0  -0.0428
  C  C359  1  0.423300  0.181200  0.494600  1.0  -0.2033
  C  C360  1  0.349100  0.133400  0.523900  1.0  -0.1202
  C  C361  1  0.330300  0.070100  0.431800  1.0  0.7262
  C  C362  1  0.295200  0.197600  0.324200  1.0  -0.0982
  C  C363  1  0.295000  0.148200  0.318200  1.0  -0.037
  C  C364  1  0.410700  0.344900  0.799600  1.0  0.24
  C  C365  1  0.372900  0.380900  0.821800  1.0  -0.0804
  C  C366  1  0.358700  0.356300  0.884200  1.0  -0.1475
  C  C367  1  0.396500  0.320200  0.861300  1.0  -0.0415
  C  C368  1  0.423300  0.313400  0.818800  1.0  -0.2058
  C  C369  1  0.349100  0.390500  0.866600  1.0  -0.1232
  C  C370  1  0.330300  0.361700  0.929900  1.0  0.728
  C  C371  1  0.295200  0.126600  0.802400  1.0  -0.097
  C  C372  1  0.295000  0.170000  0.851800  1.0  -0.0374
  C  C373  1  0.410700  0.454700  0.655100  1.0  0.2416
  C  C374  1  0.372900  0.440900  0.619100  1.0  -0.08
  C  C375  1  0.358700  0.527900  0.643700  1.0  -0.1451
  C  C376  1  0.396500  0.541100  0.679800  1.0  -0.042
  C  C377  1  0.423300  0.505400  0.686600  1.0  -0.2081
  C  C378  1  0.349100  0.476100  0.609500  1.0  -0.1186
  C  C379  1  0.330300  0.568200  0.638300  1.0  0.727
  C  C380  1  0.295200  0.675800  0.873400  1.0  -0.0979
  C  C381  1  0.295000  0.681800  0.830000  1.0  -0.0362
  C  C382  1  0.910700  0.799600  0.454700  1.0  0.2413
  C  C383  1  0.872900  0.821800  0.440900  1.0  -0.0786
  C  C384  1  0.858700  0.884200  0.527900  1.0  -0.147
  C  C385  1  0.896500  0.861300  0.541100  1.0  -0.043
  C  C386  1  0.923300  0.818800  0.505400  1.0  -0.2053
  C  C387  1  0.849100  0.866600  0.476100  1.0  -0.1206
  C  C388  1  0.830300  0.929900  0.568200  1.0  0.7265
  C  C389  1  0.795200  0.802400  0.675800  1.0  -0.0973
  C  C390  1  0.795000  0.851800  0.681800  1.0  -0.0375
  C  C391  1  0.910700  0.655100  0.200400  1.0  0.2399
  C  C392  1  0.872900  0.619100  0.178200  1.0  -0.0804
  C  C393  1  0.858700  0.643700  0.115800  1.0  -0.1479
  C  C394  1  0.896500  0.679800  0.138700  1.0  -0.0451
  C  C395  1  0.923300  0.686600  0.181200  1.0  -0.2041
  C  C396  1  0.849100  0.609500  0.133400  1.0  -0.1193
  C  C397  1  0.830300  0.638300  0.070100  1.0  0.7277
  C  C398  1  0.795200  0.873400  0.197600  1.0  -0.0982
  C  C399  1  0.795000  0.830000  0.148200  1.0  -0.0374
  C  C400  1  0.910700  0.545300  0.344900  1.0  0.2406
  C  C401  1  0.872900  0.559100  0.380900  1.0  -0.0812
  C  C402  1  0.858700  0.472100  0.356300  1.0  -0.1444
  C  C403  1  0.896500  0.458900  0.320200  1.0  -0.0416
  C  C404  1  0.923300  0.494600  0.313400  1.0  -0.2077
  C  C405  1  0.849100  0.523900  0.390500  1.0  -0.1206
  C  C406  1  0.830300  0.431800  0.361700  1.0  0.7272
  C  C407  1  0.795200  0.324200  0.126600  1.0  -0.0978
  C  C408  1  0.795000  0.318200  0.170000  1.0  -0.0357
  C  C409  1  0.089300  0.655100  0.454700  1.0  0.2391
  C  C410  1  0.127100  0.619100  0.440900  1.0  -0.0809
  C  C411  1  0.141300  0.643700  0.527900  1.0  -0.1452
  C  C412  1  0.103500  0.679800  0.541100  1.0  -0.0492
  C  C413  1  0.076700  0.686600  0.505400  1.0  -0.2089
  C  C414  1  0.150900  0.609500  0.476100  1.0  -0.1214
  C  C415  1  0.169700  0.638300  0.568200  1.0  0.7288
  C  C416  1  0.204800  0.873400  0.675800  1.0  -0.0975
  C  C417  1  0.205000  0.830000  0.681800  1.0  -0.0369
  C  C418  1  0.089300  0.545300  0.200400  1.0  0.24
  C  C419  1  0.127100  0.559100  0.178200  1.0  -0.0783
  C  C420  1  0.141300  0.472100  0.115800  1.0  -0.1433
  C  C421  1  0.103500  0.458900  0.138700  1.0  -0.0474
  C  C422  1  0.076700  0.494600  0.181200  1.0  -0.2076
  C  C423  1  0.150900  0.523900  0.133400  1.0  -0.1216
  C  C424  1  0.169700  0.431800  0.070100  1.0  0.7282
  C  C425  1  0.204800  0.324200  0.197600  1.0  -0.0979
  C  C426  1  0.205000  0.318200  0.148200  1.0  -0.0368
  C  C427  1  0.089300  0.799600  0.344900  1.0  0.2406
  C  C428  1  0.127100  0.821800  0.380900  1.0  -0.0768
  C  C429  1  0.141300  0.884200  0.356300  1.0  -0.1444
  C  C430  1  0.103500  0.861300  0.320200  1.0  -0.0495
  C  C431  1  0.076700  0.818800  0.313400  1.0  -0.2066
  C  C432  1  0.150900  0.866600  0.390500  1.0  -0.1227
  C  C433  1  0.169700  0.929900  0.361700  1.0  0.7273
  C  C434  1  0.204800  0.802400  0.126600  1.0  -0.0972
  C  C435  1  0.205000  0.851800  0.170000  1.0  -0.0382
  C  C436  1  0.589300  0.344900  0.545300  1.0  0.2393
  C  C437  1  0.627100  0.380900  0.559100  1.0  -0.0788
  C  C438  1  0.641300  0.356300  0.472100  1.0  -0.1474
  C  C439  1  0.603500  0.320200  0.458900  1.0  -0.0486
  C  C440  1  0.576700  0.313400  0.494600  1.0  -0.205
  C  C441  1  0.650900  0.390500  0.523900  1.0  -0.123
  C  C442  1  0.669700  0.361700  0.431800  1.0  0.7286
  C  C443  1  0.704800  0.126600  0.324200  1.0  -0.097
  C  C444  1  0.705000  0.170000  0.318200  1.0  -0.0382
  C  C445  1  0.589300  0.454700  0.799600  1.0  0.2405
  C  C446  1  0.627100  0.440900  0.821800  1.0  -0.0795
  C  C447  1  0.641300  0.527900  0.884200  1.0  -0.1442
  C  C448  1  0.603500  0.541100  0.861300  1.0  -0.0494
  C  C449  1  0.576700  0.505400  0.818800  1.0  -0.2134
  C  C450  1  0.650900  0.476100  0.866600  1.0  -0.121
  C  C451  1  0.669700  0.568200  0.929900  1.0  0.7283
  C  C452  1  0.704800  0.675800  0.802400  1.0  -0.097
  C  C453  1  0.705000  0.681800  0.851800  1.0  -0.0365
  C  C454  1  0.589300  0.200400  0.655100  1.0  0.2399
  C  C455  1  0.627100  0.178200  0.619100  1.0  -0.0783
  C  C456  1  0.641300  0.115800  0.643700  1.0  -0.1447
  C  C457  1  0.603500  0.138700  0.679800  1.0  -0.0479
  C  C458  1  0.576700  0.181200  0.686600  1.0  -0.2092
  C  C459  1  0.650900  0.133400  0.609500  1.0  -0.1223
  C  C460  1  0.669700  0.070100  0.638300  1.0  0.7274
  C  C461  1  0.704800  0.197600  0.873400  1.0  -0.0979
  C  C462  1  0.705000  0.148200  0.830000  1.0  -0.0369
  C  C463  1  0.750000  0.931000  0.691700  1.0  0.6469
  C  C464  1  0.750000  0.877600  0.684900  1.0  -0.1323
  C  C465  1  0.750000  0.778500  0.672900  1.0  0.1021
  C  C466  1  0.750000  0.760700  0.069000  1.0  0.6504
  C  C467  1  0.750000  0.807300  0.122400  1.0  -0.1336
  C  C468  1  0.750000  0.894400  0.221500  1.0  0.1017
  C  C469  1  0.750000  0.308300  0.239300  1.0  0.6472
  C  C470  1  0.750000  0.315100  0.192700  1.0  -0.1358
  C  C471  1  0.750000  0.327100  0.105600  1.0  0.102
  C  C472  1  0.250000  0.069000  0.308300  1.0  0.6482
  C  C473  1  0.250000  0.122400  0.315100  1.0  -0.1316
  C  C474  1  0.250000  0.221500  0.327100  1.0  0.1028
  C  C475  1  0.250000  0.239300  0.931000  1.0  0.6483
  C  C476  1  0.250000  0.192700  0.877600  1.0  -0.1344
  C  C477  1  0.250000  0.105600  0.778500  1.0  0.1018
  C  C478  1  0.250000  0.691700  0.760700  1.0  0.6483
  C  C479  1  0.250000  0.684900  0.807300  1.0  -0.1363
  C  C480  1  0.250000  0.672900  0.894400  1.0  0.1009
  C  C481  1  0.750000  0.239300  0.308300  1.0  0.6492
  C  C482  1  0.750000  0.192700  0.315100  1.0  -0.1335
  C  C483  1  0.750000  0.105600  0.327100  1.0  0.1009
  C  C484  1  0.750000  0.691700  0.931000  1.0  0.6476
  C  C485  1  0.750000  0.684900  0.877600  1.0  -0.1354
  C  C486  1  0.750000  0.672900  0.778500  1.0  0.1015
  C  C487  1  0.750000  0.069000  0.760700  1.0  0.6466
  C  C488  1  0.750000  0.122400  0.807300  1.0  -0.1313
  C  C489  1  0.750000  0.221500  0.894400  1.0  0.1025
  C  C490  1  0.250000  0.760700  0.691700  1.0  0.6486
  C  C491  1  0.250000  0.807300  0.684900  1.0  -0.1339
  C  C492  1  0.250000  0.894400  0.672900  1.0  0.1027
  C  C493  1  0.250000  0.308300  0.069000  1.0  0.6473
  C  C494  1  0.250000  0.315100  0.122400  1.0  -0.1372
  C  C495  1  0.250000  0.327100  0.221500  1.0  0.1009
  C  C496  1  0.250000  0.931000  0.239300  1.0  0.6485
  C  C497  1  0.250000  0.877600  0.192700  1.0  -0.1319
  C  C498  1  0.250000  0.778500  0.105600  1.0  0.1025
  N  N499  1  0.563000  0.751900  0.416500  1.0  -0.6122
  N  N500  1  0.563000  0.664600  0.248100  1.0  -0.614
  N  N501  1  0.563000  0.583500  0.335400  1.0  -0.6147
  N  N502  1  0.063000  0.248100  0.583500  1.0  -0.61
  N  N503  1  0.063000  0.335400  0.751900  1.0  -0.614
  N  N504  1  0.063000  0.416500  0.664600  1.0  -0.6163
  N  N505  1  0.937000  0.335400  0.583500  1.0  -0.6153
  N  N506  1  0.937000  0.416500  0.751900  1.0  -0.615
  N  N507  1  0.937000  0.248100  0.664600  1.0  -0.6121
  N  N508  1  0.437000  0.664600  0.416500  1.0  -0.6144
  N  N509  1  0.437000  0.583500  0.248100  1.0  -0.6163
  N  N510  1  0.437000  0.751900  0.335400  1.0  -0.6127
  N  N511  1  0.437000  0.248100  0.583500  1.0  -0.6106
  N  N512  1  0.437000  0.335400  0.751900  1.0  -0.614
  N  N513  1  0.437000  0.416500  0.664600  1.0  -0.617
  N  N514  1  0.937000  0.751900  0.416500  1.0  -0.6124
  N  N515  1  0.937000  0.664600  0.248100  1.0  -0.6152
  N  N516  1  0.937000  0.583500  0.335400  1.0  -0.6141
  N  N517  1  0.063000  0.664600  0.416500  1.0  -0.6144
  N  N518  1  0.063000  0.583500  0.248100  1.0  -0.6161
  N  N519  1  0.063000  0.751900  0.335400  1.0  -0.6126
  N  N520  1  0.563000  0.335400  0.583500  1.0  -0.6147
  N  N521  1  0.563000  0.416500  0.751900  1.0  -0.6155
  N  N522  1  0.563000  0.248100  0.664600  1.0  -0.6113
  N  N523  1  0.750000  0.725000  0.666000  1.0  -0.7187
  N  N524  1  0.750000  0.941000  0.275000  1.0  -0.7196
  N  N525  1  0.750000  0.334000  0.059000  1.0  -0.718
  N  N526  1  0.250000  0.275000  0.334000  1.0  -0.719
  N  N527  1  0.250000  0.059000  0.725000  1.0  -0.7191
  N  N528  1  0.250000  0.666000  0.941000  1.0  -0.7184
  N  N529  1  0.750000  0.059000  0.334000  1.0  -0.7207
  N  N530  1  0.750000  0.666000  0.725000  1.0  -0.717
  N  N531  1  0.750000  0.275000  0.941000  1.0  -0.7182
  N  N532  1  0.250000  0.941000  0.666000  1.0  -0.7194
  N  N533  1  0.250000  0.334000  0.275000  1.0  -0.7197
  N  N534  1  0.250000  0.725000  0.059000  1.0  -0.719
  Cl  Cl535  1  0.453800  0.786400  0.455300  1.0  -0.4682
  Cl  Cl536  1  0.453800  0.668900  0.213600  1.0  -0.4692
  Cl  Cl537  1  0.453800  0.544700  0.331100  1.0  -0.4674
  Cl  Cl538  1  0.953800  0.213600  0.544700  1.0  -0.4662
  Cl  Cl539  1  0.953800  0.331100  0.786400  1.0  -0.4674
  Cl  Cl540  1  0.953800  0.455300  0.668900  1.0  -0.468
  Cl  Cl541  1  0.046200  0.331100  0.544700  1.0  -0.4689
  Cl  Cl542  1  0.046200  0.455300  0.786400  1.0  -0.4663
  Cl  Cl543  1  0.046200  0.213600  0.668900  1.0  -0.4678
  Cl  Cl544  1  0.546200  0.668900  0.455300  1.0  -0.4664
  Cl  Cl545  1  0.546200  0.544700  0.213600  1.0  -0.4667
  Cl  Cl546  1  0.546200  0.786400  0.331100  1.0  -0.4673
  Cl  Cl547  1  0.546200  0.213600  0.544700  1.0  -0.4666
  Cl  Cl548  1  0.546200  0.331100  0.786400  1.0  -0.4663
  Cl  Cl549  1  0.546200  0.455300  0.668900  1.0  -0.4675
  Cl  Cl550  1  0.046200  0.786400  0.455300  1.0  -0.4672
  Cl  Cl551  1  0.046200  0.668900  0.213600  1.0  -0.469
  Cl  Cl552  1  0.046200  0.544700  0.331100  1.0  -0.4669
  Cl  Cl553  1  0.953800  0.668900  0.455300  1.0  -0.4675
  Cl  Cl554  1  0.953800  0.544700  0.213600  1.0  -0.4663
  Cl  Cl555  1  0.953800  0.786400  0.331100  1.0  -0.4678
  Cl  Cl556  1  0.453800  0.331100  0.544700  1.0  -0.4691
  Cl  Cl557  1  0.453800  0.455300  0.786400  1.0  -0.4672
  Cl  Cl558  1  0.453800  0.213600  0.668900  1.0  -0.4683
  Cl  Cl559  1  0.500000  0.666667  0.333333  1.0  -0.5088
  Cl  Cl560  1  0.000000  0.333333  0.666667  1.0  -0.5088
  Cl  Cl561  1  0.500000  0.333333  0.666667  1.0  -0.5088
  Cl  Cl562  1  0.000000  0.666667  0.333333  1.0  -0.5088
  O  O563  1  0.702900  0.947900  0.551700  1.0  -0.5977
  O  O564  1  0.658400  0.946200  0.614300  1.0  -0.604
  O  O565  1  0.704600  0.947800  0.692300  1.0  -0.591
  O  O566  1  0.702900  0.603800  0.052100  1.0  -0.5957
  O  O567  1  0.658400  0.668100  0.053800  1.0  -0.6049
  O  O568  1  0.704600  0.744500  0.052200  1.0  -0.5905
  O  O569  1  0.702900  0.448300  0.396200  1.0  -0.5948
  O  O570  1  0.658400  0.385700  0.331900  1.0  -0.6067
  O  O571  1  0.704600  0.307700  0.255500  1.0  -0.5908
  O  O572  1  0.202900  0.052100  0.448300  1.0  -0.5977
  O  O573  1  0.158400  0.053800  0.385700  1.0  -0.6046
  O  O574  1  0.204600  0.052200  0.307700  1.0  -0.5904
  O  O575  1  0.202900  0.396200  0.947900  1.0  -0.5958
  O  O576  1  0.158400  0.331900  0.946200  1.0  -0.6043
  O  O577  1  0.204600  0.255500  0.947800  1.0  -0.5902
  O  O578  1  0.202900  0.551700  0.603800  1.0  -0.5967
  O  O579  1  0.158400  0.614300  0.668100  1.0  -0.6055
  O  O580  1  0.204600  0.692300  0.744500  1.0  -0.59
  O  O581  1  0.797100  0.396200  0.448300  1.0  -0.5945
  O  O582  1  0.841600  0.331900  0.385700  1.0  -0.6053
  O  O583  1  0.795400  0.255500  0.307700  1.0  -0.5915
  O  O584  1  0.797100  0.551700  0.947900  1.0  -0.5961
  O  O585  1  0.841600  0.614300  0.946200  1.0  -0.6065
  O  O586  1  0.795400  0.692300  0.947800  1.0  -0.591
  O  O587  1  0.797100  0.052100  0.603800  1.0  -0.5982
  O  O588  1  0.841600  0.053800  0.668100  1.0  -0.6048
  O  O589  1  0.795400  0.052200  0.744500  1.0  -0.5918
  O  O590  1  0.297100  0.603800  0.551700  1.0  -0.5971
  O  O591  1  0.341600  0.668100  0.614300  1.0  -0.6066
  O  O592  1  0.295400  0.744500  0.692300  1.0  -0.5915
  O  O593  1  0.297100  0.448300  0.052100  1.0  -0.5942
  O  O594  1  0.341600  0.385700  0.053800  1.0  -0.6061
  O  O595  1  0.295400  0.307700  0.052200  1.0  -0.5912
  O  O596  1  0.297100  0.947900  0.396200  1.0  -0.5969
  O  O597  1  0.341600  0.946200  0.331900  1.0  -0.6046
  O  O598  1  0.295400  0.947800  0.255500  1.0  -0.5921
  O  O599  1  0.297100  0.052100  0.448300  1.0  -0.5971
  O  O600  1  0.341600  0.053800  0.385700  1.0  -0.6047
  O  O601  1  0.295400  0.052200  0.307700  1.0  -0.5925
  O  O602  1  0.297100  0.396200  0.947900  1.0  -0.5954
  O  O603  1  0.341600  0.331900  0.946200  1.0  -0.6059
  O  O604  1  0.295400  0.255500  0.947800  1.0  -0.591
  O  O605  1  0.297100  0.551700  0.603800  1.0  -0.5963
  O  O606  1  0.341600  0.614300  0.668100  1.0  -0.6066
  O  O607  1  0.295400  0.692300  0.744500  1.0  -0.5908
  O  O608  1  0.797100  0.947900  0.551700  1.0  -0.5977
  O  O609  1  0.841600  0.946200  0.614300  1.0  -0.6048
  O  O610  1  0.795400  0.947800  0.692300  1.0  -0.5915
  O  O611  1  0.797100  0.603800  0.052100  1.0  -0.5956
  O  O612  1  0.841600  0.668100  0.053800  1.0  -0.6057
  O  O613  1  0.795400  0.744500  0.052200  1.0  -0.5914
  O  O614  1  0.797100  0.448300  0.396200  1.0  -0.5946
  O  O615  1  0.841600  0.385700  0.331900  1.0  -0.6067
  O  O616  1  0.795400  0.307700  0.255500  1.0  -0.5918
  O  O617  1  0.202900  0.603800  0.551700  1.0  -0.5971
  O  O618  1  0.158400  0.668100  0.614300  1.0  -0.6049
  O  O619  1  0.204600  0.744500  0.692300  1.0  -0.5905
  O  O620  1  0.202900  0.448300  0.052100  1.0  -0.5943
  O  O621  1  0.158400  0.385700  0.053800  1.0  -0.6056
  O  O622  1  0.204600  0.307700  0.052200  1.0  -0.5905
  O  O623  1  0.202900  0.947900  0.396200  1.0  -0.5972
  O  O624  1  0.158400  0.946200  0.331900  1.0  -0.6044
  O  O625  1  0.204600  0.947800  0.255500  1.0  -0.5909
  O  O626  1  0.702900  0.396200  0.448300  1.0  -0.595
  O  O627  1  0.658400  0.331900  0.385700  1.0  -0.6048
  O  O628  1  0.704600  0.255500  0.307700  1.0  -0.5907
  O  O629  1  0.702900  0.551700  0.947900  1.0  -0.5963
  O  O630  1  0.658400  0.614300  0.946200  1.0  -0.6058
  O  O631  1  0.704600  0.692300  0.947800  1.0  -0.5897
  O  O632  1  0.702900  0.052100  0.603800  1.0  -0.5983
  O  O633  1  0.658400  0.053800  0.668100  1.0  -0.6043
  O  O634  1  0.704600  0.052200  0.744500  1.0  -0.5908
  O  O635  1  0.750000  0.000000  0.645900  1.0  -0.995
  O  O636  1  0.750000  0.645900  0.000000  1.0  -0.9958
  O  O637  1  0.750000  0.354100  0.354100  1.0  -0.9959
  O  O638  1  0.250000  0.000000  0.354100  1.0  -0.9956
  O  O639  1  0.250000  0.354100  0.000000  1.0  -0.9953
  O  O640  1  0.250000  0.645900  0.645900  1.0  -0.9952
