# generated using pymatgen
data_Co3H2C10N9O8
_symmetry_space_group_name_H-M   'P 1'
_cell_length_a   15.61390000
_cell_length_b   18.34390000
_cell_length_c   34.33600000
_cell_angle_alpha   90.00000000
_cell_angle_beta   90.00000000
_cell_angle_gamma   90.00000000
_symmetry_Int_Tables_number   1
_chemical_formula_structural   Co3H2C10N9O8
_chemical_formula_sum   'Co48 H32 C160 N144 O128'
_cell_volume   9834.51094673
_cell_formula_units_Z   16
loop_
 _symmetry_equiv_pos_site_id
 _symmetry_equiv_pos_as_xyz
  1  'x, y, z'
loop_
 _atom_site_type_symbol
 _atom_site_label
 _atom_site_symmetry_multiplicity
 _atom_site_fract_x
 _atom_site_fract_y
 _atom_site_fract_z
 _atom_site_occupancy
 _atom_site_charge
  Co  Co1  1  0.503790  0.610400  0.481580  1.0  0.963
  Co  Co2  1  0.503790  0.110400  0.981580  1.0  0.963
  Co  Co3  1  0.003790  0.610400  0.981580  1.0  0.963
  Co  Co4  1  0.003790  0.110400  0.481580  1.0  0.963
  Co  Co5  1  0.246210  0.139600  0.481580  1.0  0.9622
  Co  Co6  1  0.246210  0.639600  0.981580  1.0  0.9622
  Co  Co7  1  0.746210  0.139600  0.981580  1.0  0.9622
  Co  Co8  1  0.746210  0.639600  0.481580  1.0  0.9622
  Co  Co9  1  0.246210  0.610400  0.268420  1.0  0.962
  Co  Co10  1  0.246210  0.110400  0.768420  1.0  0.962
  Co  Co11  1  0.746210  0.610400  0.768420  1.0  0.962
  Co  Co12  1  0.746210  0.110400  0.268420  1.0  0.962
  Co  Co13  1  0.503790  0.139600  0.268420  1.0  0.9633
  Co  Co14  1  0.503790  0.639600  0.768420  1.0  0.9633
  Co  Co15  1  0.003790  0.139600  0.768420  1.0  0.9633
  Co  Co16  1  0.003790  0.639600  0.268420  1.0  0.9633
  Co  Co17  1  0.496210  0.389600  0.518420  1.0  0.9623
  Co  Co18  1  0.496210  0.889600  0.018420  1.0  0.9623
  Co  Co19  1  0.996210  0.389600  0.018420  1.0  0.9623
  Co  Co20  1  0.996210  0.889600  0.518420  1.0  0.9623
  Co  Co21  1  0.753790  0.860400  0.518420  1.0  0.9631
  Co  Co22  1  0.753790  0.360400  0.018420  1.0  0.9631
  Co  Co23  1  0.253790  0.860400  0.018420  1.0  0.9631
  Co  Co24  1  0.253790  0.360400  0.518420  1.0  0.9631
  Co  Co25  1  0.753790  0.389600  0.731580  1.0  0.963
  Co  Co26  1  0.753790  0.889600  0.231580  1.0  0.963
  Co  Co27  1  0.253790  0.389600  0.231580  1.0  0.963
  Co  Co28  1  0.253790  0.889600  0.731580  1.0  0.963
  Co  Co29  1  0.496210  0.860400  0.731580  1.0  0.9619
  Co  Co30  1  0.496210  0.360400  0.231580  1.0  0.9619
  Co  Co31  1  0.996210  0.860400  0.231580  1.0  0.9619
  Co  Co32  1  0.996210  0.360400  0.731580  1.0  0.9619
  Co  Co33  1  0.875000  0.375000  0.560790  1.0  0.9245
  Co  Co34  1  0.875000  0.875000  0.060790  1.0  0.9245
  Co  Co35  1  0.375000  0.375000  0.060790  1.0  0.9245
  Co  Co36  1  0.375000  0.875000  0.560790  1.0  0.9245
  Co  Co37  1  0.875000  0.375000  0.189210  1.0  0.9236
  Co  Co38  1  0.875000  0.875000  0.689210  1.0  0.9236
  Co  Co39  1  0.375000  0.375000  0.689210  1.0  0.9236
  Co  Co40  1  0.375000  0.875000  0.189210  1.0  0.9236
  Co  Co41  1  0.125000  0.625000  0.439210  1.0  0.9236
  Co  Co42  1  0.125000  0.125000  0.939210  1.0  0.9236
  Co  Co43  1  0.625000  0.625000  0.939210  1.0  0.9236
  Co  Co44  1  0.625000  0.125000  0.439210  1.0  0.9236
  Co  Co45  1  0.125000  0.625000  0.810790  1.0  0.9245
  Co  Co46  1  0.125000  0.125000  0.310790  1.0  0.9245
  Co  Co47  1  0.625000  0.625000  0.310790  1.0  0.9245
  Co  Co48  1  0.625000  0.125000  0.810790  1.0  0.9245
  H  H49  1  0.753100  0.390900  0.637800  1.0  0.1074
  H  H50  1  0.753100  0.890900  0.137800  1.0  0.1074
  H  H51  1  0.253100  0.390900  0.137800  1.0  0.1074
  H  H52  1  0.253100  0.890900  0.637800  1.0  0.1074
  H  H53  1  0.996900  0.359100  0.637800  1.0  0.1067
  H  H54  1  0.996900  0.859100  0.137800  1.0  0.1067
  H  H55  1  0.496900  0.359100  0.137800  1.0  0.1067
  H  H56  1  0.496900  0.859100  0.637800  1.0  0.1067
  H  H57  1  0.996900  0.390900  0.112200  1.0  0.1066
  H  H58  1  0.996900  0.890900  0.612200  1.0  0.1066
  H  H59  1  0.496900  0.390900  0.612200  1.0  0.1066
  H  H60  1  0.496900  0.890900  0.112200  1.0  0.1066
  H  H61  1  0.753100  0.359100  0.112200  1.0  0.107
  H  H62  1  0.753100  0.859100  0.612200  1.0  0.107
  H  H63  1  0.253100  0.359100  0.612200  1.0  0.107
  H  H64  1  0.253100  0.859100  0.112200  1.0  0.107
  H  H65  1  0.246900  0.609100  0.362200  1.0  0.1067
  H  H66  1  0.246900  0.109100  0.862200  1.0  0.1067
  H  H67  1  0.746900  0.609100  0.862200  1.0  0.1067
  H  H68  1  0.746900  0.109100  0.362200  1.0  0.1067
  H  H69  1  0.003100  0.640900  0.362200  1.0  0.107
  H  H70  1  0.003100  0.140900  0.862200  1.0  0.107
  H  H71  1  0.503100  0.640900  0.862200  1.0  0.107
  H  H72  1  0.503100  0.140900  0.362200  1.0  0.107
  H  H73  1  0.003100  0.609100  0.887800  1.0  0.1071
  H  H74  1  0.003100  0.109100  0.387800  1.0  0.1071
  H  H75  1  0.503100  0.609100  0.387800  1.0  0.1071
  H  H76  1  0.503100  0.109100  0.887800  1.0  0.1071
  H  H77  1  0.246900  0.640900  0.887800  1.0  0.1068
  H  H78  1  0.246900  0.140900  0.387800  1.0  0.1068
  H  H79  1  0.746900  0.640900  0.387800  1.0  0.1068
  H  H80  1  0.746900  0.140900  0.887800  1.0  0.1068
  C  C81  1  0.720100  0.505500  0.527590  1.0  0.0214
  C  C82  1  0.809300  0.527200  0.538100  1.0  0.7448
  C  C83  1  0.670000  0.373800  0.552810  1.0  0.7324
  C  C84  1  0.664500  0.448800  0.535340  1.0  0.027
  C  C85  1  0.809300  0.383400  0.645940  1.0  0.2566
  C  C86  1  0.720100  0.005500  0.027590  1.0  0.0214
  C  C87  1  0.809300  0.027200  0.038100  1.0  0.7448
  C  C88  1  0.670000  0.873800  0.052810  1.0  0.7324
  C  C89  1  0.664500  0.948800  0.035340  1.0  0.027
  C  C90  1  0.809300  0.883400  0.145940  1.0  0.2566
  C  C91  1  0.220100  0.505500  0.027590  1.0  0.0214
  C  C92  1  0.309300  0.527200  0.038100  1.0  0.7448
  C  C93  1  0.170000  0.373800  0.052810  1.0  0.7324
  C  C94  1  0.164500  0.448800  0.035340  1.0  0.027
  C  C95  1  0.309300  0.383400  0.145940  1.0  0.2566
  C  C96  1  0.220100  0.005500  0.527590  1.0  0.0214
  C  C97  1  0.309300  0.027200  0.538100  1.0  0.7448
  C  C98  1  0.170000  0.873800  0.552810  1.0  0.7324
  C  C99  1  0.164500  0.948800  0.535340  1.0  0.027
  C  C100  1  0.309300  0.883400  0.645940  1.0  0.2566
  C  C101  1  0.029900  0.244500  0.527590  1.0  0.0208
  C  C102  1  0.940700  0.222800  0.538100  1.0  0.744
  C  C103  1  0.080000  0.376200  0.552810  1.0  0.7327
  C  C104  1  0.085500  0.301200  0.535340  1.0  0.0263
  C  C105  1  0.940700  0.366600  0.645940  1.0  0.2567
  C  C106  1  0.029900  0.744500  0.027590  1.0  0.0208
  C  C107  1  0.940700  0.722800  0.038100  1.0  0.744
  C  C108  1  0.080000  0.876200  0.052810  1.0  0.7327
  C  C109  1  0.085500  0.801200  0.035340  1.0  0.0263
  C  C110  1  0.940700  0.866600  0.145940  1.0  0.2567
  C  C111  1  0.529900  0.244500  0.027590  1.0  0.0208
  C  C112  1  0.440700  0.222800  0.038100  1.0  0.744
  C  C113  1  0.580000  0.376200  0.052810  1.0  0.7327
  C  C114  1  0.585500  0.301200  0.035340  1.0  0.0263
  C  C115  1  0.440700  0.366600  0.145940  1.0  0.2567
  C  C116  1  0.529900  0.744500  0.527590  1.0  0.0208
  C  C117  1  0.440700  0.722800  0.538100  1.0  0.744
  C  C118  1  0.580000  0.876200  0.552810  1.0  0.7327
  C  C119  1  0.585500  0.801200  0.535340  1.0  0.0263
  C  C120  1  0.440700  0.866600  0.645940  1.0  0.2567
  C  C121  1  0.029900  0.505500  0.222410  1.0  0.022
  C  C122  1  0.940700  0.527200  0.211900  1.0  0.7439
  C  C123  1  0.080000  0.373800  0.197190  1.0  0.7321
  C  C124  1  0.085500  0.448800  0.214660  1.0  0.0265
  C  C125  1  0.940700  0.383400  0.104060  1.0  0.2567
  C  C126  1  0.029900  0.005500  0.722410  1.0  0.022
  C  C127  1  0.940700  0.027200  0.711900  1.0  0.7439
  C  C128  1  0.080000  0.873800  0.697190  1.0  0.7321
  C  C129  1  0.085500  0.948800  0.714660  1.0  0.0265
  C  C130  1  0.940700  0.883400  0.604060  1.0  0.2567
  C  C131  1  0.529900  0.505500  0.722410  1.0  0.022
  C  C132  1  0.440700  0.527200  0.711900  1.0  0.7439
  C  C133  1  0.580000  0.373800  0.697190  1.0  0.7321
  C  C134  1  0.585500  0.448800  0.714660  1.0  0.0265
  C  C135  1  0.440700  0.383400  0.604060  1.0  0.2567
  C  C136  1  0.529900  0.005500  0.222410  1.0  0.022
  C  C137  1  0.440700  0.027200  0.211900  1.0  0.7439
  C  C138  1  0.580000  0.873800  0.197190  1.0  0.7321
  C  C139  1  0.585500  0.948800  0.214660  1.0  0.0265
  C  C140  1  0.440700  0.883400  0.104060  1.0  0.2567
  C  C141  1  0.720100  0.244500  0.222410  1.0  0.0219
  C  C142  1  0.809300  0.222800  0.211900  1.0  0.745
  C  C143  1  0.670000  0.376200  0.197190  1.0  0.7321
  C  C144  1  0.664500  0.301200  0.214660  1.0  0.0255
  C  C145  1  0.809300  0.366600  0.104060  1.0  0.2564
  C  C146  1  0.720100  0.744500  0.722410  1.0  0.0219
  C  C147  1  0.809300  0.722800  0.711900  1.0  0.745
  C  C148  1  0.670000  0.876200  0.697190  1.0  0.7321
  C  C149  1  0.664500  0.801200  0.714660  1.0  0.0255
  C  C150  1  0.809300  0.866600  0.604060  1.0  0.2564
  C  C151  1  0.220100  0.244500  0.722410  1.0  0.0219
  C  C152  1  0.309300  0.222800  0.711900  1.0  0.745
  C  C153  1  0.170000  0.376200  0.697190  1.0  0.7321
  C  C154  1  0.164500  0.301200  0.714660  1.0  0.0255
  C  C155  1  0.309300  0.366600  0.604060  1.0  0.2564
  C  C156  1  0.220100  0.744500  0.222410  1.0  0.0219
  C  C157  1  0.309300  0.722800  0.211900  1.0  0.745
  C  C158  1  0.170000  0.876200  0.197190  1.0  0.7321
  C  C159  1  0.164500  0.801200  0.214660  1.0  0.0255
  C  C160  1  0.309300  0.866600  0.104060  1.0  0.2564
  C  C161  1  0.279900  0.494500  0.472410  1.0  0.0214
  C  C162  1  0.190700  0.472800  0.461900  1.0  0.7443
  C  C163  1  0.330000  0.626200  0.447190  1.0  0.7324
  C  C164  1  0.335500  0.551200  0.464660  1.0  0.0251
  C  C165  1  0.190700  0.616600  0.354060  1.0  0.2565
  C  C166  1  0.279900  0.994500  0.972410  1.0  0.0214
  C  C167  1  0.190700  0.972800  0.961900  1.0  0.7443
  C  C168  1  0.330000  0.126200  0.947190  1.0  0.7324
  C  C169  1  0.335500  0.051200  0.964660  1.0  0.0252
  C  C170  1  0.190700  0.116600  0.854060  1.0  0.2565
  C  C171  1  0.779900  0.494500  0.972410  1.0  0.0214
  C  C172  1  0.690700  0.472800  0.961900  1.0  0.7443
  C  C173  1  0.830000  0.626200  0.947190  1.0  0.7324
  C  C174  1  0.835500  0.551200  0.964660  1.0  0.0251
  C  C175  1  0.690700  0.616600  0.854060  1.0  0.2565
  C  C176  1  0.779900  0.994500  0.472410  1.0  0.0214
  C  C177  1  0.690700  0.972800  0.461900  1.0  0.7443
  C  C178  1  0.830000  0.126200  0.447190  1.0  0.7324
  C  C179  1  0.835500  0.051200  0.464660  1.0  0.0252
  C  C180  1  0.690700  0.116600  0.354060  1.0  0.2565
  C  C181  1  0.970100  0.755500  0.472410  1.0  0.0224
  C  C182  1  0.059300  0.777200  0.461900  1.0  0.7444
  C  C183  1  0.920000  0.623800  0.447190  1.0  0.7317
  C  C184  1  0.914500  0.698800  0.464660  1.0  0.0254
  C  C185  1  0.059300  0.633400  0.354060  1.0  0.2564
  C  C186  1  0.970100  0.255500  0.972410  1.0  0.0224
  C  C187  1  0.059300  0.277200  0.961900  1.0  0.7444
  C  C188  1  0.920000  0.123800  0.947190  1.0  0.7317
  C  C189  1  0.914500  0.198800  0.964660  1.0  0.0254
  C  C190  1  0.059300  0.133400  0.854060  1.0  0.2564
  C  C191  1  0.470100  0.755500  0.972410  1.0  0.0224
  C  C192  1  0.559300  0.777200  0.961900  1.0  0.7444
  C  C193  1  0.420000  0.623800  0.947190  1.0  0.7317
  C  C194  1  0.414500  0.698800  0.964660  1.0  0.0254
  C  C195  1  0.559300  0.633400  0.854060  1.0  0.2564
  C  C196  1  0.470100  0.255500  0.472410  1.0  0.0224
  C  C197  1  0.559300  0.277200  0.461900  1.0  0.7444
  C  C198  1  0.420000  0.123800  0.447190  1.0  0.7317
  C  C199  1  0.414500  0.198800  0.464660  1.0  0.0254
  C  C200  1  0.559300  0.133400  0.354060  1.0  0.2564
  C  C201  1  0.970100  0.494500  0.777590  1.0  0.0212
  C  C202  1  0.059300  0.472800  0.788100  1.0  0.7454
  C  C203  1  0.920000  0.626200  0.802810  1.0  0.7325
  C  C204  1  0.914500  0.551200  0.785340  1.0  0.025
  C  C205  1  0.059300  0.616600  0.895940  1.0  0.2565
  C  C206  1  0.970100  0.994500  0.277590  1.0  0.0212
  C  C207  1  0.059300  0.972800  0.288100  1.0  0.7454
  C  C208  1  0.920000  0.126200  0.302810  1.0  0.7325
  C  C209  1  0.914500  0.051200  0.285340  1.0  0.025
  C  C210  1  0.059300  0.116600  0.395940  1.0  0.2565
  C  C211  1  0.470100  0.494500  0.277590  1.0  0.0212
  C  C212  1  0.559300  0.472800  0.288100  1.0  0.7454
  C  C213  1  0.420000  0.626200  0.302810  1.0  0.7325
  C  C214  1  0.414500  0.551200  0.285340  1.0  0.025
  C  C215  1  0.559300  0.616600  0.395940  1.0  0.2565
  C  C216  1  0.470100  0.994500  0.777590  1.0  0.0212
  C  C217  1  0.559300  0.972800  0.788100  1.0  0.7454
  C  C218  1  0.420000  0.126200  0.802810  1.0  0.7325
  C  C219  1  0.414500  0.051200  0.785340  1.0  0.025
  C  C220  1  0.559300  0.116600  0.895940  1.0  0.2565
  C  C221  1  0.279900  0.755500  0.777590  1.0  0.0215
  C  C222  1  0.190700  0.777200  0.788100  1.0  0.7436
  C  C223  1  0.330000  0.623800  0.802810  1.0  0.733
  C  C224  1  0.335500  0.698800  0.785340  1.0  0.0258
  C  C225  1  0.190700  0.633400  0.895940  1.0  0.257
  C  C226  1  0.279900  0.255500  0.277590  1.0  0.0215
  C  C227  1  0.190700  0.277200  0.288100  1.0  0.7436
  C  C228  1  0.330000  0.123800  0.302810  1.0  0.733
  C  C229  1  0.335500  0.198800  0.285340  1.0  0.0258
  C  C230  1  0.190700  0.133400  0.395940  1.0  0.257
  C  C231  1  0.779900  0.755500  0.277590  1.0  0.0215
  C  C232  1  0.690700  0.777200  0.288100  1.0  0.7436
  C  C233  1  0.830000  0.623800  0.302810  1.0  0.733
  C  C234  1  0.835500  0.698800  0.285340  1.0  0.0258
  C  C235  1  0.690700  0.633400  0.395940  1.0  0.257
  C  C236  1  0.779900  0.255500  0.777590  1.0  0.0215
  C  C237  1  0.690700  0.277200  0.788100  1.0  0.7436
  C  C238  1  0.830000  0.123800  0.802810  1.0  0.733
  C  C239  1  0.835500  0.198800  0.785340  1.0  0.0258
  C  C240  1  0.690700  0.133400  0.895940  1.0  0.257
  N  N241  1  0.676000  0.556800  0.508600  1.0  -0.1638
  N  N242  1  0.588000  0.469200  0.521150  1.0  -0.2337
  N  N243  1  0.595700  0.534800  0.505290  1.0  -0.025
  N  N244  1  0.831000  0.380200  0.682500  1.0  -0.265
  N  N245  1  0.676000  0.056800  0.008600  1.0  -0.1638
  N  N246  1  0.588000  0.969200  0.021150  1.0  -0.2337
  N  N247  1  0.595700  0.034800  0.005290  1.0  -0.0296
  N  N248  1  0.831000  0.880200  0.182500  1.0  -0.265
  N  N249  1  0.176000  0.556800  0.008600  1.0  -0.1638
  N  N250  1  0.088000  0.469200  0.021150  1.0  -0.2337
  N  N251  1  0.095700  0.534800  0.005290  1.0  -0.025
  N  N252  1  0.331000  0.380200  0.182500  1.0  -0.265
  N  N253  1  0.176000  0.056800  0.508600  1.0  -0.1638
  N  N254  1  0.088000  0.969200  0.521150  1.0  -0.2337
  N  N255  1  0.095700  0.034800  0.505290  1.0  -0.0296
  N  N256  1  0.331000  0.880200  0.682500  1.0  -0.265
  N  N257  1  0.074000  0.193200  0.508600  1.0  -0.1646
  N  N258  1  0.162000  0.280800  0.521150  1.0  -0.2317
  N  N259  1  0.154300  0.215200  0.505290  1.0  -0.028
  N  N260  1  0.919000  0.369800  0.682500  1.0  -0.2647
  N  N261  1  0.074000  0.693200  0.008600  1.0  -0.1646
  N  N262  1  0.162000  0.780800  0.021150  1.0  -0.2317
  N  N263  1  0.154300  0.715200  0.005290  1.0  -0.028
  N  N264  1  0.919000  0.869800  0.182500  1.0  -0.2647
  N  N265  1  0.574000  0.193200  0.008600  1.0  -0.1646
  N  N266  1  0.662000  0.280800  0.021150  1.0  -0.2317
  N  N267  1  0.654300  0.215200  0.005290  1.0  -0.028
  N  N268  1  0.419000  0.369800  0.182500  1.0  -0.2647
  N  N269  1  0.574000  0.693200  0.508600  1.0  -0.1646
  N  N270  1  0.662000  0.780800  0.521150  1.0  -0.2317
  N  N271  1  0.654300  0.715200  0.505290  1.0  -0.028
  N  N272  1  0.419000  0.869800  0.682500  1.0  -0.2647
  N  N273  1  0.074000  0.556800  0.241400  1.0  -0.165
  N  N274  1  0.162000  0.469200  0.228850  1.0  -0.2318
  N  N275  1  0.154300  0.534800  0.244710  1.0  -0.0311
  N  N276  1  0.919000  0.380200  0.067500  1.0  -0.2643
  N  N277  1  0.074000  0.056800  0.741400  1.0  -0.165
  N  N278  1  0.162000  0.969200  0.728850  1.0  -0.2318
  N  N279  1  0.154300  0.034800  0.744710  1.0  -0.0331
  N  N280  1  0.919000  0.880200  0.567500  1.0  -0.2643
  N  N281  1  0.574000  0.556800  0.741400  1.0  -0.165
  N  N282  1  0.662000  0.469200  0.728850  1.0  -0.2318
  N  N283  1  0.654300  0.534800  0.744710  1.0  -0.0311
  N  N284  1  0.419000  0.380200  0.567500  1.0  -0.2643
  N  N285  1  0.574000  0.056800  0.241400  1.0  -0.165
  N  N286  1  0.662000  0.969200  0.228850  1.0  -0.2318
  N  N287  1  0.654300  0.034800  0.244710  1.0  -0.0331
  N  N288  1  0.419000  0.880200  0.067500  1.0  -0.2643
  N  N289  1  0.676000  0.193200  0.241400  1.0  -0.1651
  N  N290  1  0.588000  0.280800  0.228850  1.0  -0.2335
  N  N291  1  0.595700  0.215200  0.244710  1.0  -0.0288
  N  N292  1  0.831000  0.369800  0.067500  1.0  -0.2642
  N  N293  1  0.676000  0.693200  0.741400  1.0  -0.1651
  N  N294  1  0.588000  0.780800  0.728850  1.0  -0.2335
  N  N295  1  0.595700  0.715200  0.744710  1.0  -0.0288
  N  N296  1  0.831000  0.869800  0.567500  1.0  -0.2642
  N  N297  1  0.176000  0.193200  0.741400  1.0  -0.1651
  N  N298  1  0.088000  0.280800  0.728850  1.0  -0.2335
  N  N299  1  0.095700  0.215200  0.744710  1.0  -0.0288
  N  N300  1  0.331000  0.369800  0.567500  1.0  -0.2642
  N  N301  1  0.176000  0.693200  0.241400  1.0  -0.1651
  N  N302  1  0.088000  0.780800  0.228850  1.0  -0.2335
  N  N303  1  0.095700  0.715200  0.244710  1.0  -0.0288
  N  N304  1  0.331000  0.869800  0.067500  1.0  -0.2642
  N  N305  1  0.324000  0.443200  0.491400  1.0  -0.1655
  N  N306  1  0.412000  0.530800  0.478850  1.0  -0.2316
  N  N307  1  0.404300  0.465200  0.494710  1.0  -0.0307
  N  N308  1  0.169000  0.619800  0.317500  1.0  -0.2644
  N  N309  1  0.324000  0.943200  0.991400  1.0  -0.1655
  N  N310  1  0.412000  0.030800  0.978850  1.0  -0.2316
  N  N311  1  0.404300  0.965200  0.994710  1.0  -0.0307
  N  N312  1  0.169000  0.119800  0.817500  1.0  -0.2644
  N  N313  1  0.824000  0.443200  0.991400  1.0  -0.1655
  N  N314  1  0.912000  0.530800  0.978850  1.0  -0.2316
  N  N315  1  0.904300  0.465200  0.994710  1.0  -0.0307
  N  N316  1  0.669000  0.619800  0.817500  1.0  -0.2644
  N  N317  1  0.824000  0.943200  0.491400  1.0  -0.1655
  N  N318  1  0.912000  0.030800  0.478850  1.0  -0.2316
  N  N319  1  0.904300  0.965200  0.494710  1.0  -0.0307
  N  N320  1  0.669000  0.119800  0.317500  1.0  -0.2644
  N  N321  1  0.926000  0.806800  0.491400  1.0  -0.1646
  N  N322  1  0.838000  0.719200  0.478850  1.0  -0.2337
  N  N323  1  0.845700  0.784800  0.494710  1.0  -0.0303
  N  N324  1  0.081000  0.630200  0.317500  1.0  -0.2642
  N  N325  1  0.926000  0.306800  0.991400  1.0  -0.1646
  N  N326  1  0.838000  0.219200  0.978850  1.0  -0.2337
  N  N327  1  0.845700  0.284800  0.994710  1.0  -0.0303
  N  N328  1  0.081000  0.130200  0.817500  1.0  -0.2642
  N  N329  1  0.426000  0.806800  0.991400  1.0  -0.1646
  N  N330  1  0.338000  0.719200  0.978850  1.0  -0.2337
  N  N331  1  0.345700  0.784800  0.994710  1.0  -0.0303
  N  N332  1  0.581000  0.630200  0.817500  1.0  -0.2642
  N  N333  1  0.426000  0.306800  0.491400  1.0  -0.1646
  N  N334  1  0.338000  0.219200  0.478850  1.0  -0.2337
  N  N335  1  0.345700  0.284800  0.494710  1.0  -0.0303
  N  N336  1  0.581000  0.130200  0.317500  1.0  -0.2642
  N  N337  1  0.926000  0.443200  0.758600  1.0  -0.1643
  N  N338  1  0.838000  0.530800  0.771150  1.0  -0.2336
  N  N339  1  0.845700  0.465200  0.755290  1.0  -0.0282
  N  N340  1  0.081000  0.619800  0.932500  1.0  -0.2651
  N  N341  1  0.926000  0.943200  0.258600  1.0  -0.1643
  N  N342  1  0.838000  0.030800  0.271150  1.0  -0.2336
  N  N343  1  0.845700  0.965200  0.255290  1.0  -0.0282
  N  N344  1  0.081000  0.119800  0.432500  1.0  -0.2651
  N  N345  1  0.426000  0.443200  0.258600  1.0  -0.1643
  N  N346  1  0.338000  0.530800  0.271150  1.0  -0.2336
  N  N347  1  0.345700  0.465200  0.255290  1.0  -0.0282
  N  N348  1  0.581000  0.619800  0.432500  1.0  -0.2651
  N  N349  1  0.426000  0.943200  0.758600  1.0  -0.1643
  N  N350  1  0.338000  0.030800  0.771150  1.0  -0.2336
  N  N351  1  0.345700  0.965200  0.755290  1.0  -0.0282
  N  N352  1  0.581000  0.119800  0.932500  1.0  -0.2651
  N  N353  1  0.324000  0.806800  0.758600  1.0  -0.1641
  N  N354  1  0.412000  0.719200  0.771150  1.0  -0.2319
  N  N355  1  0.404300  0.784800  0.755290  1.0  -0.0302
  N  N356  1  0.169000  0.630200  0.932500  1.0  -0.2646
  N  N357  1  0.324000  0.306800  0.258600  1.0  -0.1641
  N  N358  1  0.412000  0.219200  0.271150  1.0  -0.2319
  N  N359  1  0.404300  0.284800  0.255290  1.0  -0.0302
  N  N360  1  0.169000  0.130200  0.432500  1.0  -0.2646
  N  N361  1  0.824000  0.806800  0.258600  1.0  -0.1641
  N  N362  1  0.912000  0.719200  0.271150  1.0  -0.2319
  N  N363  1  0.904300  0.784800  0.255290  1.0  -0.0302
  N  N364  1  0.669000  0.630200  0.432500  1.0  -0.2646
  N  N365  1  0.824000  0.306800  0.758600  1.0  -0.1641
  N  N366  1  0.912000  0.219200  0.771150  1.0  -0.2319
  N  N367  1  0.904300  0.284800  0.755290  1.0  -0.0302
  N  N368  1  0.669000  0.130200  0.932500  1.0  -0.2646
  N  N369  1  0.875000  0.375000  0.620900  1.0  -0.3932
  N  N370  1  0.875000  0.875000  0.120900  1.0  -0.3932
  N  N371  1  0.375000  0.375000  0.120900  1.0  -0.3932
  N  N372  1  0.375000  0.875000  0.620900  1.0  -0.3932
  N  N373  1  0.875000  0.375000  0.129100  1.0  -0.3948
  N  N374  1  0.875000  0.875000  0.629100  1.0  -0.3948
  N  N375  1  0.375000  0.375000  0.629100  1.0  -0.3948
  N  N376  1  0.375000  0.875000  0.129100  1.0  -0.3948
  N  N377  1  0.125000  0.625000  0.379100  1.0  -0.3948
  N  N378  1  0.125000  0.125000  0.879100  1.0  -0.3948
  N  N379  1  0.625000  0.625000  0.879100  1.0  -0.3948
  N  N380  1  0.625000  0.125000  0.379100  1.0  -0.3948
  N  N381  1  0.125000  0.625000  0.870900  1.0  -0.3932
  N  N382  1  0.125000  0.125000  0.370900  1.0  -0.3932
  N  N383  1  0.625000  0.625000  0.370900  1.0  -0.3932
  N  N384  1  0.625000  0.125000  0.870900  1.0  -0.3932
  O  O385  1  0.832300  0.589200  0.525890  1.0  -0.5957
  O  O386  1  0.740700  0.348300  0.562200  1.0  -0.6671
  O  O387  1  0.600200  0.341600  0.555700  1.0  -0.5546
  O  O388  1  0.854300  0.487300  0.559760  1.0  -0.6054
  O  O389  1  0.832300  0.089200  0.025890  1.0  -0.5957
  O  O390  1  0.740700  0.848300  0.062200  1.0  -0.6671
  O  O391  1  0.600200  0.841600  0.055700  1.0  -0.5546
  O  O392  1  0.854300  0.987300  0.059760  1.0  -0.6054
  O  O393  1  0.332300  0.589200  0.025890  1.0  -0.5957
  O  O394  1  0.240700  0.348300  0.062200  1.0  -0.6671
  O  O395  1  0.100200  0.341600  0.055700  1.0  -0.5546
  O  O396  1  0.354300  0.487300  0.059760  1.0  -0.6054
  O  O397  1  0.332300  0.089200  0.525890  1.0  -0.5957
  O  O398  1  0.240700  0.848300  0.562200  1.0  -0.6671
  O  O399  1  0.100200  0.841600  0.555700  1.0  -0.5546
  O  O400  1  0.354300  0.987300  0.559760  1.0  -0.6054
  O  O401  1  0.917700  0.160800  0.525890  1.0  -0.597
  O  O402  1  0.009300  0.401700  0.562200  1.0  -0.67
  O  O403  1  0.149800  0.408400  0.555700  1.0  -0.556
  O  O404  1  0.895700  0.262700  0.559760  1.0  -0.6042
  O  O405  1  0.917700  0.660800  0.025890  1.0  -0.597
  O  O406  1  0.009300  0.901700  0.062200  1.0  -0.67
  O  O407  1  0.149800  0.908400  0.055700  1.0  -0.556
  O  O408  1  0.895700  0.762700  0.059760  1.0  -0.6042
  O  O409  1  0.417700  0.160800  0.025890  1.0  -0.597
  O  O410  1  0.509300  0.401700  0.062200  1.0  -0.67
  O  O411  1  0.649800  0.408400  0.055700  1.0  -0.556
  O  O412  1  0.395700  0.262700  0.059760  1.0  -0.6042
  O  O413  1  0.417700  0.660800  0.525890  1.0  -0.597
  O  O414  1  0.509300  0.901700  0.562200  1.0  -0.67
  O  O415  1  0.649800  0.908400  0.555700  1.0  -0.556
  O  O416  1  0.395700  0.762700  0.559760  1.0  -0.6042
  O  O417  1  0.917700  0.589200  0.224110  1.0  -0.5964
  O  O418  1  0.009300  0.348300  0.187800  1.0  -0.6673
  O  O419  1  0.149800  0.341600  0.194300  1.0  -0.5562
  O  O420  1  0.895700  0.487300  0.190240  1.0  -0.6029
  O  O421  1  0.917700  0.089200  0.724110  1.0  -0.5964
  O  O422  1  0.009300  0.848300  0.687800  1.0  -0.6673
  O  O423  1  0.149800  0.841600  0.694300  1.0  -0.5562
  O  O424  1  0.895700  0.987300  0.690240  1.0  -0.6029
  O  O425  1  0.417700  0.589200  0.724110  1.0  -0.5964
  O  O426  1  0.509300  0.348300  0.687800  1.0  -0.6673
  O  O427  1  0.649800  0.341600  0.694300  1.0  -0.5562
  O  O428  1  0.395700  0.487300  0.690240  1.0  -0.6029
  O  O429  1  0.417700  0.089200  0.224110  1.0  -0.5964
  O  O430  1  0.509300  0.848300  0.187800  1.0  -0.6673
  O  O431  1  0.649800  0.841600  0.194300  1.0  -0.5562
  O  O432  1  0.395700  0.987300  0.190240  1.0  -0.6029
  O  O433  1  0.832300  0.160800  0.224110  1.0  -0.5953
  O  O434  1  0.740700  0.401700  0.187800  1.0  -0.6699
  O  O435  1  0.600200  0.408400  0.194300  1.0  -0.5544
  O  O436  1  0.854300  0.262700  0.190240  1.0  -0.6044
  O  O437  1  0.832300  0.660800  0.724110  1.0  -0.5953
  O  O438  1  0.740700  0.901700  0.687800  1.0  -0.6699
  O  O439  1  0.600200  0.908400  0.694300  1.0  -0.5544
  O  O440  1  0.854300  0.762700  0.690240  1.0  -0.6044
  O  O441  1  0.332300  0.160800  0.724110  1.0  -0.5953
  O  O442  1  0.240700  0.401700  0.687800  1.0  -0.6699
  O  O443  1  0.100200  0.408400  0.694300  1.0  -0.5544
  O  O444  1  0.354300  0.262700  0.690240  1.0  -0.6044
  O  O445  1  0.332300  0.660800  0.224110  1.0  -0.5953
  O  O446  1  0.240700  0.901700  0.187800  1.0  -0.6699
  O  O447  1  0.100200  0.908400  0.194300  1.0  -0.5544
  O  O448  1  0.354300  0.762700  0.190240  1.0  -0.6044
  O  O449  1  0.167700  0.410800  0.474110  1.0  -0.5957
  O  O450  1  0.259300  0.651700  0.437800  1.0  -0.6699
  O  O451  1  0.399800  0.658400  0.444300  1.0  -0.5547
  O  O452  1  0.145700  0.512700  0.440240  1.0  -0.6031
  O  O453  1  0.167700  0.910800  0.974110  1.0  -0.5957
  O  O454  1  0.259300  0.151700  0.937800  1.0  -0.6699
  O  O455  1  0.399800  0.158400  0.944300  1.0  -0.5547
  O  O456  1  0.145700  0.012700  0.940240  1.0  -0.6031
  O  O457  1  0.667700  0.410800  0.974110  1.0  -0.5957
  O  O458  1  0.759300  0.651700  0.937800  1.0  -0.6699
  O  O459  1  0.899800  0.658400  0.944300  1.0  -0.5542
  O  O460  1  0.645700  0.512700  0.940240  1.0  -0.6031
  O  O461  1  0.667700  0.910800  0.474110  1.0  -0.5957
  O  O462  1  0.759300  0.151700  0.437800  1.0  -0.6699
  O  O463  1  0.899800  0.158400  0.444300  1.0  -0.5542
  O  O464  1  0.645700  0.012700  0.440240  1.0  -0.6031
  O  O465  1  0.082300  0.839200  0.474110  1.0  -0.5957
  O  O466  1  0.990700  0.598300  0.437800  1.0  -0.6666
  O  O467  1  0.850200  0.591600  0.444300  1.0  -0.555
  O  O468  1  0.104300  0.737300  0.440240  1.0  -0.6036
  O  O469  1  0.082300  0.339200  0.974110  1.0  -0.5957
  O  O470  1  0.990700  0.098300  0.937800  1.0  -0.6666
  O  O471  1  0.850200  0.091600  0.944300  1.0  -0.555
  O  O472  1  0.104300  0.237300  0.940240  1.0  -0.6036
  O  O473  1  0.582300  0.839200  0.974110  1.0  -0.5957
  O  O474  1  0.490700  0.598300  0.937800  1.0  -0.6666
  O  O475  1  0.350200  0.591600  0.944300  1.0  -0.555
  O  O476  1  0.604300  0.737300  0.940240  1.0  -0.6036
  O  O477  1  0.582300  0.339200  0.474110  1.0  -0.5957
  O  O478  1  0.490700  0.098300  0.437800  1.0  -0.6666
  O  O479  1  0.350200  0.091600  0.444300  1.0  -0.555
  O  O480  1  0.604300  0.237300  0.440240  1.0  -0.6036
  O  O481  1  0.082300  0.410800  0.775890  1.0  -0.596
  O  O482  1  0.990700  0.651700  0.812200  1.0  -0.6701
  O  O483  1  0.850200  0.658400  0.805700  1.0  -0.5543
  O  O484  1  0.104300  0.512700  0.809760  1.0  -0.6052
  O  O485  1  0.082300  0.910800  0.275890  1.0  -0.596
  O  O486  1  0.990700  0.151700  0.312200  1.0  -0.6701
  O  O487  1  0.850200  0.158400  0.305700  1.0  -0.5543
  O  O488  1  0.104300  0.012700  0.309760  1.0  -0.6052
  O  O489  1  0.582300  0.410800  0.275890  1.0  -0.596
  O  O490  1  0.490700  0.651700  0.312200  1.0  -0.6701
  O  O491  1  0.350200  0.658400  0.305700  1.0  -0.5543
  O  O492  1  0.604300  0.512700  0.309760  1.0  -0.6052
  O  O493  1  0.582300  0.910800  0.775890  1.0  -0.596
  O  O494  1  0.490700  0.151700  0.812200  1.0  -0.6701
  O  O495  1  0.350200  0.158400  0.805700  1.0  -0.5543
  O  O496  1  0.604300  0.012700  0.809760  1.0  -0.6052
  O  O497  1  0.167700  0.839200  0.775890  1.0  -0.5972
  O  O498  1  0.259300  0.598300  0.812200  1.0  -0.6679
  O  O499  1  0.399800  0.591600  0.805700  1.0  -0.5558
  O  O500  1  0.145700  0.737300  0.809760  1.0  -0.6048
  O  O501  1  0.167700  0.339200  0.275890  1.0  -0.5972
  O  O502  1  0.259300  0.098300  0.312200  1.0  -0.6679
  O  O503  1  0.399800  0.091600  0.305700  1.0  -0.5558
  O  O504  1  0.145700  0.237300  0.309760  1.0  -0.6048
  O  O505  1  0.667700  0.839200  0.275890  1.0  -0.5972
  O  O506  1  0.759300  0.598300  0.312200  1.0  -0.6679
  O  O507  1  0.899800  0.591600  0.305700  1.0  -0.5555
  O  O508  1  0.645700  0.737300  0.309760  1.0  -0.6048
  O  O509  1  0.667700  0.339200  0.775890  1.0  -0.5972
  O  O510  1  0.759300  0.098300  0.812200  1.0  -0.6679
  O  O511  1  0.899800  0.091600  0.805700  1.0  -0.5555
  O  O512  1  0.645700  0.237300  0.809760  1.0  -0.6048
