# generated using pymatgen
data_CoHC5O4
_symmetry_space_group_name_H-M   'P 1'
_cell_length_a   6.93620000
_cell_length_b   7.45590000
_cell_length_c   8.27970000
_cell_angle_alpha   90.34200000
_cell_angle_beta   109.84800000
_cell_angle_gamma   93.16100000
_symmetry_Int_Tables_number   1
_chemical_formula_structural   CoHC5O4
_chemical_formula_sum   'Co2 H2 C10 O8'
_cell_volume   402.00208306
_cell_formula_units_Z   2
loop_
 _symmetry_equiv_pos_site_id
 _symmetry_equiv_pos_as_xyz
  1  'x, y, z'
loop_
 _atom_site_type_symbol
 _atom_site_label
 _atom_site_symmetry_multiplicity
 _atom_site_fract_x
 _atom_site_fract_y
 _atom_site_fract_z
 _atom_site_occupancy
 _atom_site_charge
  Co  Co1  1  0.000000  0.000000  0.500000  1.0  1.099
  Co  Co2  1  0.500000  0.500000  0.500000  1.0  1.0994
  H  H3  1  0.575900  0.708800  0.960100  1.0  0.112
  H  H4  1  0.424100  0.291200  0.039900  1.0  0.1099
  C  C5  1  0.647700  0.758900  0.284500  1.0  0.7258
  C  C6  1  0.580700  0.891900  0.142600  1.0  -0.1012
  C  C7  1  0.536000  0.067700  0.166700  1.0  -0.111
  C  C8  1  0.575400  0.156300  0.340400  1.0  0.7213
  C  C9  1  0.545100  0.825900  0.976200  1.0  -0.0115
  C  C10  1  0.352300  0.241100  0.715500  1.0  0.7221
  C  C11  1  0.419300  0.108100  0.857400  1.0  -0.1017
  C  C12  1  0.464000  0.932300  0.833300  1.0  -0.1128
  C  C13  1  0.424600  0.843700  0.659600  1.0  0.7218
  C  C14  1  0.454900  0.174100  0.023800  1.0  -0.0135
  O  O15  1  0.830600  0.767500  0.388100  1.0  -0.6114
  O  O16  1  0.512500  0.642400  0.287700  1.0  -0.5924
  O  O17  1  0.735500  0.128300  0.462200  1.0  -0.6177
  O  O18  1  0.443000  0.262000  0.350100  1.0  -0.6094
  O  O19  1  0.169400  0.232500  0.611900  1.0  -0.6122
  O  O20  1  0.487500  0.357600  0.712300  1.0  -0.5915
  O  O21  1  0.264500  0.871700  0.537800  1.0  -0.619
  O  O22  1  0.557000  0.738000  0.649900  1.0  -0.606
