# generated using pymatgen
data_CoHC5O4
_symmetry_space_group_name_H-M   'P 1'
_cell_length_a   6.95750000
_cell_length_b   7.43830000
_cell_length_c   8.25780000
_cell_angle_alpha   90.36650000
_cell_angle_beta   109.80300000
_cell_angle_gamma   93.23980000
_symmetry_Int_Tables_number   1
_chemical_formula_structural   CoHC5O4
_chemical_formula_sum   'Co2 H2 C10 O8'
_cell_volume   401.29373723
_cell_formula_units_Z   2
loop_
 _symmetry_equiv_pos_site_id
 _symmetry_equiv_pos_as_xyz
  1  'x, y, z'
loop_
 _atom_site_type_symbol
 _atom_site_label
 _atom_site_symmetry_multiplicity
 _atom_site_fract_x
 _atom_site_fract_y
 _atom_site_fract_z
 _atom_site_occupancy
 _atom_site_charge
  Co  Co1  1  0.497490  0.500500  0.000400  1.0  1.0929
  Co  Co2  1  0.000000  0.000000  0.000000  1.0  1.0894
  H  H3  1  0.419060  0.295480  0.540380  1.0  0.1192
  H  H4  1  0.571010  0.705310  0.457810  1.0  0.1173
  C  C5  1  0.459880  0.933700  0.334720  1.0  -0.1062
  C  C6  1  0.449930  0.175390  0.524090  1.0  -0.0298
  C  C7  1  0.414830  0.107990  0.359010  1.0  -0.0924
  C  C8  1  0.348950  0.241180  0.216530  1.0  0.7312
  C  C9  1  0.419520  0.843790  0.159530  1.0  0.7252
  C  C10  1  0.532280  0.069100  0.667580  1.0  -0.1213
  C  C11  1  0.579520  0.890910  0.642290  1.0  -0.0965
  C  C12  1  0.541740  0.825710  0.475110  1.0  -0.0369
  C  C13  1  0.644790  0.759220  0.785770  1.0  0.7175
  C  C14  1  0.571940  0.157710  0.839460  1.0  0.7117
  O  O15  1  0.508630  0.642850  0.787820  1.0  -0.5803
  O  O16  1  0.482220  0.361850  0.214580  1.0  -0.5842
  O  O17  1  0.440840  0.261650  0.851020  1.0  -0.5995
  O  O18  1  0.552810  0.741350  0.149380  1.0  -0.607
  O  O19  1  0.731930  0.128250  0.964280  1.0  -0.6282
  O  O20  1  0.826470  0.768660  0.890490  1.0  -0.6067
  O  O21  1  0.165180  0.233440  0.112910  1.0  -0.6042
  O  O22  1  0.257630  0.868650  0.039020  1.0  -0.6111
