# generated using pymatgen
data_CoHC5O4
_symmetry_space_group_name_H-M   'P 1'
_cell_length_a   6.91040000
_cell_length_b   7.42530000
_cell_length_c   8.25440000
_cell_angle_alpha   90.39700000
_cell_angle_beta   109.83500000
_cell_angle_gamma   93.13700000
_symmetry_Int_Tables_number   1
_chemical_formula_structural   CoHC5O4
_chemical_formula_sum   'Co2 H2 C10 O8'
_cell_volume   397.67688878
_cell_formula_units_Z   2
loop_
 _symmetry_equiv_pos_site_id
 _symmetry_equiv_pos_as_xyz
  1  'x, y, z'
loop_
 _atom_site_type_symbol
 _atom_site_label
 _atom_site_symmetry_multiplicity
 _atom_site_fract_x
 _atom_site_fract_y
 _atom_site_fract_z
 _atom_site_occupancy
 _atom_site_charge
  Co  Co1  1  0.000000  0.500000  0.000000  1.0  1.0987
  Co  Co2  1  0.500000  0.000000  0.000000  1.0  1.1048
  H  H3  1  0.442000  0.795000  0.547000  1.0  0.1188
  H  H4  1  0.558000  0.205000  0.453000  1.0  0.1189
  C  C5  1  0.535600  0.568100  0.666500  1.0  -0.117
  C  C6  1  0.580400  0.392100  0.642000  1.0  -0.0861
  C  C7  1  0.456100  0.674500  0.524200  1.0  -0.0454
  C  C8  1  0.648000  0.259500  0.784700  1.0  0.7329
  C  C9  1  0.574500  0.657000  0.839600  1.0  0.7027
  C  C10  1  0.464400  0.431900  0.333500  1.0  -0.1135
  C  C11  1  0.419600  0.607900  0.358000  1.0  -0.0882
  C  C12  1  0.543900  0.325500  0.475800  1.0  -0.0465
  C  C13  1  0.352000  0.740500  0.215300  1.0  0.73
  C  C14  1  0.425500  0.343000  0.160400  1.0  0.7042
  O  O15  1  0.444100  0.761900  0.850300  1.0  -0.5947
  O  O16  1  0.737000  0.629500  0.962300  1.0  -0.6233
  O  O17  1  0.829300  0.268200  0.888400  1.0  -0.6035
  O  O18  1  0.511700  0.143000  0.787700  1.0  -0.5858
  O  O19  1  0.555900  0.238100  0.149700  1.0  -0.5921
  O  O20  1  0.263000  0.370500  0.037700  1.0  -0.6242
  O  O21  1  0.170700  0.731800  0.111600  1.0  -0.6051
  O  O22  1  0.488300  0.857000  0.212300  1.0  -0.5855
