# generated using pymatgen
data_Cr3Cu3H36C42N6Cl7O13
_symmetry_space_group_name_H-M   'P 1'
_cell_length_a   13.46900000
_cell_length_b   13.46900000
_cell_length_c   27.51000000
_cell_angle_alpha   90.00000000
_cell_angle_beta   90.00000000
_cell_angle_gamma   120.00000000
_symmetry_Int_Tables_number   1
_chemical_formula_structural   Cr3Cu3H36C42N6Cl7O13
_chemical_formula_sum   'Cr6 Cu6 H72 C84 N12 Cl14 O26'
_cell_volume   4322.07130874
_cell_formula_units_Z   2
loop_
 _symmetry_equiv_pos_site_id
 _symmetry_equiv_pos_as_xyz
  1  'x, y, z'
loop_
 _atom_site_type_symbol
 _atom_site_label
 _atom_site_symmetry_multiplicity
 _atom_site_fract_x
 _atom_site_fract_y
 _atom_site_fract_z
 _atom_site_occupancy
 _atom_site_charge
  Cr  Cr1  1  0.485500  0.790200  0.750000  1.0  1.5656
  Cr  Cr2  1  0.304700  0.514500  0.750000  1.0  1.5638
  Cr  Cr3  1  0.209800  0.695300  0.750000  1.0  1.5645
  Cr  Cr4  1  0.304700  0.790200  0.250000  1.0  1.5657
  Cr  Cr5  1  0.209800  0.514500  0.250000  1.0  1.5643
  Cr  Cr6  1  0.485500  0.695300  0.250000  1.0  1.5639
  Cu  Cu7  1  0.777800  0.888900  0.000000  1.0  0.6861
  Cu  Cu8  1  0.111100  0.222200  0.000000  1.0  0.6867
  Cu  Cu9  1  0.111100  0.888900  0.000000  1.0  0.6855
  Cu  Cu10  1  0.777800  0.888900  0.500000  1.0  0.6861
  Cu  Cu11  1  0.111100  0.222200  0.500000  1.0  0.6867
  Cu  Cu12  1  0.111100  0.888900  0.500000  1.0  0.6855
  H  H13  1  0.837100  0.850300  0.920600  1.0  0.3283
  H  H14  1  0.846600  0.774900  0.956200  1.0  0.3007
  H  H15  1  0.545200  0.424700  0.939500  1.0  0.1079
  H  H16  1  0.701600  0.588000  0.971700  1.0  0.1153
  H  H17  1  0.666300  0.781600  0.868800  1.0  0.1228
  H  H18  1  0.449300  0.439900  0.872000  1.0  0.1099
  H  H19  1  0.013200  0.162900  0.920600  1.0  0.3282
  H  H20  1  0.928300  0.153400  0.956200  1.0  0.301
  H  H21  1  0.879500  0.454800  0.939500  1.0  0.1068
  H  H22  1  0.886400  0.298400  0.971700  1.0  0.1153
  H  H23  1  0.115300  0.333700  0.868800  1.0  0.1214
  H  H24  1  0.990600  0.550700  0.872000  1.0  0.1097
  H  H25  1  0.149700  0.986800  0.920600  1.0  0.329
  H  H26  1  0.225100  0.071700  0.956200  1.0  0.2986
  H  H27  1  0.575300  0.120500  0.939500  1.0  0.1071
  H  H28  1  0.412000  0.113600  0.971700  1.0  0.1142
  H  H29  1  0.218400  0.884700  0.868800  1.0  0.1207
  H  H30  1  0.560100  0.009400  0.872000  1.0  0.1098
  H  H31  1  0.837100  0.850300  0.579400  1.0  0.3293
  H  H32  1  0.846600  0.774900  0.543800  1.0  0.3006
  H  H33  1  0.545200  0.424700  0.560500  1.0  0.1077
  H  H34  1  0.701600  0.588000  0.528300  1.0  0.1147
  H  H35  1  0.666300  0.781600  0.631200  1.0  0.1228
  H  H36  1  0.449300  0.439900  0.628000  1.0  0.11
  H  H37  1  0.013200  0.162900  0.579400  1.0  0.3292
  H  H38  1  0.928300  0.153400  0.543800  1.0  0.3016
  H  H39  1  0.879500  0.454800  0.560500  1.0  0.1067
  H  H40  1  0.886400  0.298400  0.528300  1.0  0.115
  H  H41  1  0.115300  0.333700  0.631200  1.0  0.1215
  H  H42  1  0.990600  0.550700  0.628000  1.0  0.1096
  H  H43  1  0.149700  0.986800  0.579400  1.0  0.3301
  H  H44  1  0.225100  0.071700  0.543800  1.0  0.2997
  H  H45  1  0.575300  0.120500  0.560500  1.0  0.1069
  H  H46  1  0.412000  0.113600  0.528300  1.0  0.1143
  H  H47  1  0.218400  0.884700  0.631200  1.0  0.1209
  H  H48  1  0.560100  0.009400  0.628000  1.0  0.1097
  H  H49  1  0.013200  0.850300  0.420600  1.0  0.3279
  H  H50  1  0.928300  0.774900  0.456200  1.0  0.2999
  H  H51  1  0.879500  0.424700  0.439500  1.0  0.1078
  H  H52  1  0.886400  0.588000  0.471700  1.0  0.1149
  H  H53  1  0.115300  0.781600  0.368800  1.0  0.123
  H  H54  1  0.990600  0.439900  0.372000  1.0  0.1098
  H  H55  1  0.149700  0.162900  0.420600  1.0  0.329
  H  H56  1  0.225100  0.153400  0.456200  1.0  0.3009
  H  H57  1  0.575300  0.454800  0.439500  1.0  0.1072
  H  H58  1  0.412000  0.298400  0.471700  1.0  0.1152
  H  H59  1  0.218400  0.333700  0.368800  1.0  0.1213
  H  H60  1  0.560100  0.550700  0.372000  1.0  0.1097
  H  H61  1  0.837100  0.986800  0.420600  1.0  0.3286
  H  H62  1  0.846600  0.071700  0.456200  1.0  0.2988
  H  H63  1  0.545200  0.120500  0.439500  1.0  0.1071
  H  H64  1  0.701600  0.113600  0.471700  1.0  0.1143
  H  H65  1  0.666300  0.884700  0.368800  1.0  0.1211
  H  H66  1  0.449300  0.009400  0.372000  1.0  0.1101
  H  H67  1  0.013200  0.850300  0.079400  1.0  0.3287
  H  H68  1  0.928300  0.774900  0.043800  1.0  0.3006
  H  H69  1  0.879500  0.424700  0.060500  1.0  0.1077
  H  H70  1  0.886400  0.588000  0.028300  1.0  0.1145
  H  H71  1  0.115300  0.781600  0.131200  1.0  0.1231
  H  H72  1  0.990600  0.439900  0.128000  1.0  0.1099
  H  H73  1  0.149700  0.162900  0.079400  1.0  0.3298
  H  H74  1  0.225100  0.153400  0.043800  1.0  0.301
  H  H75  1  0.575300  0.454800  0.060500  1.0  0.1071
  H  H76  1  0.412000  0.298400  0.028300  1.0  0.1149
  H  H77  1  0.218400  0.333700  0.131200  1.0  0.1213
  H  H78  1  0.560100  0.550700  0.128000  1.0  0.1094
  H  H79  1  0.837100  0.986800  0.079400  1.0  0.3289
  H  H80  1  0.846600  0.071700  0.043800  1.0  0.2995
  H  H81  1  0.545200  0.120500  0.060500  1.0  0.1069
  H  H82  1  0.701600  0.113600  0.028300  1.0  0.1141
  H  H83  1  0.666300  0.884700  0.131200  1.0  0.1211
  H  H84  1  0.449300  0.009400  0.128000  1.0  0.1099
  C  C85  1  0.569600  0.496700  0.925300  1.0  -0.0714
  C  C86  1  0.663000  0.594200  0.944500  1.0  -0.1479
  C  C87  1  0.699100  0.700600  0.923400  1.0  0.2278
  C  C88  1  0.641900  0.709600  0.883100  1.0  -0.143
  C  C89  1  0.548600  0.612300  0.863900  1.0  -0.1474
  C  C90  1  0.512400  0.505700  0.885000  1.0  -0.0428
  C  C91  1  0.495700  0.628800  0.819200  1.0  0.7845
  C  C92  1  0.927100  0.430400  0.925300  1.0  -0.0743
  C  C93  1  0.931200  0.337000  0.944500  1.0  -0.1503
  C  C94  1  0.001500  0.300900  0.923400  1.0  0.2277
  C  C95  1  0.067700  0.358100  0.883100  1.0  -0.1426
  C  C96  1  0.063700  0.451400  0.863900  1.0  -0.1471
  C  C97  1  0.993300  0.487600  0.885000  1.0  -0.0414
  C  C98  1  0.133100  0.504300  0.819200  1.0  0.7853
  C  C99  1  0.503300  0.072900  0.925300  1.0  -0.0721
  C  C100  1  0.405800  0.068800  0.944500  1.0  -0.1506
  C  C101  1  0.299400  0.998500  0.923400  1.0  0.2263
  C  C102  1  0.290400  0.932300  0.883100  1.0  -0.1433
  C  C103  1  0.387700  0.936300  0.863900  1.0  -0.1466
  C  C104  1  0.494300  0.006700  0.885000  1.0  -0.0409
  C  C105  1  0.371200  0.866900  0.819200  1.0  0.7853
  C  C106  1  0.569600  0.496700  0.574700  1.0  -0.0708
  C  C107  1  0.663000  0.594200  0.555500  1.0  -0.1477
  C  C108  1  0.699100  0.700600  0.576600  1.0  0.2282
  C  C109  1  0.641900  0.709600  0.616900  1.0  -0.1428
  C  C110  1  0.548600  0.612300  0.636100  1.0  -0.1466
  C  C111  1  0.512400  0.505700  0.615000  1.0  -0.0427
  C  C112  1  0.495700  0.628800  0.680800  1.0  0.7854
  C  C113  1  0.927100  0.430400  0.574700  1.0  -0.0741
  C  C114  1  0.931200  0.337000  0.555500  1.0  -0.15
  C  C115  1  0.001500  0.300900  0.576600  1.0  0.2277
  C  C116  1  0.067700  0.358100  0.616900  1.0  -0.1429
  C  C117  1  0.063700  0.451400  0.636100  1.0  -0.1477
  C  C118  1  0.993300  0.487600  0.615000  1.0  -0.0411
  C  C119  1  0.133100  0.504300  0.680800  1.0  0.7852
  C  C120  1  0.503300  0.072900  0.574700  1.0  -0.0716
  C  C121  1  0.405800  0.068800  0.555500  1.0  -0.1501
  C  C122  1  0.299400  0.998500  0.576600  1.0  0.2266
  C  C123  1  0.290400  0.932300  0.616900  1.0  -0.1437
  C  C124  1  0.387700  0.936300  0.636100  1.0  -0.1462
  C  C125  1  0.494300  0.006700  0.615000  1.0  -0.0407
  C  C126  1  0.371200  0.866900  0.680800  1.0  0.7856
  C  C127  1  0.927100  0.496700  0.425300  1.0  -0.0713
  C  C128  1  0.931200  0.594200  0.444500  1.0  -0.1476
  C  C129  1  0.001500  0.700600  0.423400  1.0  0.2275
  C  C130  1  0.067700  0.709600  0.383100  1.0  -0.1436
  C  C131  1  0.063700  0.612300  0.363900  1.0  -0.1471
  C  C132  1  0.993300  0.505700  0.385000  1.0  -0.0424
  C  C133  1  0.133100  0.628800  0.319200  1.0  0.7852
  C  C134  1  0.503300  0.430400  0.425300  1.0  -0.0733
  C  C135  1  0.405800  0.337000  0.444500  1.0  -0.151
  C  C136  1  0.299400  0.300900  0.423400  1.0  0.2281
  C  C137  1  0.290400  0.358100  0.383100  1.0  -0.1423
  C  C138  1  0.387700  0.451400  0.363900  1.0  -0.1473
  C  C139  1  0.494300  0.487600  0.385000  1.0  -0.0413
  C  C140  1  0.371200  0.504300  0.319200  1.0  0.786
  C  C141  1  0.569600  0.072900  0.425300  1.0  -0.073
  C  C142  1  0.663000  0.068800  0.444500  1.0  -0.1495
  C  C143  1  0.699100  0.998500  0.423400  1.0  0.2269
  C  C144  1  0.641900  0.932300  0.383100  1.0  -0.1431
  C  C145  1  0.548600  0.936300  0.363900  1.0  -0.1465
  C  C146  1  0.512400  0.006700  0.385000  1.0  -0.041
  C  C147  1  0.495700  0.866900  0.319200  1.0  0.7846
  C  C148  1  0.927100  0.496700  0.074700  1.0  -0.0709
  C  C149  1  0.931200  0.594200  0.055500  1.0  -0.1477
  C  C150  1  0.001500  0.700600  0.076600  1.0  0.2277
  C  C151  1  0.067700  0.709600  0.116900  1.0  -0.1434
  C  C152  1  0.063700  0.612300  0.136100  1.0  -0.1465
  C  C153  1  0.993300  0.505700  0.115000  1.0  -0.0423
  C  C154  1  0.133100  0.628800  0.180800  1.0  0.7856
  C  C155  1  0.503300  0.430400  0.074700  1.0  -0.0728
  C  C156  1  0.405800  0.337000  0.055500  1.0  -0.1503
  C  C157  1  0.299400  0.300900  0.076600  1.0  0.2281
  C  C158  1  0.290400  0.358100  0.116900  1.0  -0.1429
  C  C159  1  0.387700  0.451400  0.136100  1.0  -0.1474
  C  C160  1  0.494300  0.487600  0.115000  1.0  -0.0411
  C  C161  1  0.371200  0.504300  0.180800  1.0  0.7861
  C  C162  1  0.569600  0.072900  0.074700  1.0  -0.0726
  C  C163  1  0.663000  0.068800  0.055500  1.0  -0.1489
  C  C164  1  0.699100  0.998500  0.076600  1.0  0.2272
  C  C165  1  0.641900  0.932300  0.116900  1.0  -0.1433
  C  C166  1  0.548600  0.936300  0.136100  1.0  -0.146
  C  C167  1  0.512400  0.006700  0.115000  1.0  -0.0407
  C  C168  1  0.495700  0.866900  0.180800  1.0  0.7846
  N  N169  1  0.799200  0.799700  0.945000  1.0  -0.6019
  N  N170  1  0.000500  0.200800  0.945000  1.0  -0.6014
  N  N171  1  0.200300  0.999500  0.945000  1.0  -0.602
  N  N172  1  0.799200  0.799700  0.555000  1.0  -0.6028
  N  N173  1  0.000500  0.200800  0.555000  1.0  -0.6031
  N  N174  1  0.200300  0.999500  0.555000  1.0  -0.6042
  N  N175  1  0.000500  0.799700  0.445000  1.0  -0.6023
  N  N176  1  0.200300  0.200800  0.445000  1.0  -0.6012
  N  N177  1  0.799200  0.999500  0.445000  1.0  -0.6026
  N  N178  1  0.000500  0.799700  0.055000  1.0  -0.6033
  N  N179  1  0.200300  0.200800  0.055000  1.0  -0.602
  N  N180  1  0.799200  0.999500  0.055000  1.0  -0.6039
  Cl  Cl181  1  0.740000  0.741400  0.053150  1.0  -0.5084
  Cl  Cl182  1  0.001400  0.260000  0.053150  1.0  -0.5085
  Cl  Cl183  1  0.258600  0.998600  0.053150  1.0  -0.5075
  Cl  Cl184  1  0.740000  0.741400  0.446850  1.0  -0.5089
  Cl  Cl185  1  0.001400  0.260000  0.446850  1.0  -0.5093
  Cl  Cl186  1  0.258600  0.998600  0.446850  1.0  -0.5087
  Cl  Cl187  1  0.001400  0.741400  0.553150  1.0  -0.5084
  Cl  Cl188  1  0.258600  0.260000  0.553150  1.0  -0.5081
  Cl  Cl189  1  0.740000  0.998600  0.553150  1.0  -0.508
  Cl  Cl190  1  0.001400  0.741400  0.946850  1.0  -0.5091
  Cl  Cl191  1  0.258600  0.260000  0.946850  1.0  -0.509
  Cl  Cl192  1  0.740000  0.998600  0.946850  1.0  -0.5085
  Cl  Cl193  1  0.000000  0.000000  0.000000  1.0  -0.5568
  Cl  Cl194  1  0.000000  0.000000  0.500000  1.0  -0.5568
  O  O195  1  0.534000  0.725500  0.803100  1.0  -0.6484
  O  O196  1  0.417100  0.542700  0.803600  1.0  -0.6281
  O  O197  1  0.191500  0.466000  0.803100  1.0  -0.6475
  O  O198  1  0.125600  0.582900  0.803600  1.0  -0.6304
  O  O199  1  0.274500  0.808500  0.803100  1.0  -0.6466
  O  O200  1  0.457300  0.874400  0.803600  1.0  -0.6278
  O  O201  1  0.534000  0.725500  0.696900  1.0  -0.6485
  O  O202  1  0.417100  0.542700  0.696400  1.0  -0.6285
  O  O203  1  0.191500  0.466000  0.696900  1.0  -0.6475
  O  O204  1  0.125600  0.582900  0.696400  1.0  -0.6307
  O  O205  1  0.274500  0.808500  0.696900  1.0  -0.6463
  O  O206  1  0.457300  0.874400  0.696400  1.0  -0.6279
  O  O207  1  0.191500  0.725500  0.303100  1.0  -0.6496
  O  O208  1  0.125600  0.542700  0.303600  1.0  -0.6281
  O  O209  1  0.274500  0.466000  0.303100  1.0  -0.6461
  O  O210  1  0.457300  0.582900  0.303600  1.0  -0.6302
  O  O211  1  0.534000  0.808500  0.303100  1.0  -0.6468
  O  O212  1  0.417100  0.874400  0.303600  1.0  -0.6279
  O  O213  1  0.191500  0.725500  0.196900  1.0  -0.6494
  O  O214  1  0.125600  0.542700  0.196400  1.0  -0.6285
  O  O215  1  0.274500  0.466000  0.196900  1.0  -0.646
  O  O216  1  0.457300  0.582900  0.196400  1.0  -0.6307
  O  O217  1  0.534000  0.808500  0.196900  1.0  -0.6471
  O  O218  1  0.417100  0.874400  0.196400  1.0  -0.6284
  O  O219  1  0.333333  0.666667  0.750000  1.0  -1.1239
  O  O220  1  0.333333  0.666667  0.250000  1.0  -1.1239
