# generated using pymatgen
data_EuH15(C9O2)3
_symmetry_space_group_name_H-M   'P 1'
_cell_length_a   10.85110000
_cell_length_b   28.88030000
_cell_length_c   19.15500000
_cell_angle_alpha   90.00000000
_cell_angle_beta   123.90200000
_cell_angle_gamma   90.00000000
_symmetry_Int_Tables_number   1
_chemical_formula_structural   EuH15(C9O2)3
_chemical_formula_sum   'Eu6 H90 C162 O36'
_cell_volume   4982.32387705
_cell_formula_units_Z   6
loop_
 _symmetry_equiv_pos_site_id
 _symmetry_equiv_pos_as_xyz
  1  'x, y, z'
loop_
 _atom_site_type_symbol
 _atom_site_label
 _atom_site_symmetry_multiplicity
 _atom_site_fract_x
 _atom_site_fract_y
 _atom_site_fract_z
 _atom_site_occupancy
 _atom_site_charge
  Eu  Eu1  1  0.219010  0.230080  0.285640  1.0  2.1434
  Eu  Eu2  1  0.780990  0.230080  0.214360  1.0  2.1438
  Eu  Eu3  1  0.780990  0.769920  0.714360  1.0  2.1446
  Eu  Eu4  1  0.219010  0.769920  0.785640  1.0  2.1439
  Eu  Eu5  1  0.500000  0.708680  0.750000  1.0  2.0995
  Eu  Eu6  1  0.500000  0.291320  0.250000  1.0  2.1016
  H  H7  1  0.863200  0.061700  0.957400  1.0  0.1177
  H  H8  1  0.017900  0.104600  0.078400  1.0  0.0959
  H  H9  1  0.693400  0.197300  0.009100  1.0  0.0978
  H  H10  1  0.542800  0.159300  0.884000  1.0  0.1161
  H  H11  1  0.720000  0.947600  0.833600  1.0  0.1013
  H  H12  1  0.653800  0.016800  0.874000  1.0  0.1061
  H  H13  1  0.721200  0.868300  0.827600  1.0  0.113
  H  H14  1  0.903800  0.338000  0.848100  1.0  0.0891
  H  H15  1  0.120200  0.315900  0.965600  1.0  0.1137
  H  H16  1  0.892000  0.267100  0.057900  1.0  0.1166
  H  H17  1  0.675900  0.285300  0.929900  1.0  0.0674
  H  H18  1  0.275800  0.474900  0.688900  1.0  0.1049
  H  H19  1  0.714500  0.404500  0.842600  1.0  0.1021
  H  H20  1  0.278000  0.554100  0.693800  1.0  0.1055
  H  H21  1  0.728300  0.418600  0.517300  1.0  0.1043
  H  H22  1  0.554400  0.371100  0.408300  1.0  0.0834
  H  H23  1  0.579300  0.283600  0.574700  1.0  0.0933
  H  H24  1  0.750400  0.328700  0.682900  1.0  0.1074
  H  H25  1  0.222300  0.540700  0.805300  1.0  0.1007
  H  H26  1  0.802300  0.471500  0.640100  1.0  0.112
  H  H27  1  0.222000  0.617800  0.805100  1.0  0.0881
  H  H28  1  0.136800  0.061700  0.542600  1.0  0.1169
  H  H29  1  0.982100  0.104600  0.421600  1.0  0.096
  H  H30  1  0.306600  0.197300  0.490900  1.0  0.0975
  H  H31  1  0.457200  0.159300  0.616000  1.0  0.1156
  H  H32  1  0.280000  0.947600  0.666400  1.0  0.1013
  H  H33  1  0.346200  0.016800  0.626000  1.0  0.1054
  H  H34  1  0.278800  0.868300  0.672400  1.0  0.1128
  H  H35  1  0.096200  0.338000  0.651900  1.0  0.0888
  H  H36  1  0.879800  0.315900  0.534400  1.0  0.1138
  H  H37  1  0.108000  0.267100  0.442100  1.0  0.1158
  H  H38  1  0.324100  0.285300  0.570100  1.0  0.0672
  H  H39  1  0.724200  0.474900  0.811100  1.0  0.1051
  H  H40  1  0.285500  0.404500  0.657400  1.0  0.1028
  H  H41  1  0.722000  0.554100  0.806200  1.0  0.1053
  H  H42  1  0.271700  0.418600  0.982700  1.0  0.1044
  H  H43  1  0.445600  0.371100  0.091700  1.0  0.0829
  H  H44  1  0.420700  0.283600  0.925300  1.0  0.0931
  H  H45  1  0.249600  0.328700  0.817100  1.0  0.1073
  H  H46  1  0.777700  0.540700  0.694700  1.0  0.1002
  H  H47  1  0.197700  0.471500  0.859900  1.0  0.1121
  H  H48  1  0.778000  0.617800  0.694900  1.0  0.0875
  H  H49  1  0.136800  0.938300  0.042600  1.0  0.1169
  H  H50  1  0.982100  0.895400  0.921600  1.0  0.0959
  H  H51  1  0.306600  0.802700  0.990900  1.0  0.0979
  H  H52  1  0.457200  0.840700  0.116000  1.0  0.1155
  H  H53  1  0.280000  0.052400  0.166400  1.0  0.1013
  H  H54  1  0.346200  0.983200  0.126000  1.0  0.1053
  H  H55  1  0.278800  0.131700  0.172400  1.0  0.1127
  H  H56  1  0.096200  0.662000  0.151900  1.0  0.0885
  H  H57  1  0.879800  0.684100  0.034400  1.0  0.1137
  H  H58  1  0.108000  0.732900  0.942100  1.0  0.1157
  H  H59  1  0.324100  0.714700  0.070100  1.0  0.0671
  H  H60  1  0.724200  0.525100  0.311100  1.0  0.1052
  H  H61  1  0.285500  0.595500  0.157400  1.0  0.103
  H  H62  1  0.722000  0.445900  0.306200  1.0  0.1053
  H  H63  1  0.271700  0.581400  0.482700  1.0  0.1046
  H  H64  1  0.445600  0.628900  0.591700  1.0  0.0832
  H  H65  1  0.420700  0.716400  0.425300  1.0  0.0924
  H  H66  1  0.249600  0.671300  0.317100  1.0  0.1078
  H  H67  1  0.777700  0.459300  0.194700  1.0  0.1001
  H  H68  1  0.197700  0.528500  0.359900  1.0  0.1117
  H  H69  1  0.778000  0.382200  0.194900  1.0  0.0877
  H  H70  1  0.863200  0.938300  0.457400  1.0  0.1178
  H  H71  1  0.017900  0.895400  0.578400  1.0  0.0961
  H  H72  1  0.693400  0.802700  0.509100  1.0  0.0978
  H  H73  1  0.542800  0.840700  0.384000  1.0  0.1164
  H  H74  1  0.720000  0.052400  0.333600  1.0  0.1012
  H  H75  1  0.653800  0.983200  0.374000  1.0  0.1056
  H  H76  1  0.721200  0.131700  0.327600  1.0  0.1126
  H  H77  1  0.903800  0.662000  0.348100  1.0  0.0891
  H  H78  1  0.120200  0.684100  0.465600  1.0  0.1139
  H  H79  1  0.892000  0.732900  0.557900  1.0  0.1164
  H  H80  1  0.675900  0.714700  0.429900  1.0  0.0674
  H  H81  1  0.275800  0.525100  0.188900  1.0  0.1049
  H  H82  1  0.714500  0.595500  0.342600  1.0  0.1019
  H  H83  1  0.278000  0.445900  0.193800  1.0  0.1053
  H  H84  1  0.728300  0.581400  0.017300  1.0  0.1044
  H  H85  1  0.554400  0.628900  0.908300  1.0  0.0832
  H  H86  1  0.579300  0.716400  0.074700  1.0  0.0918
  H  H87  1  0.750400  0.671300  0.182900  1.0  0.1075
  H  H88  1  0.222300  0.459300  0.305300  1.0  0.1005
  H  H89  1  0.802300  0.528500  0.140100  1.0  0.1124
  H  H90  1  0.222000  0.382200  0.305100  1.0  0.0882
  H  H91  1  0.500000  0.137300  0.750000  1.0  0.1064
  H  H92  1  0.500000  0.284000  0.750000  1.0  0.1346
  H  H93  1  0.500000  0.862700  0.250000  1.0  0.1054
  H  H94  1  0.500000  0.716000  0.250000  1.0  0.1345
  H  H95  1  0.000000  0.351300  0.750000  1.0  0.0987
  H  H96  1  0.000000  0.648700  0.250000  1.0  0.0986
  C  C97  1  0.684700  0.106800  0.905100  1.0  0.0417
  C  C98  1  0.830300  0.089300  0.966600  1.0  -0.1593
  C  C99  1  0.921000  0.114400  0.039900  1.0  -0.0435
  C  C100  1  0.869100  0.154100  0.056400  1.0  -0.1421
  C  C101  1  0.727200  0.170600  0.997700  1.0  -0.0459
  C  C102  1  0.636900  0.147700  0.923300  1.0  -0.1209
  C  C103  1  0.591200  0.081700  0.824300  1.0  0.0361
  C  C104  1  0.968000  0.180300  0.138600  1.0  0.6765
  C  C105  1  0.631100  0.931800  0.799000  1.0  -0.1074
  C  C106  1  0.591600  0.032900  0.824100  1.0  -0.0894
  C  C107  1  0.632300  0.884600  0.797300  1.0  -0.1747
  C  C108  1  0.764200  0.318900  0.879400  1.0  0.0992
  C  C109  1  0.901000  0.324000  0.891000  1.0  -0.1337
  C  C110  1  0.031100  0.310200  0.960400  1.0  -0.1454
  C  C111  1  0.030400  0.287500  0.023300  1.0  -0.1224
  C  C112  1  0.895700  0.280400  0.014900  1.0  -0.1931
  C  C113  1  0.766500  0.294000  0.939300  1.0  -0.0909
  C  C114  1  0.625900  0.341800  0.809600  1.0  0.0232
  C  C115  1  0.169000  0.277200  0.104800  1.0  0.6818
  C  C116  1  0.365400  0.490800  0.713900  1.0  -0.1534
  C  C117  1  0.626400  0.388700  0.806100  1.0  -0.1343
  C  C118  1  0.366700  0.538100  0.715700  1.0  -0.0554
  C  C119  1  0.758000  0.380000  0.612400  1.0  0.0628
  C  C120  1  0.699000  0.391300  0.529900  1.0  -0.1076
  C  C121  1  0.594900  0.362200  0.463700  1.0  -0.0592
  C  C122  1  0.553400  0.322100  0.479200  1.0  -0.1583
  C  C123  1  0.611000  0.310700  0.563100  1.0  -0.0394
  C  C124  1  0.711600  0.337900  0.627800  1.0  -0.1687
  C  C125  1  0.882000  0.406600  0.682700  1.0  0.0192
  C  C126  1  0.446600  0.288300  0.411300  1.0  0.6821
  C  C127  1  0.133100  0.556400  0.783100  1.0  -0.157
  C  C128  1  0.882000  0.455200  0.684000  1.0  -0.0855
  C  C129  1  0.132400  0.602300  0.782900  1.0  -0.0716
  C  C130  1  0.315300  0.106800  0.594900  1.0  0.0418
  C  C131  1  0.169700  0.089300  0.533400  1.0  -0.1589
  C  C132  1  0.079000  0.114400  0.460100  1.0  -0.0412
  C  C133  1  0.130900  0.154100  0.443600  1.0  -0.1429
  C  C134  1  0.272800  0.170600  0.502300  1.0  -0.0473
  C  C135  1  0.363100  0.147700  0.576700  1.0  -0.1206
  C  C136  1  0.408800  0.081700  0.675700  1.0  0.036
  C  C137  1  0.032000  0.180300  0.361400  1.0  0.6787
  C  C138  1  0.368900  0.931800  0.701000  1.0  -0.1098
  C  C139  1  0.408400  0.032900  0.675900  1.0  -0.0896
  C  C140  1  0.367700  0.884600  0.702700  1.0  -0.1752
  C  C141  1  0.235800  0.318900  0.620600  1.0  0.0982
  C  C142  1  0.099000  0.324000  0.609000  1.0  -0.1338
  C  C143  1  0.968900  0.310200  0.539600  1.0  -0.1456
  C  C144  1  0.969600  0.287500  0.476700  1.0  -0.122
  C  C145  1  0.104300  0.280400  0.485100  1.0  -0.1936
  C  C146  1  0.233500  0.294000  0.560700  1.0  -0.091
  C  C147  1  0.374100  0.341800  0.690400  1.0  0.0232
  C  C148  1  0.831000  0.277200  0.395200  1.0  0.6817
  C  C149  1  0.634600  0.490800  0.786100  1.0  -0.1515
  C  C150  1  0.373600  0.388700  0.693900  1.0  -0.1352
  C  C151  1  0.633300  0.538100  0.784300  1.0  -0.0591
  C  C152  1  0.242000  0.380000  0.887600  1.0  0.0621
  C  C153  1  0.301000  0.391300  0.970100  1.0  -0.1078
  C  C154  1  0.405100  0.362200  0.036300  1.0  -0.0583
  C  C155  1  0.446600  0.322100  0.020800  1.0  -0.1577
  C  C156  1  0.389000  0.310700  0.936900  1.0  -0.0406
  C  C157  1  0.288400  0.337900  0.872200  1.0  -0.1701
  C  C158  1  0.118000  0.406600  0.817300  1.0  0.0203
  C  C159  1  0.553400  0.288300  0.088700  1.0  0.6827
  C  C160  1  0.866900  0.556400  0.716900  1.0  -0.1578
  C  C161  1  0.118000  0.455200  0.816000  1.0  -0.0847
  C  C162  1  0.867600  0.602300  0.717100  1.0  -0.0771
  C  C163  1  0.315300  0.893200  0.094900  1.0  0.0421
  C  C164  1  0.169700  0.910700  0.033400  1.0  -0.161
  C  C165  1  0.079000  0.885600  0.960100  1.0  -0.0414
  C  C166  1  0.130900  0.845900  0.943600  1.0  -0.1417
  C  C167  1  0.272800  0.829400  0.002300  1.0  -0.0463
  C  C168  1  0.363100  0.852300  0.076700  1.0  -0.1202
  C  C169  1  0.408800  0.918300  0.175700  1.0  0.0358
  C  C170  1  0.032000  0.819700  0.861400  1.0  0.6804
  C  C171  1  0.368900  0.068200  0.201000  1.0  -0.1101
  C  C172  1  0.408400  0.967100  0.175900  1.0  -0.0895
  C  C173  1  0.367700  0.115400  0.202700  1.0  -0.1747
  C  C174  1  0.235800  0.681100  0.120600  1.0  0.0981
  C  C175  1  0.099000  0.676000  0.109000  1.0  -0.1333
  C  C176  1  0.968900  0.689800  0.039600  1.0  -0.1461
  C  C177  1  0.969600  0.712500  0.976700  1.0  -0.1223
  C  C178  1  0.104300  0.719600  0.985100  1.0  -0.1939
  C  C179  1  0.233500  0.706000  0.060700  1.0  -0.0913
  C  C180  1  0.374100  0.658200  0.190400  1.0  0.023
  C  C181  1  0.831000  0.722800  0.895200  1.0  0.6813
  C  C182  1  0.634600  0.509200  0.286100  1.0  -0.1514
  C  C183  1  0.373600  0.611300  0.193900  1.0  -0.1347
  C  C184  1  0.633300  0.461900  0.284300  1.0  -0.0578
  C  C185  1  0.242000  0.620000  0.387600  1.0  0.0621
  C  C186  1  0.301000  0.608700  0.470100  1.0  -0.1075
  C  C187  1  0.405100  0.637800  0.536300  1.0  -0.0579
  C  C188  1  0.446600  0.677900  0.520800  1.0  -0.1585
  C  C189  1  0.389000  0.689300  0.436900  1.0  -0.0402
  C  C190  1  0.288400  0.662100  0.372200  1.0  -0.1691
  C  C191  1  0.118000  0.593400  0.317300  1.0  0.0201
  C  C192  1  0.553400  0.711700  0.588700  1.0  0.6826
  C  C193  1  0.866900  0.443600  0.216900  1.0  -0.1581
  C  C194  1  0.118000  0.544800  0.316000  1.0  -0.0837
  C  C195  1  0.867600  0.397700  0.217100  1.0  -0.0715
  C  C196  1  0.684700  0.893200  0.405100  1.0  0.042
  C  C197  1  0.830300  0.910700  0.466600  1.0  -0.1609
  C  C198  1  0.921000  0.885600  0.539900  1.0  -0.0424
  C  C199  1  0.869100  0.845900  0.556400  1.0  -0.1412
  C  C200  1  0.727200  0.829400  0.497700  1.0  -0.0459
  C  C201  1  0.636900  0.852300  0.423300  1.0  -0.1203
  C  C202  1  0.591200  0.918300  0.324300  1.0  0.0361
  C  C203  1  0.968000  0.819700  0.638600  1.0  0.6775
  C  C204  1  0.631100  0.068200  0.299000  1.0  -0.108
  C  C205  1  0.591600  0.967100  0.324100  1.0  -0.0893
  C  C206  1  0.632300  0.115400  0.297300  1.0  -0.1748
  C  C207  1  0.764200  0.681100  0.379400  1.0  0.099
  C  C208  1  0.901000  0.676000  0.391000  1.0  -0.1337
  C  C209  1  0.031100  0.689800  0.460400  1.0  -0.1454
  C  C210  1  0.030400  0.712500  0.523300  1.0  -0.1226
  C  C211  1  0.895700  0.719600  0.514900  1.0  -0.1938
  C  C212  1  0.766500  0.706000  0.439300  1.0  -0.0915
  C  C213  1  0.625900  0.658200  0.309600  1.0  0.0227
  C  C214  1  0.169000  0.722800  0.604800  1.0  0.6813
  C  C215  1  0.365400  0.509200  0.213900  1.0  -0.1535
  C  C216  1  0.626400  0.611300  0.306100  1.0  -0.1347
  C  C217  1  0.366700  0.461900  0.215700  1.0  -0.0584
  C  C218  1  0.758000  0.620000  0.112400  1.0  0.0625
  C  C219  1  0.699000  0.608700  0.029900  1.0  -0.1078
  C  C220  1  0.594900  0.637800  0.963700  1.0  -0.0595
  C  C221  1  0.553400  0.677900  0.979200  1.0  -0.1579
  C  C222  1  0.611000  0.689300  0.063100  1.0  -0.04
  C  C223  1  0.711600  0.662100  0.127800  1.0  -0.1685
  C  C224  1  0.882000  0.593400  0.182700  1.0  0.0189
  C  C225  1  0.446600  0.711700  0.911300  1.0  0.6819
  C  C226  1  0.133100  0.443600  0.283100  1.0  -0.1571
  C  C227  1  0.882000  0.544800  0.184000  1.0  -0.0855
  C  C228  1  0.132400  0.397700  0.282900  1.0  -0.0768
  C  C229  1  0.500000  0.105100  0.750000  1.0  -0.0958
  C  C230  1  0.500000  0.008700  0.750000  1.0  0.0455
  C  C231  1  0.500000  0.957000  0.750000  1.0  0.0943
  C  C232  1  0.500000  0.861900  0.750000  1.0  0.0228
  C  C233  1  0.500000  0.810000  0.750000  1.0  0.6932
  C  C234  1  0.500000  0.316200  0.750000  1.0  -0.0928
  C  C235  1  0.500000  0.414000  0.750000  1.0  0.0424
  C  C236  1  0.500000  0.465900  0.750000  1.0  0.0461
  C  C237  1  0.500000  0.563200  0.750000  1.0  -0.0885
  C  C238  1  0.500000  0.613400  0.750000  1.0  0.6557
  C  C239  1  0.500000  0.894900  0.250000  1.0  -0.0958
  C  C240  1  0.500000  0.991300  0.250000  1.0  0.0455
  C  C241  1  0.500000  0.043000  0.250000  1.0  0.0943
  C  C242  1  0.500000  0.138100  0.250000  1.0  0.0231
  C  C243  1  0.500000  0.190000  0.250000  1.0  0.6941
  C  C244  1  0.500000  0.683800  0.250000  1.0  -0.0952
  C  C245  1  0.500000  0.586000  0.250000  1.0  0.0418
  C  C246  1  0.500000  0.534100  0.250000  1.0  0.0457
  C  C247  1  0.500000  0.436800  0.250000  1.0  -0.0887
  C  C248  1  0.500000  0.386600  0.250000  1.0  0.6553
  C  C249  1  0.000000  0.383500  0.750000  1.0  -0.0914
  C  C250  1  0.000000  0.478900  0.750000  1.0  0.0651
  C  C251  1  0.000000  0.530900  0.750000  1.0  0.0783
  C  C252  1  0.000000  0.629100  0.750000  1.0  -0.0549
  C  C253  1  0.000000  0.680000  0.750000  1.0  0.7115
  C  C254  1  0.000000  0.616500  0.250000  1.0  -0.0934
  C  C255  1  0.000000  0.521100  0.250000  1.0  0.0653
  C  C256  1  0.000000  0.469100  0.250000  1.0  0.0784
  C  C257  1  0.000000  0.370900  0.250000  1.0  -0.0565
  C  C258  1  0.000000  0.320000  0.250000  1.0  0.712
  O  O259  1  0.105700  0.169100  0.182400  1.0  -0.6829
  O  O260  1  0.920100  0.211800  0.161800  1.0  -0.6908
  O  O261  1  0.415200  0.786600  0.762200  1.0  -0.7571
  O  O262  1  0.290800  0.276300  0.113100  1.0  -0.6061
  O  O263  1  0.162400  0.268100  0.167700  1.0  -0.7181
  O  O264  1  0.375900  0.635300  0.705800  1.0  -0.6116
  O  O265  1  0.398700  0.255500  0.426300  1.0  -0.5931
  O  O266  1  0.417700  0.295300  0.339000  1.0  -0.7387
  O  O267  1  0.877300  0.701100  0.705100  1.0  -0.6697
  O  O268  1  0.894300  0.169100  0.317600  1.0  -0.684
  O  O269  1  0.079900  0.211800  0.338200  1.0  -0.691
  O  O270  1  0.584800  0.786600  0.737800  1.0  -0.7583
  O  O271  1  0.709200  0.276300  0.386900  1.0  -0.6053
  O  O272  1  0.837600  0.268100  0.332300  1.0  -0.7178
  O  O273  1  0.624100  0.635300  0.794200  1.0  -0.6124
  O  O274  1  0.601300  0.255500  0.073700  1.0  -0.5928
  O  O275  1  0.582300  0.295300  0.161000  1.0  -0.7383
  O  O276  1  0.122700  0.701100  0.794900  1.0  -0.6697
  O  O277  1  0.894300  0.830900  0.817600  1.0  -0.6835
  O  O278  1  0.079900  0.788200  0.838200  1.0  -0.691
  O  O279  1  0.584800  0.213400  0.237800  1.0  -0.7576
  O  O280  1  0.709200  0.723700  0.886900  1.0  -0.6059
  O  O281  1  0.837600  0.731900  0.832300  1.0  -0.7176
  O  O282  1  0.624100  0.364700  0.294200  1.0  -0.6123
  O  O283  1  0.601300  0.744500  0.573700  1.0  -0.595
  O  O284  1  0.582300  0.704700  0.661000  1.0  -0.7388
  O  O285  1  0.122700  0.298900  0.294900  1.0  -0.6709
  O  O286  1  0.105700  0.830900  0.682400  1.0  -0.683
  O  O287  1  0.920100  0.788200  0.661800  1.0  -0.6911
  O  O288  1  0.415200  0.213400  0.262200  1.0  -0.756
  O  O289  1  0.290800  0.723700  0.613100  1.0  -0.606
  O  O290  1  0.162400  0.731900  0.667700  1.0  -0.718
  O  O291  1  0.375900  0.364700  0.205800  1.0  -0.6117
  O  O292  1  0.398700  0.744500  0.926300  1.0  -0.5941
  O  O293  1  0.417700  0.704700  0.839000  1.0  -0.7387
  O  O294  1  0.877300  0.298900  0.205100  1.0  -0.6698
