# generated using pymatgen
data_Zn(PO4)2
_symmetry_space_group_name_H-M   'P 1'
_cell_length_a   9.97600000
_cell_length_b   10.35900000
_cell_length_c   12.98000000
_cell_angle_alpha   90.00000000
_cell_angle_beta   90.00000000
_cell_angle_gamma   90.00000000
_symmetry_Int_Tables_number   1
_chemical_formula_structural   Zn(PO4)2
_chemical_formula_sum   'Zn4 P8 O32'
_cell_volume   1341.37116432
_cell_formula_units_Z   4
loop_
 _symmetry_equiv_pos_site_id
 _symmetry_equiv_pos_as_xyz
  1  'x, y, z'
loop_
 _atom_site_type_symbol
 _atom_site_label
 _atom_site_symmetry_multiplicity
 _atom_site_fract_x
 _atom_site_fract_y
 _atom_site_fract_z
 _atom_site_occupancy
 _atom_site_charge
  Zn  Zn1  1  0.971500  0.201900  0.635200  1.0  1.1952
  Zn  Zn2  1  0.528500  0.798100  0.135200  1.0  1.1947
  Zn  Zn3  1  0.028500  0.701900  0.864800  1.0  1.1945
  Zn  Zn4  1  0.471500  0.298100  0.364800  1.0  1.1953
  P  P5  1  0.226400  0.214700  0.496500  1.0  1.6343
  P  P6  1  0.889500  0.439900  0.785900  1.0  1.6626
  P  P7  1  0.273600  0.785300  0.996500  1.0  1.6342
  P  P8  1  0.610500  0.560100  0.285900  1.0  1.6621
  P  P9  1  0.773600  0.714700  0.003500  1.0  1.6319
  P  P10  1  0.110500  0.939900  0.714100  1.0  1.6619
  P  P11  1  0.726400  0.285300  0.503500  1.0  1.6324
  P  P12  1  0.389500  0.060100  0.214100  1.0  1.6621
  O  O13  1  0.935700  0.309800  0.751900  1.0  -0.65
  O  O14  1  0.122000  0.275900  0.565700  1.0  -0.6351
  O  O15  1  0.999000  0.525900  0.821700  1.0  -0.6475
  O  O16  1  0.312200  0.321100  0.449400  1.0  -0.6283
  O  O17  1  0.784700  0.417500  0.869800  1.0  -0.5102
  O  O18  1  0.819900  0.513700  0.696400  1.0  -0.4388
  O  O19  1  0.310700  0.113700  0.547900  1.0  -0.5358
  O  O20  1  0.150900  0.142100  0.406200  1.0  -0.4451
  O  O21  1  0.564300  0.690200  0.251900  1.0  -0.6488
  O  O22  1  0.378000  0.724100  0.065700  1.0  -0.6359
  O  O23  1  0.501000  0.474100  0.321700  1.0  -0.6465
  O  O24  1  0.187800  0.678900  0.949400  1.0  -0.6301
  O  O25  1  0.715300  0.582500  0.369800  1.0  -0.5111
  O  O26  1  0.680100  0.486300  0.196400  1.0  -0.4387
  O  O27  1  0.189300  0.886300  0.047900  1.0  -0.5358
  O  O28  1  0.349100  0.857900  0.906200  1.0  -0.4451
  O  O29  1  0.064300  0.809800  0.748100  1.0  -0.6498
  O  O30  1  0.878000  0.775900  0.934300  1.0  -0.6352
  O  O31  1  0.001000  0.025900  0.678300  1.0  -0.647
  O  O32  1  0.687800  0.821100  0.050600  1.0  -0.6274
  O  O33  1  0.215300  0.917500  0.630200  1.0  -0.5101
  O  O34  1  0.180100  0.013700  0.803600  1.0  -0.4401
  O  O35  1  0.689300  0.613700  0.952100  1.0  -0.534
  O  O36  1  0.849100  0.642100  0.093800  1.0  -0.4462
  O  O37  1  0.435700  0.190200  0.248100  1.0  -0.6474
  O  O38  1  0.622000  0.224100  0.434300  1.0  -0.6357
  O  O39  1  0.499000  0.974100  0.178300  1.0  -0.6453
  O  O40  1  0.812200  0.178900  0.550600  1.0  -0.6303
  O  O41  1  0.284700  0.082500  0.130200  1.0  -0.5102
  O  O42  1  0.319900  0.986300  0.303600  1.0  -0.4398
  O  O43  1  0.810700  0.386300  0.452100  1.0  -0.5344
  O  O44  1  0.650900  0.357900  0.593800  1.0  -0.4453
