# generated using pymatgen
data_ZnH3C7NO4
_symmetry_space_group_name_H-M   'P 1'
_cell_length_a   14.09070000
_cell_length_b   12.14340000
_cell_length_c   14.63450000
_cell_angle_alpha   90.00000000
_cell_angle_beta   106.05300000
_cell_angle_gamma   90.00000000
_symmetry_Int_Tables_number   1
_chemical_formula_structural   ZnH3C7NO4
_chemical_formula_sum   'Zn8 H24 C56 N8 O32'
_cell_volume   2406.45086783
_cell_formula_units_Z   8
loop_
 _symmetry_equiv_pos_site_id
 _symmetry_equiv_pos_as_xyz
  1  'x, y, z'
loop_
 _atom_site_type_symbol
 _atom_site_label
 _atom_site_symmetry_multiplicity
 _atom_site_fract_x
 _atom_site_fract_y
 _atom_site_fract_z
 _atom_site_occupancy
 _atom_site_charge
  Zn  Zn1  1  0.196310  0.243170  0.074260  1.0  1.0533
  Zn  Zn2  1  0.350120  0.021370  0.156460  1.0  1.0005
  Zn  Zn3  1  0.303690  0.743170  0.425740  1.0  1.053
  Zn  Zn4  1  0.149880  0.521370  0.343540  1.0  1.001
  Zn  Zn5  1  0.803690  0.756830  0.925740  1.0  1.0532
  Zn  Zn6  1  0.649880  0.978630  0.843540  1.0  1.0012
  Zn  Zn7  1  0.696310  0.256830  0.574260  1.0  1.0539
  Zn  Zn8  1  0.850120  0.478630  0.656460  1.0  1.0008
  H  H9  1  0.472800  0.022900  0.932700  1.0  0.0943
  H  H10  1  0.370900  0.328100  0.852900  1.0  0.1172
  H  H11  1  0.473100  0.332100  0.749500  1.0  0.1059
  H  H12  1  0.517600  0.184000  0.399700  1.0  0.0927
  H  H13  1  0.400700  0.461200  0.260200  1.0  0.1098
  H  H14  1  0.514500  0.564700  0.377200  1.0  0.1176
  H  H15  1  0.027200  0.522900  0.567300  1.0  0.0939
  H  H16  1  0.129100  0.828100  0.647100  1.0  0.1177
  H  H17  1  0.026900  0.832100  0.750500  1.0  0.105
  H  H18  1  0.982400  0.684000  0.100300  1.0  0.0929
  H  H19  1  0.099300  0.961200  0.239800  1.0  0.1103
  H  H20  1  0.985500  0.064700  0.122800  1.0  0.1173
  H  H21  1  0.527200  0.977100  0.067300  1.0  0.0939
  H  H22  1  0.629100  0.671900  0.147100  1.0  0.1177
  H  H23  1  0.526900  0.667900  0.250500  1.0  0.105
  H  H24  1  0.482400  0.816000  0.600300  1.0  0.0926
  H  H25  1  0.599300  0.538800  0.739800  1.0  0.1107
  H  H26  1  0.485500  0.435300  0.622800  1.0  0.1176
  H  H27  1  0.972800  0.477100  0.432700  1.0  0.0945
  H  H28  1  0.870900  0.171900  0.352900  1.0  0.1172
  H  H29  1  0.973100  0.167900  0.249500  1.0  0.1052
  H  H30  1  0.017600  0.316000  0.899700  1.0  0.0921
  H  H31  1  0.900700  0.038800  0.760200  1.0  0.1099
  H  H32  1  0.014500  0.935300  0.877200  1.0  0.1175
  C  C33  1  0.475920  0.088810  0.898720  1.0  0.1796
  C  C34  1  0.415480  0.176550  0.908030  1.0  -0.1788
  C  C35  1  0.413400  0.267950  0.850940  1.0  -0.0566
  C  C36  1  0.474740  0.270770  0.790230  1.0  -0.0857
  C  C37  1  0.537910  0.183180  0.790210  1.0  0.1001
  C  C38  1  0.357200  0.167960  0.981030  1.0  0.7273
  C  C39  1  0.611790  0.178480  0.732400  1.0  0.7073
  C  C40  1  0.517300  0.261990  0.394230  1.0  0.1648
  C  C41  1  0.450380  0.311020  0.316670  1.0  -0.1794
  C  C42  1  0.447590  0.425380  0.310730  1.0  -0.0165
  C  C43  1  0.514400  0.486560  0.379900  1.0  -0.0823
  C  C44  1  0.580950  0.430640  0.452860  1.0  0.148
  C  C45  1  0.383610  0.239770  0.241730  1.0  0.7107
  C  C46  1  0.660550  0.491320  0.526390  1.0  0.6351
  C  C47  1  0.024080  0.588810  0.601280  1.0  0.1805
  C  C48  1  0.084520  0.676550  0.591970  1.0  -0.1789
  C  C49  1  0.086600  0.767950  0.649060  1.0  -0.0565
  C  C50  1  0.025260  0.770770  0.709770  1.0  -0.0855
  C  C51  1  0.962090  0.683180  0.709790  1.0  0.1002
  C  C52  1  0.142800  0.667960  0.518970  1.0  0.7268
  C  C53  1  0.888210  0.678480  0.767600  1.0  0.7089
  C  C54  1  0.982700  0.761990  0.105770  1.0  0.166
  C  C55  1  0.049620  0.811020  0.183330  1.0  -0.1763
  C  C56  1  0.052410  0.925380  0.189270  1.0  -0.0175
  C  C57  1  0.985600  0.986560  0.120100  1.0  -0.0808
  C  C58  1  0.919050  0.930640  0.047140  1.0  0.1477
  C  C59  1  0.116390  0.739770  0.258270  1.0  0.7106
  C  C60  1  0.839450  0.991320  0.973610  1.0  0.6344
  C  C61  1  0.524080  0.911190  0.101280  1.0  0.1798
  C  C62  1  0.584520  0.823450  0.091970  1.0  -0.1788
  C  C63  1  0.586600  0.732050  0.149060  1.0  -0.0576
  C  C64  1  0.525260  0.729230  0.209770  1.0  -0.0848
  C  C65  1  0.462090  0.816820  0.209790  1.0  0.1004
  C  C66  1  0.642800  0.832040  0.018970  1.0  0.7269
  C  C67  1  0.388210  0.821520  0.267600  1.0  0.7069
  C  C68  1  0.482700  0.738010  0.605770  1.0  0.1651
  C  C69  1  0.549620  0.688980  0.683330  1.0  -0.1766
  C  C70  1  0.552410  0.574620  0.689270  1.0  -0.0175
  C  C71  1  0.485600  0.513440  0.620100  1.0  -0.0803
  C  C72  1  0.419050  0.569360  0.547140  1.0  0.1477
  C  C73  1  0.616390  0.760230  0.758270  1.0  0.7108
  C  C74  1  0.339450  0.508680  0.473610  1.0  0.6368
  C  C75  1  0.975920  0.411190  0.398720  1.0  0.179
  C  C76  1  0.915480  0.323450  0.408030  1.0  -0.1787
  C  C77  1  0.913400  0.232050  0.350940  1.0  -0.057
  C  C78  1  0.974740  0.229230  0.290230  1.0  -0.0853
  C  C79  1  0.037910  0.316820  0.290210  1.0  0.1002
  C  C80  1  0.857200  0.332040  0.481030  1.0  0.7278
  C  C81  1  0.111790  0.321520  0.232400  1.0  0.7077
  C  C82  1  0.017300  0.238010  0.894230  1.0  0.1647
  C  C83  1  0.950380  0.188980  0.816670  1.0  -0.177
  C  C84  1  0.947590  0.074620  0.810730  1.0  -0.0167
  C  C85  1  0.014400  0.013440  0.879900  1.0  -0.0821
  C  C86  1  0.080950  0.069360  0.952860  1.0  0.148
  C  C87  1  0.883610  0.260230  0.741730  1.0  0.711
  C  C88  1  0.160550  0.008680  0.026390  1.0  0.6368
  N  N89  1  0.538130  0.093020  0.844210  1.0  -0.3374
  N  N90  1  0.581020  0.320330  0.461200  1.0  -0.3081
  N  N91  1  0.961870  0.593020  0.655790  1.0  -0.3379
  N  N92  1  0.918980  0.820330  0.038800  1.0  -0.3079
  N  N93  1  0.461870  0.906980  0.155790  1.0  -0.3394
  N  N94  1  0.418980  0.679670  0.538800  1.0  -0.3094
  N  N95  1  0.038130  0.406980  0.344210  1.0  -0.3374
  N  N96  1  0.081020  0.179670  0.961200  1.0  -0.3095
  O  O97  1  0.288400  0.233110  0.976120  1.0  -0.6147
  O  O98  1  0.386730  0.092030  0.041200  1.0  -0.615
  O  O99  1  0.608580  0.253420  0.672390  1.0  -0.5955
  O  O100  1  0.670700  0.098330  0.750100  1.0  -0.5899
  O  O101  1  0.322970  0.287720  0.175060  1.0  -0.6057
  O  O102  1  0.396550  0.136830  0.253120  1.0  -0.6185
  O  O103  1  0.674590  0.588960  0.515450  1.0  -0.5174
  O  O104  1  0.710460  0.431130  0.596320  1.0  -0.6648
  O  O105  1  0.211600  0.733110  0.523880  1.0  -0.6148
  O  O106  1  0.113270  0.592030  0.458800  1.0  -0.6159
  O  O107  1  0.891420  0.753420  0.827610  1.0  -0.5939
  O  O108  1  0.829300  0.598330  0.749900  1.0  -0.5897
  O  O109  1  0.177030  0.787720  0.324940  1.0  -0.6068
  O  O110  1  0.103450  0.636830  0.246880  1.0  -0.6182
  O  O111  1  0.825410  0.088960  0.984550  1.0  -0.5185
  O  O112  1  0.789540  0.931130  0.903680  1.0  -0.6666
  O  O113  1  0.711600  0.766890  0.023880  1.0  -0.6158
  O  O114  1  0.613270  0.907970  0.958800  1.0  -0.6158
  O  O115  1  0.391420  0.746580  0.327610  1.0  -0.594
  O  O116  1  0.329300  0.901670  0.249900  1.0  -0.5896
  O  O117  1  0.677030  0.712280  0.824940  1.0  -0.6064
  O  O118  1  0.603450  0.863170  0.746880  1.0  -0.6183
  O  O119  1  0.325410  0.411040  0.484550  1.0  -0.517
  O  O120  1  0.289540  0.568870  0.403680  1.0  -0.6657
  O  O121  1  0.788400  0.266890  0.476120  1.0  -0.6145
  O  O122  1  0.886730  0.407970  0.541200  1.0  -0.6148
  O  O123  1  0.108580  0.246580  0.172390  1.0  -0.5955
  O  O124  1  0.170700  0.401670  0.250100  1.0  -0.5899
  O  O125  1  0.822970  0.212280  0.675060  1.0  -0.6062
  O  O126  1  0.896550  0.363170  0.753120  1.0  -0.6179
  O  O127  1  0.174590  0.911040  0.015450  1.0  -0.5175
  O  O128  1  0.210460  0.068870  0.096320  1.0  -0.6643
