# generated using pymatgen
data_ZnH3C7NO4
_symmetry_space_group_name_H-M   'P 1'
_cell_length_a   14.00030000
_cell_length_b   12.16920000
_cell_length_c   14.67110000
_cell_angle_alpha   90.00000000
_cell_angle_beta   105.86700000
_cell_angle_gamma   90.00000000
_symmetry_Int_Tables_number   1
_chemical_formula_structural   ZnH3C7NO4
_chemical_formula_sum   'Zn8 H24 C56 N8 O32'
_cell_volume   2404.31570774
_cell_formula_units_Z   8
loop_
 _symmetry_equiv_pos_site_id
 _symmetry_equiv_pos_as_xyz
  1  'x, y, z'
loop_
 _atom_site_type_symbol
 _atom_site_label
 _atom_site_symmetry_multiplicity
 _atom_site_fract_x
 _atom_site_fract_y
 _atom_site_fract_z
 _atom_site_occupancy
 _atom_site_charge
  Zn  Zn1  1  0.350370  0.521400  0.657710  1.0  0.989
  Zn  Zn2  1  0.195390  0.742710  0.574810  1.0  1.0529
  Zn  Zn3  1  0.149630  0.021400  0.842290  1.0  0.9878
  Zn  Zn4  1  0.304610  0.242710  0.925190  1.0  1.0501
  Zn  Zn5  1  0.649630  0.478600  0.342290  1.0  0.9875
  Zn  Zn6  1  0.804610  0.257290  0.425190  1.0  1.053
  Zn  Zn7  1  0.850370  0.978600  0.157710  1.0  0.9889
  Zn  Zn8  1  0.695390  0.757290  0.074810  1.0  1.0504
  H  H9  1  0.014900  0.436200  0.375600  1.0  0.1177
  H  H10  1  0.902500  0.540100  0.258900  1.0  0.1114
  H  H11  1  0.016400  0.815300  0.401600  1.0  0.091
  H  H12  1  0.523100  0.165400  0.746000  1.0  0.1054
  H  H13  1  0.626800  0.169900  0.643200  1.0  0.1199
  H  H14  1  0.528400  0.476900  0.568000  1.0  0.0964
  H  H15  1  0.485100  0.936200  0.124400  1.0  0.1177
  H  H16  1  0.597500  0.040100  0.241100  1.0  0.1119
  H  H17  1  0.483600  0.315300  0.098400  1.0  0.0912
  H  H18  1  0.976900  0.665400  0.754000  1.0  0.1052
  H  H19  1  0.873200  0.669900  0.856800  1.0  0.1193
  H  H20  1  0.971600  0.976900  0.932000  1.0  0.0969
  H  H21  1  0.985100  0.563800  0.624400  1.0  0.1174
  H  H22  1  0.097500  0.459900  0.741100  1.0  0.1114
  H  H23  1  0.983600  0.184700  0.598400  1.0  0.0916
  H  H24  1  0.476900  0.834600  0.254000  1.0  0.1068
  H  H25  1  0.373200  0.830100  0.356800  1.0  0.1194
  H  H26  1  0.471600  0.523100  0.432000  1.0  0.0966
  H  H27  1  0.514900  0.063800  0.875600  1.0  0.1179
  H  H28  1  0.402500  0.959900  0.758900  1.0  0.1112
  H  H29  1  0.516400  0.684700  0.901600  1.0  0.0915
  H  H30  1  0.023100  0.334600  0.246000  1.0  0.1063
  H  H31  1  0.126800  0.330100  0.143200  1.0  0.12
  H  H32  1  0.028400  0.023100  0.068000  1.0  0.0962
  C  C33  1  0.080400  0.569100  0.453020  1.0  0.1484
  C  C34  1  0.014700  0.514100  0.379000  1.0  -0.0703
  C  C35  1  0.948500  0.575600  0.310100  1.0  -0.0206
  C  C36  1  0.950200  0.689200  0.316820  1.0  -0.1834
  C  C37  1  0.016400  0.737600  0.395460  1.0  0.1619
  C  C38  1  0.160300  0.508300  0.526200  1.0  0.6358
  C  C39  1  0.883500  0.761000  0.242600  1.0  0.7051
  C  C40  1  0.462200  0.316600  0.709090  1.0  0.1172
  C  C41  1  0.523200  0.227600  0.707000  1.0  -0.0902
  C  C42  1  0.585100  0.230600  0.646400  1.0  -0.0589
  C  C43  1  0.584800  0.323100  0.591300  1.0  -0.1841
  C  C44  1  0.525100  0.411000  0.601800  1.0  0.1797
  C  C45  1  0.388000  0.321400  0.767610  1.0  0.7056
  C  C46  1  0.643200  0.331900  0.518200  1.0  0.7356
  C  C47  1  0.419600  0.069100  0.046980  1.0  0.1483
  C  C48  1  0.485300  0.014100  0.121000  1.0  -0.0689
  C  C49  1  0.551500  0.075600  0.189900  1.0  -0.0237
  C  C50  1  0.549800  0.189200  0.183180  1.0  -0.1835
  C  C51  1  0.483600  0.237600  0.104540  1.0  0.1623
  C  C52  1  0.339700  0.008300  0.973800  1.0  0.6355
  C  C53  1  0.616500  0.261000  0.257400  1.0  0.705
  C  C54  1  0.037800  0.816600  0.790910  1.0  0.1174
  C  C55  1  0.976800  0.727600  0.793000  1.0  -0.0902
  C  C56  1  0.914900  0.730600  0.853600  1.0  -0.0584
  C  C57  1  0.915200  0.823100  0.908700  1.0  -0.1835
  C  C58  1  0.974900  0.911000  0.898200  1.0  0.1789
  C  C59  1  0.112000  0.821400  0.732390  1.0  0.7032
  C  C60  1  0.856800  0.831900  0.981800  1.0  0.7359
  C  C61  1  0.919600  0.430900  0.546980  1.0  0.1481
  C  C62  1  0.985300  0.485900  0.621000  1.0  -0.07
  C  C63  1  0.051500  0.424400  0.689900  1.0  -0.024
  C  C64  1  0.049800  0.310800  0.683180  1.0  -0.1833
  C  C65  1  0.983600  0.262400  0.604540  1.0  0.1623
  C  C66  1  0.839700  0.491700  0.473800  1.0  0.6331
  C  C67  1  0.116500  0.239000  0.757400  1.0  0.7042
  C  C68  1  0.537800  0.683400  0.290910  1.0  0.1173
  C  C69  1  0.476800  0.772400  0.293000  1.0  -0.0905
  C  C70  1  0.414900  0.769400  0.353600  1.0  -0.0584
  C  C71  1  0.415200  0.676900  0.408700  1.0  -0.1836
  C  C72  1  0.474900  0.589000  0.398200  1.0  0.1791
  C  C73  1  0.612000  0.678600  0.232390  1.0  0.7055
  C  C74  1  0.356800  0.668100  0.481800  1.0  0.7356
  C  C75  1  0.580400  0.930900  0.953020  1.0  0.1483
  C  C76  1  0.514700  0.985900  0.879000  1.0  -0.0714
  C  C77  1  0.448500  0.924400  0.810100  1.0  -0.0209
  C  C78  1  0.450200  0.810800  0.816820  1.0  -0.1856
  C  C79  1  0.516400  0.762400  0.895460  1.0  0.161
  C  C80  1  0.660300  0.991700  0.026200  1.0  0.634
  C  C81  1  0.383500  0.739000  0.742600  1.0  0.7047
  C  C82  1  0.962200  0.183400  0.209090  1.0  0.1172
  C  C83  1  0.023200  0.272400  0.207000  1.0  -0.0909
  C  C84  1  0.085100  0.269400  0.146400  1.0  -0.0575
  C  C85  1  0.084800  0.176900  0.091300  1.0  -0.184
  C  C86  1  0.025100  0.089000  0.101800  1.0  0.1797
  C  C87  1  0.888000  0.178600  0.267610  1.0  0.7037
  C  C88  1  0.143200  0.168100  0.018200  1.0  0.7356
  N  N89  1  0.079640  0.679050  0.462270  1.0  -0.3125
  N  N90  1  0.463310  0.407500  0.657020  1.0  -0.3361
  N  N91  1  0.420360  0.179050  0.037730  1.0  -0.3129
  N  N92  1  0.036690  0.907500  0.842980  1.0  -0.3344
  N  N93  1  0.920360  0.320950  0.537730  1.0  -0.3116
  N  N94  1  0.536690  0.592500  0.342980  1.0  -0.334
  N  N95  1  0.579640  0.820950  0.962270  1.0  -0.3118
  N  N96  1  0.963310  0.092500  0.157020  1.0  -0.3348
  O  O97  1  0.209780  0.567950  0.596830  1.0  -0.6616
  O  O98  1  0.175370  0.411150  0.515030  1.0  -0.5266
  O  O99  1  0.823630  0.713760  0.174900  1.0  -0.6124
  O  O100  1  0.896390  0.863640  0.254750  1.0  -0.6195
  O  O101  1  0.328920  0.401740  0.750690  1.0  -0.5897
  O  O102  1  0.391400  0.246110  0.826970  1.0  -0.5852
  O  O103  1  0.712260  0.266430  0.522880  1.0  -0.6088
  O  O104  1  0.612540  0.406800  0.457190  1.0  -0.6083
  O  O105  1  0.290220  0.067950  0.903170  1.0  -0.662
  O  O106  1  0.324630  0.911150  0.984970  1.0  -0.5265
  O  O107  1  0.676370  0.213760  0.325100  1.0  -0.6112
  O  O108  1  0.603610  0.363640  0.245250  1.0  -0.6195
  O  O109  1  0.171080  0.901740  0.749310  1.0  -0.5896
  O  O110  1  0.108600  0.746110  0.673030  1.0  -0.5872
  O  O111  1  0.787740  0.766430  0.977120  1.0  -0.6072
  O  O112  1  0.887460  0.906800  0.042810  1.0  -0.6083
  O  O113  1  0.790220  0.432050  0.403170  1.0  -0.663
  O  O114  1  0.824630  0.588850  0.484970  1.0  -0.5282
  O  O115  1  0.176370  0.286240  0.825100  1.0  -0.6119
  O  O116  1  0.103610  0.136360  0.745250  1.0  -0.6193
  O  O117  1  0.671080  0.598260  0.249310  1.0  -0.5898
  O  O118  1  0.608600  0.753890  0.173030  1.0  -0.587
  O  O119  1  0.287740  0.733570  0.477120  1.0  -0.6071
  O  O120  1  0.387460  0.593200  0.542810  1.0  -0.6085
  O  O121  1  0.709780  0.932050  0.096830  1.0  -0.6621
  O  O122  1  0.675370  0.088850  0.015030  1.0  -0.5274
  O  O123  1  0.323630  0.786240  0.674900  1.0  -0.6118
  O  O124  1  0.396390  0.636360  0.754750  1.0  -0.6195
  O  O125  1  0.828920  0.098260  0.250690  1.0  -0.5899
  O  O126  1  0.891400  0.253890  0.326970  1.0  -0.5851
  O  O127  1  0.212260  0.233570  0.022880  1.0  -0.6078
  O  O128  1  0.112540  0.093200  0.957190  1.0  -0.6087
