# generated using pymatgen
data_Cu3H12C6(I2N)2
_symmetry_space_group_name_H-M   'P 1'
_cell_length_a   25.90510000
_cell_length_b   25.90510000
_cell_length_c   20.46030000
_cell_angle_alpha   90.00000000
_cell_angle_beta   90.00000000
_cell_angle_gamma   120.00000000
_symmetry_Int_Tables_number   1
_chemical_formula_structural   Cu3H12C6(I2N)2
_chemical_formula_sum   'Cu54 H216 C108 I72 N36'
_cell_volume   11890.85751748
_cell_formula_units_Z   18
loop_
 _symmetry_equiv_pos_site_id
 _symmetry_equiv_pos_as_xyz
  1  'x, y, z'
loop_
 _atom_site_type_symbol
 _atom_site_label
 _atom_site_symmetry_multiplicity
 _atom_site_fract_x
 _atom_site_fract_y
 _atom_site_fract_z
 _atom_site_occupancy
 _atom_site_charge
  Cu  Cu1  1  0.017510  0.391130  0.418150  1.0  0.1309
  Cu  Cu2  1  0.954430  0.265870  0.411650  1.0  0.1322
  Cu  Cu3  1  0.011200  0.341400  0.194420  1.0  0.2574
  Cu  Cu4  1  0.684180  0.724460  0.751480  1.0  0.1309
  Cu  Cu5  1  0.621100  0.599200  0.744980  1.0  0.1322
  Cu  Cu6  1  0.677870  0.674730  0.527750  1.0  0.2574
  Cu  Cu7  1  0.350840  0.057800  0.084820  1.0  0.1308
  Cu  Cu8  1  0.287760  0.932540  0.078320  1.0  0.1322
  Cu  Cu9  1  0.344530  0.008070  0.861090  1.0  0.2574
  Cu  Cu10  1  0.608870  0.626380  0.418150  1.0  0.1273
  Cu  Cu11  1  0.734130  0.688560  0.411650  1.0  0.1396
  Cu  Cu12  1  0.658600  0.669800  0.194420  1.0  0.257
  Cu  Cu13  1  0.275540  0.959710  0.751480  1.0  0.1273
  Cu  Cu14  1  0.400800  0.021890  0.744980  1.0  0.14
  Cu  Cu15  1  0.325270  0.003130  0.527750  1.0  0.257
  Cu  Cu16  1  0.942200  0.293050  0.084820  1.0  0.1274
  Cu  Cu17  1  0.067460  0.355230  0.078320  1.0  0.1396
  Cu  Cu18  1  0.991930  0.336470  0.861090  1.0  0.2569
  Cu  Cu19  1  0.373620  0.982490  0.418150  1.0  0.1398
  Cu  Cu20  1  0.311440  0.045570  0.411650  1.0  0.1313
  Cu  Cu21  1  0.330200  0.988800  0.194420  1.0  0.2574
  Cu  Cu22  1  0.040290  0.315820  0.751480  1.0  0.1398
  Cu  Cu23  1  0.978110  0.378900  0.744980  1.0  0.1313
  Cu  Cu24  1  0.996870  0.322130  0.527750  1.0  0.2574
  Cu  Cu25  1  0.706950  0.649160  0.084820  1.0  0.1401
  Cu  Cu26  1  0.644770  0.712240  0.078320  1.0  0.1313
  Cu  Cu27  1  0.663530  0.655470  0.861090  1.0  0.2577
  Cu  Cu28  1  0.982490  0.608870  0.581850  1.0  0.1305
  Cu  Cu29  1  0.045570  0.734130  0.588350  1.0  0.1351
  Cu  Cu30  1  0.988800  0.658600  0.805580  1.0  0.256
  Cu  Cu31  1  0.649160  0.942200  0.915180  1.0  0.1305
  Cu  Cu32  1  0.712240  0.067460  0.921680  1.0  0.1351
  Cu  Cu33  1  0.655470  0.991930  0.138910  1.0  0.256
  Cu  Cu34  1  0.315820  0.275540  0.248520  1.0  0.1305
  Cu  Cu35  1  0.378900  0.400800  0.255020  1.0  0.1351
  Cu  Cu36  1  0.322130  0.325270  0.472250  1.0  0.256
  Cu  Cu37  1  0.391130  0.373620  0.581850  1.0  0.1291
  Cu  Cu38  1  0.265870  0.311440  0.588350  1.0  0.1391
  Cu  Cu39  1  0.341400  0.330200  0.805580  1.0  0.2567
  Cu  Cu40  1  0.057800  0.706950  0.915180  1.0  0.1293
  Cu  Cu41  1  0.932540  0.644770  0.921680  1.0  0.1391
  Cu  Cu42  1  0.008070  0.663530  0.138910  1.0  0.2567
  Cu  Cu43  1  0.724460  0.040290  0.248520  1.0  0.1291
  Cu  Cu44  1  0.599200  0.978110  0.255020  1.0  0.1396
  Cu  Cu45  1  0.674730  0.996870  0.472250  1.0  0.2567
  Cu  Cu46  1  0.626380  0.017510  0.581850  1.0  0.136
  Cu  Cu47  1  0.688560  0.954430  0.588350  1.0  0.1307
  Cu  Cu48  1  0.669800  0.011200  0.805580  1.0  0.2572
  Cu  Cu49  1  0.293050  0.350840  0.915180  1.0  0.1364
  Cu  Cu50  1  0.355230  0.287760  0.921680  1.0  0.1307
  Cu  Cu51  1  0.336470  0.344530  0.138910  1.0  0.2575
  Cu  Cu52  1  0.959710  0.684180  0.248520  1.0  0.136
  Cu  Cu53  1  0.021890  0.621100  0.255020  1.0  0.1307
  Cu  Cu54  1  0.003130  0.677870  0.472250  1.0  0.2572
  H  H55  1  0.859700  0.240500  0.307800  1.0  0.086
  H  H56  1  0.910100  0.232900  0.276500  1.0  0.0823
  H  H57  1  0.847200  0.157900  0.222500  1.0  0.0683
  H  H58  1  0.799300  0.174200  0.242800  1.0  0.0791
  H  H59  1  0.932900  0.163600  0.319000  1.0  0.0753
  H  H60  1  0.907900  0.135000  0.387100  1.0  0.0812
  H  H61  1  0.826400  0.062700  0.342400  1.0  0.0887
  H  H62  1  0.856600  0.085300  0.274600  1.0  0.0737
  H  H63  1  0.835100  0.145400  0.434700  1.0  0.0827
  H  H64  1  0.820500  0.194700  0.415200  1.0  0.0849
  H  H65  1  0.751500  0.135400  0.349300  1.0  0.0786
  H  H66  1  0.757700  0.083900  0.379900  1.0  0.0709
  H  H67  1  0.526370  0.573830  0.641130  1.0  0.086
  H  H68  1  0.576770  0.566230  0.609830  1.0  0.0823
  H  H69  1  0.513870  0.491230  0.555830  1.0  0.0683
  H  H70  1  0.465970  0.507530  0.576130  1.0  0.079
  H  H71  1  0.599570  0.496930  0.652330  1.0  0.0753
  H  H72  1  0.574570  0.468330  0.720430  1.0  0.0812
  H  H73  1  0.493070  0.396030  0.675730  1.0  0.0887
  H  H74  1  0.523270  0.418630  0.607930  1.0  0.0787
  H  H75  1  0.501770  0.478730  0.768030  1.0  0.0827
  H  H76  1  0.487170  0.528030  0.748530  1.0  0.0849
  H  H77  1  0.418170  0.468730  0.682630  1.0  0.0786
  H  H78  1  0.424370  0.417230  0.713230  1.0  0.0709
  H  H79  1  0.193030  0.907170  0.974470  1.0  0.0862
  H  H80  1  0.243430  0.899570  0.943170  1.0  0.0823
  H  H81  1  0.180530  0.824570  0.889170  1.0  0.0683
  H  H82  1  0.132630  0.840870  0.909470  1.0  0.0791
  H  H83  1  0.266230  0.830270  0.985670  1.0  0.0753
  H  H84  1  0.241230  0.801670  0.053770  1.0  0.0812
  H  H85  1  0.159730  0.729370  0.009070  1.0  0.0887
  H  H86  1  0.189930  0.751970  0.941270  1.0  0.0744
  H  H87  1  0.168430  0.812070  0.101370  1.0  0.0827
  H  H88  1  0.153830  0.861370  0.081870  1.0  0.0849
  H  H89  1  0.084830  0.802070  0.015970  1.0  0.0783
  H  H90  1  0.091030  0.750570  0.046570  1.0  0.0709
  H  H91  1  0.759500  0.619200  0.307800  1.0  0.0845
  H  H92  1  0.767100  0.677200  0.276500  1.0  0.0788
  H  H93  1  0.842100  0.689300  0.222500  1.0  0.068
  H  H94  1  0.825800  0.625100  0.242800  1.0  0.0827
  H  H95  1  0.836400  0.769300  0.319000  1.0  0.0752
  H  H96  1  0.865000  0.772900  0.387100  1.0  0.0814
  H  H97  1  0.937300  0.763700  0.342400  1.0  0.0895
  H  H98  1  0.914700  0.771300  0.274600  1.0  0.0743
  H  H99  1  0.854600  0.689700  0.434700  1.0  0.0829
  H  H100  1  0.805300  0.625800  0.415200  1.0  0.0867
  H  H101  1  0.864600  0.616100  0.349300  1.0  0.0784
  H  H102  1  0.916100  0.673800  0.379900  1.0  0.0747
  H  H103  1  0.426170  0.952530  0.641130  1.0  0.0845
  H  H104  1  0.433770  0.010530  0.609830  1.0  0.0788
  H  H105  1  0.508770  0.022630  0.555830  1.0  0.0681
  H  H106  1  0.492470  0.958430  0.576130  1.0  0.0827
  H  H107  1  0.503070  0.102630  0.652330  1.0  0.0752
  H  H108  1  0.531670  0.106230  0.720430  1.0  0.0814
  H  H109  1  0.603970  0.097030  0.675730  1.0  0.0895
  H  H110  1  0.581370  0.104630  0.607930  1.0  0.0743
  H  H111  1  0.521270  0.023030  0.768030  1.0  0.0829
  H  H112  1  0.471970  0.959130  0.748530  1.0  0.0866
  H  H113  1  0.531270  0.949430  0.682630  1.0  0.0784
  H  H114  1  0.582770  0.007130  0.713230  1.0  0.0747
  H  H115  1  0.092830  0.285870  0.974470  1.0  0.0847
  H  H116  1  0.100430  0.343870  0.943170  1.0  0.0788
  H  H117  1  0.175430  0.355970  0.889170  1.0  0.068
  H  H118  1  0.159130  0.291770  0.909470  1.0  0.0827
  H  H119  1  0.169730  0.435970  0.985670  1.0  0.0752
  H  H120  1  0.198330  0.439570  0.053770  1.0  0.0814
  H  H121  1  0.270630  0.430370  0.009070  1.0  0.0895
  H  H122  1  0.248030  0.437970  0.941270  1.0  0.0788
  H  H123  1  0.187930  0.356370  0.101370  1.0  0.0829
  H  H124  1  0.138630  0.292470  0.081870  1.0  0.0868
  H  H125  1  0.197930  0.282770  0.015970  1.0  0.0784
  H  H126  1  0.249430  0.340470  0.046570  1.0  0.0747
  H  H127  1  0.380800  0.140300  0.307800  1.0  0.0872
  H  H128  1  0.322800  0.089900  0.276500  1.0  0.0788
  H  H129  1  0.310700  0.152800  0.222500  1.0  0.068
  H  H130  1  0.374900  0.200700  0.242800  1.0  0.0835
  H  H131  1  0.230700  0.067100  0.319000  1.0  0.0733
  H  H132  1  0.227100  0.092100  0.387100  1.0  0.0829
  H  H133  1  0.236300  0.173600  0.342400  1.0  0.0876
  H  H134  1  0.228700  0.143400  0.274600  1.0  0.0729
  H  H135  1  0.310300  0.164900  0.434700  1.0  0.0814
  H  H136  1  0.374200  0.179500  0.415200  1.0  0.0821
  H  H137  1  0.383900  0.248500  0.349300  1.0  0.0811
  H  H138  1  0.326200  0.242300  0.379900  1.0  0.0756
  H  H139  1  0.047470  0.473630  0.641130  1.0  0.0872
  H  H140  1  0.989470  0.423230  0.609830  1.0  0.0788
  H  H141  1  0.977370  0.486130  0.555830  1.0  0.068
  H  H142  1  0.041570  0.534030  0.576130  1.0  0.0836
  H  H143  1  0.897370  0.400430  0.652330  1.0  0.0733
  H  H144  1  0.893770  0.425430  0.720430  1.0  0.0829
  H  H145  1  0.902970  0.506930  0.675730  1.0  0.0876
  H  H146  1  0.895370  0.476730  0.607930  1.0  0.0729
  H  H147  1  0.976970  0.498230  0.768030  1.0  0.0814
  H  H148  1  0.040870  0.512830  0.748530  1.0  0.0821
  H  H149  1  0.050570  0.581830  0.682630  1.0  0.0811
  H  H150  1  0.992870  0.575630  0.713230  1.0  0.0756
  H  H151  1  0.714130  0.806970  0.974470  1.0  0.0869
  H  H152  1  0.656130  0.756570  0.943170  1.0  0.0787
  H  H153  1  0.644030  0.819470  0.889170  1.0  0.0679
  H  H154  1  0.708230  0.867370  0.909470  1.0  0.0835
  H  H155  1  0.564030  0.733770  0.985670  1.0  0.0733
  H  H156  1  0.560430  0.758770  0.053770  1.0  0.0829
  H  H157  1  0.569630  0.840270  0.009070  1.0  0.0876
  H  H158  1  0.562030  0.810070  0.941270  1.0  0.0717
  H  H159  1  0.643630  0.831570  0.101370  1.0  0.0814
  H  H160  1  0.707530  0.846170  0.081870  1.0  0.0821
  H  H161  1  0.717230  0.915170  0.015970  1.0  0.0795
  H  H162  1  0.659530  0.908970  0.046570  1.0  0.0756
  H  H163  1  0.140300  0.759500  0.692200  1.0  0.0843
  H  H164  1  0.089900  0.767100  0.723500  1.0  0.082
  H  H165  1  0.152800  0.842100  0.777500  1.0  0.069
  H  H166  1  0.200700  0.825800  0.757200  1.0  0.0818
  H  H167  1  0.067100  0.836400  0.681000  1.0  0.0737
  H  H168  1  0.092100  0.865000  0.612900  1.0  0.0812
  H  H169  1  0.173600  0.937300  0.657600  1.0  0.0895
  H  H170  1  0.143400  0.914700  0.725400  1.0  0.0721
  H  H171  1  0.164900  0.854600  0.565300  1.0  0.081
  H  H172  1  0.179500  0.805300  0.584800  1.0  0.0849
  H  H173  1  0.248500  0.864600  0.650700  1.0  0.0785
  H  H174  1  0.242300  0.916100  0.620100  1.0  0.078
  H  H175  1  0.806970  0.092830  0.025530  1.0  0.0844
  H  H176  1  0.756570  0.100430  0.056830  1.0  0.082
  H  H177  1  0.819470  0.175430  0.110830  1.0  0.069
  H  H178  1  0.867370  0.159130  0.090530  1.0  0.0818
  H  H179  1  0.733770  0.169730  0.014330  1.0  0.0737
  H  H180  1  0.758770  0.198330  0.946230  1.0  0.0812
  H  H181  1  0.840270  0.270630  0.990930  1.0  0.0895
  H  H182  1  0.810070  0.248030  0.058730  1.0  0.0732
  H  H183  1  0.831570  0.187930  0.898630  1.0  0.081
  H  H184  1  0.846170  0.138630  0.918130  1.0  0.0849
  H  H185  1  0.915170  0.197930  0.984030  1.0  0.0779
  H  H186  1  0.908970  0.249430  0.953430  1.0  0.078
  H  H187  1  0.473630  0.426170  0.358870  1.0  0.0843
  H  H188  1  0.423230  0.433770  0.390170  1.0  0.082
  H  H189  1  0.486130  0.508770  0.444170  1.0  0.069
  H  H190  1  0.534030  0.492470  0.423870  1.0  0.0818
  H  H191  1  0.400430  0.503070  0.347670  1.0  0.0737
  H  H192  1  0.425430  0.531670  0.279570  1.0  0.0812
  H  H193  1  0.506930  0.603970  0.324270  1.0  0.0895
  H  H194  1  0.476730  0.581370  0.392070  1.0  0.0773
  H  H195  1  0.498230  0.521270  0.231970  1.0  0.081
  H  H196  1  0.512830  0.471970  0.251470  1.0  0.0849
  H  H197  1  0.581830  0.531270  0.317370  1.0  0.0785
  H  H198  1  0.575630  0.582770  0.286770  1.0  0.078
  H  H199  1  0.240500  0.380800  0.692200  1.0  0.0877
  H  H200  1  0.232900  0.322800  0.723500  1.0  0.0789
  H  H201  1  0.157900  0.310700  0.777500  1.0  0.0703
  H  H202  1  0.174200  0.374900  0.757200  1.0  0.0834
  H  H203  1  0.163600  0.230700  0.681000  1.0  0.0764
  H  H204  1  0.135000  0.227100  0.612900  1.0  0.0809
  H  H205  1  0.062700  0.236300  0.657600  1.0  0.0869
  H  H206  1  0.085300  0.228700  0.725400  1.0  0.0735
  H  H207  1  0.145400  0.310300  0.565300  1.0  0.0811
  H  H208  1  0.194700  0.374200  0.584800  1.0  0.0847
  H  H209  1  0.135400  0.383900  0.650700  1.0  0.0789
  H  H210  1  0.083900  0.326200  0.620100  1.0  0.0766
  H  H211  1  0.907170  0.714130  0.025530  1.0  0.0879
  H  H212  1  0.899570  0.656130  0.056830  1.0  0.0789
  H  H213  1  0.824570  0.644030  0.110830  1.0  0.0703
  H  H214  1  0.840870  0.708230  0.090530  1.0  0.0834
  H  H215  1  0.830270  0.564030  0.014330  1.0  0.0764
  H  H216  1  0.801670  0.560430  0.946230  1.0  0.0809
  H  H217  1  0.729370  0.569630  0.990930  1.0  0.0869
  H  H218  1  0.751970  0.562030  0.058730  1.0  0.0791
  H  H219  1  0.812070  0.643630  0.898630  1.0  0.0811
  H  H220  1  0.861370  0.707530  0.918130  1.0  0.0847
  H  H221  1  0.802070  0.717230  0.984030  1.0  0.0789
  H  H222  1  0.750570  0.659530  0.953430  1.0  0.0766
  H  H223  1  0.573830  0.047470  0.358870  1.0  0.0877
  H  H224  1  0.566230  0.989470  0.390170  1.0  0.0789
  H  H225  1  0.491230  0.977370  0.444170  1.0  0.0703
  H  H226  1  0.507530  0.041570  0.423870  1.0  0.0835
  H  H227  1  0.496930  0.897370  0.347670  1.0  0.0764
  H  H228  1  0.468330  0.893770  0.279570  1.0  0.0809
  H  H229  1  0.396030  0.902970  0.324270  1.0  0.0869
  H  H230  1  0.418630  0.895370  0.392070  1.0  0.0735
  H  H231  1  0.478730  0.976970  0.231970  1.0  0.0811
  H  H232  1  0.528030  0.040870  0.251470  1.0  0.0847
  H  H233  1  0.468730  0.050570  0.317370  1.0  0.0789
  H  H234  1  0.417230  0.992870  0.286770  1.0  0.0766
  H  H235  1  0.619200  0.859700  0.692200  1.0  0.0866
  H  H236  1  0.677200  0.910100  0.723500  1.0  0.0797
  H  H237  1  0.689300  0.847200  0.777500  1.0  0.07
  H  H238  1  0.625100  0.799300  0.757200  1.0  0.0822
  H  H239  1  0.769300  0.932900  0.681000  1.0  0.0757
  H  H240  1  0.772900  0.907900  0.612900  1.0  0.0828
  H  H241  1  0.763700  0.826400  0.657600  1.0  0.0861
  H  H242  1  0.771300  0.856600  0.725400  1.0  0.0735
  H  H243  1  0.689700  0.835100  0.565300  1.0  0.0806
  H  H244  1  0.625800  0.820500  0.584800  1.0  0.0808
  H  H245  1  0.616100  0.751500  0.650700  1.0  0.0781
  H  H246  1  0.673800  0.757700  0.620100  1.0  0.0778
  H  H247  1  0.285870  0.193030  0.025530  1.0  0.0863
  H  H248  1  0.343870  0.243430  0.056830  1.0  0.0796
  H  H249  1  0.355970  0.180530  0.110830  1.0  0.07
  H  H250  1  0.291770  0.132630  0.090530  1.0  0.0822
  H  H251  1  0.435970  0.266230  0.014330  1.0  0.0757
  H  H252  1  0.439570  0.241230  0.946230  1.0  0.0828
  H  H253  1  0.430370  0.159730  0.990930  1.0  0.0861
  H  H254  1  0.437970  0.189930  0.058730  1.0  0.0727
  H  H255  1  0.356370  0.168430  0.898630  1.0  0.0806
  H  H256  1  0.292470  0.153830  0.918130  1.0  0.0809
  H  H257  1  0.282770  0.084830  0.984030  1.0  0.077
  H  H258  1  0.340470  0.091030  0.953430  1.0  0.0778
  H  H259  1  0.952530  0.526370  0.358870  1.0  0.0866
  H  H260  1  0.010530  0.576770  0.390170  1.0  0.0797
  H  H261  1  0.022630  0.513870  0.444170  1.0  0.07
  H  H262  1  0.958430  0.465970  0.423870  1.0  0.0823
  H  H263  1  0.102630  0.599570  0.347670  1.0  0.0757
  H  H264  1  0.106230  0.574570  0.279570  1.0  0.0828
  H  H265  1  0.097030  0.493070  0.324270  1.0  0.0861
  H  H266  1  0.104630  0.523270  0.392070  1.0  0.0735
  H  H267  1  0.023030  0.501770  0.231970  1.0  0.0806
  H  H268  1  0.959130  0.487170  0.251470  1.0  0.0808
  H  H269  1  0.949430  0.418170  0.317370  1.0  0.0781
  H  H270  1  0.007130  0.424370  0.286770  1.0  0.0778
  C  C271  1  0.873100  0.212600  0.300100  1.0  0.0082
  C  C272  1  0.827700  0.163900  0.259200  1.0  0.0224
  C  C273  1  0.898700  0.148100  0.347100  1.0  0.0168
  C  C274  1  0.843700  0.096500  0.313500  1.0  0.0017
  C  C275  1  0.829600  0.165500  0.398300  1.0  0.0124
  C  C276  1  0.778700  0.121100  0.356900  1.0  -0.004
  C  C277  1  0.539770  0.545930  0.633430  1.0  0.0082
  C  C278  1  0.494370  0.497230  0.592530  1.0  0.0224
  C  C279  1  0.565370  0.481430  0.680430  1.0  0.0168
  C  C280  1  0.510370  0.429830  0.646830  1.0  0.0017
  C  C281  1  0.496270  0.498830  0.731630  1.0  0.0124
  C  C282  1  0.445370  0.454430  0.690230  1.0  -0.004
  C  C283  1  0.206430  0.879270  0.966770  1.0  0.0082
  C  C284  1  0.161030  0.830570  0.925870  1.0  0.0224
  C  C285  1  0.232030  0.814770  0.013770  1.0  0.0168
  C  C286  1  0.177030  0.763170  0.980170  1.0  0.0017
  C  C287  1  0.162930  0.832170  0.064970  1.0  0.0124
  C  C288  1  0.112030  0.787770  0.023570  1.0  -0.0038
  C  C289  1  0.787400  0.660500  0.300100  1.0  0.0092
  C  C290  1  0.836100  0.663800  0.259200  1.0  0.0205
  C  C291  1  0.851900  0.750600  0.347100  1.0  0.0161
  C  C292  1  0.903500  0.747200  0.313500  1.0  -0.0004
  C  C293  1  0.834500  0.664100  0.398300  1.0  0.0146
  C  C294  1  0.878900  0.657600  0.356900  1.0  -0.0058
  C  C295  1  0.454070  0.993830  0.633430  1.0  0.0092
  C  C296  1  0.502770  0.997130  0.592530  1.0  0.0205
  C  C297  1  0.518570  0.083930  0.680430  1.0  0.0161
  C  C298  1  0.570170  0.080530  0.646830  1.0  -0.0004
  C  C299  1  0.501170  0.997430  0.731630  1.0  0.0146
  C  C300  1  0.545570  0.990930  0.690230  1.0  -0.0058
  C  C301  1  0.120730  0.327170  0.966770  1.0  0.0092
  C  C302  1  0.169430  0.330470  0.925870  1.0  0.0205
  C  C303  1  0.185230  0.417270  0.013770  1.0  0.0161
  C  C304  1  0.236830  0.413870  0.980170  1.0  -0.0004
  C  C305  1  0.167830  0.330770  0.064970  1.0  0.0146
  C  C306  1  0.212230  0.324270  0.023570  1.0  -0.0056
  C  C307  1  0.339500  0.126900  0.300100  1.0  0.0073
  C  C308  1  0.336200  0.172300  0.259200  1.0  0.0212
  C  C309  1  0.249400  0.101300  0.347100  1.0  0.0156
  C  C310  1  0.252800  0.156300  0.313500  1.0  0.0045
  C  C311  1  0.335900  0.170400  0.398300  1.0  0.0159
  C  C312  1  0.342400  0.221300  0.356900  1.0  -0.0038
  C  C313  1  0.006170  0.460230  0.633430  1.0  0.0073
  C  C314  1  0.002870  0.505630  0.592530  1.0  0.0212
  C  C315  1  0.916070  0.434630  0.680430  1.0  0.0156
  C  C316  1  0.919470  0.489630  0.646830  1.0  0.0045
  C  C317  1  0.002570  0.503730  0.731630  1.0  0.0159
  C  C318  1  0.009070  0.554630  0.690230  1.0  -0.0038
  C  C319  1  0.672830  0.793570  0.966770  1.0  0.0073
  C  C320  1  0.669530  0.838970  0.925870  1.0  0.0212
  C  C321  1  0.582730  0.767970  0.013770  1.0  0.0156
  C  C322  1  0.586130  0.822970  0.980170  1.0  0.0045
  C  C323  1  0.669230  0.837070  0.064970  1.0  0.0159
  C  C324  1  0.675730  0.887970  0.023570  1.0  -0.0039
  C  C325  1  0.126900  0.787400  0.699900  1.0  0.0092
  C  C326  1  0.172300  0.836100  0.740800  1.0  0.0237
  C  C327  1  0.101300  0.851900  0.652900  1.0  0.0146
  C  C328  1  0.156300  0.903500  0.686500  1.0  0.0012
  C  C329  1  0.170400  0.834500  0.601700  1.0  0.0128
  C  C330  1  0.221300  0.878900  0.643100  1.0  -0.0054
  C  C331  1  0.793570  0.120730  0.033230  1.0  0.0092
  C  C332  1  0.838970  0.169430  0.074130  1.0  0.0237
  C  C333  1  0.767970  0.185230  0.986230  1.0  0.0146
  C  C334  1  0.822970  0.236830  0.019830  1.0  0.0012
  C  C335  1  0.837070  0.167830  0.935030  1.0  0.0128
  C  C336  1  0.887970  0.212230  0.976430  1.0  -0.0052
  C  C337  1  0.460230  0.454070  0.366570  1.0  0.0092
  C  C338  1  0.505630  0.502770  0.407470  1.0  0.0237
  C  C339  1  0.434630  0.518570  0.319570  1.0  0.0146
  C  C340  1  0.489630  0.570170  0.353170  1.0  0.0012
  C  C341  1  0.503730  0.501170  0.268370  1.0  0.0128
  C  C342  1  0.554630  0.545570  0.309770  1.0  -0.0054
  C  C343  1  0.212600  0.339500  0.699900  1.0  0.0082
  C  C344  1  0.163900  0.336200  0.740800  1.0  0.0217
  C  C345  1  0.148100  0.249400  0.652900  1.0  0.0141
  C  C346  1  0.096500  0.252800  0.686500  1.0  0.0009
  C  C347  1  0.165500  0.335900  0.601700  1.0  0.0138
  C  C348  1  0.121100  0.342400  0.643100  1.0  -0.0051
  C  C349  1  0.879270  0.672830  0.033230  1.0  0.0082
  C  C350  1  0.830570  0.669530  0.074130  1.0  0.0217
  C  C351  1  0.814770  0.582730  0.986230  1.0  0.0141
  C  C352  1  0.763170  0.586130  0.019830  1.0  0.0009
  C  C353  1  0.832170  0.669230  0.935030  1.0  0.0138
  C  C354  1  0.787770  0.675730  0.976430  1.0  -0.0049
  C  C355  1  0.545930  0.006170  0.366570  1.0  0.0082
  C  C356  1  0.497230  0.002870  0.407470  1.0  0.0217
  C  C357  1  0.481430  0.916070  0.319570  1.0  0.0141
  C  C358  1  0.429830  0.919470  0.353170  1.0  0.0009
  C  C359  1  0.498830  0.002570  0.268370  1.0  0.0138
  C  C360  1  0.454430  0.009070  0.309770  1.0  -0.0051
  C  C361  1  0.660500  0.873100  0.699900  1.0  0.0099
  C  C362  1  0.663800  0.827700  0.740800  1.0  0.021
  C  C363  1  0.750600  0.898700  0.652900  1.0  0.015
  C  C364  1  0.747200  0.843700  0.686500  1.0  0.0069
  C  C365  1  0.664100  0.829600  0.601700  1.0  0.0147
  C  C366  1  0.657600  0.778700  0.643100  1.0  -0.004
  C  C367  1  0.327170  0.206430  0.033230  1.0  0.0099
  C  C368  1  0.330470  0.161030  0.074130  1.0  0.021
  C  C369  1  0.417270  0.232030  0.986230  1.0  0.015
  C  C370  1  0.413870  0.177030  0.019830  1.0  0.0069
  C  C371  1  0.330770  0.162930  0.935030  1.0  0.0147
  C  C372  1  0.324270  0.112030  0.976430  1.0  -0.0041
  C  C373  1  0.993830  0.539770  0.366570  1.0  0.0099
  C  C374  1  0.997130  0.494370  0.407470  1.0  0.021
  C  C375  1  0.083930  0.565370  0.319570  1.0  0.015
  C  C376  1  0.080530  0.510370  0.353170  1.0  0.0069
  C  C377  1  0.997430  0.496270  0.268370  1.0  0.0147
  C  C378  1  0.990930  0.445370  0.309770  1.0  -0.004
  I  I379  1  0.038510  0.330480  0.323820  1.0  -0.2811
  I  I380  1  0.999820  0.224430  0.498070  1.0  -0.3195
  I  I381  1  0.910530  0.339110  0.177500  1.0  -0.3591
  I  I382  1  0.907040  0.326820  0.468150  1.0  -0.2697
  I  I383  1  0.705180  0.663810  0.657150  1.0  -0.2811
  I  I384  1  0.666490  0.557760  0.831400  1.0  -0.3195
  I  I385  1  0.577200  0.672440  0.510830  1.0  -0.3591
  I  I386  1  0.573710  0.660150  0.801480  1.0  -0.2642
  I  I387  1  0.371840  0.997150  0.990490  1.0  -0.2811
  I  I388  1  0.333150  0.891100  0.164740  1.0  -0.3196
  I  I389  1  0.243860  0.005780  0.844170  1.0  -0.3591
  I  I390  1  0.240370  0.993490  0.134820  1.0  -0.2635
  I  I391  1  0.669520  0.708030  0.323820  1.0  -0.2807
  I  I392  1  0.775570  0.775390  0.498070  1.0  -0.3205
  I  I393  1  0.660890  0.571420  0.177500  1.0  -0.3613
  I  I394  1  0.673180  0.580220  0.468150  1.0  -0.2631
  I  I395  1  0.336190  0.041360  0.657150  1.0  -0.2807
  I  I396  1  0.442240  0.108720  0.831400  1.0  -0.3202
  I  I397  1  0.327560  0.904750  0.510830  1.0  -0.3613
  I  I398  1  0.339850  0.913550  0.801480  1.0  -0.2692
  I  I399  1  0.002850  0.374700  0.990490  1.0  -0.2807
  I  I400  1  0.108900  0.442060  0.164740  1.0  -0.3201
  I  I401  1  0.994220  0.238090  0.844170  1.0  -0.3614
  I  I402  1  0.006510  0.246890  0.134820  1.0  -0.2694
  I  I403  1  0.291970  0.961490  0.323820  1.0  -0.2805
  I  I404  1  0.224610  0.000180  0.498070  1.0  -0.3183
  I  I405  1  0.428580  0.089470  0.177500  1.0  -0.3575
  I  I406  1  0.419780  0.092960  0.468150  1.0  -0.2649
  I  I407  1  0.958640  0.294820  0.657150  1.0  -0.2805
  I  I408  1  0.891280  0.333510  0.831400  1.0  -0.3182
  I  I409  1  0.095250  0.422800  0.510830  1.0  -0.3575
  I  I410  1  0.086450  0.426290  0.801480  1.0  -0.2631
  I  I411  1  0.625300  0.628160  0.990490  1.0  -0.2806
  I  I412  1  0.557940  0.666850  0.164740  1.0  -0.3184
  I  I413  1  0.761910  0.756140  0.844170  1.0  -0.3575
  I  I414  1  0.753110  0.759630  0.134820  1.0  -0.265
  I  I415  1  0.961490  0.669520  0.676180  1.0  -0.284
  I  I416  1  0.000180  0.775570  0.501930  1.0  -0.3188
  I  I417  1  0.089470  0.660890  0.822500  1.0  -0.36
  I  I418  1  0.092960  0.673180  0.531850  1.0  -0.2695
  I  I419  1  0.628160  0.002850  0.009510  1.0  -0.284
  I  I420  1  0.666850  0.108900  0.835260  1.0  -0.3189
  I  I421  1  0.756140  0.994220  0.155830  1.0  -0.3599
  I  I422  1  0.759630  0.006510  0.865180  1.0  -0.2627
  I  I423  1  0.294820  0.336190  0.342850  1.0  -0.284
  I  I424  1  0.333510  0.442240  0.168600  1.0  -0.3188
  I  I425  1  0.422800  0.327560  0.489170  1.0  -0.36
  I  I426  1  0.426290  0.339850  0.198520  1.0  -0.263
  I  I427  1  0.330480  0.291970  0.676180  1.0  -0.28
  I  I428  1  0.224430  0.224610  0.501930  1.0  -0.3198
  I  I429  1  0.339110  0.428580  0.822500  1.0  -0.3614
  I  I430  1  0.326820  0.419780  0.531850  1.0  -0.2643
  I  I431  1  0.997150  0.625300  0.009510  1.0  -0.28
  I  I432  1  0.891100  0.557940  0.835260  1.0  -0.3195
  I  I433  1  0.005780  0.761910  0.155830  1.0  -0.3614
  I  I434  1  0.993490  0.753110  0.865180  1.0  -0.2697
  I  I435  1  0.663810  0.958640  0.342850  1.0  -0.28
  I  I436  1  0.557760  0.891280  0.168600  1.0  -0.3197
  I  I437  1  0.672440  0.095250  0.489170  1.0  -0.3614
  I  I438  1  0.660150  0.086450  0.198520  1.0  -0.2696
  I  I439  1  0.708030  0.038510  0.676180  1.0  -0.28
  I  I440  1  0.775390  0.999820  0.501930  1.0  -0.3191
  I  I441  1  0.571420  0.910530  0.822500  1.0  -0.3587
  I  I442  1  0.580220  0.907040  0.531850  1.0  -0.2652
  I  I443  1  0.374700  0.371840  0.009510  1.0  -0.2801
  I  I444  1  0.442060  0.333150  0.835260  1.0  -0.3193
  I  I445  1  0.238090  0.243860  0.155830  1.0  -0.3588
  I  I446  1  0.246890  0.240370  0.865180  1.0  -0.2653
  I  I447  1  0.041360  0.705180  0.342850  1.0  -0.28
  I  I448  1  0.108720  0.666490  0.168600  1.0  -0.3191
  I  I449  1  0.904750  0.577200  0.489170  1.0  -0.3587
  I  I450  1  0.913550  0.573710  0.198520  1.0  -0.2641
  N  N451  1  0.884300  0.195200  0.361400  1.0  -0.1533
  N  N452  1  0.797800  0.110600  0.295700  1.0  -0.1574
  N  N453  1  0.550970  0.528530  0.694730  1.0  -0.1533
  N  N454  1  0.464470  0.443930  0.629030  1.0  -0.1574
  N  N455  1  0.217630  0.861870  0.028070  1.0  -0.1533
  N  N456  1  0.131130  0.777270  0.962370  1.0  -0.1631
  N  N457  1  0.804800  0.689100  0.361400  1.0  -0.1545
  N  N458  1  0.889400  0.687200  0.295700  1.0  -0.1515
  N  N459  1  0.471470  0.022430  0.694730  1.0  -0.1545
  N  N460  1  0.556070  0.020530  0.629030  1.0  -0.1515
  N  N461  1  0.138130  0.355770  0.028070  1.0  -0.1545
  N  N462  1  0.222730  0.353870  0.962370  1.0  -0.1568
  N  N463  1  0.310900  0.115700  0.361400  1.0  -0.1557
  N  N464  1  0.312800  0.202200  0.295700  1.0  -0.1616
  N  N465  1  0.977570  0.449030  0.694730  1.0  -0.1557
  N  N466  1  0.979470  0.535530  0.629030  1.0  -0.1616
  N  N467  1  0.644230  0.782370  0.028070  1.0  -0.1558
  N  N468  1  0.646130  0.868870  0.962370  1.0  -0.1564
  N  N469  1  0.115700  0.804800  0.638600  1.0  -0.1558
  N  N470  1  0.202200  0.889400  0.704300  1.0  -0.1558
  N  N471  1  0.782370  0.138130  0.971930  1.0  -0.1558
  N  N472  1  0.868870  0.222730  0.037630  1.0  -0.1603
  N  N473  1  0.449030  0.471470  0.305270  1.0  -0.1558
  N  N474  1  0.535530  0.556070  0.370970  1.0  -0.1558
  N  N475  1  0.195200  0.310900  0.638600  1.0  -0.1511
  N  N476  1  0.110600  0.312800  0.704300  1.0  -0.1565
  N  N477  1  0.861870  0.644230  0.971930  1.0  -0.1511
  N  N478  1  0.777270  0.646130  0.037630  1.0  -0.1615
  N  N479  1  0.528530  0.977570  0.305270  1.0  -0.1511
  N  N480  1  0.443930  0.979470  0.370970  1.0  -0.1565
  N  N481  1  0.689100  0.884300  0.638600  1.0  -0.1548
  N  N482  1  0.687200  0.797800  0.704300  1.0  -0.1615
  N  N483  1  0.355770  0.217630  0.971930  1.0  -0.1549
  N  N484  1  0.353870  0.131130  0.037630  1.0  -0.1569
  N  N485  1  0.022430  0.550970  0.305270  1.0  -0.1548
  N  N486  1  0.020530  0.464470  0.370970  1.0  -0.1615
