# generated using pymatgen
data_Sr3P8H12(C2O7)4
_symmetry_space_group_name_H-M   'P 1'
_cell_length_a   22.55610000
_cell_length_b   17.43680000
_cell_length_c   10.19950000
_cell_angle_alpha   90.00000000
_cell_angle_beta   109.40200000
_cell_angle_gamma   90.00000000
_symmetry_Int_Tables_number   1
_chemical_formula_structural   Sr3P8H12(C2O7)4
_chemical_formula_sum   'Sr12 P32 H48 C32 O112'
_cell_volume   3783.71629843
_cell_formula_units_Z   4
loop_
 _symmetry_equiv_pos_site_id
 _symmetry_equiv_pos_as_xyz
  1  'x, y, z'
loop_
 _atom_site_type_symbol
 _atom_site_label
 _atom_site_symmetry_multiplicity
 _atom_site_fract_x
 _atom_site_fract_y
 _atom_site_fract_z
 _atom_site_occupancy
 _atom_site_charge
  Sr  Sr1  1  0.338280  0.102700  0.528990  1.0  1.6199
  Sr  Sr2  1  0.838280  0.602700  0.528990  1.0  1.6199
  Sr  Sr3  1  0.661720  0.102700  0.971010  1.0  1.6204
  Sr  Sr4  1  0.161720  0.602700  0.971010  1.0  1.6204
  Sr  Sr5  1  0.661720  0.897300  0.471010  1.0  1.6198
  Sr  Sr6  1  0.161720  0.397300  0.471010  1.0  1.6198
  Sr  Sr7  1  0.338280  0.897300  0.028990  1.0  1.6194
  Sr  Sr8  1  0.838280  0.397300  0.028990  1.0  1.6194
  Sr  Sr9  1  0.500000  0.013850  0.750000  1.0  1.5595
  Sr  Sr10  1  0.000000  0.513850  0.750000  1.0  1.5595
  Sr  Sr11  1  0.500000  0.986150  0.250000  1.0  1.5599
  Sr  Sr12  1  0.000000  0.486150  0.250000  1.0  1.5599
  P  P13  1  0.476580  0.156000  0.459820  1.0  1.5076
  P  P14  1  0.609110  0.087300  0.579170  1.0  1.4484
  P  P15  1  0.194280  0.179050  0.598320  1.0  1.5149
  P  P16  1  0.191900  0.015260  0.472340  1.0  1.5358
  P  P17  1  0.976580  0.656000  0.459820  1.0  1.5076
  P  P18  1  0.109110  0.587300  0.579170  1.0  1.4484
  P  P19  1  0.694280  0.679050  0.598320  1.0  1.5149
  P  P20  1  0.691900  0.515260  0.472340  1.0  1.5358
  P  P21  1  0.523420  0.156000  0.040180  1.0  1.5198
  P  P22  1  0.390890  0.087300  0.920830  1.0  1.4361
  P  P23  1  0.805720  0.179050  0.901680  1.0  1.514
  P  P24  1  0.808100  0.015260  0.027660  1.0  1.5367
  P  P25  1  0.023420  0.656000  0.040180  1.0  1.5198
  P  P26  1  0.890890  0.587300  0.920830  1.0  1.4361
  P  P27  1  0.305720  0.679050  0.901680  1.0  1.514
  P  P28  1  0.308100  0.515260  0.027660  1.0  1.5367
  P  P29  1  0.523420  0.844000  0.540180  1.0  1.5187
  P  P30  1  0.390890  0.912700  0.420830  1.0  1.4368
  P  P31  1  0.805720  0.820950  0.401680  1.0  1.5136
  P  P32  1  0.808100  0.984740  0.527660  1.0  1.5401
  P  P33  1  0.023420  0.344000  0.540180  1.0  1.5187
  P  P34  1  0.890890  0.412700  0.420830  1.0  1.4368
  P  P35  1  0.305720  0.320950  0.401680  1.0  1.5136
  P  P36  1  0.308100  0.484740  0.527660  1.0  1.5401
  P  P37  1  0.476580  0.844000  0.959820  1.0  1.5069
  P  P38  1  0.609110  0.912700  0.079170  1.0  1.4488
  P  P39  1  0.194280  0.820950  0.098320  1.0  1.5145
  P  P40  1  0.191900  0.984740  0.972340  1.0  1.5393
  P  P41  1  0.976580  0.344000  0.959820  1.0  1.5069
  P  P42  1  0.109110  0.412700  0.079170  1.0  1.4488
  P  P43  1  0.694280  0.320950  0.098320  1.0  1.5145
  P  P44  1  0.691900  0.484740  0.972340  1.0  1.5393
  H  H45  1  0.414500  0.243500  0.423400  1.0  0.412
  H  H46  1  0.692700  0.135100  0.681500  1.0  0.391
  H  H47  1  0.213500  0.190000  0.356000  1.0  0.4253
  H  H48  1  0.176800  0.103500  0.728100  1.0  0.4153
  H  H49  1  0.160300  0.995200  0.631600  1.0  0.4078
  H  H50  1  0.565500  0.175500  0.334000  1.0  0.4036
  H  H51  1  0.914500  0.743500  0.423400  1.0  0.412
  H  H52  1  0.192700  0.635100  0.681500  1.0  0.391
  H  H53  1  0.713500  0.690000  0.356000  1.0  0.4253
  H  H54  1  0.676800  0.603500  0.728100  1.0  0.4153
  H  H55  1  0.660300  0.495200  0.631600  1.0  0.4078
  H  H56  1  0.065500  0.675500  0.334000  1.0  0.4036
  H  H57  1  0.585500  0.243500  0.076600  1.0  0.4112
  H  H58  1  0.307300  0.135100  0.818500  1.0  0.3918
  H  H59  1  0.786500  0.190000  0.144000  1.0  0.4262
  H  H60  1  0.823200  0.103500  0.771900  1.0  0.4143
  H  H61  1  0.839700  0.995200  0.868400  1.0  0.407
  H  H62  1  0.434500  0.175500  0.166000  1.0  0.4051
  H  H63  1  0.085500  0.743500  0.076600  1.0  0.4112
  H  H64  1  0.807300  0.635100  0.818500  1.0  0.3918
  H  H65  1  0.286500  0.690000  0.144000  1.0  0.4262
  H  H66  1  0.323200  0.603500  0.771900  1.0  0.4143
  H  H67  1  0.339700  0.495200  0.868400  1.0  0.407
  H  H68  1  0.934500  0.675500  0.166000  1.0  0.4051
  H  H69  1  0.585500  0.756500  0.576600  1.0  0.4122
  H  H70  1  0.307300  0.864900  0.318500  1.0  0.3924
  H  H71  1  0.786500  0.810000  0.644000  1.0  0.4273
  H  H72  1  0.823200  0.896500  0.271900  1.0  0.4149
  H  H73  1  0.839700  0.004800  0.368400  1.0  0.4081
  H  H74  1  0.434500  0.824500  0.666000  1.0  0.4053
  H  H75  1  0.085500  0.256500  0.576600  1.0  0.4122
  H  H76  1  0.807300  0.364900  0.318500  1.0  0.3924
  H  H77  1  0.286500  0.310000  0.644000  1.0  0.4273
  H  H78  1  0.323200  0.396500  0.271900  1.0  0.4149
  H  H79  1  0.339700  0.504800  0.368400  1.0  0.4081
  H  H80  1  0.934500  0.324500  0.666000  1.0  0.4053
  H  H81  1  0.414500  0.756500  0.923400  1.0  0.4125
  H  H82  1  0.692700  0.864900  0.181500  1.0  0.3915
  H  H83  1  0.213500  0.810000  0.856000  1.0  0.4271
  H  H84  1  0.176800  0.896500  0.228100  1.0  0.415
  H  H85  1  0.160300  0.004800  0.131600  1.0  0.4076
  H  H86  1  0.565500  0.824500  0.834000  1.0  0.4035
  H  H87  1  0.914500  0.256500  0.923400  1.0  0.4125
  H  H88  1  0.192700  0.364900  0.181500  1.0  0.3915
  H  H89  1  0.713500  0.310000  0.856000  1.0  0.4271
  H  H90  1  0.676800  0.396500  0.228100  1.0  0.415
  H  H91  1  0.660300  0.504800  0.131600  1.0  0.4076
  H  H92  1  0.065500  0.324500  0.834000  1.0  0.4035
  C  C93  1  0.561280  0.174130  0.515600  1.0  -0.0784
  C  C94  1  0.577830  0.233880  0.632300  1.0  -0.0803
  C  C95  1  0.168670  0.116800  0.443900  1.0  -0.0214
  C  C96  1  0.097890  0.123020  0.367700  1.0  -0.0729
  C  C97  1  0.061280  0.674130  0.515600  1.0  -0.0784
  C  C98  1  0.077830  0.733880  0.632300  1.0  -0.0803
  C  C99  1  0.668670  0.616800  0.443900  1.0  -0.0214
  C  C100  1  0.597890  0.623020  0.367700  1.0  -0.0729
  C  C101  1  0.438720  0.174130  0.984400  1.0  -0.076
  C  C102  1  0.422170  0.233880  0.867700  1.0  -0.0792
  C  C103  1  0.831330  0.116800  0.056100  1.0  -0.019
  C  C104  1  0.902110  0.123020  0.132300  1.0  -0.0771
  C  C105  1  0.938720  0.674130  0.984400  1.0  -0.076
  C  C106  1  0.922170  0.733880  0.867700  1.0  -0.0792
  C  C107  1  0.331330  0.616800  0.056100  1.0  -0.019
  C  C108  1  0.402110  0.623020  0.132300  1.0  -0.0771
  C  C109  1  0.438720  0.825870  0.484400  1.0  -0.0765
  C  C110  1  0.422170  0.766120  0.367700  1.0  -0.0798
  C  C111  1  0.831330  0.883200  0.556100  1.0  -0.0195
  C  C112  1  0.902110  0.876980  0.632300  1.0  -0.0775
  C  C113  1  0.938720  0.325870  0.484400  1.0  -0.0765
  C  C114  1  0.922170  0.266120  0.367700  1.0  -0.0798
  C  C115  1  0.331330  0.383200  0.556100  1.0  -0.0195
  C  C116  1  0.402110  0.376980  0.632300  1.0  -0.0775
  C  C117  1  0.561280  0.825870  0.015600  1.0  -0.0788
  C  C118  1  0.577830  0.766120  0.132300  1.0  -0.0822
  C  C119  1  0.168670  0.883200  0.943900  1.0  -0.0206
  C  C120  1  0.097890  0.876980  0.867700  1.0  -0.0732
  C  C121  1  0.061280  0.325870  0.015600  1.0  -0.0788
  C  C122  1  0.077830  0.266120  0.132300  1.0  -0.0822
  C  C123  1  0.668670  0.383200  0.943900  1.0  -0.0206
  C  C124  1  0.597890  0.376980  0.867700  1.0  -0.0732
  O  O125  1  0.456680  0.128890  0.578900  1.0  -0.9281
  O  O126  1  0.457970  0.105580  0.332900  1.0  -0.7739
  O  O127  1  0.449300  0.239790  0.414800  1.0  -0.6404
  O  O128  1  0.601130  0.066880  0.715800  1.0  -0.9254
  O  O129  1  0.594070  0.027820  0.467300  1.0  -0.9094
  O  O130  1  0.678460  0.115790  0.604000  1.0  -0.6357
  O  O131  1  0.259730  0.011370  0.559600  1.0  -0.8503
  O  O132  1  0.163310  0.255860  0.552600  1.0  -0.8251
  O  O133  1  0.205360  0.142820  0.357900  1.0  -0.6311
  O  O134  1  0.172540  0.979650  0.329700  1.0  -0.8569
  O  O135  1  0.165370  0.147850  0.708200  1.0  -0.6792
  O  O136  1  0.149080  0.979170  0.551500  1.0  -0.6186
  O  O137  1  0.265220  0.180410  0.652900  1.0  -0.8138
  O  O138  1  0.575970  0.205950  0.398900  1.0  -0.523
  O  O139  1  0.956680  0.628890  0.578900  1.0  -0.9281
  O  O140  1  0.957970  0.605580  0.332900  1.0  -0.7739
  O  O141  1  0.949300  0.739790  0.414800  1.0  -0.6404
  O  O142  1  0.101130  0.566880  0.715800  1.0  -0.9254
  O  O143  1  0.094070  0.527820  0.467300  1.0  -0.9094
  O  O144  1  0.178460  0.615790  0.604000  1.0  -0.6357
  O  O145  1  0.759730  0.511370  0.559600  1.0  -0.8503
  O  O146  1  0.663310  0.755860  0.552600  1.0  -0.8251
  O  O147  1  0.705360  0.642820  0.357900  1.0  -0.6311
  O  O148  1  0.672540  0.479650  0.329700  1.0  -0.8569
  O  O149  1  0.665370  0.647850  0.708200  1.0  -0.6792
  O  O150  1  0.649080  0.479170  0.551500  1.0  -0.6186
  O  O151  1  0.765220  0.680410  0.652900  1.0  -0.8138
  O  O152  1  0.075970  0.705950  0.398900  1.0  -0.523
  O  O153  1  0.543320  0.128890  0.921100  1.0  -0.9277
  O  O154  1  0.542030  0.105580  0.167100  1.0  -0.7739
  O  O155  1  0.550700  0.239790  0.085200  1.0  -0.6394
  O  O156  1  0.398870  0.066880  0.784200  1.0  -0.9252
  O  O157  1  0.405930  0.027820  0.032700  1.0  -0.9097
  O  O158  1  0.321540  0.115790  0.896000  1.0  -0.6368
  O  O159  1  0.740270  0.011370  0.940400  1.0  -0.848
  O  O160  1  0.836690  0.255860  0.947400  1.0  -0.8252
  O  O161  1  0.794640  0.142820  0.142100  1.0  -0.6325
  O  O162  1  0.827460  0.979650  0.170300  1.0  -0.8596
  O  O163  1  0.834630  0.147850  0.791800  1.0  -0.6791
  O  O164  1  0.850920  0.979170  0.948500  1.0  -0.6162
  O  O165  1  0.734780  0.180410  0.847100  1.0  -0.8125
  O  O166  1  0.424030  0.205950  0.101100  1.0  -0.5229
  O  O167  1  0.043320  0.628890  0.921100  1.0  -0.9277
  O  O168  1  0.042030  0.605580  0.167100  1.0  -0.7739
  O  O169  1  0.050700  0.739790  0.085200  1.0  -0.6394
  O  O170  1  0.898870  0.566880  0.784200  1.0  -0.9252
  O  O171  1  0.905930  0.527820  0.032700  1.0  -0.9097
  O  O172  1  0.821540  0.615790  0.896000  1.0  -0.6368
  O  O173  1  0.240270  0.511370  0.940400  1.0  -0.848
  O  O174  1  0.336690  0.755860  0.947400  1.0  -0.8252
  O  O175  1  0.294640  0.642820  0.142100  1.0  -0.6325
  O  O176  1  0.327460  0.479650  0.170300  1.0  -0.8596
  O  O177  1  0.334630  0.647850  0.791800  1.0  -0.6791
  O  O178  1  0.350920  0.479170  0.948500  1.0  -0.6162
  O  O179  1  0.234780  0.680410  0.847100  1.0  -0.8125
  O  O180  1  0.924030  0.705950  0.101100  1.0  -0.5229
  O  O181  1  0.543320  0.871110  0.421100  1.0  -0.928
  O  O182  1  0.542030  0.894420  0.667100  1.0  -0.7736
  O  O183  1  0.550700  0.760210  0.585200  1.0  -0.6343
  O  O184  1  0.398870  0.933120  0.284200  1.0  -0.9248
  O  O185  1  0.405930  0.972180  0.532700  1.0  -0.91
  O  O186  1  0.321540  0.884210  0.396000  1.0  -0.6369
  O  O187  1  0.740270  0.988630  0.440400  1.0  -0.8483
  O  O188  1  0.836690  0.744140  0.447400  1.0  -0.8254
  O  O189  1  0.794640  0.857180  0.642100  1.0  -0.6339
  O  O190  1  0.827460  0.020350  0.670300  1.0  -0.8605
  O  O191  1  0.834630  0.852150  0.291800  1.0  -0.6814
  O  O192  1  0.850920  0.020830  0.448500  1.0  -0.6161
  O  O193  1  0.734780  0.819590  0.347100  1.0  -0.8127
  O  O194  1  0.424030  0.794050  0.601100  1.0  -0.5255
  O  O195  1  0.043320  0.371110  0.421100  1.0  -0.928
  O  O196  1  0.042030  0.394420  0.667100  1.0  -0.7736
  O  O197  1  0.050700  0.260210  0.585200  1.0  -0.6343
  O  O198  1  0.898870  0.433120  0.284200  1.0  -0.9248
  O  O199  1  0.905930  0.472180  0.532700  1.0  -0.91
  O  O200  1  0.821540  0.384210  0.396000  1.0  -0.6369
  O  O201  1  0.240270  0.488630  0.440400  1.0  -0.8483
  O  O202  1  0.336690  0.244140  0.447400  1.0  -0.8254
  O  O203  1  0.294640  0.357180  0.642100  1.0  -0.6339
  O  O204  1  0.327460  0.520350  0.670300  1.0  -0.8605
  O  O205  1  0.334630  0.352150  0.291800  1.0  -0.6814
  O  O206  1  0.350920  0.520830  0.448500  1.0  -0.6161
  O  O207  1  0.234780  0.319590  0.347100  1.0  -0.8127
  O  O208  1  0.924030  0.294050  0.601100  1.0  -0.5255
  O  O209  1  0.456680  0.871110  0.078900  1.0  -0.9283
  O  O210  1  0.457970  0.894420  0.832900  1.0  -0.7735
  O  O211  1  0.449300  0.760210  0.914800  1.0  -0.6408
  O  O212  1  0.601130  0.933120  0.215800  1.0  -0.9252
  O  O213  1  0.594070  0.972180  0.967300  1.0  -0.9094
  O  O214  1  0.678460  0.884210  0.104000  1.0  -0.6351
  O  O215  1  0.259730  0.988630  0.059600  1.0  -0.8503
  O  O216  1  0.163310  0.744140  0.052600  1.0  -0.8251
  O  O217  1  0.205360  0.857180  0.857900  1.0  -0.6326
  O  O218  1  0.172540  0.020350  0.829700  1.0  -0.8581
  O  O219  1  0.165370  0.852150  0.208200  1.0  -0.6814
  O  O220  1  0.149080  0.020830  0.051500  1.0  -0.6179
  O  O221  1  0.265220  0.819590  0.152900  1.0  -0.8142
  O  O222  1  0.575970  0.794050  0.898900  1.0  -0.5234
  O  O223  1  0.956680  0.371110  0.078900  1.0  -0.9283
  O  O224  1  0.957970  0.394420  0.832900  1.0  -0.7735
  O  O225  1  0.949300  0.260210  0.914800  1.0  -0.6408
  O  O226  1  0.101130  0.433120  0.215800  1.0  -0.9252
  O  O227  1  0.094070  0.472180  0.967300  1.0  -0.9094
  O  O228  1  0.178460  0.384210  0.104000  1.0  -0.6351
  O  O229  1  0.759730  0.488630  0.059600  1.0  -0.8503
  O  O230  1  0.663310  0.244140  0.052600  1.0  -0.8251
  O  O231  1  0.705360  0.357180  0.857900  1.0  -0.6326
  O  O232  1  0.672540  0.520350  0.829700  1.0  -0.8581
  O  O233  1  0.665370  0.352150  0.208200  1.0  -0.6814
  O  O234  1  0.649080  0.520830  0.051500  1.0  -0.6179
  O  O235  1  0.765220  0.319590  0.152900  1.0  -0.8142
  O  O236  1  0.075970  0.294050  0.898900  1.0  -0.5234
