# generated using pymatgen
data_Na8PH6RuW9(C3O16)2
_symmetry_space_group_name_H-M   'P 1'
_cell_length_a   15.19900000
_cell_length_b   16.95800000
_cell_length_c   19.93200000
_cell_angle_alpha   90.00000000
_cell_angle_beta   90.92700000
_cell_angle_gamma   90.00000000
_symmetry_Int_Tables_number   1
_chemical_formula_structural   Na8PH6RuW9(C3O16)2
_chemical_formula_sum   'Na32 P4 H24 Ru4 W36 C24 O128'
_cell_volume   5136.69382361
_cell_formula_units_Z   4
loop_
 _symmetry_equiv_pos_site_id
 _symmetry_equiv_pos_as_xyz
  1  'x, y, z'
loop_
 _atom_site_type_symbol
 _atom_site_label
 _atom_site_symmetry_multiplicity
 _atom_site_fract_x
 _atom_site_fract_y
 _atom_site_fract_z
 _atom_site_occupancy
 _atom_site_charge
  Na  Na1  1  0.803800  0.988000  0.493600  1.0  0.9062
  Na  Na2  1  0.812600  0.844300  0.626600  1.0  0.8938
  Na  Na3  1  0.016900  0.793100  0.709900  1.0  0.8892
  Na  Na4  1  0.796500  0.112900  0.353800  1.0  0.8949
  Na  Na5  1  0.584800  0.043600  0.414800  1.0  0.9014
  Na  Na6  1  0.004700  0.933300  0.571800  1.0  0.8188
  Na  Na7  1  0.999400  0.018400  0.478300  1.0  0.9348
  Na  Na8  1  0.020900  0.792100  0.037200  1.0  0.8737
  Na  Na9  1  0.696200  0.488000  0.006400  1.0  0.9055
  Na  Na10  1  0.687400  0.344300  0.873400  1.0  0.8931
  Na  Na11  1  0.483100  0.293100  0.790100  1.0  0.8886
  Na  Na12  1  0.703500  0.612900  0.146200  1.0  0.8952
  Na  Na13  1  0.915200  0.543600  0.085200  1.0  0.8977
  Na  Na14  1  0.495300  0.433300  0.928200  1.0  0.8577
  Na  Na15  1  0.500600  0.518400  0.021700  1.0  0.9752
  Na  Na16  1  0.479100  0.292100  0.462800  1.0  0.8724
  Na  Na17  1  0.196200  0.012000  0.506400  1.0  0.9058
  Na  Na18  1  0.187400  0.155700  0.373400  1.0  0.8929
  Na  Na19  1  0.983100  0.206900  0.290100  1.0  0.8873
  Na  Na20  1  0.203500  0.887100  0.646200  1.0  0.8958
  Na  Na21  1  0.415200  0.956400  0.585200  1.0  0.9003
  Na  Na22  1  0.995300  0.066700  0.428200  1.0  0.856
  Na  Na23  1  0.000600  0.981600  0.521700  1.0  0.9753
  Na  Na24  1  0.979100  0.207900  0.962800  1.0  0.8722
  Na  Na25  1  0.303800  0.512000  0.993600  1.0  0.9068
  Na  Na26  1  0.312600  0.655700  0.126600  1.0  0.8941
  Na  Na27  1  0.516900  0.706900  0.209900  1.0  0.8879
  Na  Na28  1  0.296500  0.387100  0.853800  1.0  0.8958
  Na  Na29  1  0.084800  0.456400  0.914800  1.0  0.9039
  Na  Na30  1  0.504700  0.566700  0.071800  1.0  0.8162
  Na  Na31  1  0.499400  0.481600  0.978300  1.0  0.9348
  Na  Na32  1  0.520900  0.707900  0.537200  1.0  0.8734
  P  P33  1  0.953920  0.845060  0.390280  1.0  1.6404
  P  P34  1  0.546080  0.345060  0.109720  1.0  1.6415
  P  P35  1  0.046080  0.154940  0.609720  1.0  1.6412
  P  P36  1  0.453920  0.654940  0.890280  1.0  1.6403
  H  H37  1  0.948400  0.454900  0.462400  1.0  0.0723
  H  H38  1  0.870300  0.526500  0.545500  1.0  0.075
  H  H39  1  0.733400  0.580000  0.520400  1.0  0.0852
  H  H40  1  0.673900  0.566100  0.417400  1.0  0.0668
  H  H41  1  0.742500  0.495000  0.331700  1.0  0.0937
  H  H42  1  0.886500  0.438900  0.357500  1.0  0.0762
  H  H43  1  0.551600  0.954900  0.037600  1.0  0.0726
  H  H44  1  0.629700  0.026500  0.954500  1.0  0.075
  H  H45  1  0.766600  0.080000  0.979600  1.0  0.084
  H  H46  1  0.826100  0.066100  0.082600  1.0  0.0666
  H  H47  1  0.757500  0.995000  0.168300  1.0  0.0937
  H  H48  1  0.613500  0.938900  0.142500  1.0  0.0768
  H  H49  1  0.051600  0.545100  0.537600  1.0  0.0722
  H  H50  1  0.129700  0.473500  0.454500  1.0  0.0751
  H  H51  1  0.266600  0.420000  0.479600  1.0  0.0842
  H  H52  1  0.326100  0.433900  0.582600  1.0  0.0662
  H  H53  1  0.257500  0.505000  0.668300  1.0  0.0935
  H  H54  1  0.113500  0.561100  0.642500  1.0  0.077
  H  H55  1  0.448400  0.045100  0.962400  1.0  0.0721
  H  H56  1  0.370300  0.973500  0.045500  1.0  0.0753
  H  H57  1  0.233400  0.920000  0.020400  1.0  0.0853
  H  H58  1  0.173900  0.933900  0.917400  1.0  0.0666
  H  H59  1  0.242500  0.005000  0.831700  1.0  0.0937
  H  H60  1  0.386500  0.061100  0.857500  1.0  0.0763
  Ru  Ru61  1  0.856920  0.590980  0.413010  1.0  0.5156
  Ru  Ru62  1  0.643080  0.090980  0.086990  1.0  0.5161
  Ru  Ru63  1  0.143080  0.409020  0.586990  1.0  0.5172
  Ru  Ru64  1  0.356920  0.909020  0.913010  1.0  0.517
  W  W65  1  0.836970  0.704620  0.290260  1.0  2.4292
  W  W66  1  0.042150  0.652240  0.364640  1.0  1.3958
  W  W67  1  0.030390  0.783770  0.232310  1.0  2.4693
  W  W68  1  0.949020  0.988020  0.258170  1.0  1.475
  W  W69  1  0.742260  0.903900  0.325100  1.0  1.401
  W  W70  1  0.751420  0.779060  0.458960  1.0  2.3766
  W  W71  1  0.966090  0.722180  0.537280  1.0  1.4008
  W  W72  1  0.154480  0.799560  0.477610  1.0  1.3164
  W  W73  1  0.145520  0.939350  0.332960  1.0  1.3715
  W  W74  1  0.663030  0.204620  0.209740  1.0  2.4336
  W  W75  1  0.457850  0.152240  0.135360  1.0  1.3954
  W  W76  1  0.469610  0.283770  0.267690  1.0  2.468
  W  W77  1  0.550980  0.488020  0.241830  1.0  1.4752
  W  W78  1  0.757740  0.403900  0.174900  1.0  1.3976
  W  W79  1  0.748580  0.279060  0.041040  1.0  2.3738
  W  W80  1  0.533910  0.222180  0.962720  1.0  1.4016
  W  W81  1  0.345520  0.299560  0.022390  1.0  1.3117
  W  W82  1  0.354480  0.439350  0.167040  1.0  1.3684
  W  W83  1  0.163030  0.295380  0.709740  1.0  2.4248
  W  W84  1  0.957850  0.347760  0.635360  1.0  1.3984
  W  W85  1  0.969610  0.216230  0.767690  1.0  2.4664
  W  W86  1  0.050980  0.011980  0.741830  1.0  1.4753
  W  W87  1  0.257740  0.096100  0.674900  1.0  1.3991
  W  W88  1  0.248580  0.220940  0.541040  1.0  2.375
  W  W89  1  0.033910  0.277820  0.462720  1.0  1.4045
  W  W90  1  0.845520  0.200440  0.522390  1.0  1.3128
  W  W91  1  0.854480  0.060650  0.667040  1.0  1.3683
  W  W92  1  0.336970  0.795380  0.790260  1.0  2.4391
  W  W93  1  0.542150  0.847760  0.864640  1.0  1.4027
  W  W94  1  0.530390  0.716230  0.732310  1.0  2.4681
  W  W95  1  0.449020  0.511980  0.758170  1.0  1.4759
  W  W96  1  0.242260  0.596100  0.825100  1.0  1.4009
  W  W97  1  0.251420  0.720940  0.958960  1.0  2.3783
  W  W98  1  0.466090  0.777820  0.037280  1.0  1.4021
  W  W99  1  0.654480  0.700440  0.977610  1.0  1.3188
  W  W100  1  0.645520  0.560650  0.832960  1.0  1.3717
  C  C101  1  0.893200  0.475900  0.452700  1.0  -0.2011
  C  C102  1  0.846000  0.520400  0.502700  1.0  -0.1994
  C  C103  1  0.763500  0.552400  0.487600  1.0  -0.1446
  C  C104  1  0.728200  0.543000  0.426600  1.0  -0.1462
  C  C105  1  0.768200  0.501400  0.374000  1.0  -0.2376
  C  C106  1  0.856500  0.467200  0.389900  1.0  -0.1955
  C  C107  1  0.606800  0.975900  0.047300  1.0  -0.1989
  C  C108  1  0.654000  0.020400  0.997300  1.0  -0.1977
  C  C109  1  0.736500  0.052400  0.012400  1.0  -0.146
  C  C110  1  0.771800  0.043000  0.073400  1.0  -0.1465
  C  C111  1  0.731800  0.001400  0.126000  1.0  -0.2366
  C  C112  1  0.643500  0.967200  0.110100  1.0  -0.1944
  C  C113  1  0.106800  0.524100  0.547300  1.0  -0.1953
  C  C114  1  0.154000  0.479600  0.497300  1.0  -0.1979
  C  C115  1  0.236500  0.447600  0.512400  1.0  -0.1458
  C  C116  1  0.271800  0.457000  0.573400  1.0  -0.1458
  C  C117  1  0.231800  0.498600  0.626000  1.0  -0.237
  C  C118  1  0.143500  0.532800  0.610100  1.0  -0.1942
  C  C119  1  0.393200  0.024100  0.952700  1.0  -0.1959
  C  C120  1  0.346000  0.979600  0.002700  1.0  -0.1992
  C  C121  1  0.263500  0.947600  0.987600  1.0  -0.1446
  C  C122  1  0.228200  0.957000  0.926600  1.0  -0.1468
  C  C123  1  0.268200  0.998600  0.874000  1.0  -0.2377
  C  C124  1  0.356500  0.032800  0.889900  1.0  -0.1938
  O  O125  1  0.735500  0.141000  0.247300  1.0  -0.7416
  O  O126  1  0.923200  0.624500  0.325700  1.0  -0.7814
  O  O127  1  0.803200  0.701700  0.382800  1.0  -0.8033
  O  O128  1  0.784300  0.799100  0.279700  1.0  -0.7207
  O  O129  1  0.919100  0.721600  0.221800  1.0  -0.7375
  O  O130  1  0.971800  0.656000  0.444600  1.0  -0.7643
  O  O131  1  0.125600  0.713800  0.402700  1.0  -0.7284
  O  O132  1  0.069800  0.683300  0.276600  1.0  -0.7866
  O  O133  1  0.073900  0.766500  0.153900  1.0  -0.8036
  O  O134  1  0.118200  0.836500  0.277200  1.0  -0.8208
  O  O135  1  0.965800  0.873400  0.221100  1.0  -0.7687
  O  O136  1  0.076700  0.985900  0.261400  1.0  -0.7384
  O  O137  1  0.062000  0.930200  0.689100  1.0  -0.834
  O  O138  1  0.834800  0.947800  0.275400  1.0  -0.7228
  O  O139  1  0.734500  0.983300  0.382000  1.0  -0.8216
  O  O140  1  0.690000  0.827000  0.384200  1.0  -0.7058
  O  O141  1  0.667200  0.717200  0.485000  1.0  -0.7607
  O  O142  1  0.743100  0.860800  0.512300  1.0  -0.819
  O  O143  1  0.960800  0.800800  0.594300  1.0  -0.823
  O  O144  1  0.091100  0.723100  0.529500  1.0  -0.69
  O  O145  1  0.147000  0.878400  0.533900  1.0  -0.7833
  O  O146  1  0.169700  0.864000  0.400900  1.0  -0.7466
  O  O147  1  0.849300  0.735400  0.506400  1.0  -0.7487
  O  O148  1  0.962200  0.775300  0.339600  1.0  -0.7864
  O  O149  1  0.996300  0.918600  0.357500  1.0  -0.8273
  O  O150  1  0.001400  0.823100  0.456200  1.0  -0.8473
  O  O151  1  0.856200  0.860800  0.402700  1.0  -0.8476
  O  O152  1  0.140100  0.021000  0.387500  1.0  -0.8182
  O  O153  1  0.655800  0.158900  0.396700  1.0  -0.7362
  O  O154  1  0.154800  0.748000  0.664300  1.0  -0.4847
  O  O155  1  0.881000  0.849000  0.737400  1.0  -0.6596
  O  O156  1  0.660200  0.039700  0.521800  1.0  -0.632
  O  O157  1  0.764500  0.641000  0.252700  1.0  -0.7409
  O  O158  1  0.576800  0.124500  0.174300  1.0  -0.7791
  O  O159  1  0.696800  0.201700  0.117200  1.0  -0.8062
  O  O160  1  0.715700  0.299100  0.220300  1.0  -0.7181
  O  O161  1  0.580900  0.221600  0.278200  1.0  -0.7345
  O  O162  1  0.528200  0.156000  0.055400  1.0  -0.764
  O  O163  1  0.374400  0.213800  0.097300  1.0  -0.7296
  O  O164  1  0.430200  0.183300  0.223400  1.0  -0.786
  O  O165  1  0.426100  0.266500  0.346100  1.0  -0.8065
  O  O166  1  0.381800  0.336500  0.222800  1.0  -0.8223
  O  O167  1  0.534200  0.373400  0.278900  1.0  -0.7659
  O  O168  1  0.423300  0.485900  0.238600  1.0  -0.7373
  O  O169  1  0.438000  0.430200  0.810900  1.0  -0.8345
  O  O170  1  0.665200  0.447800  0.224600  1.0  -0.7237
  O  O171  1  0.765500  0.483300  0.118000  1.0  -0.8224
  O  O172  1  0.810000  0.327000  0.115800  1.0  -0.7108
  O  O173  1  0.832800  0.217200  0.015000  1.0  -0.7597
  O  O174  1  0.756900  0.360800  0.987700  1.0  -0.8184
  O  O175  1  0.539200  0.300800  0.905700  1.0  -0.8228
  O  O176  1  0.408900  0.223100  0.970500  1.0  -0.6902
  O  O177  1  0.353000  0.378400  0.966100  1.0  -0.783
  O  O178  1  0.330300  0.364000  0.099100  1.0  -0.7487
  O  O179  1  0.650700  0.235400  0.993600  1.0  -0.7483
  O  O180  1  0.537800  0.275300  0.160400  1.0  -0.7868
  O  O181  1  0.503700  0.418600  0.142500  1.0  -0.8296
  O  O182  1  0.498600  0.323100  0.043800  1.0  -0.8454
  O  O183  1  0.643800  0.360800  0.097300  1.0  -0.8473
  O  O184  1  0.359900  0.521000  0.112500  1.0  -0.8178
  O  O185  1  0.844200  0.658900  0.103300  1.0  -0.736
  O  O186  1  0.345200  0.248000  0.835700  1.0  -0.4844
  O  O187  1  0.619000  0.349000  0.762600  1.0  -0.6576
  O  O188  1  0.839800  0.539700  0.978200  1.0  -0.6325
  O  O189  1  0.264500  0.859000  0.752700  1.0  -0.7403
  O  O190  1  0.076800  0.375500  0.674300  1.0  -0.7793
  O  O191  1  0.196800  0.298300  0.617200  1.0  -0.8062
  O  O192  1  0.215700  0.200900  0.720300  1.0  -0.7196
  O  O193  1  0.080900  0.278400  0.778200  1.0  -0.7332
  O  O194  1  0.028200  0.344000  0.555400  1.0  -0.7637
  O  O195  1  0.874400  0.286200  0.597300  1.0  -0.729
  O  O196  1  0.930200  0.316700  0.723400  1.0  -0.7857
  O  O197  1  0.926100  0.233500  0.846100  1.0  -0.8068
  O  O198  1  0.881800  0.163500  0.722800  1.0  -0.822
  O  O199  1  0.034200  0.126600  0.778900  1.0  -0.7661
  O  O200  1  0.923300  0.014100  0.738600  1.0  -0.738
  O  O201  1  0.938000  0.069800  0.310900  1.0  -0.8339
  O  O202  1  0.165200  0.052200  0.724600  1.0  -0.7231
  O  O203  1  0.265500  0.016700  0.618000  1.0  -0.8224
  O  O204  1  0.310000  0.173000  0.615800  1.0  -0.711
  O  O205  1  0.332800  0.282800  0.515000  1.0  -0.7599
  O  O206  1  0.256900  0.139200  0.487700  1.0  -0.8184
  O  O207  1  0.039200  0.199200  0.405700  1.0  -0.8235
  O  O208  1  0.908900  0.276900  0.470500  1.0  -0.691
  O  O209  1  0.853000  0.121600  0.466100  1.0  -0.7837
  O  O210  1  0.830300  0.136000  0.599100  1.0  -0.7484
  O  O211  1  0.150700  0.264600  0.493600  1.0  -0.748
  O  O212  1  0.037800  0.224700  0.660400  1.0  -0.7871
  O  O213  1  0.003700  0.081400  0.642500  1.0  -0.8305
  O  O214  1  0.998600  0.176900  0.543800  1.0  -0.8451
  O  O215  1  0.143800  0.139200  0.597300  1.0  -0.8475
  O  O216  1  0.859900  0.979000  0.612500  1.0  -0.8176
  O  O217  1  0.344200  0.841100  0.603300  1.0  -0.7359
  O  O218  1  0.845200  0.252000  0.335700  1.0  -0.4839
  O  O219  1  0.119000  0.151000  0.262600  1.0  -0.6582
  O  O220  1  0.339800  0.960300  0.478200  1.0  -0.6328
  O  O221  1  0.235500  0.359000  0.747300  1.0  -0.7407
  O  O222  1  0.423200  0.875500  0.825700  1.0  -0.7821
  O  O223  1  0.303200  0.798300  0.882800  1.0  -0.8039
  O  O224  1  0.284300  0.700900  0.779700  1.0  -0.7226
  O  O225  1  0.419100  0.778400  0.721800  1.0  -0.7368
  O  O226  1  0.471800  0.844000  0.944600  1.0  -0.7642
  O  O227  1  0.625600  0.786200  0.902700  1.0  -0.7263
  O  O228  1  0.569800  0.816700  0.776600  1.0  -0.7881
  O  O229  1  0.573900  0.733500  0.653900  1.0  -0.8033
  O  O230  1  0.618200  0.663500  0.777200  1.0  -0.8208
  O  O231  1  0.465800  0.626600  0.721100  1.0  -0.7686
  O  O232  1  0.576700  0.514100  0.761400  1.0  -0.7367
  O  O233  1  0.562000  0.569800  0.189100  1.0  -0.8342
  O  O234  1  0.334800  0.552200  0.775400  1.0  -0.7221
  O  O235  1  0.234500  0.516700  0.882000  1.0  -0.8217
  O  O236  1  0.190000  0.673000  0.884200  1.0  -0.706
  O  O237  1  0.167200  0.782800  0.985000  1.0  -0.7605
  O  O238  1  0.243100  0.639200  0.012300  1.0  -0.8195
  O  O239  1  0.460800  0.699200  0.094300  1.0  -0.8246
  O  O240  1  0.591100  0.776900  0.029500  1.0  -0.6911
  O  O241  1  0.647000  0.621600  0.033900  1.0  -0.784
  O  O242  1  0.669700  0.636000  0.900900  1.0  -0.7467
  O  O243  1  0.349300  0.764600  0.006400  1.0  -0.7488
  O  O244  1  0.462200  0.724700  0.839600  1.0  -0.7863
  O  O245  1  0.496300  0.581400  0.857500  1.0  -0.8276
  O  O246  1  0.501400  0.676900  0.956200  1.0  -0.8472
  O  O247  1  0.356200  0.639200  0.902700  1.0  -0.8479
  O  O248  1  0.640100  0.479000  0.887500  1.0  -0.8181
  O  O249  1  0.155800  0.341100  0.896700  1.0  -0.7366
  O  O250  1  0.654800  0.752000  0.164300  1.0  -0.4846
  O  O251  1  0.381000  0.651000  0.237400  1.0  -0.6591
  O  O252  1  0.160200  0.460300  0.021800  1.0  -0.6323
