# generated using pymatgen
data_CdH22C40(NO2)4
_symmetry_space_group_name_H-M   'P 1'
_cell_length_a   20.13500000
_cell_length_b   15.96400000
_cell_length_c   29.30700000
_cell_angle_alpha   90.00000000
_cell_angle_beta   90.00000000
_cell_angle_gamma   90.00000000
_symmetry_Int_Tables_number   1
_chemical_formula_structural   CdH22C40(NO2)4
_chemical_formula_sum   'Cd8 H176 C320 N32 O64'
_cell_volume   9420.29964798
_cell_formula_units_Z   8
loop_
 _symmetry_equiv_pos_site_id
 _symmetry_equiv_pos_as_xyz
  1  'x, y, z'
loop_
 _atom_site_type_symbol
 _atom_site_label
 _atom_site_symmetry_multiplicity
 _atom_site_fract_x
 _atom_site_fract_y
 _atom_site_fract_z
 _atom_site_occupancy
 _atom_site_charge
  Cd  Cd1  1  0.500000  0.092570  0.043600  1.0  1.0044
  Cd  Cd2  1  0.500000  0.407430  0.543600  1.0  1.0043
  Cd  Cd3  1  0.500000  0.592570  0.456400  1.0  1.0044
  Cd  Cd4  1  0.500000  0.907430  0.956400  1.0  1.0041
  Cd  Cd5  1  0.000000  0.592570  0.043600  1.0  1.0044
  Cd  Cd6  1  0.000000  0.907430  0.543600  1.0  1.0043
  Cd  Cd7  1  0.000000  0.092570  0.456400  1.0  1.0044
  Cd  Cd8  1  0.000000  0.407430  0.956400  1.0  1.0041
  H  H9  1  0.440100  0.237800  0.413500  1.0  0.1209
  H  H10  1  0.430900  0.201000  0.336200  1.0  0.1217
  H  H11  1  0.374800  0.966200  0.061200  1.0  0.082
  H  H12  1  0.260400  0.960200  0.062700  1.0  0.1409
  H  H13  1  0.256400  0.207000  0.040000  1.0  0.1451
  H  H14  1  0.371600  0.205000  0.038200  1.0  0.0872
  H  H15  1  0.065000  0.998000  0.149000  1.0  0.0941
  H  H16  1  0.060000  0.155000  0.944000  1.0  0.1179
  H  H17  1  0.559900  0.262200  0.913500  1.0  0.1208
  H  H18  1  0.569100  0.299000  0.836200  1.0  0.1199
  H  H19  1  0.625200  0.533800  0.561200  1.0  0.0823
  H  H20  1  0.739600  0.539800  0.562700  1.0  0.141
  H  H21  1  0.743600  0.293000  0.540000  1.0  0.1456
  H  H22  1  0.628400  0.295000  0.538200  1.0  0.0882
  H  H23  1  0.935000  0.502000  0.649000  1.0  0.0938
  H  H24  1  0.940000  0.345000  0.444000  1.0  0.1175
  H  H25  1  0.559900  0.737800  0.086500  1.0  0.1211
  H  H26  1  0.569100  0.701000  0.163800  1.0  0.1205
  H  H27  1  0.625200  0.466200  0.438800  1.0  0.0822
  H  H28  1  0.739600  0.460200  0.437300  1.0  0.141
  H  H29  1  0.743600  0.707000  0.460000  1.0  0.1457
  H  H30  1  0.628400  0.705000  0.461800  1.0  0.0876
  H  H31  1  0.935000  0.498000  0.351000  1.0  0.0943
  H  H32  1  0.940000  0.655000  0.556000  1.0  0.1179
  H  H33  1  0.440100  0.762200  0.586500  1.0  0.1209
  H  H34  1  0.430900  0.799000  0.663800  1.0  0.1214
  H  H35  1  0.374800  0.033800  0.938800  1.0  0.0822
  H  H36  1  0.260400  0.039800  0.937300  1.0  0.1419
  H  H37  1  0.256400  0.793000  0.960000  1.0  0.1453
  H  H38  1  0.371600  0.795000  0.961800  1.0  0.0874
  H  H39  1  0.065000  0.002000  0.851000  1.0  0.0955
  H  H40  1  0.060000  0.845000  0.056000  1.0  0.1178
  H  H41  1  0.559900  0.762200  0.586500  1.0  0.1207
  H  H42  1  0.569100  0.799000  0.663800  1.0  0.1201
  H  H43  1  0.625200  0.033800  0.938800  1.0  0.0826
  H  H44  1  0.739600  0.039800  0.937300  1.0  0.1418
  H  H45  1  0.743600  0.793000  0.960000  1.0  0.1457
  H  H46  1  0.628400  0.795000  0.961800  1.0  0.0877
  H  H47  1  0.935000  0.002000  0.851000  1.0  0.0944
  H  H48  1  0.940000  0.845000  0.056000  1.0  0.1179
  H  H49  1  0.440100  0.737800  0.086500  1.0  0.1212
  H  H50  1  0.430900  0.701000  0.163800  1.0  0.1219
  H  H51  1  0.374800  0.466200  0.438800  1.0  0.082
  H  H52  1  0.260400  0.460200  0.437300  1.0  0.1413
  H  H53  1  0.256400  0.707000  0.460000  1.0  0.1456
  H  H54  1  0.371600  0.705000  0.461800  1.0  0.087
  H  H55  1  0.065000  0.498000  0.351000  1.0  0.0953
  H  H56  1  0.060000  0.655000  0.556000  1.0  0.118
  H  H57  1  0.440100  0.262200  0.913500  1.0  0.1207
  H  H58  1  0.430900  0.299000  0.836200  1.0  0.1209
  H  H59  1  0.374800  0.533800  0.561200  1.0  0.0818
  H  H60  1  0.260400  0.539800  0.562700  1.0  0.141
  H  H61  1  0.256400  0.293000  0.540000  1.0  0.1452
  H  H62  1  0.371600  0.295000  0.538200  1.0  0.0878
  H  H63  1  0.065000  0.502000  0.649000  1.0  0.0941
  H  H64  1  0.060000  0.345000  0.444000  1.0  0.1176
  H  H65  1  0.559900  0.237800  0.413500  1.0  0.1208
  H  H66  1  0.569100  0.201000  0.336200  1.0  0.1204
  H  H67  1  0.625200  0.966200  0.061200  1.0  0.0821
  H  H68  1  0.739600  0.960200  0.062700  1.0  0.1405
  H  H69  1  0.743600  0.207000  0.040000  1.0  0.1451
  H  H70  1  0.628400  0.205000  0.038200  1.0  0.0878
  H  H71  1  0.935000  0.998000  0.149000  1.0  0.0945
  H  H72  1  0.940000  0.155000  0.944000  1.0  0.1177
  H  H73  1  0.500000  0.325400  0.158100  1.0  0.0988
  H  H74  1  0.500000  0.376200  0.231000  1.0  0.1301
  H  H75  1  0.500000  0.142500  0.278800  1.0  0.1051
  H  H76  1  0.500000  0.091500  0.205300  1.0  0.1265
  H  H77  1  0.500000  0.412100  0.300000  1.0  0.0834
  H  H78  1  0.500000  0.456000  0.374300  1.0  0.1034
  H  H79  1  0.500000  0.174600  0.658100  1.0  0.0988
  H  H80  1  0.500000  0.123800  0.731000  1.0  0.1306
  H  H81  1  0.500000  0.357500  0.778800  1.0  0.1053
  H  H82  1  0.500000  0.408500  0.705300  1.0  0.1265
  H  H83  1  0.500000  0.087900  0.800000  1.0  0.0838
  H  H84  1  0.500000  0.044000  0.874300  1.0  0.1036
  H  H85  1  0.500000  0.825400  0.341900  1.0  0.0985
  H  H86  1  0.500000  0.876200  0.269000  1.0  0.13
  H  H87  1  0.500000  0.642500  0.221200  1.0  0.106
  H  H88  1  0.500000  0.591500  0.294700  1.0  0.1264
  H  H89  1  0.500000  0.912100  0.200000  1.0  0.0835
  H  H90  1  0.500000  0.956000  0.125700  1.0  0.1036
  H  H91  1  0.500000  0.674600  0.841900  1.0  0.0988
  H  H92  1  0.500000  0.623800  0.769000  1.0  0.1308
  H  H93  1  0.500000  0.857500  0.721200  1.0  0.1058
  H  H94  1  0.500000  0.908500  0.794700  1.0  0.1265
  H  H95  1  0.500000  0.587900  0.700000  1.0  0.0837
  H  H96  1  0.500000  0.544000  0.625700  1.0  0.104
  H  H97  1  0.940100  0.737800  0.413500  1.0  0.1209
  H  H98  1  0.930900  0.701000  0.336200  1.0  0.1217
  H  H99  1  0.874800  0.466200  0.061200  1.0  0.082
  H  H100  1  0.760400  0.460200  0.062700  1.0  0.1409
  H  H101  1  0.756400  0.707000  0.040000  1.0  0.1451
  H  H102  1  0.871600  0.705000  0.038200  1.0  0.0872
  H  H103  1  0.565000  0.498000  0.149000  1.0  0.0941
  H  H104  1  0.560000  0.655000  0.944000  1.0  0.1179
  H  H105  1  0.059900  0.762200  0.913500  1.0  0.1208
  H  H106  1  0.069100  0.799000  0.836200  1.0  0.1199
  H  H107  1  0.125200  0.033800  0.561200  1.0  0.0823
  H  H108  1  0.239600  0.039800  0.562700  1.0  0.141
  H  H109  1  0.243600  0.793000  0.540000  1.0  0.1456
  H  H110  1  0.128400  0.795000  0.538200  1.0  0.0882
  H  H111  1  0.435000  0.002000  0.649000  1.0  0.0938
  H  H112  1  0.440000  0.845000  0.444000  1.0  0.1175
  H  H113  1  0.059900  0.237800  0.086500  1.0  0.1211
  H  H114  1  0.069100  0.201000  0.163800  1.0  0.1205
  H  H115  1  0.125200  0.966200  0.438800  1.0  0.0822
  H  H116  1  0.239600  0.960200  0.437300  1.0  0.141
  H  H117  1  0.243600  0.207000  0.460000  1.0  0.1457
  H  H118  1  0.128400  0.205000  0.461800  1.0  0.0876
  H  H119  1  0.435000  0.998000  0.351000  1.0  0.0943
  H  H120  1  0.440000  0.155000  0.556000  1.0  0.1179
  H  H121  1  0.940100  0.262200  0.586500  1.0  0.1209
  H  H122  1  0.930900  0.299000  0.663800  1.0  0.1214
  H  H123  1  0.874800  0.533800  0.938800  1.0  0.0822
  H  H124  1  0.760400  0.539800  0.937300  1.0  0.1419
  H  H125  1  0.756400  0.293000  0.960000  1.0  0.1453
  H  H126  1  0.871600  0.295000  0.961800  1.0  0.0874
  H  H127  1  0.565000  0.502000  0.851000  1.0  0.0955
  H  H128  1  0.560000  0.345000  0.056000  1.0  0.1178
  H  H129  1  0.059900  0.262200  0.586500  1.0  0.1207
  H  H130  1  0.069100  0.299000  0.663800  1.0  0.1201
  H  H131  1  0.125200  0.533800  0.938800  1.0  0.0826
  H  H132  1  0.239600  0.539800  0.937300  1.0  0.1418
  H  H133  1  0.243600  0.293000  0.960000  1.0  0.1457
  H  H134  1  0.128400  0.295000  0.961800  1.0  0.0877
  H  H135  1  0.435000  0.502000  0.851000  1.0  0.0944
  H  H136  1  0.440000  0.345000  0.056000  1.0  0.1179
  H  H137  1  0.940100  0.237800  0.086500  1.0  0.1212
  H  H138  1  0.930900  0.201000  0.163800  1.0  0.1219
  H  H139  1  0.874800  0.966200  0.438800  1.0  0.082
  H  H140  1  0.760400  0.960200  0.437300  1.0  0.1413
  H  H141  1  0.756400  0.207000  0.460000  1.0  0.1456
  H  H142  1  0.871600  0.205000  0.461800  1.0  0.087
  H  H143  1  0.565000  0.998000  0.351000  1.0  0.0953
  H  H144  1  0.560000  0.155000  0.556000  1.0  0.118
  H  H145  1  0.940100  0.762200  0.913500  1.0  0.1207
  H  H146  1  0.930900  0.799000  0.836200  1.0  0.1209
  H  H147  1  0.874800  0.033800  0.561200  1.0  0.0818
  H  H148  1  0.760400  0.039800  0.562700  1.0  0.141
  H  H149  1  0.756400  0.793000  0.540000  1.0  0.1452
  H  H150  1  0.871600  0.795000  0.538200  1.0  0.0878
  H  H151  1  0.565000  0.002000  0.649000  1.0  0.0941
  H  H152  1  0.560000  0.845000  0.444000  1.0  0.1176
  H  H153  1  0.059900  0.737800  0.413500  1.0  0.1208
  H  H154  1  0.069100  0.701000  0.336200  1.0  0.1204
  H  H155  1  0.125200  0.466200  0.061200  1.0  0.0821
  H  H156  1  0.239600  0.460200  0.062700  1.0  0.1405
  H  H157  1  0.243600  0.707000  0.040000  1.0  0.1451
  H  H158  1  0.128400  0.705000  0.038200  1.0  0.0878
  H  H159  1  0.435000  0.498000  0.149000  1.0  0.0945
  H  H160  1  0.440000  0.655000  0.944000  1.0  0.1177
  H  H161  1  0.000000  0.825400  0.158100  1.0  0.0988
  H  H162  1  0.000000  0.876200  0.231000  1.0  0.1301
  H  H163  1  0.000000  0.642500  0.278800  1.0  0.1051
  H  H164  1  0.000000  0.591500  0.205300  1.0  0.1265
  H  H165  1  0.000000  0.912100  0.300000  1.0  0.0834
  H  H166  1  0.000000  0.956000  0.374300  1.0  0.1034
  H  H167  1  0.000000  0.674600  0.658100  1.0  0.0988
  H  H168  1  0.000000  0.623800  0.731000  1.0  0.1306
  H  H169  1  0.000000  0.857500  0.778800  1.0  0.1053
  H  H170  1  0.000000  0.908500  0.705300  1.0  0.1265
  H  H171  1  0.000000  0.587900  0.800000  1.0  0.0838
  H  H172  1  0.000000  0.544000  0.874300  1.0  0.1036
  H  H173  1  0.000000  0.325400  0.341900  1.0  0.0985
  H  H174  1  0.000000  0.376200  0.269000  1.0  0.13
  H  H175  1  0.000000  0.142500  0.221200  1.0  0.106
  H  H176  1  0.000000  0.091500  0.294700  1.0  0.1264
  H  H177  1  0.000000  0.412100  0.200000  1.0  0.0835
  H  H178  1  0.000000  0.456000  0.125700  1.0  0.1036
  H  H179  1  0.000000  0.174600  0.841900  1.0  0.0988
  H  H180  1  0.000000  0.123800  0.769000  1.0  0.1308
  H  H181  1  0.000000  0.357500  0.721200  1.0  0.1058
  H  H182  1  0.000000  0.408500  0.794700  1.0  0.1265
  H  H183  1  0.000000  0.087900  0.700000  1.0  0.0837
  H  H184  1  0.000000  0.044000  0.625700  1.0  0.104
  C  C185  1  0.460500  0.271100  0.390200  1.0  -0.1185
  C  C186  1  0.458300  0.247400  0.345100  1.0  -0.1268
  C  C187  1  0.350600  0.015000  0.056100  1.0  0.1971
  C  C188  1  0.282000  0.010800  0.057600  1.0  -0.253
  C  C189  1  0.246600  0.083800  0.051300  1.0  0.2034
  C  C190  1  0.279400  0.157000  0.044000  1.0  -0.248
  C  C191  1  0.348800  0.155000  0.042800  1.0  0.2003
  C  C192  1  0.141800  0.051200  0.090800  1.0  0.5084
  C  C193  1  0.069500  0.049800  0.090300  1.0  -0.109
  C  C194  1  0.035400  0.020700  0.127100  1.0  -0.069
  C  C195  1  0.034800  0.078600  0.051400  1.0  -0.005
  C  C196  1  0.069300  0.108800  0.012500  1.0  -0.1541
  C  C197  1  0.035000  0.137500  0.975000  1.0  -0.1068
  C  C198  1  0.142500  0.110300  0.011900  1.0  0.4585
  C  C199  1  0.539500  0.228900  0.890200  1.0  -0.1176
  C  C200  1  0.541700  0.252600  0.845100  1.0  -0.1243
  C  C201  1  0.649400  0.485000  0.556100  1.0  0.1966
  C  C202  1  0.718000  0.489200  0.557600  1.0  -0.2537
  C  C203  1  0.753400  0.416200  0.551300  1.0  0.2028
  C  C204  1  0.720600  0.343000  0.544000  1.0  -0.2458
  C  C205  1  0.651200  0.345000  0.542800  1.0  0.2002
  C  C206  1  0.858200  0.448800  0.590800  1.0  0.5072
  C  C207  1  0.930500  0.450200  0.590300  1.0  -0.1095
  C  C208  1  0.964600  0.479300  0.627100  1.0  -0.071
  C  C209  1  0.965200  0.421400  0.551400  1.0  -0.0047
  C  C210  1  0.930700  0.391200  0.512500  1.0  -0.1542
  C  C211  1  0.965000  0.362500  0.475000  1.0  -0.112
  C  C212  1  0.857500  0.389700  0.511900  1.0  0.4588
  C  C213  1  0.539500  0.771100  0.109800  1.0  -0.1179
  C  C214  1  0.541700  0.747400  0.154900  1.0  -0.1248
  C  C215  1  0.649400  0.515000  0.443900  1.0  0.197
  C  C216  1  0.718000  0.510800  0.442400  1.0  -0.2521
  C  C217  1  0.753400  0.583800  0.448700  1.0  0.2031
  C  C218  1  0.720600  0.657000  0.456000  1.0  -0.2467
  C  C219  1  0.651200  0.655000  0.457200  1.0  0.2001
  C  C220  1  0.858200  0.551200  0.409200  1.0  0.508
  C  C221  1  0.930500  0.549800  0.409700  1.0  -0.1109
  C  C222  1  0.964600  0.520700  0.372900  1.0  -0.0682
  C  C223  1  0.965200  0.578600  0.448600  1.0  -0.0047
  C  C224  1  0.930700  0.608800  0.487500  1.0  -0.1541
  C  C225  1  0.965000  0.637500  0.525000  1.0  -0.1127
  C  C226  1  0.857500  0.610300  0.488100  1.0  0.4609
  C  C227  1  0.460500  0.728900  0.609800  1.0  -0.1206
  C  C228  1  0.458300  0.752600  0.654900  1.0  -0.1267
  C  C229  1  0.350600  0.985000  0.943900  1.0  0.1965
  C  C230  1  0.282000  0.989200  0.942400  1.0  -0.2515
  C  C231  1  0.246600  0.916200  0.948700  1.0  0.2037
  C  C232  1  0.279400  0.843000  0.956000  1.0  -0.2471
  C  C233  1  0.348800  0.845000  0.957200  1.0  0.2
  C  C234  1  0.141800  0.948800  0.909200  1.0  0.5062
  C  C235  1  0.069500  0.950200  0.909700  1.0  -0.1091
  C  C236  1  0.035400  0.979300  0.872900  1.0  -0.0683
  C  C237  1  0.034800  0.921400  0.948600  1.0  -0.0042
  C  C238  1  0.069300  0.891200  0.987500  1.0  -0.1547
  C  C239  1  0.035000  0.862500  0.025000  1.0  -0.1068
  C  C240  1  0.142500  0.889700  0.988100  1.0  0.4599
  C  C241  1  0.539500  0.728900  0.609800  1.0  -0.1177
  C  C242  1  0.541700  0.752600  0.654900  1.0  -0.1247
  C  C243  1  0.649400  0.985000  0.943900  1.0  0.1969
  C  C244  1  0.718000  0.989200  0.942400  1.0  -0.2518
  C  C245  1  0.753400  0.916200  0.948700  1.0  0.2034
  C  C246  1  0.720600  0.843000  0.956000  1.0  -0.2466
  C  C247  1  0.651200  0.845000  0.957200  1.0  0.1997
  C  C248  1  0.858200  0.948800  0.909200  1.0  0.5077
  C  C249  1  0.930500  0.950200  0.909700  1.0  -0.11
  C  C250  1  0.964600  0.979300  0.872900  1.0  -0.0678
  C  C251  1  0.965200  0.921400  0.948600  1.0  -0.0043
  C  C252  1  0.930700  0.891200  0.987500  1.0  -0.1545
  C  C253  1  0.965000  0.862500  0.025000  1.0  -0.1118
  C  C254  1  0.857500  0.889700  0.988100  1.0  0.4605
  C  C255  1  0.460500  0.771100  0.109800  1.0  -0.1192
  C  C256  1  0.458300  0.747400  0.154900  1.0  -0.1263
  C  C257  1  0.350600  0.515000  0.443900  1.0  0.197
  C  C258  1  0.282000  0.510800  0.442400  1.0  -0.252
  C  C259  1  0.246600  0.583800  0.448700  1.0  0.2035
  C  C260  1  0.279400  0.657000  0.456000  1.0  -0.2471
  C  C261  1  0.348800  0.655000  0.457200  1.0  0.1998
  C  C262  1  0.141800  0.551200  0.409200  1.0  0.5066
  C  C263  1  0.069500  0.549800  0.409700  1.0  -0.1098
  C  C264  1  0.035400  0.520700  0.372900  1.0  -0.0686
  C  C265  1  0.034800  0.578600  0.448600  1.0  -0.0047
  C  C266  1  0.069300  0.608800  0.487500  1.0  -0.1542
  C  C267  1  0.035000  0.637500  0.525000  1.0  -0.1072
  C  C268  1  0.142500  0.610300  0.488100  1.0  0.4602
  C  C269  1  0.460500  0.228900  0.890200  1.0  -0.1192
  C  C270  1  0.458300  0.252600  0.845100  1.0  -0.1269
  C  C271  1  0.350600  0.485000  0.556100  1.0  0.1966
  C  C272  1  0.282000  0.489200  0.557600  1.0  -0.2544
  C  C273  1  0.246600  0.416200  0.551300  1.0  0.2034
  C  C274  1  0.279400  0.343000  0.544000  1.0  -0.2461
  C  C275  1  0.348800  0.345000  0.542800  1.0  0.2003
  C  C276  1  0.141800  0.448800  0.590800  1.0  0.5084
  C  C277  1  0.069500  0.450200  0.590300  1.0  -0.1081
  C  C278  1  0.035400  0.479300  0.627100  1.0  -0.0692
  C  C279  1  0.034800  0.421400  0.551400  1.0  -0.0046
  C  C280  1  0.069300  0.391200  0.512500  1.0  -0.1543
  C  C281  1  0.035000  0.362500  0.475000  1.0  -0.1072
  C  C282  1  0.142500  0.389700  0.511900  1.0  0.458
  C  C283  1  0.539500  0.271100  0.390200  1.0  -0.1182
  C  C284  1  0.541700  0.247400  0.345100  1.0  -0.1243
  C  C285  1  0.649400  0.015000  0.056100  1.0  0.1967
  C  C286  1  0.718000  0.010800  0.057600  1.0  -0.2523
  C  C287  1  0.753400  0.083800  0.051300  1.0  0.2027
  C  C288  1  0.720600  0.157000  0.044000  1.0  -0.2473
  C  C289  1  0.651200  0.155000  0.042800  1.0  0.2002
  C  C290  1  0.858200  0.051200  0.090800  1.0  0.5066
  C  C291  1  0.930500  0.049800  0.090300  1.0  -0.111
  C  C292  1  0.964600  0.020700  0.127100  1.0  -0.0702
  C  C293  1  0.965200  0.078600  0.051400  1.0  -0.005
  C  C294  1  0.930700  0.108800  0.012500  1.0  -0.154
  C  C295  1  0.965000  0.137500  0.975000  1.0  -0.1119
  C  C296  1  0.857500  0.110300  0.011900  1.0  0.4593
  C  C297  1  0.500000  0.170100  0.126100  1.0  0.7177
  C  C298  1  0.500000  0.204100  0.173700  1.0  -0.1366
  C  C299  1  0.500000  0.288000  0.182400  1.0  -0.0117
  C  C300  1  0.500000  0.318600  0.226200  1.0  -0.1307
  C  C301  1  0.500000  0.179900  0.254400  1.0  -0.1387
  C  C302  1  0.500000  0.149000  0.210400  1.0  -0.0529
  C  C303  1  0.500000  0.264700  0.263300  1.0  0.1044
  C  C304  1  0.500000  0.295500  0.310500  1.0  0.0937
  C  C305  1  0.500000  0.371500  0.322700  1.0  0.086
  C  C306  1  0.500000  0.398800  0.368400  1.0  -0.043
  C  C307  1  0.500000  0.347400  0.402300  1.0  0.1208
  C  C308  1  0.500000  0.371300  0.451600  1.0  0.6726
  C  C309  1  0.500000  0.329900  0.626100  1.0  0.7179
  C  C310  1  0.500000  0.295900  0.673700  1.0  -0.1364
  C  C311  1  0.500000  0.212000  0.682400  1.0  -0.0116
  C  C312  1  0.500000  0.181400  0.726200  1.0  -0.1298
  C  C313  1  0.500000  0.320100  0.754400  1.0  -0.1381
  C  C314  1  0.500000  0.351000  0.710400  1.0  -0.0545
  C  C315  1  0.500000  0.235300  0.763300  1.0  0.104
  C  C316  1  0.500000  0.204500  0.810500  1.0  0.0943
  C  C317  1  0.500000  0.128500  0.822700  1.0  0.0826
  C  C318  1  0.500000  0.101200  0.868400  1.0  -0.0457
  C  C319  1  0.500000  0.152600  0.902300  1.0  0.1211
  C  C320  1  0.500000  0.128700  0.951600  1.0  0.6725
  C  C321  1  0.500000  0.670100  0.373900  1.0  0.7186
  C  C322  1  0.500000  0.704100  0.326300  1.0  -0.1356
  C  C323  1  0.500000  0.788000  0.317600  1.0  -0.0104
  C  C324  1  0.500000  0.818600  0.273800  1.0  -0.1305
  C  C325  1  0.500000  0.679900  0.245600  1.0  -0.139
  C  C326  1  0.500000  0.649000  0.289600  1.0  -0.0529
  C  C327  1  0.500000  0.764700  0.236700  1.0  0.1043
  C  C328  1  0.500000  0.795500  0.189500  1.0  0.0925
  C  C329  1  0.500000  0.871500  0.177300  1.0  0.09
  C  C330  1  0.500000  0.898800  0.131600  1.0  -0.044
  C  C331  1  0.500000  0.847400  0.097700  1.0  0.12
  C  C332  1  0.500000  0.871300  0.048400  1.0  0.6717
  C  C333  1  0.500000  0.829900  0.873900  1.0  0.7187
  C  C334  1  0.500000  0.795900  0.826300  1.0  -0.136
  C  C335  1  0.500000  0.712000  0.817600  1.0  -0.0094
  C  C336  1  0.500000  0.681400  0.773800  1.0  -0.1298
  C  C337  1  0.500000  0.820100  0.745600  1.0  -0.1383
  C  C338  1  0.500000  0.851000  0.789600  1.0  -0.0548
  C  C339  1  0.500000  0.735300  0.736700  1.0  0.1046
  C  C340  1  0.500000  0.704500  0.689500  1.0  0.093
  C  C341  1  0.500000  0.628500  0.677300  1.0  0.0856
  C  C342  1  0.500000  0.601200  0.631600  1.0  -0.0463
  C  C343  1  0.500000  0.652600  0.597700  1.0  0.1208
  C  C344  1  0.500000  0.628700  0.548400  1.0  0.6721
  C  C345  1  0.960500  0.771100  0.390200  1.0  -0.1185
  C  C346  1  0.958300  0.747400  0.345100  1.0  -0.1268
  C  C347  1  0.850600  0.515000  0.056100  1.0  0.1971
  C  C348  1  0.782000  0.510800  0.057600  1.0  -0.253
  C  C349  1  0.746600  0.583800  0.051300  1.0  0.2034
  C  C350  1  0.779400  0.657000  0.044000  1.0  -0.248
  C  C351  1  0.848800  0.655000  0.042800  1.0  0.2003
  C  C352  1  0.641800  0.551200  0.090800  1.0  0.5084
  C  C353  1  0.569500  0.549800  0.090300  1.0  -0.109
  C  C354  1  0.535400  0.520700  0.127100  1.0  -0.069
  C  C355  1  0.534800  0.578600  0.051400  1.0  -0.005
  C  C356  1  0.569300  0.608800  0.012500  1.0  -0.1541
  C  C357  1  0.535000  0.637500  0.975000  1.0  -0.1068
  C  C358  1  0.642500  0.610300  0.011900  1.0  0.4585
  C  C359  1  0.039500  0.728900  0.890200  1.0  -0.1176
  C  C360  1  0.041700  0.752600  0.845100  1.0  -0.1243
  C  C361  1  0.149400  0.985000  0.556100  1.0  0.1966
  C  C362  1  0.218000  0.989200  0.557600  1.0  -0.2537
  C  C363  1  0.253400  0.916200  0.551300  1.0  0.2028
  C  C364  1  0.220600  0.843000  0.544000  1.0  -0.2458
  C  C365  1  0.151200  0.845000  0.542800  1.0  0.2002
  C  C366  1  0.358200  0.948800  0.590800  1.0  0.5072
  C  C367  1  0.430500  0.950200  0.590300  1.0  -0.1095
  C  C368  1  0.464600  0.979300  0.627100  1.0  -0.071
  C  C369  1  0.465200  0.921400  0.551400  1.0  -0.0047
  C  C370  1  0.430700  0.891200  0.512500  1.0  -0.1542
  C  C371  1  0.465000  0.862500  0.475000  1.0  -0.112
  C  C372  1  0.357500  0.889700  0.511900  1.0  0.4588
  C  C373  1  0.039500  0.271100  0.109800  1.0  -0.1179
  C  C374  1  0.041700  0.247400  0.154900  1.0  -0.1248
  C  C375  1  0.149400  0.015000  0.443900  1.0  0.197
  C  C376  1  0.218000  0.010800  0.442400  1.0  -0.2521
  C  C377  1  0.253400  0.083800  0.448700  1.0  0.2031
  C  C378  1  0.220600  0.157000  0.456000  1.0  -0.2467
  C  C379  1  0.151200  0.155000  0.457200  1.0  0.2001
  C  C380  1  0.358200  0.051200  0.409200  1.0  0.508
  C  C381  1  0.430500  0.049800  0.409700  1.0  -0.1109
  C  C382  1  0.464600  0.020700  0.372900  1.0  -0.0682
  C  C383  1  0.465200  0.078600  0.448600  1.0  -0.0047
  C  C384  1  0.430700  0.108800  0.487500  1.0  -0.1541
  C  C385  1  0.465000  0.137500  0.525000  1.0  -0.1127
  C  C386  1  0.357500  0.110300  0.488100  1.0  0.4609
  C  C387  1  0.960500  0.228900  0.609800  1.0  -0.1206
  C  C388  1  0.958300  0.252600  0.654900  1.0  -0.1267
  C  C389  1  0.850600  0.485000  0.943900  1.0  0.1965
  C  C390  1  0.782000  0.489200  0.942400  1.0  -0.2515
  C  C391  1  0.746600  0.416200  0.948700  1.0  0.2037
  C  C392  1  0.779400  0.343000  0.956000  1.0  -0.2471
  C  C393  1  0.848800  0.345000  0.957200  1.0  0.2
  C  C394  1  0.641800  0.448800  0.909200  1.0  0.5062
  C  C395  1  0.569500  0.450200  0.909700  1.0  -0.1091
  C  C396  1  0.535400  0.479300  0.872900  1.0  -0.0683
  C  C397  1  0.534800  0.421400  0.948600  1.0  -0.0042
  C  C398  1  0.569300  0.391200  0.987500  1.0  -0.1547
  C  C399  1  0.535000  0.362500  0.025000  1.0  -0.1068
  C  C400  1  0.642500  0.389700  0.988100  1.0  0.4599
  C  C401  1  0.039500  0.228900  0.609800  1.0  -0.1177
  C  C402  1  0.041700  0.252600  0.654900  1.0  -0.1247
  C  C403  1  0.149400  0.485000  0.943900  1.0  0.1969
  C  C404  1  0.218000  0.489200  0.942400  1.0  -0.2518
  C  C405  1  0.253400  0.416200  0.948700  1.0  0.2034
  C  C406  1  0.220600  0.343000  0.956000  1.0  -0.2466
  C  C407  1  0.151200  0.345000  0.957200  1.0  0.1997
  C  C408  1  0.358200  0.448800  0.909200  1.0  0.5077
  C  C409  1  0.430500  0.450200  0.909700  1.0  -0.11
  C  C410  1  0.464600  0.479300  0.872900  1.0  -0.0678
  C  C411  1  0.465200  0.421400  0.948600  1.0  -0.0043
  C  C412  1  0.430700  0.391200  0.987500  1.0  -0.1545
  C  C413  1  0.465000  0.362500  0.025000  1.0  -0.1118
  C  C414  1  0.357500  0.389700  0.988100  1.0  0.4605
  C  C415  1  0.960500  0.271100  0.109800  1.0  -0.1192
  C  C416  1  0.958300  0.247400  0.154900  1.0  -0.1263
  C  C417  1  0.850600  0.015000  0.443900  1.0  0.197
  C  C418  1  0.782000  0.010800  0.442400  1.0  -0.252
  C  C419  1  0.746600  0.083800  0.448700  1.0  0.2035
  C  C420  1  0.779400  0.157000  0.456000  1.0  -0.2471
  C  C421  1  0.848800  0.155000  0.457200  1.0  0.1998
  C  C422  1  0.641800  0.051200  0.409200  1.0  0.5066
  C  C423  1  0.569500  0.049800  0.409700  1.0  -0.1098
  C  C424  1  0.535400  0.020700  0.372900  1.0  -0.0686
  C  C425  1  0.534800  0.078600  0.448600  1.0  -0.0047
  C  C426  1  0.569300  0.108800  0.487500  1.0  -0.1542
  C  C427  1  0.535000  0.137500  0.525000  1.0  -0.1072
  C  C428  1  0.642500  0.110300  0.488100  1.0  0.4602
  C  C429  1  0.960500  0.728900  0.890200  1.0  -0.1192
  C  C430  1  0.958300  0.752600  0.845100  1.0  -0.1269
  C  C431  1  0.850600  0.985000  0.556100  1.0  0.1966
  C  C432  1  0.782000  0.989200  0.557600  1.0  -0.2544
  C  C433  1  0.746600  0.916200  0.551300  1.0  0.2034
  C  C434  1  0.779400  0.843000  0.544000  1.0  -0.2461
  C  C435  1  0.848800  0.845000  0.542800  1.0  0.2003
  C  C436  1  0.641800  0.948800  0.590800  1.0  0.5084
  C  C437  1  0.569500  0.950200  0.590300  1.0  -0.1081
  C  C438  1  0.535400  0.979300  0.627100  1.0  -0.0692
  C  C439  1  0.534800  0.921400  0.551400  1.0  -0.0046
  C  C440  1  0.569300  0.891200  0.512500  1.0  -0.1543
  C  C441  1  0.535000  0.862500  0.475000  1.0  -0.1072
  C  C442  1  0.642500  0.889700  0.511900  1.0  0.458
  C  C443  1  0.039500  0.771100  0.390200  1.0  -0.1182
  C  C444  1  0.041700  0.747400  0.345100  1.0  -0.1243
  C  C445  1  0.149400  0.515000  0.056100  1.0  0.1967
  C  C446  1  0.218000  0.510800  0.057600  1.0  -0.2523
  C  C447  1  0.253400  0.583800  0.051300  1.0  0.2027
  C  C448  1  0.220600  0.657000  0.044000  1.0  -0.2473
  C  C449  1  0.151200  0.655000  0.042800  1.0  0.2002
  C  C450  1  0.358200  0.551200  0.090800  1.0  0.5066
  C  C451  1  0.430500  0.549800  0.090300  1.0  -0.111
  C  C452  1  0.464600  0.520700  0.127100  1.0  -0.0702
  C  C453  1  0.465200  0.578600  0.051400  1.0  -0.005
  C  C454  1  0.430700  0.608800  0.012500  1.0  -0.154
  C  C455  1  0.465000  0.637500  0.975000  1.0  -0.1119
  C  C456  1  0.357500  0.610300  0.011900  1.0  0.4593
  C  C457  1  0.000000  0.670100  0.126100  1.0  0.7177
  C  C458  1  0.000000  0.704100  0.173700  1.0  -0.1366
  C  C459  1  0.000000  0.788000  0.182400  1.0  -0.0117
  C  C460  1  0.000000  0.818600  0.226200  1.0  -0.1307
  C  C461  1  0.000000  0.679900  0.254400  1.0  -0.1387
  C  C462  1  0.000000  0.649000  0.210400  1.0  -0.0529
  C  C463  1  0.000000  0.764700  0.263300  1.0  0.1044
  C  C464  1  0.000000  0.795500  0.310500  1.0  0.0937
  C  C465  1  0.000000  0.871500  0.322700  1.0  0.086
  C  C466  1  0.000000  0.898800  0.368400  1.0  -0.043
  C  C467  1  0.000000  0.847400  0.402300  1.0  0.1208
  C  C468  1  0.000000  0.871300  0.451600  1.0  0.6726
  C  C469  1  0.000000  0.829900  0.626100  1.0  0.7179
  C  C470  1  0.000000  0.795900  0.673700  1.0  -0.1364
  C  C471  1  0.000000  0.712000  0.682400  1.0  -0.0116
  C  C472  1  0.000000  0.681400  0.726200  1.0  -0.1298
  C  C473  1  0.000000  0.820100  0.754400  1.0  -0.1381
  C  C474  1  0.000000  0.851000  0.710400  1.0  -0.0545
  C  C475  1  0.000000  0.735300  0.763300  1.0  0.104
  C  C476  1  0.000000  0.704500  0.810500  1.0  0.0943
  C  C477  1  0.000000  0.628500  0.822700  1.0  0.0826
  C  C478  1  0.000000  0.601200  0.868400  1.0  -0.0457
  C  C479  1  0.000000  0.652600  0.902300  1.0  0.1211
  C  C480  1  0.000000  0.628700  0.951600  1.0  0.6725
  C  C481  1  0.000000  0.170100  0.373900  1.0  0.7186
  C  C482  1  0.000000  0.204100  0.326300  1.0  -0.1356
  C  C483  1  0.000000  0.288000  0.317600  1.0  -0.0104
  C  C484  1  0.000000  0.318600  0.273800  1.0  -0.1305
  C  C485  1  0.000000  0.179900  0.245600  1.0  -0.139
  C  C486  1  0.000000  0.149000  0.289600  1.0  -0.0529
  C  C487  1  0.000000  0.264700  0.236700  1.0  0.1043
  C  C488  1  0.000000  0.295500  0.189500  1.0  0.0925
  C  C489  1  0.000000  0.371500  0.177300  1.0  0.09
  C  C490  1  0.000000  0.398800  0.131600  1.0  -0.044
  C  C491  1  0.000000  0.347400  0.097700  1.0  0.12
  C  C492  1  0.000000  0.371300  0.048400  1.0  0.6717
  C  C493  1  0.000000  0.329900  0.873900  1.0  0.7187
  C  C494  1  0.000000  0.295900  0.826300  1.0  -0.136
  C  C495  1  0.000000  0.212000  0.817600  1.0  -0.0094
  C  C496  1  0.000000  0.181400  0.773800  1.0  -0.1298
  C  C497  1  0.000000  0.320100  0.745600  1.0  -0.1383
  C  C498  1  0.000000  0.351000  0.789600  1.0  -0.0548
  C  C499  1  0.000000  0.235300  0.736700  1.0  0.1046
  C  C500  1  0.000000  0.204500  0.689500  1.0  0.093
  C  C501  1  0.000000  0.128500  0.677300  1.0  0.0856
  C  C502  1  0.000000  0.101200  0.631600  1.0  -0.0463
  C  C503  1  0.000000  0.152600  0.597700  1.0  0.1208
  C  C504  1  0.000000  0.128700  0.548400  1.0  0.6721
  N  N505  1  0.383500  0.085700  0.047820  1.0  -0.3161
  N  N506  1  0.174900  0.081800  0.051600  1.0  -0.2534
  N  N507  1  0.616500  0.414300  0.547820  1.0  -0.3175
  N  N508  1  0.825100  0.418200  0.551600  1.0  -0.2533
  N  N509  1  0.616500  0.585700  0.452180  1.0  -0.317
  N  N510  1  0.825100  0.581800  0.448400  1.0  -0.2542
  N  N511  1  0.383500  0.914300  0.952180  1.0  -0.3166
  N  N512  1  0.174900  0.918200  0.948400  1.0  -0.254
  N  N513  1  0.616500  0.914300  0.952180  1.0  -0.317
  N  N514  1  0.825100  0.918200  0.948400  1.0  -0.2545
  N  N515  1  0.383500  0.585700  0.452180  1.0  -0.3171
  N  N516  1  0.174900  0.581800  0.448400  1.0  -0.2537
  N  N517  1  0.383500  0.414300  0.547820  1.0  -0.316
  N  N518  1  0.174900  0.418200  0.551600  1.0  -0.253
  N  N519  1  0.616500  0.085700  0.047820  1.0  -0.317
  N  N520  1  0.825100  0.081800  0.051600  1.0  -0.2537
  N  N521  1  0.883500  0.585700  0.047820  1.0  -0.3161
  N  N522  1  0.674900  0.581800  0.051600  1.0  -0.2534
  N  N523  1  0.116500  0.914300  0.547820  1.0  -0.3175
  N  N524  1  0.325100  0.918200  0.551600  1.0  -0.2533
  N  N525  1  0.116500  0.085700  0.452180  1.0  -0.317
  N  N526  1  0.325100  0.081800  0.448400  1.0  -0.2542
  N  N527  1  0.883500  0.414300  0.952180  1.0  -0.3166
  N  N528  1  0.674900  0.418200  0.948400  1.0  -0.254
  N  N529  1  0.116500  0.414300  0.952180  1.0  -0.317
  N  N530  1  0.325100  0.418200  0.948400  1.0  -0.2545
  N  N531  1  0.883500  0.085700  0.452180  1.0  -0.3171
  N  N532  1  0.674900  0.081800  0.448400  1.0  -0.2537
  N  N533  1  0.883500  0.914300  0.547820  1.0  -0.316
  N  N534  1  0.674900  0.918200  0.551600  1.0  -0.253
  N  N535  1  0.116500  0.585700  0.047820  1.0  -0.317
  N  N536  1  0.325100  0.581800  0.051600  1.0  -0.2537
  O  O537  1  0.174400  0.029200  0.123470  1.0  -0.4676
  O  O538  1  0.174500  0.132400  0.979150  1.0  -0.5024
  O  O539  1  0.825600  0.470800  0.623470  1.0  -0.4651
  O  O540  1  0.825500  0.367600  0.479150  1.0  -0.5034
  O  O541  1  0.825600  0.529200  0.376530  1.0  -0.4662
  O  O542  1  0.825500  0.632400  0.520850  1.0  -0.503
  O  O543  1  0.174400  0.970800  0.876530  1.0  -0.4623
  O  O544  1  0.174500  0.867600  0.020850  1.0  -0.5026
  O  O545  1  0.825600  0.970800  0.876530  1.0  -0.4666
  O  O546  1  0.825500  0.867600  0.020850  1.0  -0.5027
  O  O547  1  0.174400  0.529200  0.376530  1.0  -0.4622
  O  O548  1  0.174500  0.632400  0.520850  1.0  -0.5026
  O  O549  1  0.174400  0.470800  0.623470  1.0  -0.467
  O  O550  1  0.174500  0.367600  0.479150  1.0  -0.5032
  O  O551  1  0.825600  0.029200  0.123470  1.0  -0.4652
  O  O552  1  0.825500  0.132400  0.979150  1.0  -0.5028
  O  O553  1  0.500000  0.317300  0.481200  1.0  -0.573
  O  O554  1  0.500000  0.445100  0.462070  1.0  -0.6628
  O  O555  1  0.500000  0.218500  0.092950  1.0  -0.5961
  O  O556  1  0.500000  0.092100  0.121800  1.0  -0.5973
  O  O557  1  0.500000  0.182700  0.981200  1.0  -0.5735
  O  O558  1  0.500000  0.054900  0.962070  1.0  -0.6618
  O  O559  1  0.500000  0.281500  0.592950  1.0  -0.5964
  O  O560  1  0.500000  0.407900  0.621800  1.0  -0.5965
  O  O561  1  0.500000  0.817300  0.018800  1.0  -0.5735
  O  O562  1  0.500000  0.945100  0.037930  1.0  -0.6628
  O  O563  1  0.500000  0.718500  0.407050  1.0  -0.5967
  O  O564  1  0.500000  0.592100  0.378200  1.0  -0.5963
  O  O565  1  0.500000  0.682700  0.518800  1.0  -0.5737
  O  O566  1  0.500000  0.554900  0.537930  1.0  -0.6624
  O  O567  1  0.500000  0.781500  0.907050  1.0  -0.5972
  O  O568  1  0.500000  0.907900  0.878200  1.0  -0.5966
  O  O569  1  0.674400  0.529200  0.123470  1.0  -0.4676
  O  O570  1  0.674500  0.632400  0.979150  1.0  -0.5024
  O  O571  1  0.325600  0.970800  0.623470  1.0  -0.4651
  O  O572  1  0.325500  0.867600  0.479150  1.0  -0.5034
  O  O573  1  0.325600  0.029200  0.376530  1.0  -0.4662
  O  O574  1  0.325500  0.132400  0.520850  1.0  -0.503
  O  O575  1  0.674400  0.470800  0.876530  1.0  -0.4623
  O  O576  1  0.674500  0.367600  0.020850  1.0  -0.5026
  O  O577  1  0.325600  0.470800  0.876530  1.0  -0.4666
  O  O578  1  0.325500  0.367600  0.020850  1.0  -0.5027
  O  O579  1  0.674400  0.029200  0.376530  1.0  -0.4622
  O  O580  1  0.674500  0.132400  0.520850  1.0  -0.5026
  O  O581  1  0.674400  0.970800  0.623470  1.0  -0.467
  O  O582  1  0.674500  0.867600  0.479150  1.0  -0.5032
  O  O583  1  0.325600  0.529200  0.123470  1.0  -0.4652
  O  O584  1  0.325500  0.632400  0.979150  1.0  -0.5028
  O  O585  1  0.000000  0.817300  0.481200  1.0  -0.573
  O  O586  1  0.000000  0.945100  0.462070  1.0  -0.6628
  O  O587  1  0.000000  0.718500  0.092950  1.0  -0.5961
  O  O588  1  0.000000  0.592100  0.121800  1.0  -0.5973
  O  O589  1  0.000000  0.682700  0.981200  1.0  -0.5735
  O  O590  1  0.000000  0.554900  0.962070  1.0  -0.6618
  O  O591  1  0.000000  0.781500  0.592950  1.0  -0.5964
  O  O592  1  0.000000  0.907900  0.621800  1.0  -0.5965
  O  O593  1  0.000000  0.317300  0.018800  1.0  -0.5735
  O  O594  1  0.000000  0.445100  0.037930  1.0  -0.6628
  O  O595  1  0.000000  0.218500  0.407050  1.0  -0.5967
  O  O596  1  0.000000  0.092100  0.378200  1.0  -0.5963
  O  O597  1  0.000000  0.182700  0.518800  1.0  -0.5737
  O  O598  1  0.000000  0.054900  0.537930  1.0  -0.6624
  O  O599  1  0.000000  0.281500  0.907050  1.0  -0.5972
  O  O600  1  0.000000  0.407900  0.878200  1.0  -0.5966
