# generated using pymatgen
data_ZnPO4
_symmetry_space_group_name_H-M   'P 1'
_cell_length_a   13.29300000
_cell_length_b   13.78200000
_cell_length_c   14.01100000
_cell_angle_alpha   90.00000000
_cell_angle_beta   90.00000000
_cell_angle_gamma   90.00000000
_symmetry_Int_Tables_number   1
_chemical_formula_structural   ZnPO4
_chemical_formula_sum   'Zn20 P20 O80'
_cell_volume   2566.87300939
_cell_formula_units_Z   20
loop_
 _symmetry_equiv_pos_site_id
 _symmetry_equiv_pos_as_xyz
  1  'x, y, z'
loop_
 _atom_site_type_symbol
 _atom_site_label
 _atom_site_symmetry_multiplicity
 _atom_site_fract_x
 _atom_site_fract_y
 _atom_site_fract_z
 _atom_site_occupancy
 _atom_site_charge
  Zn  Zn1  1  0.371920  0.277030  0.244370  1.0  1.185
  Zn  Zn2  1  0.224900  0.631230  0.387230  1.0  1.1891
  Zn  Zn3  1  0.373340  0.239630  0.494520  1.0  1.1756
  Zn  Zn4  1  0.258070  0.374170  0.849830  1.0  1.1866
  Zn  Zn5  1  0.065870  0.240410  0.367320  1.0  1.1679
  Zn  Zn6  1  0.628080  0.722970  0.244370  1.0  1.1851
  Zn  Zn7  1  0.775100  0.368770  0.387230  1.0  1.1888
  Zn  Zn8  1  0.626660  0.760370  0.494520  1.0  1.1761
  Zn  Zn9  1  0.741930  0.625830  0.849830  1.0  1.1862
  Zn  Zn10  1  0.934130  0.759590  0.367320  1.0  1.168
  Zn  Zn11  1  0.871920  0.222970  0.744370  1.0  1.1848
  Zn  Zn12  1  0.724900  0.868770  0.887230  1.0  1.1887
  Zn  Zn13  1  0.873340  0.260370  0.994520  1.0  1.1753
  Zn  Zn14  1  0.758070  0.125830  0.349830  1.0  1.1862
  Zn  Zn15  1  0.565870  0.259590  0.867320  1.0  1.1679
  Zn  Zn16  1  0.128080  0.777030  0.744370  1.0  1.1853
  Zn  Zn17  1  0.275100  0.131230  0.887230  1.0  1.1891
  Zn  Zn18  1  0.126660  0.739630  0.994520  1.0  1.1764
  Zn  Zn19  1  0.241930  0.874170  0.349830  1.0  1.1866
  Zn  Zn20  1  0.434130  0.740410  0.867320  1.0  1.1679
  P  P21  1  0.240840  0.392120  0.391040  1.0  1.7457
  P  P22  1  0.387170  0.281590  0.014270  1.0  1.7496
  P  P23  1  0.257480  0.110910  0.343270  1.0  1.7682
  P  P24  1  0.107910  0.737930  0.225980  1.0  1.7811
  P  P25  1  0.569310  0.258390  0.370840  1.0  1.7321
  P  P26  1  0.759160  0.607880  0.391040  1.0  1.7454
  P  P27  1  0.612830  0.718410  0.014270  1.0  1.7497
  P  P28  1  0.742520  0.889090  0.343270  1.0  1.768
  P  P29  1  0.892090  0.262070  0.225980  1.0  1.7808
  P  P30  1  0.430690  0.741610  0.370840  1.0  1.7319
  P  P31  1  0.740840  0.107880  0.891040  1.0  1.7458
  P  P32  1  0.887170  0.218410  0.514270  1.0  1.7492
  P  P33  1  0.757480  0.389090  0.843270  1.0  1.7679
  P  P34  1  0.607910  0.762070  0.725980  1.0  1.781
  P  P35  1  0.069310  0.241610  0.870840  1.0  1.7322
  P  P36  1  0.259160  0.892120  0.891040  1.0  1.7455
  P  P37  1  0.112830  0.781590  0.514270  1.0  1.7496
  P  P38  1  0.242520  0.610910  0.843270  1.0  1.7679
  P  P39  1  0.392090  0.237930  0.725980  1.0  1.7811
  P  P40  1  0.930690  0.758390  0.870840  1.0  1.7319
  O  O41  1  0.359700  0.364900  0.947100  1.0  -0.7408
  O  O42  1  0.119800  0.651100  0.294600  1.0  -0.7403
  O  O43  1  0.224400  0.496800  0.425000  1.0  -0.7816
  O  O44  1  0.641300  0.341500  0.345600  1.0  -0.7261
  O  O45  1  0.261500  0.005300  0.308300  1.0  -0.7736
  O  O46  1  0.154300  0.129800  0.388400  1.0  -0.7202
  O  O47  1  0.263800  0.331500  0.481400  1.0  -0.7339
  O  O48  1  0.503000  0.291400  0.454700  1.0  -0.7291
  O  O49  1  0.307600  0.199900  0.007000  1.0  -0.7233
  O  O50  1  0.329000  0.388600  0.320600  1.0  -0.7352
  O  O51  1  0.492800  0.243800  0.987000  1.0  -0.716
  O  O52  1  0.272600  0.176100  0.254900  1.0  -0.7458
  O  O53  1  0.342300  0.126600  0.416000  1.0  -0.739
  O  O54  1  0.144200  0.356300  0.343300  1.0  -0.7246
  O  O55  1  0.628100  0.167000  0.399800  1.0  -0.724
  O  O56  1  0.197700  0.807200  0.234500  1.0  -0.7168
  O  O57  1  0.506800  0.236000  0.282400  1.0  -0.7078
  O  O58  1  0.009500  0.788900  0.251700  1.0  -0.7096
  O  O59  1  0.101000  0.699900  0.124700  1.0  -0.7493
  O  O60  1  0.388600  0.320700  0.115900  1.0  -0.7432
  O  O61  1  0.640300  0.635100  0.947100  1.0  -0.742
  O  O62  1  0.880200  0.348900  0.294600  1.0  -0.7379
  O  O63  1  0.775600  0.503200  0.425000  1.0  -0.7817
  O  O64  1  0.358700  0.658500  0.345600  1.0  -0.7256
  O  O65  1  0.738500  0.994700  0.308300  1.0  -0.7732
  O  O66  1  0.845700  0.870200  0.388400  1.0  -0.7203
  O  O67  1  0.736200  0.668500  0.481400  1.0  -0.7338
  O  O68  1  0.497000  0.708600  0.454700  1.0  -0.7304
  O  O69  1  0.692400  0.800100  0.007000  1.0  -0.7221
  O  O70  1  0.671000  0.611400  0.320600  1.0  -0.7355
  O  O71  1  0.507200  0.756200  0.987000  1.0  -0.7155
  O  O72  1  0.727400  0.823900  0.254900  1.0  -0.7463
  O  O73  1  0.657700  0.873400  0.416000  1.0  -0.7397
  O  O74  1  0.855800  0.643700  0.343300  1.0  -0.7246
  O  O75  1  0.371900  0.833000  0.399800  1.0  -0.7228
  O  O76  1  0.802300  0.192800  0.234500  1.0  -0.7174
  O  O77  1  0.493200  0.764000  0.282400  1.0  -0.7088
  O  O78  1  0.990500  0.211100  0.251700  1.0  -0.7098
  O  O79  1  0.899000  0.300100  0.124700  1.0  -0.7498
  O  O80  1  0.611400  0.679300  0.115900  1.0  -0.7427
  O  O81  1  0.859700  0.135100  0.447100  1.0  -0.7421
  O  O82  1  0.619800  0.848900  0.794600  1.0  -0.7384
  O  O83  1  0.724400  0.003200  0.925000  1.0  -0.7819
  O  O84  1  0.141300  0.158500  0.845600  1.0  -0.7263
  O  O85  1  0.761500  0.494700  0.808300  1.0  -0.7732
  O  O86  1  0.654300  0.370200  0.888400  1.0  -0.7202
  O  O87  1  0.763800  0.168500  0.981400  1.0  -0.7339
  O  O88  1  0.003000  0.208600  0.954700  1.0  -0.7296
  O  O89  1  0.807600  0.300100  0.507000  1.0  -0.7231
  O  O90  1  0.829000  0.111400  0.820600  1.0  -0.7361
  O  O91  1  0.992800  0.256200  0.487000  1.0  -0.7153
  O  O92  1  0.772600  0.323900  0.754900  1.0  -0.7462
  O  O93  1  0.842300  0.373400  0.916000  1.0  -0.7388
  O  O94  1  0.644200  0.143700  0.843300  1.0  -0.7249
  O  O95  1  0.128100  0.333000  0.899800  1.0  -0.7237
  O  O96  1  0.697700  0.692800  0.734500  1.0  -0.718
  O  O97  1  0.006800  0.264000  0.782400  1.0  -0.7078
  O  O98  1  0.509500  0.711100  0.751700  1.0  -0.7103
  O  O99  1  0.601000  0.800100  0.624700  1.0  -0.7501
  O  O100  1  0.888600  0.179300  0.615900  1.0  -0.7428
  O  O101  1  0.140300  0.864900  0.447100  1.0  -0.741
  O  O102  1  0.380200  0.151100  0.794600  1.0  -0.74
  O  O103  1  0.275600  0.996800  0.925000  1.0  -0.7813
  O  O104  1  0.858700  0.841500  0.845600  1.0  -0.7253
  O  O105  1  0.238500  0.505300  0.808300  1.0  -0.7737
  O  O106  1  0.345700  0.629800  0.888400  1.0  -0.7202
  O  O107  1  0.236200  0.831500  0.981400  1.0  -0.7339
  O  O108  1  0.997000  0.791400  0.954700  1.0  -0.7303
  O  O109  1  0.192400  0.699900  0.507000  1.0  -0.7225
  O  O110  1  0.171000  0.888600  0.820600  1.0  -0.7353
  O  O111  1  0.007200  0.743800  0.487000  1.0  -0.7158
  O  O112  1  0.227400  0.676100  0.754900  1.0  -0.7457
  O  O113  1  0.157700  0.626600  0.916000  1.0  -0.7392
  O  O114  1  0.355800  0.856300  0.843300  1.0  -0.7238
  O  O115  1  0.871900  0.667000  0.899800  1.0  -0.7233
  O  O116  1  0.302300  0.307200  0.734500  1.0  -0.7166
  O  O117  1  0.993200  0.736000  0.782400  1.0  -0.7088
  O  O118  1  0.490500  0.288900  0.751700  1.0  -0.7091
  O  O119  1  0.399000  0.199900  0.624700  1.0  -0.7492
  O  O120  1  0.111400  0.820700  0.615900  1.0  -0.7435
