# generated using pymatgen
data_Sm3H35(C3N2)11
_symmetry_space_group_name_H-M   'P 1'
_cell_length_a   13.01400000
_cell_length_b   23.69500000
_cell_length_c   16.21400000
_cell_angle_alpha   90.00000000
_cell_angle_beta   107.04000000
_cell_angle_gamma   90.00000000
_symmetry_Int_Tables_number   1
_chemical_formula_structural   Sm3H35(C3N2)11
_chemical_formula_sum   'Sm12 H140 C132 N88'
_cell_volume   4780.36643182
_cell_formula_units_Z   4
loop_
 _symmetry_equiv_pos_site_id
 _symmetry_equiv_pos_as_xyz
  1  'x, y, z'
loop_
 _atom_site_type_symbol
 _atom_site_label
 _atom_site_symmetry_multiplicity
 _atom_site_fract_x
 _atom_site_fract_y
 _atom_site_fract_z
 _atom_site_occupancy
 _atom_site_charge
  Sm  Sm1  1  0.752300  0.327920  0.677420  1.0  2.1426
  Sm  Sm2  1  0.311760  0.326120  0.827400  1.0  2.1276
  Sm  Sm3  1  0.526490  0.578740  0.752900  1.0  2.1204
  Sm  Sm4  1  0.252300  0.827920  0.677420  1.0  2.1426
  Sm  Sm5  1  0.811760  0.826120  0.827400  1.0  2.1276
  Sm  Sm6  1  0.026490  0.078740  0.752900  1.0  2.1204
  Sm  Sm7  1  0.752300  0.672080  0.177420  1.0  2.1425
  Sm  Sm8  1  0.311760  0.673880  0.327400  1.0  2.1279
  Sm  Sm9  1  0.526490  0.421260  0.252900  1.0  2.1209
  Sm  Sm10  1  0.252300  0.172080  0.177420  1.0  2.1425
  Sm  Sm11  1  0.811760  0.173880  0.327400  1.0  2.1279
  Sm  Sm12  1  0.026490  0.921260  0.252900  1.0  2.1209
  H  H13  1  0.455000  0.162500  0.533600  1.0  0.2682
  H  H14  1  0.154900  0.345400  0.473500  1.0  0.1862
  H  H15  1  0.493800  0.294000  0.710500  1.0  0.0466
  H  H16  1  0.748800  0.337700  0.897900  1.0  0.0594
  H  H17  1  0.594600  0.332600  0.956600  1.0  0.0539
  H  H18  1  0.749500  0.220900  0.519600  1.0  0.0496
  H  H19  1  0.948200  0.350600  0.556200  1.0  0.0714
  H  H20  1  0.963200  0.297700  0.430000  1.0  0.0682
  H  H21  1  0.038300  0.305500  0.704500  1.0  0.0492
  H  H22  1  0.926200  0.396700  0.864600  1.0  0.0793
  H  H23  1  0.120800  0.385900  0.926100  1.0  0.0639
  H  H24  1  0.604100  0.427800  0.770400  1.0  0.0473
  H  H25  1  0.866400  0.466900  0.706000  1.0  0.0624
  H  H26  1  0.780900  0.555000  0.731600  1.0  0.0579
  H  H27  1  0.714900  0.359500  0.446800  1.0  0.0402
  H  H28  1  0.575400  0.445000  0.594000  1.0  0.061
  H  H29  1  0.494700  0.473000  0.442500  1.0  0.0615
  H  H30  1  0.612100  0.192900  0.646900  1.0  0.0589
  H  H31  1  0.508500  0.320800  0.488500  1.0  0.0477
  H  H32  1  0.394600  0.242600  0.430600  1.0  0.0624
  H  H33  1  0.472400  0.444300  0.832300  1.0  0.0607
  H  H34  1  0.164400  0.449900  0.708700  1.0  0.0657
  H  H35  1  0.244800  0.540900  0.688000  1.0  0.061
  H  H36  1  0.148100  0.210000  0.826800  1.0  0.0462
  H  H37  1  0.303800  0.218700  0.652000  1.0  0.0553
  H  H38  1  0.194700  0.132500  0.625300  1.0  0.0596
  H  H39  1  0.143900  0.304400  0.605100  1.0  0.0525
  H  H40  1  0.415300  0.388500  0.653600  1.0  0.0653
  H  H41  1  0.320200  0.402000  0.499400  1.0  0.0789
  H  H42  1  0.426400  0.713400  0.693500  1.0  0.0475
  H  H43  1  0.312400  0.620300  0.847900  1.0  0.0754
  H  H44  1  0.212600  0.709500  0.821900  1.0  0.0665
  H  H45  1  0.465300  0.659500  0.554500  1.0  0.0571
  H  H46  1  0.382000  0.498000  0.576000  1.0  0.0755
  H  H47  1  0.280400  0.537600  0.427900  1.0  0.0724
  H  H48  1  0.955000  0.662500  0.533600  1.0  0.2682
  H  H49  1  0.654900  0.845400  0.473500  1.0  0.1862
  H  H50  1  0.993800  0.794000  0.710500  1.0  0.0466
  H  H51  1  0.248800  0.837700  0.897900  1.0  0.0594
  H  H52  1  0.094600  0.832600  0.956600  1.0  0.0539
  H  H53  1  0.249500  0.720900  0.519600  1.0  0.0496
  H  H54  1  0.448200  0.850600  0.556200  1.0  0.0714
  H  H55  1  0.463200  0.797700  0.430000  1.0  0.0682
  H  H56  1  0.538300  0.805500  0.704500  1.0  0.0492
  H  H57  1  0.426200  0.896700  0.864600  1.0  0.0793
  H  H58  1  0.620800  0.885900  0.926100  1.0  0.0639
  H  H59  1  0.104100  0.927800  0.770400  1.0  0.0473
  H  H60  1  0.366400  0.966900  0.706000  1.0  0.0624
  H  H61  1  0.280900  0.055000  0.731600  1.0  0.0566
  H  H62  1  0.214900  0.859500  0.446800  1.0  0.0402
  H  H63  1  0.075400  0.945000  0.594000  1.0  0.061
  H  H64  1  0.994700  0.973000  0.442500  1.0  0.0615
  H  H65  1  0.112100  0.692900  0.646900  1.0  0.0589
  H  H66  1  0.008500  0.820800  0.488500  1.0  0.0477
  H  H67  1  0.894600  0.742600  0.430600  1.0  0.0621
  H  H68  1  0.972400  0.944300  0.832300  1.0  0.0607
  H  H69  1  0.664400  0.949900  0.708700  1.0  0.0657
  H  H70  1  0.744800  0.040900  0.688000  1.0  0.061
  H  H71  1  0.648100  0.710000  0.826800  1.0  0.0462
  H  H72  1  0.803800  0.718700  0.652000  1.0  0.0553
  H  H73  1  0.694700  0.632500  0.625300  1.0  0.0596
  H  H74  1  0.643900  0.804400  0.605100  1.0  0.0525
  H  H75  1  0.915300  0.888500  0.653600  1.0  0.0653
  H  H76  1  0.820200  0.902000  0.499400  1.0  0.0789
  H  H77  1  0.926400  0.213400  0.693500  1.0  0.0475
  H  H78  1  0.812400  0.120300  0.847900  1.0  0.0754
  H  H79  1  0.712600  0.209500  0.821900  1.0  0.0665
  H  H80  1  0.965300  0.159500  0.554500  1.0  0.0574
  H  H81  1  0.882000  0.998000  0.576000  1.0  0.0755
  H  H82  1  0.780400  0.037600  0.427900  1.0  0.0724
  H  H83  1  0.455000  0.837500  0.033600  1.0  0.2658
  H  H84  1  0.154900  0.654600  0.973500  1.0  0.1865
  H  H85  1  0.493800  0.706000  0.210500  1.0  0.047
  H  H86  1  0.748800  0.662300  0.397900  1.0  0.0577
  H  H87  1  0.594600  0.667400  0.456600  1.0  0.0539
  H  H88  1  0.749500  0.779100  0.019600  1.0  0.0497
  H  H89  1  0.948200  0.649400  0.056200  1.0  0.0714
  H  H90  1  0.963200  0.702300  0.930000  1.0  0.0683
  H  H91  1  0.038300  0.694500  0.204500  1.0  0.0491
  H  H92  1  0.926200  0.603300  0.364600  1.0  0.0791
  H  H93  1  0.120800  0.614100  0.426100  1.0  0.0671
  H  H94  1  0.604100  0.572200  0.270400  1.0  0.0476
  H  H95  1  0.866400  0.533100  0.206000  1.0  0.0627
  H  H96  1  0.780900  0.445000  0.231600  1.0  0.0578
  H  H97  1  0.714900  0.640500  0.946800  1.0  0.0398
  H  H98  1  0.575400  0.555000  0.094000  1.0  0.0609
  H  H99  1  0.494700  0.527000  0.942500  1.0  0.0611
  H  H100  1  0.612100  0.807100  0.146900  1.0  0.059
  H  H101  1  0.508500  0.679200  0.988500  1.0  0.0473
  H  H102  1  0.394600  0.757400  0.930600  1.0  0.0623
  H  H103  1  0.472400  0.555700  0.332300  1.0  0.0607
  H  H104  1  0.164400  0.550100  0.208700  1.0  0.0654
  H  H105  1  0.244800  0.459100  0.188000  1.0  0.0597
  H  H106  1  0.148100  0.790000  0.326800  1.0  0.0458
  H  H107  1  0.303800  0.781300  0.152000  1.0  0.0549
  H  H108  1  0.194700  0.867500  0.125300  1.0  0.0593
  H  H109  1  0.143900  0.695600  0.105100  1.0  0.0523
  H  H110  1  0.415300  0.611500  0.153600  1.0  0.0654
  H  H111  1  0.320200  0.598000  0.999400  1.0  0.079
  H  H112  1  0.426400  0.286600  0.193500  1.0  0.0473
  H  H113  1  0.312400  0.379700  0.347900  1.0  0.075
  H  H114  1  0.212600  0.290500  0.321900  1.0  0.0664
  H  H115  1  0.465300  0.340500  0.054500  1.0  0.0564
  H  H116  1  0.382000  0.502000  0.076000  1.0  0.075
  H  H117  1  0.280400  0.462400  0.927900  1.0  0.0725
  H  H118  1  0.955000  0.337500  0.033600  1.0  0.2658
  H  H119  1  0.654900  0.154600  0.973500  1.0  0.1865
  H  H120  1  0.993800  0.206000  0.210500  1.0  0.047
  H  H121  1  0.248800  0.162300  0.397900  1.0  0.0577
  H  H122  1  0.094600  0.167400  0.456600  1.0  0.0539
  H  H123  1  0.249500  0.279100  0.019600  1.0  0.0497
  H  H124  1  0.448200  0.149400  0.056200  1.0  0.0714
  H  H125  1  0.463200  0.202300  0.930000  1.0  0.0683
  H  H126  1  0.538300  0.194500  0.204500  1.0  0.0491
  H  H127  1  0.426200  0.103300  0.364600  1.0  0.0791
  H  H128  1  0.620800  0.114100  0.426100  1.0  0.0671
  H  H129  1  0.104100  0.072200  0.270400  1.0  0.0476
  H  H130  1  0.366400  0.033100  0.206000  1.0  0.0627
  H  H131  1  0.280900  0.945000  0.231600  1.0  0.0564
  H  H132  1  0.214900  0.140500  0.946800  1.0  0.0398
  H  H133  1  0.075400  0.055000  0.094000  1.0  0.0609
  H  H134  1  0.994700  0.027000  0.942500  1.0  0.0611
  H  H135  1  0.112100  0.307100  0.146900  1.0  0.059
  H  H136  1  0.008500  0.179200  0.988500  1.0  0.0473
  H  H137  1  0.894600  0.257400  0.930600  1.0  0.0622
  H  H138  1  0.972400  0.055700  0.332300  1.0  0.0607
  H  H139  1  0.664400  0.050100  0.208700  1.0  0.0654
  H  H140  1  0.744800  0.959100  0.188000  1.0  0.0597
  H  H141  1  0.648100  0.290000  0.326800  1.0  0.0458
  H  H142  1  0.803800  0.281300  0.152000  1.0  0.0549
  H  H143  1  0.694700  0.367500  0.125300  1.0  0.0593
  H  H144  1  0.643900  0.195600  0.105100  1.0  0.0523
  H  H145  1  0.915300  0.111500  0.153600  1.0  0.0654
  H  H146  1  0.820200  0.098000  0.999400  1.0  0.079
  H  H147  1  0.926400  0.786600  0.193500  1.0  0.0473
  H  H148  1  0.812400  0.879700  0.347900  1.0  0.075
  H  H149  1  0.712600  0.790500  0.321900  1.0  0.0664
  H  H150  1  0.965300  0.840500  0.054500  1.0  0.0565
  H  H151  1  0.882000  0.002000  0.076000  1.0  0.075
  H  H152  1  0.780400  0.962400  0.927900  1.0  0.0725
  C  C153  1  0.538600  0.305400  0.765400  1.0  0.1939
  C  C154  1  0.677200  0.328700  0.865800  1.0  -0.0459
  C  C155  1  0.592300  0.325800  0.898400  1.0  -0.0383
  C  C156  1  0.802200  0.247000  0.513400  1.0  0.1791
  C  C157  1  0.909500  0.317300  0.533700  1.0  -0.0784
  C  C158  1  0.917400  0.288100  0.463900  1.0  -0.0292
  C  C159  1  0.034800  0.328000  0.752200  1.0  0.2003
  C  C160  1  0.972500  0.377100  0.838800  1.0  -0.0823
  C  C161  1  0.079800  0.371200  0.872000  1.0  0.0071
  C  C162  1  0.659900  0.448600  0.757500  1.0  0.1782
  C  C163  1  0.802400  0.469500  0.722600  1.0  -0.0862
  C  C164  1  0.755000  0.518000  0.736500  1.0  -0.0247
  C  C165  1  0.669600  0.384800  0.465300  1.0  0.1968
  C  C166  1  0.594800  0.430700  0.545900  1.0  -0.0825
  C  C167  1  0.550500  0.446100  0.462200  1.0  -0.0123
  C  C168  1  0.571100  0.215000  0.599800  1.0  0.1491
  C  C169  1  0.515300  0.284200  0.513500  1.0  0.0355
  C  C170  1  0.452600  0.242300  0.482400  1.0  -0.0748
  C  C171  1  0.404300  0.457400  0.797900  1.0  0.1704
  C  C172  1  0.238000  0.459900  0.731800  1.0  -0.0607
  C  C173  1  0.282500  0.509900  0.720100  1.0  -0.0517
  C  C174  1  0.173700  0.201100  0.779200  1.0  0.2463
  C  C175  1  0.258600  0.206400  0.685000  1.0  -0.0191
  C  C176  1  0.198400  0.158900  0.670200  1.0  -0.041
  C  C177  1  0.202200  0.326200  0.598500  1.0  0.1478
  C  C178  1  0.348000  0.372200  0.623700  1.0  -0.0392
  C  C179  1  0.296900  0.379900  0.539500  1.0  -0.084
  C  C180  1  0.384900  0.701200  0.729500  1.0  0.2133
  C  C181  1  0.324100  0.650400  0.813000  1.0  -0.0258
  C  C182  1  0.269100  0.699300  0.798500  1.0  -0.0775
  C  C183  1  0.429600  0.624200  0.540200  1.0  0.1794
  C  C184  1  0.381200  0.539100  0.551600  1.0  -0.0031
  C  C185  1  0.330300  0.558600  0.471700  1.0  -0.0055
  C  C186  1  0.038600  0.805400  0.765400  1.0  0.1939
  C  C187  1  0.177200  0.828700  0.865800  1.0  -0.0459
  C  C188  1  0.092300  0.825800  0.898400  1.0  -0.0383
  C  C189  1  0.302200  0.747000  0.513400  1.0  0.1791
  C  C190  1  0.409500  0.817300  0.533700  1.0  -0.0784
  C  C191  1  0.417400  0.788100  0.463900  1.0  -0.0292
  C  C192  1  0.534800  0.828000  0.752200  1.0  0.2003
  C  C193  1  0.472500  0.877100  0.838800  1.0  -0.0823
  C  C194  1  0.579800  0.871200  0.872000  1.0  0.0071
  C  C195  1  0.159900  0.948600  0.757500  1.0  0.1782
  C  C196  1  0.302400  0.969500  0.722600  1.0  -0.0862
  C  C197  1  0.255000  0.018000  0.736500  1.0  -0.0247
  C  C198  1  0.169600  0.884800  0.465300  1.0  0.1968
  C  C199  1  0.094800  0.930700  0.545900  1.0  -0.0825
  C  C200  1  0.050500  0.946100  0.462200  1.0  -0.0123
  C  C201  1  0.071100  0.715000  0.599800  1.0  0.1491
  C  C202  1  0.015300  0.784200  0.513500  1.0  0.0355
  C  C203  1  0.952600  0.742300  0.482400  1.0  -0.0748
  C  C204  1  0.904300  0.957400  0.797900  1.0  0.1704
  C  C205  1  0.738000  0.959900  0.731800  1.0  -0.0607
  C  C206  1  0.782500  0.009900  0.720100  1.0  -0.0517
  C  C207  1  0.673700  0.701100  0.779200  1.0  0.2463
  C  C208  1  0.758600  0.706400  0.685000  1.0  -0.0191
  C  C209  1  0.698400  0.658900  0.670200  1.0  -0.041
  C  C210  1  0.702200  0.826200  0.598500  1.0  0.1478
  C  C211  1  0.848000  0.872200  0.623700  1.0  -0.0392
  C  C212  1  0.796900  0.879900  0.539500  1.0  -0.084
  C  C213  1  0.884900  0.201200  0.729500  1.0  0.2162
  C  C214  1  0.824100  0.150400  0.813000  1.0  -0.0258
  C  C215  1  0.769100  0.199300  0.798500  1.0  -0.0775
  C  C216  1  0.929600  0.124200  0.540200  1.0  0.1794
  C  C217  1  0.881200  0.039100  0.551600  1.0  -0.0031
  C  C218  1  0.830300  0.058600  0.471700  1.0  -0.0055
  C  C219  1  0.538600  0.694600  0.265400  1.0  0.1933
  C  C220  1  0.677200  0.671300  0.365800  1.0  -0.0453
  C  C221  1  0.592300  0.674200  0.398400  1.0  -0.038
  C  C222  1  0.802200  0.753000  0.013400  1.0  0.1787
  C  C223  1  0.909500  0.682700  0.033700  1.0  -0.0783
  C  C224  1  0.917400  0.711900  0.963900  1.0  -0.0295
  C  C225  1  0.034800  0.672000  0.252200  1.0  0.1999
  C  C226  1  0.972500  0.622900  0.338800  1.0  -0.082
  C  C227  1  0.079800  0.628800  0.372000  1.0  0.0095
  C  C228  1  0.659900  0.551400  0.257500  1.0  0.1787
  C  C229  1  0.802400  0.530500  0.222600  1.0  -0.0864
  C  C230  1  0.755000  0.482000  0.236500  1.0  -0.0257
  C  C231  1  0.669600  0.615200  0.965300  1.0  0.1958
  C  C232  1  0.594800  0.569300  0.045900  1.0  -0.0816
  C  C233  1  0.550500  0.553900  0.962200  1.0  -0.0128
  C  C234  1  0.571100  0.785000  0.099800  1.0  0.1483
  C  C235  1  0.515300  0.715800  0.013500  1.0  0.0348
  C  C236  1  0.452600  0.757700  0.982400  1.0  -0.0745
  C  C237  1  0.404300  0.542600  0.297900  1.0  0.1705
  C  C238  1  0.238000  0.540100  0.231800  1.0  -0.0576
  C  C239  1  0.282500  0.490100  0.220100  1.0  -0.053
  C  C240  1  0.173700  0.798900  0.279200  1.0  0.2465
  C  C241  1  0.258600  0.793600  0.185000  1.0  -0.019
  C  C242  1  0.198400  0.841100  0.170200  1.0  -0.0405
  C  C243  1  0.202200  0.673800  0.098500  1.0  0.1477
  C  C244  1  0.348000  0.627800  0.123700  1.0  -0.039
  C  C245  1  0.296900  0.620100  0.039500  1.0  -0.0844
  C  C246  1  0.384900  0.298800  0.229500  1.0  0.2136
  C  C247  1  0.324100  0.349600  0.313000  1.0  -0.0257
  C  C248  1  0.269100  0.300700  0.298500  1.0  -0.0779
  C  C249  1  0.429600  0.375800  0.040200  1.0  0.1798
  C  C250  1  0.381200  0.460900  0.051600  1.0  -0.0034
  C  C251  1  0.330300  0.441400  0.971700  1.0  -0.0057
  C  C252  1  0.038600  0.194600  0.265400  1.0  0.1933
  C  C253  1  0.177200  0.171300  0.365800  1.0  -0.0453
  C  C254  1  0.092300  0.174200  0.398400  1.0  -0.038
  C  C255  1  0.302200  0.253000  0.013400  1.0  0.1787
  C  C256  1  0.409500  0.182700  0.033700  1.0  -0.0783
  C  C257  1  0.417400  0.211900  0.963900  1.0  -0.0295
  C  C258  1  0.534800  0.172000  0.252200  1.0  0.1999
  C  C259  1  0.472500  0.122900  0.338800  1.0  -0.082
  C  C260  1  0.579800  0.128800  0.372000  1.0  0.0095
  C  C261  1  0.159900  0.051400  0.257500  1.0  0.1787
  C  C262  1  0.302400  0.030500  0.222600  1.0  -0.0864
  C  C263  1  0.255000  0.982000  0.236500  1.0  -0.0257
  C  C264  1  0.169600  0.115200  0.965300  1.0  0.1958
  C  C265  1  0.094800  0.069300  0.045900  1.0  -0.0816
  C  C266  1  0.050500  0.053900  0.962200  1.0  -0.0128
  C  C267  1  0.071100  0.285000  0.099800  1.0  0.1483
  C  C268  1  0.015300  0.215800  0.013500  1.0  0.0348
  C  C269  1  0.952600  0.257700  0.982400  1.0  -0.0745
  C  C270  1  0.904300  0.042600  0.297900  1.0  0.1705
  C  C271  1  0.738000  0.040100  0.231800  1.0  -0.0576
  C  C272  1  0.782500  0.990100  0.220100  1.0  -0.053
  C  C273  1  0.673700  0.298900  0.279200  1.0  0.2465
  C  C274  1  0.758600  0.293600  0.185000  1.0  -0.019
  C  C275  1  0.698400  0.341100  0.170200  1.0  -0.0405
  C  C276  1  0.702200  0.173800  0.098500  1.0  0.1477
  C  C277  1  0.848000  0.127800  0.123700  1.0  -0.039
  C  C278  1  0.796900  0.120100  0.039500  1.0  -0.0844
  C  C279  1  0.884900  0.798800  0.229500  1.0  0.2165
  C  C280  1  0.824100  0.849600  0.313000  1.0  -0.0257
  C  C281  1  0.769100  0.800700  0.298500  1.0  -0.0779
  C  C282  1  0.929600  0.875800  0.040200  1.0  0.1798
  C  C283  1  0.881200  0.960900  0.051600  1.0  -0.0034
  C  C284  1  0.830300  0.941400  0.971700  1.0  -0.0057
  N  N285  1  0.643700  0.316700  0.780300  1.0  -0.4394
  N  N286  1  0.502500  0.311300  0.832400  1.0  -0.4541
  N  N287  1  0.834900  0.290300  0.566900  1.0  -0.4684
  N  N288  1  0.849300  0.242700  0.449600  1.0  -0.4838
  N  N289  1  0.942300  0.349300  0.760200  1.0  -0.4965
  N  N290  1  0.121400  0.341400  0.817600  1.0  -0.4828
  N  N291  1  0.741700  0.424400  0.736600  1.0  -0.4497
  N  N292  1  0.664500  0.505500  0.758500  1.0  -0.4358
  N  N293  1  0.673100  0.390600  0.548600  1.0  -0.4838
  N  N294  1  0.598100  0.417200  0.411200  1.0  -0.4379
  N  N295  1  0.592000  0.269000  0.586300  1.0  -0.4162
  N  N296  1  0.484700  0.196200  0.538000  1.0  -0.3621
  N  N297  1  0.317500  0.425900  0.782900  1.0  -0.4485
  N  N298  1  0.392100  0.508400  0.762600  1.0  -0.4883
  N  N299  1  0.244200  0.233900  0.755200  1.0  -0.4706
  N  N300  1  0.142600  0.155000  0.731100  1.0  -0.4798
  N  N301  1  0.287800  0.336700  0.660900  1.0  -0.4449
  N  N302  1  0.204200  0.349300  0.523600  1.0  -0.2454
  N  N303  1  0.400200  0.651000  0.769300  1.0  -0.4914
  N  N304  1  0.308200  0.732500  0.744000  1.0  -0.4752
  N  N305  1  0.444400  0.580500  0.597900  1.0  -0.531
  N  N306  1  0.361900  0.613800  0.463000  1.0  -0.4748
  N  N307  1  0.143700  0.816700  0.780300  1.0  -0.4394
  N  N308  1  0.002500  0.811300  0.832400  1.0  -0.4541
  N  N309  1  0.334900  0.790300  0.566900  1.0  -0.4684
  N  N310  1  0.349300  0.742700  0.449600  1.0  -0.4838
  N  N311  1  0.442300  0.849300  0.760200  1.0  -0.4965
  N  N312  1  0.621400  0.841400  0.817600  1.0  -0.4828
  N  N313  1  0.241700  0.924400  0.736600  1.0  -0.4497
  N  N314  1  0.164500  0.005500  0.758500  1.0  -0.4358
  N  N315  1  0.173100  0.890600  0.548600  1.0  -0.4838
  N  N316  1  0.098100  0.917200  0.411200  1.0  -0.4379
  N  N317  1  0.092000  0.769000  0.586300  1.0  -0.4162
  N  N318  1  0.984700  0.696200  0.538000  1.0  -0.3621
  N  N319  1  0.817500  0.925900  0.782900  1.0  -0.4485
  N  N320  1  0.892100  0.008400  0.762600  1.0  -0.4883
  N  N321  1  0.744200  0.733900  0.755200  1.0  -0.4706
  N  N322  1  0.642600  0.655000  0.731100  1.0  -0.4798
  N  N323  1  0.787800  0.836700  0.660900  1.0  -0.4449
  N  N324  1  0.704200  0.849300  0.523600  1.0  -0.2454
  N  N325  1  0.900200  0.151000  0.769300  1.0  -0.4914
  N  N326  1  0.808200  0.232500  0.744000  1.0  -0.4752
  N  N327  1  0.944400  0.080500  0.597900  1.0  -0.531
  N  N328  1  0.861900  0.113800  0.463000  1.0  -0.4748
  N  N329  1  0.643700  0.683300  0.280300  1.0  -0.4393
  N  N330  1  0.502500  0.688700  0.332400  1.0  -0.4545
  N  N331  1  0.834900  0.709700  0.066900  1.0  -0.4676
  N  N332  1  0.849300  0.757300  0.949600  1.0  -0.4838
  N  N333  1  0.942300  0.650700  0.260200  1.0  -0.4961
  N  N334  1  0.121400  0.658600  0.317600  1.0  -0.482
  N  N335  1  0.741700  0.575600  0.236600  1.0  -0.4479
  N  N336  1  0.664500  0.494500  0.258500  1.0  -0.4364
  N  N337  1  0.673100  0.609400  0.048600  1.0  -0.4833
  N  N338  1  0.598100  0.582800  0.911200  1.0  -0.439
  N  N339  1  0.592000  0.731000  0.086300  1.0  -0.417
  N  N340  1  0.484700  0.803800  0.038000  1.0  -0.3614
  N  N341  1  0.317500  0.574100  0.282900  1.0  -0.4487
  N  N342  1  0.392100  0.491600  0.262600  1.0  -0.4877
  N  N343  1  0.244200  0.766100  0.255200  1.0  -0.4721
  N  N344  1  0.142600  0.845000  0.231100  1.0  -0.4804
  N  N345  1  0.287800  0.663300  0.160900  1.0  -0.4455
  N  N346  1  0.204200  0.650700  0.023600  1.0  -0.2446
  N  N347  1  0.400200  0.349000  0.269300  1.0  -0.4913
  N  N348  1  0.308200  0.267500  0.244000  1.0  -0.4746
  N  N349  1  0.444400  0.419500  0.097900  1.0  -0.5309
  N  N350  1  0.361900  0.386200  0.963000  1.0  -0.4754
  N  N351  1  0.143700  0.183300  0.280300  1.0  -0.4393
  N  N352  1  0.002500  0.188700  0.332400  1.0  -0.4545
  N  N353  1  0.334900  0.209700  0.066900  1.0  -0.4676
  N  N354  1  0.349300  0.257300  0.949600  1.0  -0.4838
  N  N355  1  0.442300  0.150700  0.260200  1.0  -0.4961
  N  N356  1  0.621400  0.158600  0.317600  1.0  -0.482
  N  N357  1  0.241700  0.075600  0.236600  1.0  -0.4479
  N  N358  1  0.164500  0.994500  0.258500  1.0  -0.4364
  N  N359  1  0.173100  0.109400  0.048600  1.0  -0.4833
  N  N360  1  0.098100  0.082800  0.911200  1.0  -0.439
  N  N361  1  0.092000  0.231000  0.086300  1.0  -0.417
  N  N362  1  0.984700  0.303800  0.038000  1.0  -0.3614
  N  N363  1  0.817500  0.074100  0.282900  1.0  -0.4487
  N  N364  1  0.892100  0.991600  0.262600  1.0  -0.4877
  N  N365  1  0.744200  0.266100  0.255200  1.0  -0.4721
  N  N366  1  0.642600  0.345000  0.231100  1.0  -0.4804
  N  N367  1  0.787800  0.163300  0.160900  1.0  -0.4455
  N  N368  1  0.704200  0.150700  0.023600  1.0  -0.2446
  N  N369  1  0.900200  0.849000  0.269300  1.0  -0.4913
  N  N370  1  0.808200  0.767500  0.244000  1.0  -0.4746
  N  N371  1  0.944400  0.919500  0.097900  1.0  -0.5309
  N  N372  1  0.861900  0.886200  0.963000  1.0  -0.4754
