# generated using pymatgen
data_Al3Si(PO6)2
_symmetry_space_group_name_H-M   'P 1'
_cell_length_a   13.54200000
_cell_length_b   13.54200000
_cell_length_c   15.19200000
_cell_angle_alpha   90.00000000
_cell_angle_beta   90.00000000
_cell_angle_gamma   120.00000000
_symmetry_Int_Tables_number   1
_chemical_formula_structural   Al3Si(PO6)2
_chemical_formula_sum   'Al18 Si6 P12 O72'
_cell_volume   2412.74376697
_cell_formula_units_Z   6
loop_
 _symmetry_equiv_pos_site_id
 _symmetry_equiv_pos_as_xyz
  1  'x, y, z'
loop_
 _atom_site_type_symbol
 _atom_site_label
 _atom_site_symmetry_multiplicity
 _atom_site_fract_x
 _atom_site_fract_y
 _atom_site_fract_z
 _atom_site_occupancy
 _atom_site_charge
  Al  Al1  1  0.233420  0.000570  0.899560  1.0  1.9968
  Al  Al2  1  0.900090  0.333900  0.232890  1.0  1.9968
  Al  Al3  1  0.566750  0.667240  0.566230  1.0  1.9967
  Al  Al4  1  0.999430  0.232850  0.899560  1.0  1.9966
  Al  Al5  1  0.666100  0.566180  0.232890  1.0  1.9966
  Al  Al6  1  0.332760  0.899520  0.566230  1.0  1.9966
  Al  Al7  1  0.767150  0.766580  0.899560  1.0  1.998
  Al  Al8  1  0.433820  0.099910  0.232890  1.0  1.998
  Al  Al9  1  0.100480  0.433250  0.566230  1.0  1.9984
  Al  Al10  1  0.766580  0.999430  0.100440  1.0  1.9977
  Al  Al11  1  0.433250  0.332760  0.433770  1.0  1.9976
  Al  Al12  1  0.099910  0.666100  0.767110  1.0  1.9977
  Al  Al13  1  0.000570  0.767150  0.100440  1.0  1.9966
  Al  Al14  1  0.667240  0.100480  0.433770  1.0  1.9966
  Al  Al15  1  0.333900  0.433820  0.767110  1.0  1.9966
  Al  Al16  1  0.232850  0.233420  0.100440  1.0  1.9992
  Al  Al17  1  0.899520  0.566750  0.433770  1.0  1.9995
  Al  Al18  1  0.566180  0.900090  0.767110  1.0  1.9992
  Si  Si19  1  0.233190  0.999900  0.100230  1.0  1.976
  Si  Si20  1  0.899860  0.333230  0.433560  1.0  1.976
  Si  Si21  1  0.566520  0.666570  0.766900  1.0  1.976
  Si  Si22  1  0.766810  0.000100  0.899770  1.0  1.9756
  Si  Si23  1  0.433480  0.333430  0.233100  1.0  1.9756
  Si  Si24  1  0.100140  0.666770  0.566440  1.0  1.9756
  P  P25  1  0.333430  0.899960  0.766900  1.0  1.7978
  P  P26  1  0.000100  0.233290  0.100230  1.0  1.7977
  P  P27  1  0.666770  0.566620  0.433560  1.0  1.7977
  P  P28  1  0.100040  0.433480  0.766900  1.0  1.7961
  P  P29  1  0.766710  0.766810  0.100230  1.0  1.7961
  P  P30  1  0.433380  0.100140  0.433560  1.0  1.7961
  P  P31  1  0.666570  0.100040  0.233100  1.0  1.7979
  P  P32  1  0.333230  0.433380  0.566440  1.0  1.7978
  P  P33  1  0.999900  0.766710  0.899770  1.0  1.7978
  P  P34  1  0.899960  0.566520  0.233100  1.0  1.7964
  P  P35  1  0.566620  0.899860  0.566440  1.0  1.7964
  P  P36  1  0.233290  0.233190  0.899770  1.0  1.7964
  O  O37  1  0.273900  0.000300  0.999200  1.0  -0.957
  O  O38  1  0.334400  0.015100  0.166900  1.0  -0.9474
  O  O39  1  0.205300  0.103700  0.113300  1.0  -0.9964
  O  O40  1  0.120000  0.878800  0.123700  1.0  -0.9401
  O  O41  1  0.940570  0.333630  0.332530  1.0  -0.957
  O  O42  1  0.001070  0.348430  0.500230  1.0  -0.952
  O  O43  1  0.871970  0.437030  0.446630  1.0  -0.9966
  O  O44  1  0.786670  0.212130  0.457030  1.0  -0.94
  O  O45  1  0.607230  0.666970  0.665870  1.0  -0.9569
  O  O46  1  0.667730  0.681770  0.833570  1.0  -0.9391
  O  O47  1  0.538630  0.770370  0.779970  1.0  -1.0003
  O  O48  1  0.453330  0.545470  0.790370  1.0  -0.9401
  O  O49  1  0.999700  0.273600  0.999200  1.0  -0.9646
  O  O50  1  0.984900  0.319300  0.166900  1.0  -0.9474
  O  O51  1  0.896300  0.101600  0.113300  1.0  -1.0026
  O  O52  1  0.121200  0.241200  0.123700  1.0  -0.9463
  O  O53  1  0.666370  0.606930  0.332530  1.0  -0.9646
  O  O54  1  0.651570  0.652630  0.500230  1.0  -0.9345
  O  O55  1  0.562970  0.434930  0.446630  1.0  -1.0025
  O  O56  1  0.787870  0.574530  0.457030  1.0  -0.9463
  O  O57  1  0.333030  0.940270  0.665870  1.0  -0.9647
  O  O58  1  0.318230  0.985970  0.833570  1.0  -0.954
  O  O59  1  0.229630  0.768270  0.779970  1.0  -1.0003
  O  O60  1  0.454530  0.907870  0.790370  1.0  -0.9463
  O  O61  1  0.726400  0.726100  0.999200  1.0  -0.9624
  O  O62  1  0.680700  0.665600  0.166900  1.0  -0.9524
  O  O63  1  0.898400  0.794700  0.113300  1.0  -1.0037
  O  O64  1  0.758800  0.880000  0.123700  1.0  -0.9457
  O  O65  1  0.393070  0.059430  0.332530  1.0  -0.9624
  O  O66  1  0.347370  0.998930  0.500230  1.0  -0.9265
  O  O67  1  0.565070  0.128030  0.446630  1.0  -1.0036
  O  O68  1  0.425470  0.213330  0.457030  1.0  -0.9457
  O  O69  1  0.059730  0.392770  0.665870  1.0  -0.9622
  O  O70  1  0.014030  0.332270  0.833570  1.0  -0.9607
  O  O71  1  0.231730  0.461370  0.779970  1.0  -1.014
  O  O72  1  0.092130  0.546670  0.790370  1.0  -0.9457
  O  O73  1  0.726100  0.999700  0.000800  1.0  -0.9567
  O  O74  1  0.665600  0.984900  0.833100  1.0  -0.9482
  O  O75  1  0.794700  0.896300  0.886700  1.0  -0.9968
  O  O76  1  0.880000  0.121200  0.876300  1.0  -0.9423
  O  O77  1  0.392770  0.333030  0.334130  1.0  -0.9567
  O  O78  1  0.332270  0.318230  0.166430  1.0  -0.9399
  O  O79  1  0.461370  0.229630  0.220030  1.0  -1.0014
  O  O80  1  0.546670  0.454530  0.209630  1.0  -0.9423
  O  O81  1  0.059430  0.666370  0.667470  1.0  -0.9567
  O  O82  1  0.998930  0.651570  0.499770  1.0  -0.9536
  O  O83  1  0.128030  0.562970  0.553370  1.0  -0.9969
  O  O84  1  0.213330  0.787870  0.542970  1.0  -0.9423
  O  O85  1  0.000300  0.726400  0.000800  1.0  -0.9639
  O  O86  1  0.015100  0.680700  0.833100  1.0  -0.9473
  O  O87  1  0.103700  0.898400  0.886700  1.0  -1.0003
  O  O88  1  0.878800  0.758800  0.876300  1.0  -0.9478
  O  O89  1  0.666970  0.059730  0.334130  1.0  -0.964
  O  O90  1  0.681770  0.014030  0.166430  1.0  -0.953
  O  O91  1  0.770370  0.231730  0.220030  1.0  -0.998
  O  O92  1  0.545470  0.092130  0.209630  1.0  -0.9478
  O  O93  1  0.333630  0.393070  0.667470  1.0  -0.9639
  O  O94  1  0.348430  0.347370  0.499770  1.0  -0.9343
  O  O95  1  0.437030  0.565070  0.553370  1.0  -1.0003
  O  O96  1  0.212130  0.425470  0.542970  1.0  -0.9478
  O  O97  1  0.273600  0.273900  0.000800  1.0  -0.965
  O  O98  1  0.319300  0.334400  0.833100  1.0  -0.9527
  O  O99  1  0.101600  0.205300  0.886700  1.0  -1.0018
  O  O100  1  0.241200  0.120000  0.876300  1.0  -0.9463
  O  O101  1  0.940270  0.607230  0.334130  1.0  -0.9649
  O  O102  1  0.985970  0.667730  0.166430  1.0  -0.9612
  O  O103  1  0.768270  0.538630  0.220030  1.0  -1.0115
  O  O104  1  0.907870  0.453330  0.209630  1.0  -0.9463
  O  O105  1  0.606930  0.940570  0.667470  1.0  -0.965
  O  O106  1  0.652630  0.001070  0.499770  1.0  -0.9269
  O  O107  1  0.434930  0.871970  0.553370  1.0  -1.0017
  O  O108  1  0.574530  0.786670  0.542970  1.0  -0.9463
