# generated using pymatgen
data_CdH16C24(NO2)2
_symmetry_space_group_name_H-M   'P 1'
_cell_length_a   9.70550000
_cell_length_b   17.84980000
_cell_length_c   14.78450000
_cell_angle_alpha   90.00000000
_cell_angle_beta   94.74850000
_cell_angle_gamma   90.00000000
_symmetry_Int_Tables_number   1
_chemical_formula_structural   CdH16C24(NO2)2
_chemical_formula_sum   'Cd4 H64 C96 N8 O16'
_cell_volume   2552.49384735
_cell_formula_units_Z   4
loop_
 _symmetry_equiv_pos_site_id
 _symmetry_equiv_pos_as_xyz
  1  'x, y, z'
loop_
 _atom_site_type_symbol
 _atom_site_label
 _atom_site_symmetry_multiplicity
 _atom_site_fract_x
 _atom_site_fract_y
 _atom_site_fract_z
 _atom_site_occupancy
 _atom_site_charge
  Cd  Cd1  1  0.868330  0.581590  0.519260  1.0  1.0173
  Cd  Cd2  1  0.131670  0.081590  0.980740  1.0  1.0171
  Cd  Cd3  1  0.131670  0.418410  0.480740  1.0  1.0169
  Cd  Cd4  1  0.868330  0.918410  0.019260  1.0  1.0174
  H  H5  1  0.920300  0.369900  0.270900  1.0  0.1076
  H  H6  1  0.587400  0.323300  0.100900  1.0  0.103
  H  H7  1  0.465100  0.414600  0.169100  1.0  0.1044
  H  H8  1  0.572500  0.489900  0.281500  1.0  0.0912
  H  H9  1  0.070500  0.147500  0.174900  1.0  0.0708
  H  H10  1  0.955700  0.239300  0.245400  1.0  0.1295
  H  H11  1  0.764200  0.292200  0.006200  1.0  0.1132
  H  H12  1  0.885800  0.200200  0.941300  1.0  0.0784
  H  H13  1  0.478500  0.745200  0.567000  1.0  0.0966
  H  H14  1  0.352800  0.828700  0.644000  1.0  0.1091
  H  H15  1  0.631900  0.816400  0.856300  1.0  0.1109
  H  H16  1  0.759100  0.734100  0.778300  1.0  0.0928
  H  H17  1  0.152800  0.009500  0.785000  1.0  0.0836
  H  H18  1  0.269500  0.925900  0.704000  1.0  0.126
  H  H19  1  0.488400  0.868300  0.934200  1.0  0.111
  H  H20  1  0.367400  0.954000  0.007700  1.0  0.0671
  H  H21  1  0.079700  0.869900  0.229100  1.0  0.1077
  H  H22  1  0.412600  0.823300  0.399100  1.0  0.1038
  H  H23  1  0.534900  0.914600  0.330900  1.0  0.1028
  H  H24  1  0.427500  0.989900  0.218500  1.0  0.0914
  H  H25  1  0.929500  0.647500  0.325100  1.0  0.0711
  H  H26  1  0.044300  0.739300  0.254600  1.0  0.1298
  H  H27  1  0.235800  0.792200  0.493800  1.0  0.1128
  H  H28  1  0.114200  0.700200  0.558700  1.0  0.079
  H  H29  1  0.521500  0.245200  0.933000  1.0  0.0964
  H  H30  1  0.647200  0.328700  0.856000  1.0  0.1098
  H  H31  1  0.368100  0.316400  0.643700  1.0  0.1106
  H  H32  1  0.240900  0.234100  0.721700  1.0  0.0929
  H  H33  1  0.847200  0.509500  0.715000  1.0  0.0839
  H  H34  1  0.730500  0.425900  0.796000  1.0  0.1259
  H  H35  1  0.511600  0.368300  0.565800  1.0  0.1098
  H  H36  1  0.632600  0.454000  0.492300  1.0  0.0674
  H  H37  1  0.079700  0.630100  0.729100  1.0  0.1076
  H  H38  1  0.412600  0.676700  0.899100  1.0  0.1037
  H  H39  1  0.534900  0.585400  0.830900  1.0  0.1035
  H  H40  1  0.427500  0.510100  0.718500  1.0  0.0918
  H  H41  1  0.929500  0.852500  0.825100  1.0  0.0702
  H  H42  1  0.044300  0.760700  0.754600  1.0  0.1297
  H  H43  1  0.235800  0.707800  0.993800  1.0  0.1131
  H  H44  1  0.114200  0.799800  0.058700  1.0  0.0793
  H  H45  1  0.521500  0.254800  0.433000  1.0  0.0965
  H  H46  1  0.647200  0.171300  0.356000  1.0  0.1102
  H  H47  1  0.368100  0.183600  0.143700  1.0  0.111
  H  H48  1  0.240900  0.265900  0.221700  1.0  0.0929
  H  H49  1  0.847200  0.990500  0.215000  1.0  0.0842
  H  H50  1  0.730500  0.074100  0.296000  1.0  0.1262
  H  H51  1  0.511600  0.131700  0.065800  1.0  0.1102
  H  H52  1  0.632600  0.046000  0.992300  1.0  0.0675
  H  H53  1  0.920300  0.130100  0.770900  1.0  0.1075
  H  H54  1  0.587400  0.176700  0.600900  1.0  0.1028
  H  H55  1  0.465100  0.085400  0.669100  1.0  0.1051
  H  H56  1  0.572500  0.010100  0.781500  1.0  0.0916
  H  H57  1  0.070500  0.352500  0.674900  1.0  0.07
  H  H58  1  0.955700  0.260700  0.745400  1.0  0.1293
  H  H59  1  0.764200  0.207800  0.506200  1.0  0.1131
  H  H60  1  0.885800  0.299800  0.441300  1.0  0.0784
  H  H61  1  0.478500  0.754800  0.067000  1.0  0.0964
  H  H62  1  0.352800  0.671300  0.144000  1.0  0.1087
  H  H63  1  0.631900  0.683600  0.356300  1.0  0.1107
  H  H64  1  0.759100  0.765900  0.278300  1.0  0.0925
  H  H65  1  0.152800  0.490500  0.285000  1.0  0.0837
  H  H66  1  0.269500  0.574100  0.204000  1.0  0.1262
  H  H67  1  0.488400  0.631700  0.434200  1.0  0.1106
  H  H68  1  0.367400  0.546000  0.507700  1.0  0.068
  C  C69  1  0.824500  0.484680  0.363200  1.0  0.6697
  C  C70  1  0.758100  0.437300  0.287900  1.0  -0.1547
  C  C71  1  0.829600  0.380000  0.249100  1.0  -0.0689
  C  C72  1  0.767500  0.337200  0.177600  1.0  0.038
  C  C73  1  0.630400  0.351400  0.148100  1.0  -0.118
  C  C74  1  0.557700  0.406800  0.188200  1.0  -0.1128
  C  C75  1  0.621100  0.451100  0.256600  1.0  -0.0127
  C  C76  1  0.008800  0.177600  0.139800  1.0  0.1642
  C  C77  1  0.939300  0.232600  0.183000  1.0  -0.2146
  C  C78  1  0.845700  0.277400  0.134000  1.0  0.1147
  C  C79  1  0.827200  0.263600  0.042400  1.0  -0.2195
  C  C80  1  0.900900  0.208000  0.003500  1.0  0.1744
  C  C81  1  0.726400  0.684300  0.609700  1.0  0.6284
  C  C82  1  0.637700  0.734600  0.662100  1.0  -0.0944
  C  C83  1  0.511900  0.760900  0.624700  1.0  -0.0443
  C  C84  1  0.435300  0.810100  0.671800  1.0  -0.1191
  C  C85  1  0.477100  0.832500  0.758800  1.0  0.058
  C  C86  1  0.600700  0.802900  0.797300  1.0  -0.121
  C  C87  1  0.678100  0.754100  0.750100  1.0  -0.0441
  C  C88  1  0.221400  0.980500  0.815500  1.0  0.1779
  C  C89  1  0.291300  0.930300  0.766200  1.0  -0.1887
  C  C90  1  0.395400  0.885900  0.809300  1.0  0.1004
  C  C91  1  0.420600  0.896400  0.901700  1.0  -0.2111
  C  C92  1  0.346600  0.947900  0.945600  1.0  0.1956
  C  C93  1  0.175500  0.984680  0.136800  1.0  0.6693
  C  C94  1  0.241900  0.937300  0.212100  1.0  -0.1546
  C  C95  1  0.170400  0.880000  0.250900  1.0  -0.0683
  C  C96  1  0.232500  0.837200  0.322400  1.0  0.0365
  C  C97  1  0.369600  0.851400  0.351900  1.0  -0.1185
  C  C98  1  0.442300  0.906800  0.311800  1.0  -0.1099
  C  C99  1  0.378900  0.951100  0.243400  1.0  -0.0115
  C  C100  1  0.991200  0.677600  0.360200  1.0  0.1644
  C  C101  1  0.060700  0.732600  0.317000  1.0  -0.214
  C  C102  1  0.154300  0.777400  0.366000  1.0  0.1148
  C  C103  1  0.172800  0.763600  0.457600  1.0  -0.2187
  C  C104  1  0.099100  0.708000  0.496500  1.0  0.1732
  C  C105  1  0.273600  0.184300  0.890300  1.0  0.6294
  C  C106  1  0.362300  0.234600  0.837900  1.0  -0.097
  C  C107  1  0.488100  0.260900  0.875300  1.0  -0.0437
  C  C108  1  0.564700  0.310100  0.828200  1.0  -0.1195
  C  C109  1  0.522900  0.332500  0.741200  1.0  0.0577
  C  C110  1  0.399300  0.302900  0.702700  1.0  -0.121
  C  C111  1  0.321900  0.254100  0.749900  1.0  -0.0433
  C  C112  1  0.778600  0.480500  0.684500  1.0  0.1777
  C  C113  1  0.708700  0.430300  0.733800  1.0  -0.1866
  C  C114  1  0.604600  0.385900  0.690700  1.0  0.1
  C  C115  1  0.579400  0.396400  0.598300  1.0  -0.2111
  C  C116  1  0.653400  0.447900  0.554400  1.0  0.1949
  C  C117  1  0.175500  0.515320  0.636800  1.0  0.6694
  C  C118  1  0.241900  0.562700  0.712100  1.0  -0.155
  C  C119  1  0.170400  0.620000  0.750900  1.0  -0.0681
  C  C120  1  0.232500  0.662800  0.822400  1.0  0.0364
  C  C121  1  0.369600  0.648600  0.851900  1.0  -0.1178
  C  C122  1  0.442300  0.593200  0.811800  1.0  -0.1094
  C  C123  1  0.378900  0.548900  0.743400  1.0  -0.0112
  C  C124  1  0.991200  0.822400  0.860200  1.0  0.1675
  C  C125  1  0.060700  0.767400  0.817000  1.0  -0.2137
  C  C126  1  0.154300  0.722600  0.866000  1.0  0.1146
  C  C127  1  0.172800  0.736400  0.957600  1.0  -0.2168
  C  C128  1  0.099100  0.792000  0.996500  1.0  0.1735
  C  C129  1  0.273600  0.315700  0.390300  1.0  0.629
  C  C130  1  0.362300  0.265400  0.337900  1.0  -0.0972
  C  C131  1  0.488100  0.239100  0.375300  1.0  -0.0434
  C  C132  1  0.564700  0.189900  0.328200  1.0  -0.1187
  C  C133  1  0.522900  0.167500  0.241200  1.0  0.0576
  C  C134  1  0.399300  0.197100  0.202700  1.0  -0.1214
  C  C135  1  0.321900  0.245900  0.249900  1.0  -0.0425
  C  C136  1  0.778600  0.019500  0.184500  1.0  0.1777
  C  C137  1  0.708700  0.069700  0.233800  1.0  -0.1872
  C  C138  1  0.604600  0.114100  0.190700  1.0  0.0996
  C  C139  1  0.579400  0.103600  0.098300  1.0  -0.2111
  C  C140  1  0.653400  0.052100  0.054400  1.0  0.1951
  C  C141  1  0.824500  0.015320  0.863200  1.0  0.6702
  C  C142  1  0.758100  0.062700  0.787900  1.0  -0.155
  C  C143  1  0.829600  0.120000  0.749100  1.0  -0.0691
  C  C144  1  0.767500  0.162800  0.677600  1.0  0.0383
  C  C145  1  0.630400  0.148600  0.648100  1.0  -0.1168
  C  C146  1  0.557700  0.093200  0.688200  1.0  -0.1131
  C  C147  1  0.621100  0.048900  0.756600  1.0  -0.0117
  C  C148  1  0.008800  0.322400  0.639800  1.0  0.1676
  C  C149  1  0.939300  0.267400  0.683000  1.0  -0.2144
  C  C150  1  0.845700  0.222600  0.634000  1.0  0.1141
  C  C151  1  0.827200  0.236400  0.542400  1.0  -0.2189
  C  C152  1  0.900900  0.292000  0.503500  1.0  0.1741
  C  C153  1  0.726400  0.815700  0.109700  1.0  0.628
  C  C154  1  0.637700  0.765400  0.162100  1.0  -0.0948
  C  C155  1  0.511900  0.739100  0.124700  1.0  -0.0446
  C  C156  1  0.435300  0.689900  0.171800  1.0  -0.1183
  C  C157  1  0.477100  0.667500  0.258800  1.0  0.058
  C  C158  1  0.600700  0.697100  0.297300  1.0  -0.1211
  C  C159  1  0.678100  0.745900  0.250100  1.0  -0.0442
  C  C160  1  0.221400  0.519500  0.315500  1.0  0.1779
  C  C161  1  0.291300  0.569700  0.266200  1.0  -0.1877
  C  C162  1  0.395400  0.614100  0.309300  1.0  0.1003
  C  C163  1  0.420600  0.603600  0.401700  1.0  -0.211
  C  C164  1  0.346600  0.552100  0.445600  1.0  0.196
  N  N165  1  0.992900  0.164970  0.050900  1.0  -0.3512
  N  N166  1  0.246400  0.990020  0.905100  1.0  -0.3572
  N  N167  1  0.007100  0.664970  0.449100  1.0  -0.3519
  N  N168  1  0.753600  0.490020  0.594900  1.0  -0.3572
  N  N169  1  0.007100  0.835030  0.949100  1.0  -0.3528
  N  N170  1  0.753600  0.009980  0.094900  1.0  -0.3578
  N  N171  1  0.992900  0.335030  0.550900  1.0  -0.3509
  N  N172  1  0.246400  0.509980  0.405100  1.0  -0.3571
  O  O173  1  0.761900  0.542140  0.384380  1.0  -0.5972
  O  O174  1  0.683800  0.666400  0.530600  1.0  -0.6189
  O  O175  1  0.839700  0.662330  0.646540  1.0  -0.5906
  O  O176  1  0.934400  0.463880  0.403100  1.0  -0.6994
  O  O177  1  0.238100  0.042140  0.115620  1.0  -0.5959
  O  O178  1  0.316200  0.166400  0.969400  1.0  -0.6197
  O  O179  1  0.160300  0.162330  0.853460  1.0  -0.591
  O  O180  1  0.065600  0.963880  0.096900  1.0  -0.6994
  O  O181  1  0.238100  0.457860  0.615620  1.0  -0.5944
  O  O182  1  0.316200  0.333600  0.469400  1.0  -0.6194
  O  O183  1  0.160300  0.337670  0.353460  1.0  -0.5917
  O  O184  1  0.065600  0.536120  0.596900  1.0  -0.6997
  O  O185  1  0.761900  0.957860  0.884380  1.0  -0.5961
  O  O186  1  0.683800  0.833600  0.030600  1.0  -0.6195
  O  O187  1  0.839700  0.837670  0.146540  1.0  -0.591
  O  O188  1  0.934400  0.036120  0.903100  1.0  -0.6997
