# generated using pymatgen
data_CdH16C24(NO2)2
_symmetry_space_group_name_H-M   'P 1'
_cell_length_a   9.72700000
_cell_length_b   17.02040000
_cell_length_c   15.29590000
_cell_angle_alpha   90.00000000
_cell_angle_beta   96.84770000
_cell_angle_gamma   90.00000000
_symmetry_Int_Tables_number   1
_chemical_formula_structural   CdH16C24(NO2)2
_chemical_formula_sum   'Cd4 H64 C96 N8 O16'
_cell_volume   2514.28561587
_cell_formula_units_Z   4
loop_
 _symmetry_equiv_pos_site_id
 _symmetry_equiv_pos_as_xyz
  1  'x, y, z'
loop_
 _atom_site_type_symbol
 _atom_site_label
 _atom_site_symmetry_multiplicity
 _atom_site_fract_x
 _atom_site_fract_y
 _atom_site_fract_z
 _atom_site_occupancy
 _atom_site_charge
  Cd  Cd1  1  0.866860  0.580260  0.519320  1.0  1.0191
  Cd  Cd2  1  0.133140  0.080260  0.980680  1.0  1.0188
  Cd  Cd3  1  0.133140  0.419740  0.480680  1.0  1.0177
  Cd  Cd4  1  0.866860  0.919740  0.019320  1.0  1.0181
  H  H5  1  0.917800  0.369300  0.271500  1.0  0.1033
  H  H6  1  0.578500  0.316200  0.100300  1.0  0.1004
  H  H7  1  0.448500  0.406200  0.171200  1.0  0.1056
  H  H8  1  0.553900  0.481900  0.288300  1.0  0.0927
  H  H9  1  0.079300  0.142100  0.169200  1.0  0.0778
  H  H10  1  0.956400  0.231000  0.242800  1.0  0.1318
  H  H11  1  0.760400  0.299000  0.006700  1.0  0.1173
  H  H12  1  0.887900  0.208300  0.940000  1.0  0.0811
  H  H13  1  0.475200  0.744300  0.569000  1.0  0.0963
  H  H14  1  0.342700  0.824300  0.648800  1.0  0.1096
  H  H15  1  0.643900  0.816900  0.855900  1.0  0.1181
  H  H16  1  0.773600  0.735800  0.776300  1.0  0.0882
  H  H17  1  0.140600  0.005900  0.793100  1.0  0.0755
  H  H18  1  0.262100  0.925200  0.709600  1.0  0.1238
  H  H19  1  0.497700  0.860000  0.933800  1.0  0.1164
  H  H20  1  0.372700  0.944200  0.010000  1.0  0.0784
  H  H21  1  0.082200  0.869300  0.228500  1.0  0.1033
  H  H22  1  0.421500  0.816200  0.399700  1.0  0.101
  H  H23  1  0.551500  0.906200  0.328800  1.0  0.1066
  H  H24  1  0.446100  0.981900  0.211700  1.0  0.093
  H  H25  1  0.920700  0.642100  0.330800  1.0  0.0774
  H  H26  1  0.043600  0.731000  0.257200  1.0  0.1325
  H  H27  1  0.239600  0.799000  0.493300  1.0  0.1166
  H  H28  1  0.112100  0.708300  0.560000  1.0  0.0815
  H  H29  1  0.524800  0.244300  0.931000  1.0  0.0964
  H  H30  1  0.657300  0.324300  0.851200  1.0  0.1097
  H  H31  1  0.356100  0.316900  0.644100  1.0  0.1177
  H  H32  1  0.226400  0.235800  0.723700  1.0  0.0884
  H  H33  1  0.859400  0.505900  0.706900  1.0  0.0759
  H  H34  1  0.737900  0.425200  0.790400  1.0  0.124
  H  H35  1  0.502300  0.360000  0.566200  1.0  0.1154
  H  H36  1  0.627300  0.444200  0.490000  1.0  0.079
  H  H37  1  0.082200  0.630700  0.728500  1.0  0.1034
  H  H38  1  0.421500  0.683800  0.899700  1.0  0.1005
  H  H39  1  0.551500  0.593800  0.828800  1.0  0.1068
  H  H40  1  0.446100  0.518100  0.711700  1.0  0.0938
  H  H41  1  0.920700  0.857900  0.830800  1.0  0.077
  H  H42  1  0.043600  0.769000  0.757200  1.0  0.1324
  H  H43  1  0.239600  0.701000  0.993300  1.0  0.1166
  H  H44  1  0.112100  0.791700  0.060000  1.0  0.0816
  H  H45  1  0.524800  0.255700  0.431000  1.0  0.0967
  H  H46  1  0.657300  0.175700  0.351200  1.0  0.1101
  H  H47  1  0.356100  0.183100  0.144100  1.0  0.1182
  H  H48  1  0.226400  0.264200  0.223700  1.0  0.0885
  H  H49  1  0.859400  0.994100  0.206900  1.0  0.0759
  H  H50  1  0.737900  0.074800  0.290400  1.0  0.1238
  H  H51  1  0.502300  0.140000  0.066200  1.0  0.1161
  H  H52  1  0.627300  0.055800  0.990000  1.0  0.0789
  H  H53  1  0.917800  0.130700  0.771500  1.0  0.1033
  H  H54  1  0.578500  0.183800  0.600300  1.0  0.1004
  H  H55  1  0.448500  0.093800  0.671200  1.0  0.1061
  H  H56  1  0.553900  0.018100  0.788300  1.0  0.0935
  H  H57  1  0.079300  0.357900  0.669200  1.0  0.0773
  H  H58  1  0.956400  0.269000  0.742800  1.0  0.1316
  H  H59  1  0.760400  0.201000  0.506700  1.0  0.1164
  H  H60  1  0.887900  0.291700  0.440000  1.0  0.0811
  H  H61  1  0.475200  0.755700  0.069000  1.0  0.0958
  H  H62  1  0.342700  0.675700  0.148800  1.0  0.1095
  H  H63  1  0.643900  0.683100  0.355900  1.0  0.1179
  H  H64  1  0.773600  0.764200  0.276300  1.0  0.088
  H  H65  1  0.140600  0.494100  0.293100  1.0  0.0751
  H  H66  1  0.262100  0.574800  0.209600  1.0  0.1237
  H  H67  1  0.497700  0.640000  0.433800  1.0  0.1162
  H  H68  1  0.372700  0.555800  0.510000  1.0  0.0783
  C  C69  1  0.813800  0.482670  0.365990  1.0  0.6643
  C  C70  1  0.746900  0.432950  0.290570  1.0  -0.1402
  C  C71  1  0.823200  0.377530  0.250050  1.0  -0.0648
  C  C72  1  0.762500  0.333740  0.178100  1.0  0.0396
  C  C73  1  0.621500  0.345500  0.148900  1.0  -0.1242
  C  C74  1  0.544200  0.399600  0.190700  1.0  -0.1092
  C  C75  1  0.606400  0.444100  0.260800  1.0  -0.0388
  C  C76  1  0.013300  0.174590  0.135700  1.0  0.162
  C  C77  1  0.940500  0.227670  0.180400  1.0  -0.207
  C  C78  1  0.843500  0.276360  0.133000  1.0  0.1096
  C  C79  1  0.825800  0.267300  0.041700  1.0  -0.2012
  C  C80  1  0.902000  0.213100  0.002300  1.0  0.1715
  C  C81  1  0.729100  0.684600  0.611530  1.0  0.6915
  C  C82  1  0.640800  0.733800  0.663500  1.0  -0.1172
  C  C83  1  0.510200  0.759600  0.627200  1.0  -0.0283
  C  C84  1  0.431200  0.807200  0.674900  1.0  -0.1128
  C  C85  1  0.479300  0.830370  0.760710  1.0  0.0319
  C  C86  1  0.609000  0.802600  0.797400  1.0  -0.1213
  C  C87  1  0.686700  0.754800  0.749700  1.0  -0.0407
  C  C88  1  0.215400  0.976300  0.822000  1.0  0.1735
  C  C89  1  0.286900  0.927820  0.771500  1.0  -0.1987
  C  C90  1  0.396600  0.882400  0.811850  1.0  0.0737
  C  C91  1  0.425200  0.890000  0.902860  1.0  -0.2015
  C  C92  1  0.349800  0.940100  0.948010  1.0  0.1825
  C  C93  1  0.186200  0.982670  0.134010  1.0  0.6638
  C  C94  1  0.253100  0.932950  0.209430  1.0  -0.1387
  C  C95  1  0.176800  0.877530  0.249950  1.0  -0.0655
  C  C96  1  0.237500  0.833740  0.321900  1.0  0.0399
  C  C97  1  0.378500  0.845500  0.351100  1.0  -0.1243
  C  C98  1  0.455800  0.899600  0.309300  1.0  -0.1079
  C  C99  1  0.393600  0.944100  0.239200  1.0  -0.0392
  C  C100  1  0.986700  0.674590  0.364300  1.0  0.1631
  C  C101  1  0.059500  0.727670  0.319600  1.0  -0.2074
  C  C102  1  0.156500  0.776360  0.367000  1.0  0.109
  C  C103  1  0.174200  0.767300  0.458300  1.0  -0.201
  C  C104  1  0.098000  0.713100  0.497700  1.0  0.1704
  C  C105  1  0.270900  0.184600  0.888470  1.0  0.6902
  C  C106  1  0.359200  0.233800  0.836500  1.0  -0.1159
  C  C107  1  0.489800  0.259600  0.872800  1.0  -0.0276
  C  C108  1  0.568800  0.307200  0.825100  1.0  -0.1142
  C  C109  1  0.520700  0.330370  0.739290  1.0  0.0294
  C  C110  1  0.391000  0.302600  0.702600  1.0  -0.1211
  C  C111  1  0.313300  0.254800  0.750300  1.0  -0.0401
  C  C112  1  0.784600  0.476300  0.678000  1.0  0.1731
  C  C113  1  0.713100  0.427820  0.728500  1.0  -0.2022
  C  C114  1  0.603400  0.382400  0.688150  1.0  0.0733
  C  C115  1  0.574800  0.390000  0.597140  1.0  -0.201
  C  C116  1  0.650200  0.440100  0.551990  1.0  0.1809
  C  C117  1  0.186200  0.517330  0.634010  1.0  0.6634
  C  C118  1  0.253100  0.567050  0.709430  1.0  -0.1396
  C  C119  1  0.176800  0.622470  0.749950  1.0  -0.0647
  C  C120  1  0.237500  0.666260  0.821900  1.0  0.0379
  C  C121  1  0.378500  0.654500  0.851100  1.0  -0.1239
  C  C122  1  0.455800  0.600400  0.809300  1.0  -0.1079
  C  C123  1  0.393600  0.555900  0.739200  1.0  -0.0395
  C  C124  1  0.986700  0.825410  0.864300  1.0  0.1658
  C  C125  1  0.059500  0.772330  0.819600  1.0  -0.2073
  C  C126  1  0.156500  0.723640  0.867000  1.0  0.1088
  C  C127  1  0.174200  0.732700  0.958300  1.0  -0.2011
  C  C128  1  0.098000  0.786900  0.997700  1.0  0.171
  C  C129  1  0.270900  0.315400  0.388470  1.0  0.6902
  C  C130  1  0.359200  0.266200  0.336500  1.0  -0.1163
  C  C131  1  0.489800  0.240400  0.372800  1.0  -0.0271
  C  C132  1  0.568800  0.192800  0.325100  1.0  -0.1147
  C  C133  1  0.520700  0.169630  0.239290  1.0  0.029
  C  C134  1  0.391000  0.197400  0.202600  1.0  -0.1209
  C  C135  1  0.313300  0.245200  0.250300  1.0  -0.0403
  C  C136  1  0.784600  0.023700  0.178000  1.0  0.1734
  C  C137  1  0.713100  0.072180  0.228500  1.0  -0.2025
  C  C138  1  0.603400  0.117600  0.188150  1.0  0.0733
  C  C139  1  0.574800  0.110000  0.097140  1.0  -0.2013
  C  C140  1  0.650200  0.059900  0.051990  1.0  0.1808
  C  C141  1  0.813800  0.017330  0.865990  1.0  0.6641
  C  C142  1  0.746900  0.067050  0.790570  1.0  -0.1408
  C  C143  1  0.823200  0.122470  0.750050  1.0  -0.0649
  C  C144  1  0.762500  0.166260  0.678100  1.0  0.0382
  C  C145  1  0.621500  0.154500  0.648900  1.0  -0.1224
  C  C146  1  0.544200  0.100400  0.690700  1.0  -0.11
  C  C147  1  0.606400  0.055900  0.760800  1.0  -0.0389
  C  C148  1  0.013300  0.325410  0.635700  1.0  0.1646
  C  C149  1  0.940500  0.272330  0.680400  1.0  -0.2066
  C  C150  1  0.843500  0.223640  0.633000  1.0  0.1093
  C  C151  1  0.825800  0.232700  0.541700  1.0  -0.2005
  C  C152  1  0.902000  0.286900  0.502300  1.0  0.1712
  C  C153  1  0.729100  0.815400  0.111530  1.0  0.6912
  C  C154  1  0.640800  0.766200  0.163500  1.0  -0.117
  C  C155  1  0.510200  0.740400  0.127200  1.0  -0.0281
  C  C156  1  0.431200  0.692800  0.174900  1.0  -0.1125
  C  C157  1  0.479300  0.669630  0.260710  1.0  0.0316
  C  C158  1  0.609000  0.697400  0.297400  1.0  -0.1211
  C  C159  1  0.686700  0.745200  0.249700  1.0  -0.0417
  C  C160  1  0.215400  0.523700  0.322000  1.0  0.1729
  C  C161  1  0.286900  0.572180  0.271500  1.0  -0.1985
  C  C162  1  0.396600  0.617600  0.311850  1.0  0.0742
  C  C163  1  0.425200  0.610000  0.402860  1.0  -0.2021
  C  C164  1  0.349800  0.559900  0.448010  1.0  0.1828
  N  N165  1  0.996600  0.166060  0.048350  1.0  -0.3395
  N  N166  1  0.244500  0.984270  0.909260  1.0  -0.362
  N  N167  1  0.003400  0.666060  0.451650  1.0  -0.3404
  N  N168  1  0.755500  0.484270  0.590740  1.0  -0.3615
  N  N169  1  0.003400  0.833940  0.951650  1.0  -0.3414
  N  N170  1  0.755500  0.015730  0.090740  1.0  -0.3621
  N  N171  1  0.996600  0.333940  0.548350  1.0  -0.3389
  N  N172  1  0.244500  0.515730  0.409260  1.0  -0.3619
  O  O173  1  0.744600  0.538900  0.389930  1.0  -0.5793
  O  O174  1  0.683800  0.667760  0.532820  1.0  -0.6465
  O  O175  1  0.845500  0.661520  0.647350  1.0  -0.6109
  O  O176  1  0.931300  0.466020  0.401160  1.0  -0.6866
  O  O177  1  0.255400  0.038900  0.110070  1.0  -0.5799
  O  O178  1  0.316200  0.167760  0.967180  1.0  -0.6489
  O  O179  1  0.154500  0.161520  0.852650  1.0  -0.6102
  O  O180  1  0.068700  0.966020  0.098840  1.0  -0.6858
  O  O181  1  0.255400  0.461100  0.610070  1.0  -0.5797
  O  O182  1  0.316200  0.332240  0.467180  1.0  -0.6488
  O  O183  1  0.154500  0.338480  0.352650  1.0  -0.6099
  O  O184  1  0.068700  0.533980  0.598840  1.0  -0.6856
  O  O185  1  0.744600  0.961100  0.889930  1.0  -0.5794
  O  O186  1  0.683800  0.832240  0.032820  1.0  -0.6476
  O  O187  1  0.845500  0.838480  0.147350  1.0  -0.6113
  O  O188  1  0.931300  0.033980  0.901160  1.0  -0.6867
