# generated using pymatgen
data_CdH16C24(NO2)2
_symmetry_space_group_name_H-M   'P 1'
_cell_length_a   9.79040000
_cell_length_b   17.36600000
_cell_length_c   15.25690000
_cell_angle_alpha   90.00000000
_cell_angle_beta   95.48290000
_cell_angle_gamma   90.00000000
_symmetry_Int_Tables_number   1
_chemical_formula_structural   CdH16C24(NO2)2
_chemical_formula_sum   'Cd4 H64 C96 N8 O16'
_cell_volume   2582.11137588
_cell_formula_units_Z   4
loop_
 _symmetry_equiv_pos_site_id
 _symmetry_equiv_pos_as_xyz
  1  'x, y, z'
loop_
 _atom_site_type_symbol
 _atom_site_label
 _atom_site_symmetry_multiplicity
 _atom_site_fract_x
 _atom_site_fract_y
 _atom_site_fract_z
 _atom_site_occupancy
 _atom_site_charge
  Cd  Cd1  1  0.864500  0.580850  0.519290  1.0  1.0153
  Cd  Cd2  1  0.135500  0.080850  0.980710  1.0  1.0155
  Cd  Cd3  1  0.135500  0.419150  0.480710  1.0  1.0153
  Cd  Cd4  1  0.864500  0.919150  0.019290  1.0  1.0152
  H  H5  1  0.919200  0.363900  0.275200  1.0  0.105
  H  H6  1  0.584700  0.311900  0.112500  1.0  0.101
  H  H7  1  0.458200  0.399800  0.184800  1.0  0.1049
  H  H8  1  0.563800  0.474700  0.297200  1.0  0.0909
  H  H9  1  0.075800  0.139400  0.171900  1.0  0.0746
  H  H10  1  0.957600  0.227900  0.245900  1.0  0.125
  H  H11  1  0.763200  0.292200  0.015500  1.0  0.1129
  H  H12  1  0.891300  0.204700  0.947400  1.0  0.0782
  H  H13  1  0.472500  0.745800  0.567200  1.0  0.1038
  H  H14  1  0.345600  0.827300  0.646700  1.0  0.1097
  H  H15  1  0.642600  0.825700  0.844500  1.0  0.1057
  H  H16  1  0.769500  0.743700  0.765500  1.0  0.0931
  H  H17  1  0.152300  0.011400  0.790400  1.0  0.0772
  H  H18  1  0.269800  0.930600  0.706300  1.0  0.126
  H  H19  1  0.494200  0.865000  0.926200  1.0  0.1139
  H  H20  1  0.370600  0.947100  0.002800  1.0  0.0662
  H  H21  1  0.080800  0.863900  0.224800  1.0  0.1042
  H  H22  1  0.415300  0.811900  0.387500  1.0  0.1017
  H  H23  1  0.541800  0.899800  0.315200  1.0  0.1043
  H  H24  1  0.436200  0.974700  0.202800  1.0  0.0911
  H  H25  1  0.924200  0.639400  0.328100  1.0  0.0743
  H  H26  1  0.042400  0.727900  0.254100  1.0  0.1254
  H  H27  1  0.236800  0.792200  0.484500  1.0  0.113
  H  H28  1  0.108700  0.704700  0.552600  1.0  0.0787
  H  H29  1  0.527500  0.245800  0.932800  1.0  0.1036
  H  H30  1  0.654400  0.327300  0.853300  1.0  0.1099
  H  H31  1  0.357400  0.325700  0.655500  1.0  0.105
  H  H32  1  0.230500  0.243700  0.734500  1.0  0.0932
  H  H33  1  0.847700  0.511400  0.709600  1.0  0.0766
  H  H34  1  0.730200  0.430600  0.793700  1.0  0.1254
  H  H35  1  0.505800  0.365000  0.573800  1.0  0.1128
  H  H36  1  0.629400  0.447100  0.497200  1.0  0.067
  H  H37  1  0.080800  0.636100  0.724800  1.0  0.1042
  H  H38  1  0.415300  0.688100  0.887500  1.0  0.1011
  H  H39  1  0.541800  0.600200  0.815200  1.0  0.1044
  H  H40  1  0.436200  0.525300  0.702800  1.0  0.0914
  H  H41  1  0.924200  0.860600  0.828100  1.0  0.0746
  H  H42  1  0.042400  0.772100  0.754100  1.0  0.1254
  H  H43  1  0.236800  0.707800  0.984500  1.0  0.1121
  H  H44  1  0.108700  0.795300  0.052600  1.0  0.0795
  H  H45  1  0.527500  0.254200  0.432800  1.0  0.1038
  H  H46  1  0.654400  0.172700  0.353300  1.0  0.1099
  H  H47  1  0.357400  0.174300  0.155500  1.0  0.1053
  H  H48  1  0.230500  0.256300  0.234500  1.0  0.0934
  H  H49  1  0.847700  0.988600  0.209600  1.0  0.0763
  H  H50  1  0.730200  0.069400  0.293700  1.0  0.1256
  H  H51  1  0.505800  0.135000  0.073800  1.0  0.1131
  H  H52  1  0.629400  0.052900  0.997200  1.0  0.0673
  H  H53  1  0.919200  0.136100  0.775200  1.0  0.105
  H  H54  1  0.584700  0.188100  0.612500  1.0  0.1007
  H  H55  1  0.458200  0.100200  0.684800  1.0  0.1052
  H  H56  1  0.563800  0.025300  0.797200  1.0  0.091
  H  H57  1  0.075800  0.360600  0.671900  1.0  0.0745
  H  H58  1  0.957600  0.272100  0.745900  1.0  0.1248
  H  H59  1  0.763200  0.207800  0.515500  1.0  0.1126
  H  H60  1  0.891300  0.295300  0.447400  1.0  0.0788
  H  H61  1  0.472500  0.754200  0.067200  1.0  0.1036
  H  H62  1  0.345600  0.672700  0.146700  1.0  0.1092
  H  H63  1  0.642600  0.674300  0.344500  1.0  0.1052
  H  H64  1  0.769500  0.756300  0.265500  1.0  0.0928
  H  H65  1  0.152300  0.488600  0.290400  1.0  0.0769
  H  H66  1  0.269800  0.569400  0.206300  1.0  0.126
  H  H67  1  0.494200  0.635000  0.426200  1.0  0.1136
  H  H68  1  0.370600  0.552900  0.502800  1.0  0.066
  C  C69  1  0.821600  0.477840  0.369120  1.0  0.6635
  C  C70  1  0.753300  0.427880  0.296500  1.0  -0.1568
  C  C71  1  0.827500  0.372180  0.255700  1.0  -0.0554
  C  C72  1  0.765700  0.328600  0.185900  1.0  0.0394
  C  C73  1  0.626900  0.340300  0.159200  1.0  -0.124
  C  C74  1  0.551400  0.393700  0.201800  1.0  -0.1046
  C  C75  1  0.614300  0.438100  0.269600  1.0  -0.0252
  C  C76  1  0.013300  0.171300  0.139700  1.0  0.1751
  C  C77  1  0.941400  0.224100  0.185000  1.0  -0.2216
  C  C78  1  0.845700  0.271200  0.139800  1.0  0.1159
  C  C79  1  0.827500  0.262200  0.048900  1.0  -0.1992
  C  C80  1  0.904500  0.209200  0.008300  1.0  0.1795
  C  C81  1  0.723600  0.686700  0.605400  1.0  0.6886
  C  C82  1  0.637400  0.738000  0.657100  1.0  -0.1273
  C  C83  1  0.508000  0.762300  0.622700  1.0  -0.0427
  C  C84  1  0.431600  0.811000  0.670900  1.0  -0.0988
  C  C85  1  0.480300  0.835830  0.754000  1.0  0.015
  C  C86  1  0.607900  0.810000  0.788400  1.0  -0.1328
  C  C87  1  0.684700  0.761100  0.740600  1.0  -0.0312
  C  C88  1  0.222100  0.981300  0.818200  1.0  0.1741
  C  C89  1  0.292800  0.932900  0.766800  1.0  -0.2143
  C  C90  1  0.398700  0.887690  0.805900  1.0  0.0975
  C  C91  1  0.425000  0.894300  0.896500  1.0  -0.2036
  C  C92  1  0.349700  0.943700  0.942200  1.0  0.1985
  C  C93  1  0.178400  0.977840  0.130880  1.0  0.6646
  C  C94  1  0.246700  0.927880  0.203500  1.0  -0.156
  C  C95  1  0.172500  0.872180  0.244300  1.0  -0.0559
  C  C96  1  0.234300  0.828600  0.314100  1.0  0.0392
  C  C97  1  0.373100  0.840300  0.340800  1.0  -0.1221
  C  C98  1  0.448600  0.893700  0.298200  1.0  -0.1018
  C  C99  1  0.385700  0.938100  0.230400  1.0  -0.0256
  C  C100  1  0.986700  0.671300  0.360300  1.0  0.1753
  C  C101  1  0.058600  0.724100  0.315000  1.0  -0.2198
  C  C102  1  0.154300  0.771200  0.360200  1.0  0.116
  C  C103  1  0.172500  0.762200  0.451100  1.0  -0.1993
  C  C104  1  0.095500  0.709200  0.491700  1.0  0.1783
  C  C105  1  0.276400  0.186700  0.894600  1.0  0.6861
  C  C106  1  0.362600  0.238000  0.842900  1.0  -0.1293
  C  C107  1  0.492000  0.262300  0.877300  1.0  -0.0425
  C  C108  1  0.568400  0.311000  0.829100  1.0  -0.0986
  C  C109  1  0.519700  0.335830  0.746000  1.0  0.0138
  C  C110  1  0.392100  0.310000  0.711600  1.0  -0.1313
  C  C111  1  0.315300  0.261100  0.759400  1.0  -0.0305
  C  C112  1  0.777900  0.481300  0.681800  1.0  0.1739
  C  C113  1  0.707200  0.432900  0.733200  1.0  -0.2141
  C  C114  1  0.601300  0.387690  0.694100  1.0  0.097
  C  C115  1  0.575000  0.394300  0.603500  1.0  -0.2031
  C  C116  1  0.650300  0.443700  0.557800  1.0  0.1978
  C  C117  1  0.178400  0.522160  0.630880  1.0  0.6645
  C  C118  1  0.246700  0.572120  0.703500  1.0  -0.1568
  C  C119  1  0.172500  0.627820  0.744300  1.0  -0.0561
  C  C120  1  0.234300  0.671400  0.814100  1.0  0.0383
  C  C121  1  0.373100  0.659700  0.840800  1.0  -0.122
  C  C122  1  0.448600  0.606300  0.798200  1.0  -0.1024
  C  C123  1  0.385700  0.561900  0.730400  1.0  -0.0263
  C  C124  1  0.986700  0.828700  0.860300  1.0  0.1747
  C  C125  1  0.058600  0.775900  0.815000  1.0  -0.2196
  C  C126  1  0.154300  0.728800  0.860200  1.0  0.1162
  C  C127  1  0.172500  0.737800  0.951100  1.0  -0.1981
  C  C128  1  0.095500  0.790800  0.991700  1.0  0.1785
  C  C129  1  0.276400  0.313300  0.394600  1.0  0.6867
  C  C130  1  0.362600  0.262000  0.342900  1.0  -0.1293
  C  C131  1  0.492000  0.237700  0.377300  1.0  -0.042
  C  C132  1  0.568400  0.189000  0.329100  1.0  -0.0982
  C  C133  1  0.519700  0.164170  0.246000  1.0  0.0134
  C  C134  1  0.392100  0.190000  0.211600  1.0  -0.1315
  C  C135  1  0.315300  0.238900  0.259400  1.0  -0.0307
  C  C136  1  0.777900  0.018700  0.181800  1.0  0.1743
  C  C137  1  0.707200  0.067100  0.233200  1.0  -0.2146
  C  C138  1  0.601300  0.112310  0.194100  1.0  0.0972
  C  C139  1  0.575000  0.105700  0.103500  1.0  -0.2029
  C  C140  1  0.650300  0.056300  0.057800  1.0  0.1979
  C  C141  1  0.821600  0.022160  0.869120  1.0  0.6636
  C  C142  1  0.753300  0.072120  0.796500  1.0  -0.1573
  C  C143  1  0.827500  0.127820  0.755700  1.0  -0.0561
  C  C144  1  0.765700  0.171400  0.685900  1.0  0.0389
  C  C145  1  0.626900  0.159700  0.659200  1.0  -0.1228
  C  C146  1  0.551400  0.106300  0.701800  1.0  -0.1046
  C  C147  1  0.614300  0.061900  0.769600  1.0  -0.025
  C  C148  1  0.013300  0.328700  0.639700  1.0  0.1746
  C  C149  1  0.941400  0.275900  0.685000  1.0  -0.2212
  C  C150  1  0.845700  0.228800  0.639800  1.0  0.1159
  C  C151  1  0.827500  0.237800  0.548900  1.0  -0.1985
  C  C152  1  0.904500  0.290800  0.508300  1.0  0.1797
  C  C153  1  0.723600  0.813300  0.105400  1.0  0.6888
  C  C154  1  0.637400  0.762000  0.157100  1.0  -0.1273
  C  C155  1  0.508000  0.737700  0.122700  1.0  -0.0424
  C  C156  1  0.431600  0.689000  0.170900  1.0  -0.0984
  C  C157  1  0.480300  0.664170  0.254000  1.0  0.0141
  C  C158  1  0.607900  0.690000  0.288400  1.0  -0.1328
  C  C159  1  0.684700  0.738900  0.240600  1.0  -0.0314
  C  C160  1  0.222100  0.518700  0.318200  1.0  0.1744
  C  C161  1  0.292800  0.567100  0.266800  1.0  -0.2131
  C  C162  1  0.398700  0.612310  0.305900  1.0  0.0977
  C  C163  1  0.425000  0.605700  0.396500  1.0  -0.2034
  C  C164  1  0.349700  0.556300  0.442200  1.0  0.1988
  N  N165  1  0.998100  0.163480  0.052890  1.0  -0.3382
  N  N166  1  0.247800  0.987400  0.905100  1.0  -0.3549
  N  N167  1  0.001900  0.663480  0.447110  1.0  -0.3387
  N  N168  1  0.752200  0.487400  0.594900  1.0  -0.3543
  N  N169  1  0.001900  0.836520  0.947110  1.0  -0.3394
  N  N170  1  0.752200  0.012600  0.094900  1.0  -0.3544
  N  N171  1  0.998100  0.336520  0.552890  1.0  -0.338
  N  N172  1  0.247800  0.512600  0.405100  1.0  -0.3543
  O  O173  1  0.753900  0.534520  0.392270  1.0  -0.5923
  O  O174  1  0.678300  0.666850  0.529140  1.0  -0.6404
  O  O175  1  0.838700  0.665480  0.640160  1.0  -0.592
  O  O176  1  0.936800  0.461880  0.402150  1.0  -0.6945
  O  O177  1  0.246100  0.034520  0.107730  1.0  -0.591
  O  O178  1  0.321700  0.166850  0.970860  1.0  -0.6426
  O  O179  1  0.161300  0.165480  0.859840  1.0  -0.5924
  O  O180  1  0.063200  0.961880  0.097850  1.0  -0.6948
  O  O181  1  0.246100  0.465480  0.607730  1.0  -0.5892
  O  O182  1  0.321700  0.333150  0.470860  1.0  -0.6446
  O  O183  1  0.161300  0.334520  0.359840  1.0  -0.5927
  O  O184  1  0.063200  0.538120  0.597850  1.0  -0.6949
  O  O185  1  0.753900  0.965480  0.892270  1.0  -0.5907
  O  O186  1  0.678300  0.833150  0.029140  1.0  -0.6434
  O  O187  1  0.838700  0.834520  0.140160  1.0  -0.5922
  O  O188  1  0.936800  0.038120  0.902150  1.0  -0.6947
