# generated using pymatgen
data_Zn3Fe3P8(HO3)8
_symmetry_space_group_name_H-M   'P 1'
_cell_length_a   14.07200000
_cell_length_b   14.52270000
_cell_length_c   10.44610000
_cell_angle_alpha   90.00000000
_cell_angle_beta   90.00000000
_cell_angle_gamma   90.00000000
_symmetry_Int_Tables_number   1
_chemical_formula_structural   Zn3Fe3P8(HO3)8
_chemical_formula_sum   'Zn6 Fe6 P16 H16 O48'
_cell_volume   2134.80087209
_cell_formula_units_Z   2
loop_
 _symmetry_equiv_pos_site_id
 _symmetry_equiv_pos_as_xyz
  1  'x, y, z'
loop_
 _atom_site_type_symbol
 _atom_site_label
 _atom_site_symmetry_multiplicity
 _atom_site_fract_x
 _atom_site_fract_y
 _atom_site_fract_z
 _atom_site_occupancy
 _atom_site_charge
  Zn  Zn1  1  0.396850  0.329960  0.714860  1.0  1.1402
  Zn  Zn2  1  0.753690  0.039340  0.182150  1.0  1.0861
  Zn  Zn3  1  0.113680  0.348470  0.651620  1.0  1.1506
  Zn  Zn4  1  0.603150  0.670040  0.214860  1.0  1.1409
  Zn  Zn5  1  0.246310  0.960660  0.682150  1.0  1.0859
  Zn  Zn6  1  0.886320  0.651530  0.151620  1.0  1.1511
  Fe  Fe7  1  0.896850  0.170040  0.714860  1.0  1.202
  Fe  Fe8  1  0.746310  0.539340  0.682150  1.0  1.1334
  Fe  Fe9  1  0.613680  0.151530  0.651620  1.0  1.2321
  Fe  Fe10  1  0.103150  0.829960  0.214860  1.0  1.202
  Fe  Fe11  1  0.253690  0.460660  0.182150  1.0  1.1321
  Fe  Fe12  1  0.386320  0.848470  0.151620  1.0  1.2293
  P  P13  1  0.615430  0.368100  0.702010  1.0  1.6613
  P  P14  1  0.898950  0.385370  0.654050  1.0  1.6156
  P  P15  1  0.776570  0.589510  0.397300  1.0  1.5272
  P  P16  1  0.782280  0.138630  0.458750  1.0  1.5401
  P  P17  1  0.384570  0.631900  0.202010  1.0  1.6614
  P  P18  1  0.101050  0.614630  0.154050  1.0  1.6149
  P  P19  1  0.223430  0.410490  0.897300  1.0  1.5278
  P  P20  1  0.217720  0.861370  0.958750  1.0  1.5407
  P  P21  1  0.115430  0.131900  0.702010  1.0  1.6565
  P  P22  1  0.398950  0.114630  0.654050  1.0  1.6162
  P  P23  1  0.276570  0.910490  0.397300  1.0  1.528
  P  P24  1  0.282280  0.361370  0.458750  1.0  1.5406
  P  P25  1  0.884570  0.868100  0.202010  1.0  1.6565
  P  P26  1  0.601050  0.885370  0.154050  1.0  1.615
  P  P27  1  0.723430  0.089510  0.897300  1.0  1.527
  P  P28  1  0.717720  0.638630  0.958750  1.0  1.5403
  H  H29  1  0.680000  0.358000  0.814000  1.0  -0.0702
  H  H30  1  0.762000  0.232000  0.436000  1.0  -0.0928
  H  H31  1  0.837000  0.367000  0.556000  1.0  -0.101
  H  H32  1  0.769000  0.485000  0.383000  1.0  -0.0544
  H  H33  1  0.320000  0.642000  0.314000  1.0  -0.0691
  H  H34  1  0.238000  0.768000  0.936000  1.0  -0.0894
  H  H35  1  0.163000  0.633000  0.056000  1.0  -0.0998
  H  H36  1  0.231000  0.515000  0.883000  1.0  -0.0565
  H  H37  1  0.180000  0.142000  0.814000  1.0  -0.07
  H  H38  1  0.262000  0.268000  0.436000  1.0  -0.0898
  H  H39  1  0.337000  0.133000  0.556000  1.0  -0.1008
  H  H40  1  0.269000  0.015000  0.383000  1.0  -0.0565
  H  H41  1  0.820000  0.858000  0.314000  1.0  -0.0692
  H  H42  1  0.738000  0.732000  0.936000  1.0  -0.0925
  H  H43  1  0.663000  0.867000  0.056000  1.0  -0.1001
  H  H44  1  0.731000  0.985000  0.883000  1.0  -0.0543
  O  O45  1  0.855400  0.464700  0.728100  1.0  -0.7776
  O  O46  1  0.646900  0.452500  0.625700  1.0  -0.7811
  O  O47  1  0.518700  0.385500  0.761700  1.0  -0.7566
  O  O48  1  0.902700  0.301100  0.736600  1.0  -0.832
  O  O49  1  0.698300  0.096000  0.526700  1.0  -0.7548
  O  O50  1  0.618400  0.282600  0.622800  1.0  -0.8238
  O  O51  1  0.873000  0.135700  0.537700  1.0  -0.7799
  O  O52  1  0.686100  0.614000  0.336200  1.0  -0.8312
  O  O53  1  0.995800  0.410900  0.602100  1.0  -0.7939
  O  O54  1  0.780500  0.613800  0.538100  1.0  -0.7516
  O  O55  1  0.803800  0.093900  0.331300  1.0  -0.8365
  O  O56  1  0.865000  0.624000  0.329500  1.0  -0.7743
  O  O57  1  0.144600  0.535300  0.228100  1.0  -0.7787
  O  O58  1  0.353100  0.547500  0.125700  1.0  -0.781
  O  O59  1  0.481300  0.614500  0.261700  1.0  -0.7583
  O  O60  1  0.097300  0.698900  0.236600  1.0  -0.8323
  O  O61  1  0.301700  0.904000  0.026700  1.0  -0.7542
  O  O62  1  0.381600  0.717400  0.122800  1.0  -0.8238
  O  O63  1  0.127000  0.864300  0.037700  1.0  -0.7799
  O  O64  1  0.313900  0.386000  0.836200  1.0  -0.8323
  O  O65  1  0.004200  0.589100  0.102100  1.0  -0.7951
  O  O66  1  0.219500  0.386200  0.038100  1.0  -0.7525
  O  O67  1  0.196200  0.906100  0.831300  1.0  -0.8368
  O  O68  1  0.135000  0.376000  0.829500  1.0  -0.7738
  O  O69  1  0.355400  0.035300  0.728100  1.0  -0.7772
  O  O70  1  0.146900  0.047500  0.625700  1.0  -0.781
  O  O71  1  0.018700  0.114500  0.761700  1.0  -0.7581
  O  O72  1  0.402700  0.198900  0.736600  1.0  -0.8325
  O  O73  1  0.198300  0.404000  0.526700  1.0  -0.7539
  O  O74  1  0.118400  0.217400  0.622800  1.0  -0.8241
  O  O75  1  0.373000  0.364300  0.537700  1.0  -0.7801
  O  O76  1  0.186100  0.886000  0.336200  1.0  -0.8316
  O  O77  1  0.495800  0.089100  0.602100  1.0  -0.7951
  O  O78  1  0.280500  0.886200  0.538100  1.0  -0.7521
  O  O79  1  0.303800  0.406100  0.331300  1.0  -0.8363
  O  O80  1  0.365000  0.876000  0.329500  1.0  -0.7756
  O  O81  1  0.644600  0.964700  0.228100  1.0  -0.7795
  O  O82  1  0.853100  0.952500  0.125700  1.0  -0.7801
  O  O83  1  0.981300  0.885500  0.261700  1.0  -0.7564
  O  O84  1  0.597300  0.801100  0.236600  1.0  -0.8328
  O  O85  1  0.801700  0.596000  0.026700  1.0  -0.7544
  O  O86  1  0.881600  0.782600  0.122800  1.0  -0.824
  O  O87  1  0.627000  0.635700  0.037700  1.0  -0.7798
  O  O88  1  0.813900  0.114000  0.836200  1.0  -0.8329
  O  O89  1  0.504200  0.910900  0.102100  1.0  -0.7961
  O  O90  1  0.719500  0.113800  0.038100  1.0  -0.751
  O  O91  1  0.696200  0.593900  0.831300  1.0  -0.837
  O  O92  1  0.635000  0.124000  0.829500  1.0  -0.7751
