# generated using pymatgen
data_Mn3Zn2P6(HO5)4
_symmetry_space_group_name_H-M   'P 1'
_cell_length_a   33.92900000
_cell_length_b   13.04500000
_cell_length_c   8.97130000
_cell_angle_alpha   90.00000000
_cell_angle_beta   104.37000000
_cell_angle_gamma   90.00000000
_symmetry_Int_Tables_number   1
_chemical_formula_structural   Mn3Zn2P6(HO5)4
_chemical_formula_sum   'Mn12 Zn8 P24 H16 O80'
_cell_volume   3846.50020006
_cell_formula_units_Z   4
loop_
 _symmetry_equiv_pos_site_id
 _symmetry_equiv_pos_as_xyz
  1  'x, y, z'
loop_
 _atom_site_type_symbol
 _atom_site_label
 _atom_site_symmetry_multiplicity
 _atom_site_fract_x
 _atom_site_fract_y
 _atom_site_fract_z
 _atom_site_occupancy
 _atom_site_charge
  Mn  Mn1  1  0.147700  0.104550  0.660620  1.0  1.144
  Mn  Mn2  1  0.228990  0.857170  0.627070  1.0  1.1159
  Mn  Mn3  1  0.647700  0.604550  0.660620  1.0  1.144
  Mn  Mn4  1  0.728990  0.357170  0.627070  1.0  1.1159
  Mn  Mn5  1  0.852300  0.895450  0.339380  1.0  1.1432
  Mn  Mn6  1  0.771010  0.142830  0.372930  1.0  1.1183
  Mn  Mn7  1  0.352300  0.395450  0.339380  1.0  1.1432
  Mn  Mn8  1  0.271010  0.642830  0.372930  1.0  1.1183
  Mn  Mn9  1  0.000000  0.012790  0.250000  1.0  1.1941
  Mn  Mn10  1  0.500000  0.512790  0.250000  1.0  1.1941
  Mn  Mn11  1  0.000000  0.987210  0.750000  1.0  1.1939
  Mn  Mn12  1  0.500000  0.487210  0.750000  1.0  1.1939
  Zn  Zn13  1  0.852300  0.104550  0.839380  1.0  1.1596
  Zn  Zn14  1  0.771010  0.857170  0.872930  1.0  1.168
  Zn  Zn15  1  0.352300  0.604550  0.839380  1.0  1.1596
  Zn  Zn16  1  0.271010  0.357170  0.872930  1.0  1.168
  Zn  Zn17  1  0.147700  0.895450  0.160620  1.0  1.1591
  Zn  Zn18  1  0.228990  0.142830  0.127070  1.0  1.1679
  Zn  Zn19  1  0.647700  0.395450  0.160620  1.0  1.1591
  Zn  Zn20  1  0.728990  0.642830  0.127070  1.0  1.1679
  P  P21  1  0.051160  0.118970  0.566300  1.0  1.4699
  P  P22  1  0.195050  0.948800  0.904300  1.0  1.539
  P  P23  1  0.180090  0.706500  0.384300  1.0  1.5484
  P  P24  1  0.551160  0.618970  0.566300  1.0  1.4699
  P  P25  1  0.695050  0.448800  0.904300  1.0  1.539
  P  P26  1  0.680090  0.206500  0.384300  1.0  1.5484
  P  P27  1  0.948840  0.118970  0.933700  1.0  1.4684
  P  P28  1  0.804950  0.948800  0.595700  1.0  1.5389
  P  P29  1  0.819910  0.706500  0.115700  1.0  1.5496
  P  P30  1  0.448840  0.618970  0.933700  1.0  1.4684
  P  P31  1  0.304950  0.448800  0.595700  1.0  1.5389
  P  P32  1  0.319910  0.206500  0.115700  1.0  1.5496
  P  P33  1  0.948840  0.881030  0.433700  1.0  1.4711
  P  P34  1  0.804950  0.051200  0.095700  1.0  1.5381
  P  P35  1  0.819910  0.293500  0.615700  1.0  1.5211
  P  P36  1  0.448840  0.381030  0.433700  1.0  1.4711
  P  P37  1  0.304950  0.551200  0.095700  1.0  1.5381
  P  P38  1  0.319910  0.793500  0.615700  1.0  1.5211
  P  P39  1  0.051160  0.881030  0.066300  1.0  1.4727
  P  P40  1  0.195050  0.051200  0.404300  1.0  1.539
  P  P41  1  0.180090  0.293500  0.884300  1.0  1.5194
  P  P42  1  0.551160  0.381030  0.066300  1.0  1.4727
  P  P43  1  0.695050  0.551200  0.404300  1.0  1.539
  P  P44  1  0.680090  0.793500  0.884300  1.0  1.5194
  H  H45  1  0.046500  0.227200  0.563000  1.0  -0.0091
  H  H46  1  0.161100  0.611700  0.401000  1.0  -0.0042
  H  H47  1  0.546500  0.727200  0.563000  1.0  -0.0091
  H  H48  1  0.661100  0.111700  0.401000  1.0  -0.0042
  H  H49  1  0.953500  0.227200  0.937000  1.0  -0.0089
  H  H50  1  0.838900  0.611700  0.099000  1.0  -0.0036
  H  H51  1  0.453500  0.727200  0.937000  1.0  -0.0089
  H  H52  1  0.338900  0.111700  0.099000  1.0  -0.0036
  H  H53  1  0.953500  0.772800  0.437000  1.0  -0.0094
  H  H54  1  0.838900  0.388300  0.599000  1.0  -0.0058
  H  H55  1  0.453500  0.272800  0.437000  1.0  -0.0094
  H  H56  1  0.338900  0.888300  0.599000  1.0  -0.0058
  H  H57  1  0.046500  0.772800  0.063000  1.0  -0.0098
  H  H58  1  0.161100  0.388300  0.901000  1.0  -0.0061
  H  H59  1  0.546500  0.272800  0.063000  1.0  -0.0098
  H  H60  1  0.661100  0.888300  0.901000  1.0  -0.0061
  O  O61  1  0.192200  0.737400  0.547900  1.0  -0.6912
  O  O62  1  0.224560  0.871100  0.832800  1.0  -0.7381
  O  O63  1  0.218600  0.047000  0.971200  1.0  -0.8733
  O  O64  1  0.156830  0.979400  0.777700  1.0  -0.762
  O  O65  1  0.183980  0.887800  0.030700  1.0  -0.793
  O  O66  1  0.093160  0.090000  0.538800  1.0  -0.7252
  O  O67  1  0.016170  0.105200  0.424800  1.0  -0.7207
  O  O68  1  0.146200  0.774500  0.290400  1.0  -0.6937
  O  O69  1  0.044200  0.070300  0.711800  1.0  -0.6952
  O  O70  1  0.213900  0.690300  0.307500  1.0  -0.7304
  O  O71  1  0.692200  0.237400  0.547900  1.0  -0.6912
  O  O72  1  0.724560  0.371100  0.832800  1.0  -0.7381
  O  O73  1  0.718600  0.547000  0.971200  1.0  -0.8733
  O  O74  1  0.656830  0.479400  0.777700  1.0  -0.762
  O  O75  1  0.683980  0.387800  0.030700  1.0  -0.793
  O  O76  1  0.593160  0.590000  0.538800  1.0  -0.7252
  O  O77  1  0.516170  0.605200  0.424800  1.0  -0.7207
  O  O78  1  0.646200  0.274500  0.290400  1.0  -0.6937
  O  O79  1  0.544200  0.570300  0.711800  1.0  -0.6952
  O  O80  1  0.713900  0.190300  0.307500  1.0  -0.7304
  O  O81  1  0.807800  0.737400  0.952100  1.0  -0.6918
  O  O82  1  0.775440  0.871100  0.667200  1.0  -0.7366
  O  O83  1  0.781400  0.047000  0.528800  1.0  -0.8768
  O  O84  1  0.843170  0.979400  0.722300  1.0  -0.7518
  O  O85  1  0.816020  0.887800  0.469300  1.0  -0.7908
  O  O86  1  0.906840  0.090000  0.961200  1.0  -0.724
  O  O87  1  0.983830  0.105200  0.075200  1.0  -0.7209
  O  O88  1  0.853800  0.774500  0.209600  1.0  -0.6962
  O  O89  1  0.955800  0.070300  0.788200  1.0  -0.695
  O  O90  1  0.786100  0.690300  0.192500  1.0  -0.733
  O  O91  1  0.307800  0.237400  0.952100  1.0  -0.6918
  O  O92  1  0.275440  0.371100  0.667200  1.0  -0.7366
  O  O93  1  0.281400  0.547000  0.528800  1.0  -0.8768
  O  O94  1  0.343170  0.479400  0.722300  1.0  -0.7518
  O  O95  1  0.316020  0.387800  0.469300  1.0  -0.7908
  O  O96  1  0.406840  0.590000  0.961200  1.0  -0.724
  O  O97  1  0.483830  0.605200  0.075200  1.0  -0.7209
  O  O98  1  0.353800  0.274500  0.209600  1.0  -0.6962
  O  O99  1  0.455800  0.570300  0.788200  1.0  -0.695
  O  O100  1  0.286100  0.190300  0.192500  1.0  -0.733
  O  O101  1  0.807800  0.262600  0.452100  1.0  -0.6926
  O  O102  1  0.775440  0.128900  0.167200  1.0  -0.7376
  O  O103  1  0.781400  0.953000  0.028800  1.0  -0.8743
  O  O104  1  0.843170  0.020600  0.222300  1.0  -0.7627
  O  O105  1  0.816020  0.112200  0.969300  1.0  -0.7934
  O  O106  1  0.906840  0.910000  0.461200  1.0  -0.7268
  O  O107  1  0.983830  0.894800  0.575200  1.0  -0.7199
  O  O108  1  0.853800  0.225500  0.709600  1.0  -0.6966
  O  O109  1  0.955800  0.929700  0.288200  1.0  -0.6951
  O  O110  1  0.786100  0.309700  0.692500  1.0  -0.7332
  O  O111  1  0.307800  0.762600  0.452100  1.0  -0.6926
  O  O112  1  0.275440  0.628900  0.167200  1.0  -0.7376
  O  O113  1  0.281400  0.453000  0.028800  1.0  -0.8743
  O  O114  1  0.343170  0.520600  0.222300  1.0  -0.7627
  O  O115  1  0.316020  0.612200  0.969300  1.0  -0.7934
  O  O116  1  0.406840  0.410000  0.461200  1.0  -0.7268
  O  O117  1  0.483830  0.394800  0.575200  1.0  -0.7199
  O  O118  1  0.353800  0.725500  0.709600  1.0  -0.6966
  O  O119  1  0.455800  0.429700  0.288200  1.0  -0.6951
  O  O120  1  0.286100  0.809700  0.692500  1.0  -0.7332
  O  O121  1  0.192200  0.262600  0.047900  1.0  -0.6915
  O  O122  1  0.224560  0.128900  0.332800  1.0  -0.7345
  O  O123  1  0.218600  0.953000  0.471200  1.0  -0.8771
  O  O124  1  0.156830  0.020600  0.277700  1.0  -0.7514
  O  O125  1  0.183980  0.112200  0.530700  1.0  -0.7923
  O  O126  1  0.093160  0.910000  0.038800  1.0  -0.7223
  O  O127  1  0.016170  0.894800  0.924800  1.0  -0.7202
  O  O128  1  0.146200  0.225500  0.790400  1.0  -0.6938
  O  O129  1  0.044200  0.929700  0.211800  1.0  -0.6951
  O  O130  1  0.213900  0.309700  0.807500  1.0  -0.7324
  O  O131  1  0.692200  0.762600  0.047900  1.0  -0.6915
  O  O132  1  0.724560  0.628900  0.332800  1.0  -0.7345
  O  O133  1  0.718600  0.453000  0.471200  1.0  -0.8771
  O  O134  1  0.656830  0.520600  0.277700  1.0  -0.7514
  O  O135  1  0.683980  0.612200  0.530700  1.0  -0.7923
  O  O136  1  0.593160  0.410000  0.038800  1.0  -0.7223
  O  O137  1  0.516170  0.394800  0.924800  1.0  -0.7202
  O  O138  1  0.646200  0.725500  0.790400  1.0  -0.6938
  O  O139  1  0.544200  0.429700  0.211800  1.0  -0.6951
  O  O140  1  0.713900  0.809700  0.807500  1.0  -0.7324
