# generated using pymatgen
data_Fe3H12C24O13
_symmetry_space_group_name_H-M   'P 1'
_cell_length_a   19.21080000
_cell_length_b   19.21080000
_cell_length_c   19.21080000
_cell_angle_alpha   90.00000000
_cell_angle_beta   90.00000000
_cell_angle_gamma   90.00000000
_symmetry_Int_Tables_number   1
_chemical_formula_structural   Fe3H12C24O13
_chemical_formula_sum   'Fe24 H96 C192 O104'
_cell_volume   7089.83865572
_cell_formula_units_Z   8
loop_
 _symmetry_equiv_pos_site_id
 _symmetry_equiv_pos_as_xyz
  1  'x, y, z'
loop_
 _atom_site_type_symbol
 _atom_site_label
 _atom_site_symmetry_multiplicity
 _atom_site_fract_x
 _atom_site_fract_y
 _atom_site_fract_z
 _atom_site_occupancy
 _atom_site_charge
  Fe  Fe1  1  0.859550  0.257380  0.107400  1.0  1.174
  Fe  Fe2  1  0.640450  0.742620  0.607400  1.0  1.1783
  Fe  Fe3  1  0.140450  0.757380  0.392600  1.0  1.1747
  Fe  Fe4  1  0.359550  0.242620  0.892600  1.0  1.1734
  Fe  Fe5  1  0.107400  0.859550  0.257380  1.0  1.1758
  Fe  Fe6  1  0.607400  0.640450  0.742620  1.0  1.1735
  Fe  Fe7  1  0.392600  0.140450  0.757380  1.0  1.1736
  Fe  Fe8  1  0.892600  0.359550  0.242620  1.0  1.1726
  Fe  Fe9  1  0.257380  0.107400  0.859550  1.0  1.1747
  Fe  Fe10  1  0.742620  0.607400  0.640450  1.0  1.1737
  Fe  Fe11  1  0.757380  0.392600  0.140450  1.0  1.1773
  Fe  Fe12  1  0.242620  0.892600  0.359550  1.0  1.1749
  Fe  Fe13  1  0.140450  0.742620  0.892600  1.0  1.1746
  Fe  Fe14  1  0.359550  0.257380  0.392600  1.0  1.1725
  Fe  Fe15  1  0.859550  0.242620  0.607400  1.0  1.1761
  Fe  Fe16  1  0.640450  0.757380  0.107400  1.0  1.177
  Fe  Fe17  1  0.892600  0.140450  0.742620  1.0  1.1725
  Fe  Fe18  1  0.392600  0.359550  0.257380  1.0  1.174
  Fe  Fe19  1  0.607400  0.859550  0.242620  1.0  1.1733
  Fe  Fe20  1  0.107400  0.640450  0.757380  1.0  1.1755
  Fe  Fe21  1  0.742620  0.892600  0.140450  1.0  1.1762
  Fe  Fe22  1  0.257380  0.392600  0.359550  1.0  1.1754
  Fe  Fe23  1  0.242620  0.607400  0.859550  1.0  1.173
  Fe  Fe24  1  0.757380  0.107400  0.640450  1.0  1.1761
  H  H25  1  0.742400  0.480900  0.810900  1.0  0.106
  H  H26  1  0.746600  0.457700  0.928500  1.0  0.1353
  H  H27  1  0.870000  0.293200  0.890500  1.0  0.1195
  H  H28  1  0.801900  0.411900  0.732500  1.0  0.1204
  H  H29  1  0.757600  0.519100  0.310900  1.0  0.1062
  H  H30  1  0.753400  0.542300  0.428500  1.0  0.1348
  H  H31  1  0.630000  0.706800  0.390500  1.0  0.1198
  H  H32  1  0.698100  0.588100  0.232500  1.0  0.1204
  H  H33  1  0.257600  0.980900  0.689100  1.0  0.1059
  H  H34  1  0.253400  0.957700  0.571500  1.0  0.135
  H  H35  1  0.130000  0.793200  0.609500  1.0  0.1194
  H  H36  1  0.198100  0.911900  0.767500  1.0  0.1202
  H  H37  1  0.242400  0.019100  0.189100  1.0  0.106
  H  H38  1  0.246600  0.042300  0.071500  1.0  0.1344
  H  H39  1  0.370000  0.206800  0.109500  1.0  0.1201
  H  H40  1  0.301900  0.088100  0.267500  1.0  0.1198
  H  H41  1  0.810900  0.742400  0.480900  1.0  0.1058
  H  H42  1  0.928500  0.746600  0.457700  1.0  0.1343
  H  H43  1  0.890500  0.870000  0.293200  1.0  0.1212
  H  H44  1  0.732500  0.801900  0.411900  1.0  0.1206
  H  H45  1  0.310900  0.757600  0.519100  1.0  0.1052
  H  H46  1  0.428500  0.753400  0.542300  1.0  0.1343
  H  H47  1  0.390500  0.630000  0.706800  1.0  0.1215
  H  H48  1  0.232500  0.698100  0.588100  1.0  0.1205
  H  H49  1  0.689100  0.257600  0.980900  1.0  0.1053
  H  H50  1  0.571500  0.253400  0.957700  1.0  0.1346
  H  H51  1  0.609500  0.130000  0.793200  1.0  0.1213
  H  H52  1  0.767500  0.198100  0.911900  1.0  0.1205
  H  H53  1  0.189100  0.242400  0.019100  1.0  0.1051
  H  H54  1  0.071500  0.246600  0.042300  1.0  0.134
  H  H55  1  0.109500  0.370000  0.206800  1.0  0.1217
  H  H56  1  0.267500  0.301900  0.088100  1.0  0.1204
  H  H57  1  0.480900  0.810900  0.742400  1.0  0.1049
  H  H58  1  0.457700  0.928500  0.746600  1.0  0.1344
  H  H59  1  0.293200  0.890500  0.870000  1.0  0.1202
  H  H60  1  0.411900  0.732500  0.801900  1.0  0.1207
  H  H61  1  0.519100  0.310900  0.757600  1.0  0.105
  H  H62  1  0.542300  0.428500  0.753400  1.0  0.1347
  H  H63  1  0.706800  0.390500  0.630000  1.0  0.1204
  H  H64  1  0.588100  0.232500  0.698100  1.0  0.1209
  H  H65  1  0.980900  0.689100  0.257600  1.0  0.1052
  H  H66  1  0.957700  0.571500  0.253400  1.0  0.1343
  H  H67  1  0.793200  0.609500  0.130000  1.0  0.1202
  H  H68  1  0.911900  0.767500  0.198100  1.0  0.1207
  H  H69  1  0.019100  0.189100  0.242400  1.0  0.1048
  H  H70  1  0.042300  0.071500  0.246600  1.0  0.1342
  H  H71  1  0.206800  0.109500  0.370000  1.0  0.1207
  H  H72  1  0.088100  0.267500  0.301900  1.0  0.1206
  H  H73  1  0.257600  0.519100  0.189100  1.0  0.106
  H  H74  1  0.253400  0.542300  0.071500  1.0  0.1344
  H  H75  1  0.130000  0.706800  0.109500  1.0  0.1202
  H  H76  1  0.198100  0.588100  0.267500  1.0  0.1202
  H  H77  1  0.242400  0.480900  0.689100  1.0  0.1059
  H  H78  1  0.246600  0.457700  0.571500  1.0  0.1352
  H  H79  1  0.370000  0.293200  0.609500  1.0  0.1197
  H  H80  1  0.301900  0.411900  0.767500  1.0  0.12
  H  H81  1  0.742400  0.019100  0.310900  1.0  0.1064
  H  H82  1  0.746600  0.042300  0.428500  1.0  0.135
  H  H83  1  0.870000  0.206800  0.390500  1.0  0.1196
  H  H84  1  0.801900  0.088100  0.232500  1.0  0.1201
  H  H85  1  0.757600  0.980900  0.810900  1.0  0.106
  H  H86  1  0.753400  0.957700  0.928500  1.0  0.135
  H  H87  1  0.630000  0.793200  0.890500  1.0  0.1195
  H  H88  1  0.698100  0.911900  0.732500  1.0  0.1204
  H  H89  1  0.189100  0.257600  0.519100  1.0  0.105
  H  H90  1  0.071500  0.253400  0.542300  1.0  0.1344
  H  H91  1  0.109500  0.130000  0.706800  1.0  0.1217
  H  H92  1  0.267500  0.198100  0.588100  1.0  0.1203
  H  H93  1  0.689100  0.242400  0.480900  1.0  0.1058
  H  H94  1  0.571500  0.246600  0.457700  1.0  0.1346
  H  H95  1  0.609500  0.370000  0.293200  1.0  0.1216
  H  H96  1  0.767500  0.301900  0.411900  1.0  0.1204
  H  H97  1  0.310900  0.742400  0.019100  1.0  0.1053
  H  H98  1  0.428500  0.746600  0.042300  1.0  0.134
  H  H99  1  0.390500  0.870000  0.206800  1.0  0.1214
  H  H100  1  0.232500  0.801900  0.088100  1.0  0.121
  H  H101  1  0.810900  0.757600  0.980900  1.0  0.1053
  H  H102  1  0.928500  0.753400  0.957700  1.0  0.1344
  H  H103  1  0.890500  0.630000  0.793200  1.0  0.1211
  H  H104  1  0.732500  0.698100  0.911900  1.0  0.1205
  H  H105  1  0.519100  0.189100  0.257600  1.0  0.1053
  H  H106  1  0.542300  0.071500  0.253400  1.0  0.1344
  H  H107  1  0.706800  0.109500  0.130000  1.0  0.1203
  H  H108  1  0.588100  0.267500  0.198100  1.0  0.1209
  H  H109  1  0.480900  0.689100  0.242400  1.0  0.1048
  H  H110  1  0.457700  0.571500  0.246600  1.0  0.1342
  H  H111  1  0.293200  0.609500  0.370000  1.0  0.1202
  H  H112  1  0.411900  0.767500  0.301900  1.0  0.1205
  H  H113  1  0.019100  0.310900  0.742400  1.0  0.1052
  H  H114  1  0.042300  0.428500  0.746600  1.0  0.1347
  H  H115  1  0.206800  0.390500  0.870000  1.0  0.1203
  H  H116  1  0.088100  0.232500  0.801900  1.0  0.1208
  H  H117  1  0.980900  0.810900  0.757600  1.0  0.1049
  H  H118  1  0.957700  0.928500  0.753400  1.0  0.1344
  H  H119  1  0.793200  0.890500  0.630000  1.0  0.1205
  H  H120  1  0.911900  0.732500  0.698100  1.0  0.1209
  C  C121  1  0.768100  0.443100  0.826900  1.0  -0.0795
  C  C122  1  0.770600  0.429600  0.897200  1.0  -0.0318
  C  C123  1  0.809700  0.373400  0.921000  1.0  -0.134
  C  C124  1  0.844100  0.330800  0.874400  1.0  0.0011
  C  C125  1  0.839900  0.344100  0.803300  1.0  -0.1343
  C  C126  1  0.803100  0.401500  0.779800  1.0  -0.0398
  C  C127  1  0.811700  0.357000  0.997100  1.0  0.7584
  C  C128  1  0.871000  0.293800  0.753300  1.0  0.7351
  C  C129  1  0.731900  0.556900  0.326900  1.0  -0.0789
  C  C130  1  0.729400  0.570400  0.397200  1.0  -0.0322
  C  C131  1  0.690300  0.626600  0.421000  1.0  -0.1329
  C  C132  1  0.655900  0.669200  0.374400  1.0  0.002
  C  C133  1  0.660100  0.655900  0.303300  1.0  -0.1359
  C  C134  1  0.696900  0.598500  0.279800  1.0  -0.0393
  C  C135  1  0.688300  0.643000  0.497100  1.0  0.7591
  C  C136  1  0.629000  0.706200  0.253300  1.0  0.7363
  C  C137  1  0.231900  0.943100  0.673100  1.0  -0.0786
  C  C138  1  0.229400  0.929600  0.602800  1.0  -0.032
  C  C139  1  0.190300  0.873400  0.579000  1.0  -0.135
  C  C140  1  0.155900  0.830800  0.625600  1.0  0.0026
  C  C141  1  0.160100  0.844100  0.696700  1.0  -0.1353
  C  C142  1  0.196900  0.901500  0.720200  1.0  -0.04
  C  C143  1  0.188300  0.857000  0.502900  1.0  0.7594
  C  C144  1  0.129000  0.793800  0.746700  1.0  0.7356
  C  C145  1  0.268100  0.056900  0.173100  1.0  -0.0795
  C  C146  1  0.270600  0.070400  0.102800  1.0  -0.0331
  C  C147  1  0.309700  0.126600  0.079000  1.0  -0.1333
  C  C148  1  0.344100  0.169200  0.125600  1.0  0.0004
  C  C149  1  0.339900  0.155900  0.196700  1.0  -0.1347
  C  C150  1  0.303100  0.098500  0.220200  1.0  -0.0413
  C  C151  1  0.311700  0.143000  0.002900  1.0  0.7583
  C  C152  1  0.371000  0.206200  0.246700  1.0  0.7355
  C  C153  1  0.826900  0.768100  0.443100  1.0  -0.0835
  C  C154  1  0.897200  0.770600  0.429600  1.0  -0.034
  C  C155  1  0.921000  0.809700  0.373400  1.0  -0.132
  C  C156  1  0.874400  0.844100  0.330800  1.0  -0.0021
  C  C157  1  0.803300  0.839900  0.344100  1.0  -0.1315
  C  C158  1  0.779800  0.803100  0.401500  1.0  -0.0411
  C  C159  1  0.997100  0.811700  0.357000  1.0  0.7544
  C  C160  1  0.753300  0.871000  0.293800  1.0  0.7343
  C  C161  1  0.326900  0.731900  0.556900  1.0  -0.0825
  C  C162  1  0.397200  0.729400  0.570400  1.0  -0.0362
  C  C163  1  0.421000  0.690300  0.626600  1.0  -0.1321
  C  C164  1  0.374400  0.655900  0.669200  1.0  -0.0034
  C  C165  1  0.303300  0.660100  0.655900  1.0  -0.134
  C  C166  1  0.279800  0.696900  0.598500  1.0  -0.0418
  C  C167  1  0.497100  0.688300  0.643000  1.0  0.755
  C  C168  1  0.253300  0.629000  0.706200  1.0  0.7334
  C  C169  1  0.673100  0.231900  0.943100  1.0  -0.082
  C  C170  1  0.602800  0.229400  0.929600  1.0  -0.034
  C  C171  1  0.579000  0.190300  0.873400  1.0  -0.1335
  C  C172  1  0.625600  0.155900  0.830800  1.0  -0.0026
  C  C173  1  0.696700  0.160100  0.844100  1.0  -0.1328
  C  C174  1  0.720200  0.196900  0.901500  1.0  -0.0416
  C  C175  1  0.502900  0.188300  0.857000  1.0  0.7552
  C  C176  1  0.746700  0.129000  0.793800  1.0  0.7345
  C  C177  1  0.173100  0.268100  0.056900  1.0  -0.0823
  C  C178  1  0.102800  0.270600  0.070400  1.0  -0.0338
  C  C179  1  0.079000  0.309700  0.126600  1.0  -0.1329
  C  C180  1  0.125600  0.344100  0.169200  1.0  -0.0017
  C  C181  1  0.196700  0.339900  0.155900  1.0  -0.1331
  C  C182  1  0.220200  0.303100  0.098500  1.0  -0.0415
  C  C183  1  0.002900  0.311700  0.143000  1.0  0.7562
  C  C184  1  0.246700  0.371000  0.206200  1.0  0.7342
  C  C185  1  0.443100  0.826900  0.768100  1.0  -0.0794
  C  C186  1  0.429600  0.897200  0.770600  1.0  -0.0325
  C  C187  1  0.373400  0.921000  0.809700  1.0  -0.1317
  C  C188  1  0.330800  0.874400  0.844100  1.0  -0.0024
  C  C189  1  0.344100  0.803300  0.839900  1.0  -0.1343
  C  C190  1  0.401500  0.779800  0.803100  1.0  -0.04
  C  C191  1  0.357000  0.997100  0.811700  1.0  0.7552
  C  C192  1  0.293800  0.753300  0.871000  1.0  0.7316
  C  C193  1  0.556900  0.326900  0.731900  1.0  -0.0806
  C  C194  1  0.570400  0.397200  0.729400  1.0  -0.032
  C  C195  1  0.626600  0.421000  0.690300  1.0  -0.1318
  C  C196  1  0.669200  0.374400  0.655900  1.0  -0.0007
  C  C197  1  0.655900  0.303300  0.660100  1.0  -0.1366
  C  C198  1  0.598500  0.279800  0.696900  1.0  -0.0415
  C  C199  1  0.643000  0.497100  0.688300  1.0  0.7575
  C  C200  1  0.706200  0.253300  0.629000  1.0  0.732
  C  C201  1  0.943100  0.673100  0.231900  1.0  -0.0795
  C  C202  1  0.929600  0.602800  0.229400  1.0  -0.033
  C  C203  1  0.873400  0.579000  0.190300  1.0  -0.1329
  C  C204  1  0.830800  0.625600  0.155900  1.0  -0.0009
  C  C205  1  0.844100  0.696700  0.160100  1.0  -0.1343
  C  C206  1  0.901500  0.720200  0.196900  1.0  -0.0415
  C  C207  1  0.857000  0.502900  0.188300  1.0  0.7568
  C  C208  1  0.793800  0.746700  0.129000  1.0  0.7324
  C  C209  1  0.056900  0.173100  0.268100  1.0  -0.0808
  C  C210  1  0.070400  0.102800  0.270600  1.0  -0.0325
  C  C211  1  0.126600  0.079000  0.309700  1.0  -0.1315
  C  C212  1  0.169200  0.125600  0.344100  1.0  -0.0021
  C  C213  1  0.155900  0.196700  0.339900  1.0  -0.1358
  C  C214  1  0.098500  0.220200  0.303100  1.0  -0.0407
  C  C215  1  0.143000  0.002900  0.311700  1.0  0.7562
  C  C216  1  0.206200  0.246700  0.371000  1.0  0.7315
  C  C217  1  0.231900  0.556900  0.173100  1.0  -0.0789
  C  C218  1  0.229400  0.570400  0.102800  1.0  -0.0336
  C  C219  1  0.190300  0.626600  0.079000  1.0  -0.135
  C  C220  1  0.155900  0.669200  0.125600  1.0  0.0014
  C  C221  1  0.160100  0.655900  0.196700  1.0  -0.1354
  C  C222  1  0.196900  0.598500  0.220200  1.0  -0.041
  C  C223  1  0.188300  0.643000  0.002900  1.0  0.7594
  C  C224  1  0.129000  0.706200  0.246700  1.0  0.7359
  C  C225  1  0.268100  0.443100  0.673100  1.0  -0.0795
  C  C226  1  0.270600  0.429600  0.602800  1.0  -0.032
  C  C227  1  0.309700  0.373400  0.579000  1.0  -0.1329
  C  C228  1  0.344100  0.330800  0.625600  1.0  0.0011
  C  C229  1  0.339900  0.344100  0.696700  1.0  -0.1346
  C  C230  1  0.303100  0.401500  0.720200  1.0  -0.0406
  C  C231  1  0.311700  0.357000  0.502900  1.0  0.7584
  C  C232  1  0.371000  0.293800  0.746700  1.0  0.7351
  C  C233  1  0.768100  0.056900  0.326900  1.0  -0.0797
  C  C234  1  0.770600  0.070400  0.397200  1.0  -0.0322
  C  C235  1  0.809700  0.126600  0.421000  1.0  -0.1331
  C  C236  1  0.844100  0.169200  0.374400  1.0  0.0009
  C  C237  1  0.839900  0.155900  0.303300  1.0  -0.1346
  C  C238  1  0.803100  0.098500  0.279800  1.0  -0.0396
  C  C239  1  0.811700  0.143000  0.497100  1.0  0.7588
  C  C240  1  0.871000  0.206200  0.253300  1.0  0.7355
  C  C241  1  0.731900  0.943100  0.826900  1.0  -0.0784
  C  C242  1  0.729400  0.929600  0.897200  1.0  -0.0309
  C  C243  1  0.690300  0.873400  0.921000  1.0  -0.1343
  C  C244  1  0.655900  0.830800  0.874400  1.0  0.0027
  C  C245  1  0.660100  0.844100  0.803300  1.0  -0.1355
  C  C246  1  0.696900  0.901500  0.779800  1.0  -0.0391
  C  C247  1  0.688300  0.857000  0.997100  1.0  0.7586
  C  C248  1  0.629000  0.793800  0.753300  1.0  0.736
  C  C249  1  0.173100  0.231900  0.556900  1.0  -0.0814
  C  C250  1  0.102800  0.229400  0.570400  1.0  -0.0339
  C  C251  1  0.079000  0.190300  0.626600  1.0  -0.1338
  C  C252  1  0.125600  0.155900  0.669200  1.0  -0.0024
  C  C253  1  0.196700  0.160100  0.655900  1.0  -0.1339
  C  C254  1  0.220200  0.196900  0.598500  1.0  -0.0422
  C  C255  1  0.002900  0.188300  0.643000  1.0  0.7567
  C  C256  1  0.246700  0.129000  0.706200  1.0  0.7341
  C  C257  1  0.673100  0.268100  0.443100  1.0  -0.0828
  C  C258  1  0.602800  0.270600  0.429600  1.0  -0.0336
  C  C259  1  0.579000  0.309700  0.373400  1.0  -0.1334
  C  C260  1  0.625600  0.344100  0.330800  1.0  -0.0016
  C  C261  1  0.696700  0.339900  0.344100  1.0  -0.1319
  C  C262  1  0.720200  0.303100  0.401500  1.0  -0.0412
  C  C263  1  0.502900  0.311700  0.357000  1.0  0.755
  C  C264  1  0.746700  0.371000  0.293800  1.0  0.7347
  C  C265  1  0.326900  0.768100  0.056900  1.0  -0.0833
  C  C266  1  0.397200  0.770600  0.070400  1.0  -0.0359
  C  C267  1  0.421000  0.809700  0.126600  1.0  -0.1311
  C  C268  1  0.374400  0.844100  0.169200  1.0  -0.0024
  C  C269  1  0.303300  0.839900  0.155900  1.0  -0.1328
  C  C270  1  0.279800  0.803100  0.098500  1.0  -0.0413
  C  C271  1  0.497100  0.811700  0.143000  1.0  0.7549
  C  C272  1  0.253300  0.871000  0.206200  1.0  0.7335
  C  C273  1  0.826900  0.731900  0.943100  1.0  -0.0826
  C  C274  1  0.897200  0.729400  0.929600  1.0  -0.0344
  C  C275  1  0.921000  0.690300  0.873400  1.0  -0.1321
  C  C276  1  0.874400  0.655900  0.830800  1.0  -0.0034
  C  C277  1  0.803300  0.660100  0.844100  1.0  -0.1328
  C  C278  1  0.779800  0.696900  0.901500  1.0  -0.0409
  C  C279  1  0.997100  0.688300  0.857000  1.0  0.7544
  C  C280  1  0.753300  0.629000  0.793800  1.0  0.7342
  C  C281  1  0.556900  0.173100  0.231900  1.0  -0.0807
  C  C282  1  0.570400  0.102800  0.229400  1.0  -0.0318
  C  C283  1  0.626600  0.079000  0.190300  1.0  -0.134
  C  C284  1  0.669200  0.125600  0.155900  1.0  -0.0013
  C  C285  1  0.655900  0.196700  0.160100  1.0  -0.1355
  C  C286  1  0.598500  0.220200  0.196900  1.0  -0.0416
  C  C287  1  0.643000  0.002900  0.188300  1.0  0.7574
  C  C288  1  0.706200  0.246700  0.129000  1.0  0.7322
  C  C289  1  0.443100  0.673100  0.268100  1.0  -0.0794
  C  C290  1  0.429600  0.602800  0.270600  1.0  -0.0339
  C  C291  1  0.373400  0.579000  0.309700  1.0  -0.1312
  C  C292  1  0.330800  0.625600  0.344100  1.0  -0.0019
  C  C293  1  0.344100  0.696700  0.339900  1.0  -0.1348
  C  C294  1  0.401500  0.720200  0.303100  1.0  -0.0406
  C  C295  1  0.357000  0.502900  0.311700  1.0  0.7555
  C  C296  1  0.293800  0.746700  0.371000  1.0  0.7321
  C  C297  1  0.056900  0.326900  0.768100  1.0  -0.0808
  C  C298  1  0.070400  0.397200  0.770600  1.0  -0.0318
  C  C299  1  0.126600  0.421000  0.809700  1.0  -0.1318
  C  C300  1  0.169200  0.374400  0.844100  1.0  -0.0017
  C  C301  1  0.155900  0.303300  0.839900  1.0  -0.1353
  C  C302  1  0.098500  0.279800  0.803100  1.0  -0.0409
  C  C303  1  0.143000  0.497100  0.811700  1.0  0.7563
  C  C304  1  0.206200  0.253300  0.871000  1.0  0.7312
  C  C305  1  0.943100  0.826900  0.731900  1.0  -0.0792
  C  C306  1  0.929600  0.897200  0.729400  1.0  -0.0323
  C  C307  1  0.873400  0.921000  0.690300  1.0  -0.1314
  C  C308  1  0.830800  0.874400  0.655900  1.0  -0.0012
  C  C309  1  0.844100  0.803300  0.660100  1.0  -0.1355
  C  C310  1  0.901500  0.779800  0.696900  1.0  -0.0409
  C  C311  1  0.857000  0.997100  0.688300  1.0  0.7565
  C  C312  1  0.793800  0.753300  0.629000  1.0  0.732
  O  O313  1  0.849280  0.306580  0.016170  1.0  -0.5964
  O  O314  1  0.776040  0.394510  0.037610  1.0  -0.62
  O  O315  1  0.867000  0.308260  0.689330  1.0  -0.5969
  O  O316  1  0.898450  0.239270  0.777140  1.0  -0.5949
  O  O317  1  0.650720  0.693420  0.516170  1.0  -0.5964
  O  O318  1  0.723960  0.605490  0.537610  1.0  -0.6202
  O  O319  1  0.633000  0.691740  0.189330  1.0  -0.5963
  O  O320  1  0.601550  0.760730  0.277140  1.0  -0.5945
  O  O321  1  0.150720  0.806580  0.483830  1.0  -0.5964
  O  O322  1  0.223960  0.894510  0.462390  1.0  -0.6208
  O  O323  1  0.133000  0.808260  0.810670  1.0  -0.5984
  O  O324  1  0.101550  0.739270  0.722860  1.0  -0.594
  O  O325  1  0.349280  0.193420  0.983830  1.0  -0.5967
  O  O326  1  0.276040  0.105490  0.962390  1.0  -0.621
  O  O327  1  0.367000  0.191740  0.310670  1.0  -0.5965
  O  O328  1  0.398450  0.260730  0.222860  1.0  -0.594
  O  O329  1  0.016170  0.849280  0.306580  1.0  -0.5965
  O  O330  1  0.037610  0.776040  0.394510  1.0  -0.6174
  O  O331  1  0.689330  0.867000  0.308260  1.0  -0.5981
  O  O332  1  0.777140  0.898450  0.239270  1.0  -0.5944
  O  O333  1  0.516170  0.650720  0.693420  1.0  -0.5963
  O  O334  1  0.537610  0.723960  0.605490  1.0  -0.619
  O  O335  1  0.189330  0.633000  0.691740  1.0  -0.5974
  O  O336  1  0.277140  0.601550  0.760730  1.0  -0.5949
  O  O337  1  0.483830  0.150720  0.806580  1.0  -0.5951
  O  O338  1  0.462390  0.223960  0.894510  1.0  -0.6162
  O  O339  1  0.810670  0.133000  0.808260  1.0  -0.5988
  O  O340  1  0.722860  0.101550  0.739270  1.0  -0.5948
  O  O341  1  0.983830  0.349280  0.193420  1.0  -0.5955
  O  O342  1  0.962390  0.276040  0.105490  1.0  -0.6197
  O  O343  1  0.310670  0.367000  0.191740  1.0  -0.5984
  O  O344  1  0.222860  0.398450  0.260730  1.0  -0.5946
  O  O345  1  0.306580  0.016170  0.849280  1.0  -0.5922
  O  O346  1  0.394510  0.037610  0.776040  1.0  -0.6214
  O  O347  1  0.308260  0.689330  0.867000  1.0  -0.5976
  O  O348  1  0.239270  0.777140  0.898450  1.0  -0.5945
  O  O349  1  0.693420  0.516170  0.650720  1.0  -0.5929
  O  O350  1  0.605490  0.537610  0.723960  1.0  -0.6196
  O  O351  1  0.691740  0.189330  0.633000  1.0  -0.5967
  O  O352  1  0.760730  0.277140  0.601550  1.0  -0.5941
  O  O353  1  0.806580  0.483830  0.150720  1.0  -0.5927
  O  O354  1  0.894510  0.462390  0.223960  1.0  -0.6205
  O  O355  1  0.808260  0.810670  0.133000  1.0  -0.5967
  O  O356  1  0.739270  0.722860  0.101550  1.0  -0.5941
  O  O357  1  0.193420  0.983830  0.349280  1.0  -0.5935
  O  O358  1  0.105490  0.962390  0.276040  1.0  -0.6218
  O  O359  1  0.191740  0.310670  0.367000  1.0  -0.5981
  O  O360  1  0.260730  0.222860  0.398450  1.0  -0.5951
  O  O361  1  0.150720  0.693420  0.983830  1.0  -0.5965
  O  O362  1  0.223960  0.605490  0.962390  1.0  -0.6212
  O  O363  1  0.133000  0.691740  0.310670  1.0  -0.5976
  O  O364  1  0.101550  0.760730  0.222860  1.0  -0.5938
  O  O365  1  0.349280  0.306580  0.483830  1.0  -0.5961
  O  O366  1  0.276040  0.394510  0.462390  1.0  -0.6208
  O  O367  1  0.367000  0.308260  0.810670  1.0  -0.5971
  O  O368  1  0.398450  0.239270  0.722860  1.0  -0.594
  O  O369  1  0.849280  0.193420  0.516170  1.0  -0.5969
  O  O370  1  0.776040  0.105490  0.537610  1.0  -0.6201
  O  O371  1  0.867000  0.191740  0.189330  1.0  -0.5966
  O  O372  1  0.898450  0.260730  0.277140  1.0  -0.5944
  O  O373  1  0.650720  0.806580  0.016170  1.0  -0.5963
  O  O374  1  0.723960  0.894510  0.037610  1.0  -0.62
  O  O375  1  0.633000  0.808260  0.689330  1.0  -0.5973
  O  O376  1  0.601550  0.739270  0.777140  1.0  -0.5948
  O  O377  1  0.983830  0.150720  0.693420  1.0  -0.595
  O  O378  1  0.962390  0.223960  0.605490  1.0  -0.6183
  O  O379  1  0.310670  0.133000  0.691740  1.0  -0.5985
  O  O380  1  0.222860  0.101550  0.760730  1.0  -0.5952
  O  O381  1  0.483830  0.349280  0.306580  1.0  -0.5951
  O  O382  1  0.462390  0.276040  0.394510  1.0  -0.6168
  O  O383  1  0.810670  0.367000  0.308260  1.0  -0.5989
  O  O384  1  0.722860  0.398450  0.239270  1.0  -0.5944
  O  O385  1  0.516170  0.849280  0.193420  1.0  -0.5967
  O  O386  1  0.537610  0.776040  0.105490  1.0  -0.6199
  O  O387  1  0.189330  0.867000  0.191740  1.0  -0.597
  O  O388  1  0.277140  0.898450  0.260730  1.0  -0.5943
  O  O389  1  0.016170  0.650720  0.806580  1.0  -0.5963
  O  O390  1  0.037610  0.723960  0.894510  1.0  -0.6172
  O  O391  1  0.689330  0.633000  0.808260  1.0  -0.5983
  O  O392  1  0.777140  0.601550  0.739270  1.0  -0.5948
  O  O393  1  0.693420  0.983830  0.150720  1.0  -0.5933
  O  O394  1  0.605490  0.962390  0.223960  1.0  -0.6198
  O  O395  1  0.691740  0.310670  0.133000  1.0  -0.5978
  O  O396  1  0.760730  0.222860  0.101550  1.0  -0.5946
  O  O397  1  0.306580  0.483830  0.349280  1.0  -0.5928
  O  O398  1  0.394510  0.462390  0.276040  1.0  -0.6219
  O  O399  1  0.308260  0.810670  0.367000  1.0  -0.5971
  O  O400  1  0.239270  0.722860  0.398450  1.0  -0.5947
  O  O401  1  0.193420  0.516170  0.849280  1.0  -0.5929
  O  O402  1  0.105490  0.537610  0.776040  1.0  -0.6211
  O  O403  1  0.191740  0.189330  0.867000  1.0  -0.5967
  O  O404  1  0.260730  0.277140  0.898450  1.0  -0.5946
  O  O405  1  0.806580  0.016170  0.650720  1.0  -0.5923
  O  O406  1  0.894510  0.037610  0.723960  1.0  -0.6203
  O  O407  1  0.808260  0.689330  0.633000  1.0  -0.5978
  O  O408  1  0.739270  0.777140  0.601550  1.0  -0.5938
  O  O409  1  0.836420  0.336420  0.163580  1.0  -0.9525
  O  O410  1  0.663580  0.663580  0.663580  1.0  -0.9505
  O  O411  1  0.163580  0.836420  0.336420  1.0  -0.9498
  O  O412  1  0.336420  0.163580  0.836420  1.0  -0.9521
  O  O413  1  0.163580  0.663580  0.836420  1.0  -0.9499
  O  O414  1  0.336420  0.336420  0.336420  1.0  -0.9521
  O  O415  1  0.836420  0.163580  0.663580  1.0  -0.9525
  O  O416  1  0.663580  0.836420  0.163580  1.0  -0.9504
