# generated using pymatgen
data_ZnH3C3(N2O)2
_symmetry_space_group_name_H-M   'P 1'
_cell_length_a   8.91100000
_cell_length_b   8.09800000
_cell_length_c   10.28900000
_cell_angle_alpha   90.00000000
_cell_angle_beta   101.43300000
_cell_angle_gamma   90.00000000
_symmetry_Int_Tables_number   1
_chemical_formula_structural   ZnH3C3(N2O)2
_chemical_formula_sum   'Zn4 H12 C12 N16 O8'
_cell_volume   727.73473484
_cell_formula_units_Z   4
loop_
 _symmetry_equiv_pos_site_id
 _symmetry_equiv_pos_as_xyz
  1  'x, y, z'
loop_
 _atom_site_type_symbol
 _atom_site_label
 _atom_site_symmetry_multiplicity
 _atom_site_fract_x
 _atom_site_fract_y
 _atom_site_fract_z
 _atom_site_occupancy
 _atom_site_charge
  Zn  Zn1  1  0.313820  0.058780  0.561360  1.0  0.8862
  Zn  Zn2  1  0.686180  0.558780  0.938640  1.0  0.8865
  Zn  Zn3  1  0.686180  0.941220  0.438640  1.0  0.8886
  Zn  Zn4  1  0.313820  0.441220  0.061360  1.0  0.8881
  H  H5  1  0.198700  0.233100  0.801500  1.0  0.0665
  H  H6  1  0.718800  0.333400  0.721200  1.0  0.3464
  H  H7  1  0.625500  0.225300  0.618900  1.0  0.3295
  H  H8  1  0.801300  0.733100  0.698500  1.0  0.0669
  H  H9  1  0.281200  0.833400  0.778800  1.0  0.3443
  H  H10  1  0.374500  0.725300  0.881100  1.0  0.3312
  H  H11  1  0.801300  0.766900  0.198500  1.0  0.0672
  H  H12  1  0.281200  0.666667  0.278800  1.0  0.3444
  H  H13  1  0.374500  0.774700  0.381100  1.0  0.3299
  H  H14  1  0.198700  0.266900  0.301500  1.0  0.0663
  H  H15  1  0.718800  0.166600  0.221200  1.0  0.3466
  H  H16  1  0.625500  0.274700  0.118900  1.0  0.3288
  C  C17  1  0.981600  0.091600  0.492300  1.0  0.6182
  C  C18  1  0.299200  0.265900  0.803500  1.0  0.2572
  C  C19  1  0.513800  0.294400  0.754500  1.0  0.6455
  C  C20  1  0.018400  0.591600  0.007700  1.0  0.6182
  C  C21  1  0.700800  0.765900  0.696500  1.0  0.2563
  C  C22  1  0.486200  0.794400  0.745500  1.0  0.645
  C  C23  1  0.018400  0.908400  0.507700  1.0  0.6171
  C  C24  1  0.700800  0.734100  0.196500  1.0  0.256
  C  C25  1  0.486200  0.705600  0.245500  1.0  0.6448
  C  C26  1  0.981600  0.408400  0.992300  1.0  0.617
  C  C27  1  0.299200  0.234100  0.303500  1.0  0.2569
  C  C28  1  0.513800  0.205600  0.254500  1.0  0.6455
  N  N29  1  0.378400  0.220500  0.712300  1.0  -0.4999
  N  N30  1  0.376900  0.361700  0.896600  1.0  -0.2953
  N  N31  1  0.519800  0.381500  0.865300  1.0  -0.4035
  N  N32  1  0.634400  0.282900  0.690200  1.0  -0.7638
  N  N33  1  0.621600  0.720500  0.787700  1.0  -0.5002
  N  N34  1  0.623100  0.861700  0.603400  1.0  -0.3003
  N  N35  1  0.480200  0.881500  0.634700  1.0  -0.4024
  N  N36  1  0.365600  0.782900  0.809800  1.0  -0.7638
  N  N37  1  0.621600  0.779500  0.287700  1.0  -0.4993
  N  N38  1  0.623100  0.638300  0.103400  1.0  -0.2996
  N  N39  1  0.480200  0.618500  0.134700  1.0  -0.4024
  N  N40  1  0.365600  0.717100  0.309800  1.0  -0.7638
  N  N41  1  0.378400  0.279500  0.212300  1.0  -0.4989
  N  N42  1  0.376900  0.138300  0.396600  1.0  -0.2984
  N  N43  1  0.519800  0.118500  0.365300  1.0  -0.4034
  N  N44  1  0.634400  0.217100  0.190200  1.0  -0.7636
  O  O45  1  0.841800  0.129400  0.459000  1.0  -0.5896
  O  O46  1  0.090900  0.190200  0.511000  1.0  -0.5943
  O  O47  1  0.158200  0.629400  0.041000  1.0  -0.5894
  O  O48  1  0.909100  0.690200  0.989000  1.0  -0.5943
  O  O49  1  0.158200  0.870600  0.541000  1.0  -0.5894
  O  O50  1  0.909100  0.809800  0.489000  1.0  -0.5946
  O  O51  1  0.841800  0.370600  0.959000  1.0  -0.5902
  O  O52  1  0.090900  0.309800  0.011000  1.0  -0.5946
