# generated using pymatgen
data_Co2H21C34SN3O8
_symmetry_space_group_name_H-M   'P 1'
_cell_length_a   11.86200000
_cell_length_b   12.01300000
_cell_length_c   13.68500000
_cell_angle_alpha   102.81000000
_cell_angle_beta   100.06000000
_cell_angle_gamma   98.87000000
_symmetry_Int_Tables_number   1
_chemical_formula_structural   Co2H21C34SN3O8
_chemical_formula_sum   'Co4 H42 C68 S2 N6 O16'
_cell_volume   1834.12872049
_cell_formula_units_Z   2
loop_
 _symmetry_equiv_pos_site_id
 _symmetry_equiv_pos_as_xyz
  1  'x, y, z'
loop_
 _atom_site_type_symbol
 _atom_site_label
 _atom_site_symmetry_multiplicity
 _atom_site_fract_x
 _atom_site_fract_y
 _atom_site_fract_z
 _atom_site_occupancy
 _atom_site_charge
  Co  Co1  1  0.253420  0.972990  0.107430  1.0  0.9747
  Co  Co2  1  0.130280  0.279790  0.182200  1.0  0.8792
  Co  Co3  1  0.746580  0.027010  0.892570  1.0  0.975
  Co  Co4  1  0.869720  0.720210  0.817800  1.0  0.8719
  H  H5  1  0.466800  0.890800  0.041900  1.0  0.0777
  H  H6  1  0.538300  0.724800  0.001400  1.0  0.1202
  H  H7  1  0.259400  0.552300  0.071300  1.0  0.1211
  H  H8  1  0.197200  0.723600  0.111900  1.0  0.0756
  H  H9  1  0.400700  0.441900  0.016500  1.0  0.104
  H  H10  1  0.599000  0.521300  0.306600  1.0  0.1021
  H  H11  1  0.784400  0.483000  0.323300  1.0  0.0985
  H  H12  1  0.811000  0.295900  0.266000  1.0  0.1042
  H  H13  1  0.732200  0.028200  0.366900  1.0  0.1102
  H  H14  1  0.900000  0.981900  0.447300  1.0  0.1053
  H  H15  1  0.053800  0.967400  0.365100  1.0  0.1166
  H  H16  1  0.005600  0.351000  0.362200  1.0  0.0756
  H  H17  1  0.016100  0.350100  0.530900  1.0  0.1248
  H  H18  1  0.306700  0.220700  0.527200  1.0  0.1248
  H  H19  1  0.286400  0.221500  0.358500  1.0  0.0793
  H  H20  1  0.240400  0.250000  0.685300  1.0  0.0983
  H  H21  1  0.048700  0.348100  0.693300  1.0  0.1045
  H  H22  1  0.000400  0.402700  0.858300  1.0  0.1275
  H  H23  1  0.006800  0.382800  0.021400  1.0  0.0782
  H  H24  1  0.241500  0.190300  0.998400  1.0  0.0798
  H  H25  1  0.240300  0.203300  0.833500  1.0  0.1153
  H  H26  1  0.533200  0.109200  0.958100  1.0  0.077
  H  H27  1  0.461700  0.275200  0.998600  1.0  0.12
  H  H28  1  0.740600  0.447700  0.928700  1.0  0.1207
  H  H29  1  0.802800  0.276400  0.888100  1.0  0.0756
  H  H30  1  0.599300  0.558100  0.983500  1.0  0.1054
  H  H31  1  0.401000  0.478700  0.693400  1.0  0.1023
  H  H32  1  0.215600  0.517000  0.676700  1.0  0.0982
  H  H33  1  0.189000  0.704100  0.734000  1.0  0.1038
  H  H34  1  0.267800  0.971800  0.633100  1.0  0.11
  H  H35  1  0.100000  0.018100  0.552700  1.0  0.1054
  H  H36  1  0.946200  0.032600  0.634900  1.0  0.1162
  H  H37  1  0.994400  0.649000  0.637800  1.0  0.0759
  H  H38  1  0.983900  0.649900  0.469100  1.0  0.1254
  H  H39  1  0.693300  0.779300  0.472800  1.0  0.1253
  H  H40  1  0.713600  0.778500  0.641500  1.0  0.0781
  H  H41  1  0.759600  0.750000  0.314700  1.0  0.0988
  H  H42  1  0.951300  0.651900  0.306700  1.0  0.1047
  H  H43  1  0.999600  0.597300  0.141700  1.0  0.1276
  H  H44  1  0.993200  0.617200  0.978600  1.0  0.0782
  H  H45  1  0.758500  0.809700  0.001600  1.0  0.079
  H  H46  1  0.759700  0.796700  0.166500  1.0  0.115
  C  C47  1  0.425300  0.821900  0.049100  1.0  0.1783
  C  C48  1  0.468900  0.722300  0.024400  1.0  -0.1701
  C  C49  1  0.408800  0.617600  0.033900  1.0  0.1288
  C  C50  1  0.304300  0.620500  0.066000  1.0  -0.2128
  C  C51  1  0.267100  0.723900  0.089900  1.0  0.1843
  C  C52  1  0.450400  0.507800  0.012300  1.0  -0.1182
  C  C53  1  0.426600  0.136700  0.183780  1.0  0.6432
  C  C54  1  0.640400  0.219400  0.225900  1.0  -0.0121
  C  C55  1  0.527400  0.240200  0.220510  1.0  -0.0168
  C  C56  1  0.511700  0.355200  0.248800  1.0  -0.1338
  C  C57  1  0.391300  0.383600  0.235700  1.0  0.6579
  C  C58  1  0.608900  0.444900  0.286700  1.0  -0.0374
  C  C59  1  0.720000  0.422300  0.295400  1.0  -0.1019
  C  C60  1  0.735900  0.310400  0.263000  1.0  -0.0348
  C  C61  1  0.794600  0.065300  0.247200  1.0  -0.0606
  C  C62  1  0.797400  0.030600  0.337700  1.0  -0.0358
  C  C63  1  0.896400  0.999900  0.384300  1.0  -0.098
  C  C64  1  0.990400  0.995800  0.337300  1.0  -0.0877
  C  C65  1  0.990300  0.034100  0.248780  1.0  -0.117
  C  C66  1  0.894300  0.074700  0.205560  1.0  -0.0613
  C  C67  1  0.090780  0.022800  0.196800  1.0  0.6537
  C  C68  1  0.898100  0.129800  0.116700  1.0  0.7031
  C  C69  1  0.066700  0.323900  0.395600  1.0  0.1866
  C  C70  1  0.072700  0.324000  0.497600  1.0  -0.1966
  C  C71  1  0.164000  0.284900  0.550020  1.0  0.1116
  C  C72  1  0.244000  0.247200  0.495400  1.0  -0.2271
  C  C73  1  0.231600  0.248400  0.393700  1.0  0.1756
  C  C74  1  0.177800  0.280100  0.658200  1.0  -0.1138
  C  C75  1  0.109100  0.314700  0.719500  1.0  -0.1212
  C  C76  1  0.119400  0.305300  0.825690  1.0  0.152
  C  C77  1  0.050100  0.358700  0.884800  1.0  -0.2209
  C  C78  1  0.054800  0.346700  0.983200  1.0  0.1878
  C  C79  1  0.192400  0.233400  0.969740  1.0  0.1909
  C  C80  1  0.192200  0.240900  0.870400  1.0  -0.1854
  C  C81  1  0.574700  0.178100  0.950900  1.0  0.1789
  C  C82  1  0.531100  0.277700  0.975600  1.0  -0.1685
  C  C83  1  0.591200  0.382400  0.966100  1.0  0.128
  C  C84  1  0.695700  0.379500  0.934000  1.0  -0.212
  C  C85  1  0.732900  0.276100  0.910100  1.0  0.1849
  C  C86  1  0.549600  0.492200  0.987700  1.0  -0.1173
  C  C87  1  0.573400  0.863300  0.816220  1.0  0.6445
  C  C88  1  0.359600  0.780600  0.774100  1.0  -0.0132
  C  C89  1  0.472600  0.759800  0.779490  1.0  -0.0183
  C  C90  1  0.488300  0.644800  0.751200  1.0  -0.1331
  C  C91  1  0.608700  0.616400  0.764300  1.0  0.6578
  C  C92  1  0.391100  0.555100  0.713300  1.0  -0.0375
  C  C93  1  0.280000  0.577700  0.704600  1.0  -0.1019
  C  C94  1  0.264100  0.689600  0.737000  1.0  -0.0361
  C  C95  1  0.205400  0.934700  0.752800  1.0  -0.0596
  C  C96  1  0.202600  0.969400  0.662300  1.0  -0.0357
  C  C97  1  0.103600  0.000100  0.615700  1.0  -0.0973
  C  C98  1  0.009600  0.004200  0.662700  1.0  -0.0862
  C  C99  1  0.009700  0.965900  0.751220  1.0  -0.1162
  C  C100  1  0.105700  0.925300  0.794440  1.0  -0.0621
  C  C101  1  0.909220  0.977200  0.803200  1.0  0.6506
  C  C102  1  0.101900  0.870200  0.883300  1.0  0.7042
  C  C103  1  0.933300  0.676100  0.604400  1.0  0.1861
  C  C104  1  0.927300  0.676000  0.502400  1.0  -0.1967
  C  C105  1  0.836000  0.715100  0.449980  1.0  0.1112
  C  C106  1  0.756000  0.752800  0.504600  1.0  -0.2271
  C  C107  1  0.768400  0.751600  0.606300  1.0  0.1762
  C  C108  1  0.822200  0.719900  0.341800  1.0  -0.1143
  C  C109  1  0.890900  0.685300  0.280500  1.0  -0.1199
  C  C110  1  0.880600  0.694700  0.174310  1.0  0.1523
  C  C111  1  0.949900  0.641300  0.115200  1.0  -0.2208
  C  C112  1  0.945200  0.653300  0.016800  1.0  0.1861
  C  C113  1  0.807600  0.766600  0.030260  1.0  0.1912
  C  C114  1  0.807800  0.759100  0.129600  1.0  -0.1866
  S  S115  1  0.657480  0.075690  0.175630  1.0  -0.0363
  S  S116  1  0.342520  0.924310  0.824370  1.0  -0.0337
  N  N117  1  0.144360  0.286610  0.342800  1.0  -0.3376
  N  N118  1  0.326150  0.825120  0.083100  1.0  -0.3644
  N  N119  1  0.124860  0.285650  0.026520  1.0  -0.328
  N  N120  1  0.855640  0.713390  0.657200  1.0  -0.3398
  N  N121  1  0.673850  0.174880  0.916900  1.0  -0.3618
  N  N122  1  0.875140  0.714350  0.973480  1.0  -0.3293
  O  O123  1  0.386790  0.095960  0.088280  1.0  -0.5559
  O  O124  1  0.388180  0.088600  0.246940  1.0  -0.5623
  O  O125  1  0.381290  0.487390  0.254500  1.0  -0.5647
  O  O126  1  0.307570  0.298320  0.203590  1.0  -0.5854
  O  O127  1  0.947480  0.234910  0.138940  1.0  -0.5791
  O  O128  1  0.850990  0.066100  0.029810  1.0  -0.6411
  O  O129  1  0.128290  0.098080  0.152710  1.0  -0.6551
  O  O130  1  0.136460  0.935060  0.197040  1.0  -0.5779
  O  O131  1  0.613210  0.904040  0.911720  1.0  -0.5546
  O  O132  1  0.611820  0.911400  0.753060  1.0  -0.5609
  O  O133  1  0.618710  0.512610  0.745500  1.0  -0.5642
  O  O134  1  0.692430  0.701680  0.796410  1.0  -0.586
  O  O135  1  0.052520  0.765090  0.861060  1.0  -0.5777
  O  O136  1  0.149010  0.933900  0.970190  1.0  -0.64
  O  O137  1  0.871710  0.901920  0.847290  1.0  -0.6555
  O  O138  1  0.863540  0.064940  0.802960  1.0  -0.5779
