# generated using pymatgen
data_GdH6(CO)6
_symmetry_space_group_name_H-M   'P 1'
_cell_length_a   7.70500000
_cell_length_b   11.98930000
_cell_length_c   12.18280000
_cell_angle_alpha   112.14300000
_cell_angle_beta   89.97900000
_cell_angle_gamma   99.58000000
_symmetry_Int_Tables_number   1
_chemical_formula_structural   GdH6(CO)6
_chemical_formula_sum   'Gd4 H24 C24 O24'
_cell_volume   1025.47712584
_cell_formula_units_Z   4
loop_
 _symmetry_equiv_pos_site_id
 _symmetry_equiv_pos_as_xyz
  1  'x, y, z'
loop_
 _atom_site_type_symbol
 _atom_site_label
 _atom_site_symmetry_multiplicity
 _atom_site_fract_x
 _atom_site_fract_y
 _atom_site_fract_z
 _atom_site_occupancy
 _atom_site_charge
  Gd  Gd1  1  0.992400  0.146280  0.854780  1.0  2.2291
  Gd  Gd2  1  0.492300  0.145710  0.753280  1.0  2.2114
  Gd  Gd3  1  0.007600  0.853720  0.145220  1.0  2.2277
  Gd  Gd4  1  0.507700  0.854290  0.246720  1.0  2.2116
  H  H5  1  0.742800  0.213600  0.305600  1.0  0.1258
  H  H6  1  0.859900  0.246300  0.213500  1.0  0.1442
  H  H7  1  0.633100  0.748400  0.533800  1.0  0.1368
  H  H8  1  0.748500  0.783600  0.652000  1.0  0.1347
  H  H9  1  0.885700  0.549700  0.150300  1.0  0.1054
  H  H10  1  0.715700  0.481400  0.184800  1.0  0.1227
  H  H11  1  0.977700  0.908400  0.578400  1.0  0.1095
  H  H12  1  0.956700  0.767600  0.502300  1.0  0.1264
  H  H13  1  0.582900  0.412000  0.995500  1.0  0.1201
  H  H14  1  0.717500  0.504500  0.960700  1.0  0.1176
  H  H15  1  0.518000  0.101700  0.151800  1.0  0.1212
  H  H16  1  0.557200  0.241600  0.175000  1.0  0.117
  H  H17  1  0.257200  0.786400  0.694400  1.0  0.1271
  H  H18  1  0.140100  0.753700  0.786500  1.0  0.1453
  H  H19  1  0.366900  0.251600  0.466200  1.0  0.1373
  H  H20  1  0.251500  0.216400  0.348000  1.0  0.1331
  H  H21  1  0.114300  0.450300  0.849700  1.0  0.1101
  H  H22  1  0.284300  0.518600  0.815200  1.0  0.1235
  H  H23  1  0.022300  0.091600  0.421600  1.0  0.1107
  H  H24  1  0.043300  0.232400  0.497700  1.0  0.1273
  H  H25  1  0.417100  0.588000  0.004500  1.0  0.1198
  H  H26  1  0.282500  0.495500  0.039300  1.0  0.1175
  H  H27  1  0.482000  0.898300  0.848200  1.0  0.1203
  H  H28  1  0.442800  0.758400  0.825000  1.0  0.1168
  C  C29  1  0.641000  0.137000  0.018000  1.0  0.5708
  C  C30  1  0.772000  0.183000  0.223000  1.0  -0.31
  C  C31  1  0.852000  0.074000  0.201000  1.0  0.6677
  C  C32  1  0.641000  0.926000  0.646000  1.0  0.7783
  C  C33  1  0.719000  0.812000  0.591000  1.0  -0.2781
  C  C34  1  0.758000  0.529000  0.138000  1.0  -0.297
  C  C35  1  0.684000  0.642000  0.179000  1.0  0.5849
  C  C36  1  0.856000  0.859000  0.419000  1.0  0.7176
  C  C37  1  0.898000  0.838000  0.524000  1.0  -0.3153
  C  C38  1  0.706000  0.451000  0.004000  1.0  -0.3266
  C  C39  1  0.816000  0.356000  0.953000  1.0  0.6838
  C  C40  1  0.606000  0.167000  0.145000  1.0  -0.2946
  C  C41  1  0.359000  0.863000  0.982000  1.0  0.5715
  C  C42  1  0.228000  0.817000  0.777000  1.0  -0.3104
  C  C43  1  0.148000  0.926000  0.799000  1.0  0.668
  C  C44  1  0.359000  0.074000  0.354000  1.0  0.7768
  C  C45  1  0.281000  0.188000  0.409000  1.0  -0.28
  C  C46  1  0.242000  0.471000  0.862000  1.0  -0.2957
  C  C47  1  0.316000  0.358000  0.821000  1.0  0.5855
  C  C48  1  0.144000  0.141000  0.581000  1.0  0.718
  C  C49  1  0.102000  0.162000  0.476000  1.0  -0.3163
  C  C50  1  0.294000  0.549000  0.996000  1.0  -0.3267
  C  C51  1  0.184000  0.644000  0.047000  1.0  0.6815
  C  C52  1  0.394000  0.833000  0.855000  1.0  -0.2919
  O  O53  1  0.776000  0.273500  0.846200  1.0  -0.815
  O  O54  1  0.956000  0.352000  0.004000  1.0  -0.6535
  O  O55  1  0.759000  0.977000  0.209000  1.0  -0.8019
  O  O56  1  0.012000  0.066000  0.171000  1.0  -0.6511
  O  O57  1  0.540000  0.646000  0.241000  1.0  -0.6569
  O  O58  1  0.722000  0.725000  0.144300  1.0  -0.6685
  O  O59  1  0.509000  0.149000  0.973000  1.0  -0.5806
  O  O60  1  0.775000  0.099000  0.976000  1.0  -0.6224
  O  O61  1  0.988000  0.845000  0.351000  1.0  -0.6834
  O  O62  1  0.724000  0.890000  0.399000  1.0  -0.6008
  O  O63  1  0.733000  0.019000  0.725000  1.0  -0.7608
  O  O64  1  0.489000  0.930000  0.621000  1.0  -0.6126
  O  O65  1  0.224000  0.726500  0.153800  1.0  -0.8154
  O  O66  1  0.044000  0.648000  0.996000  1.0  -0.6526
  O  O67  1  0.241000  0.023000  0.791000  1.0  -0.8041
  O  O68  1  0.988000  0.934000  0.829000  1.0  -0.6491
  O  O69  1  0.460000  0.354000  0.759000  1.0  -0.6582
  O  O70  1  0.278000  0.275000  0.855700  1.0  -0.6674
  O  O71  1  0.491000  0.851000  0.027000  1.0  -0.5811
  O  O72  1  0.225000  0.901000  0.024000  1.0  -0.6214
  O  O73  1  0.012000  0.155000  0.649000  1.0  -0.6822
  O  O74  1  0.276000  0.110000  0.601000  1.0  -0.6
  O  O75  1  0.267000  0.981000  0.275000  1.0  -0.7597
  O  O76  1  0.511000  0.070000  0.379000  1.0  -0.6132
