# generated using pymatgen
data_LaH6(CO)6
_symmetry_space_group_name_H-M   'P 1'
_cell_length_a   7.97600000
_cell_length_b   12.00600000
_cell_length_c   12.28400000
_cell_angle_alpha   112.01000000
_cell_angle_beta   90.05000000
_cell_angle_gamma   100.58000000
_symmetry_Int_Tables_number   1
_chemical_formula_structural   LaH6(CO)6
_chemical_formula_sum   'La4 H24 C24 O24'
_cell_volume   1068.90372035
_cell_formula_units_Z   4
loop_
 _symmetry_equiv_pos_site_id
 _symmetry_equiv_pos_as_xyz
  1  'x, y, z'
loop_
 _atom_site_type_symbol
 _atom_site_label
 _atom_site_symmetry_multiplicity
 _atom_site_fract_x
 _atom_site_fract_y
 _atom_site_fract_z
 _atom_site_occupancy
 _atom_site_charge
  La  La1  1  0.991120  0.143080  0.853180  1.0  2.194
  La  La2  1  0.491330  0.142930  0.750290  1.0  2.1987
  La  La3  1  0.008880  0.856920  0.146820  1.0  2.1929
  La  La4  1  0.508670  0.857070  0.249710  1.0  2.1999
  H  H5  1  0.534500  0.107500  0.162400  1.0  0.1342
  H  H6  1  0.567200  0.246500  0.181700  1.0  0.1312
  H  H7  1  0.869900  0.256400  0.211700  1.0  0.1347
  H  H8  1  0.765200  0.229100  0.309800  1.0  0.1281
  H  H9  1  0.732600  0.768300  0.638900  1.0  0.1188
  H  H10  1  0.629000  0.742100  0.520500  1.0  0.1314
  H  H11  1  0.882900  0.554100  0.163100  1.0  0.1018
  H  H12  1  0.720300  0.474500  0.189700  1.0  0.112
  H  H13  1  0.957000  0.890500  0.584900  1.0  0.1273
  H  H14  1  0.926300  0.751400  0.503300  1.0  0.1316
  H  H15  1  0.732100  0.513300  0.976200  1.0  0.124
  H  H16  1  0.595500  0.417000  0.002600  1.0  0.1319
  H  H17  1  0.465500  0.892500  0.837600  1.0  0.133
  H  H18  1  0.432800  0.753500  0.818300  1.0  0.1314
  H  H19  1  0.130100  0.743600  0.788300  1.0  0.1349
  H  H20  1  0.234800  0.770900  0.690200  1.0  0.1281
  H  H21  1  0.267400  0.231700  0.361100  1.0  0.1174
  H  H22  1  0.371000  0.257900  0.479500  1.0  0.1306
  H  H23  1  0.117100  0.445900  0.836900  1.0  0.1028
  H  H24  1  0.279700  0.525500  0.810300  1.0  0.1105
  H  H25  1  0.043000  0.109500  0.415100  1.0  0.1289
  H  H26  1  0.073700  0.248600  0.496700  1.0  0.1311
  H  H27  1  0.267900  0.486700  0.023800  1.0  0.1235
  H  H28  1  0.404500  0.583000  0.997400  1.0  0.1331
  C  C29  1  0.635200  0.139800  0.022300  1.0  0.7654
  C  C30  1  0.615300  0.173100  0.152000  1.0  -0.3541
  C  C31  1  0.785400  0.195900  0.227000  1.0  -0.2697
  C  C32  1  0.855600  0.081800  0.201000  1.0  0.7818
  C  C33  1  0.644300  0.917800  0.638800  1.0  0.7715
  C  C34  1  0.713400  0.802100  0.580700  1.0  -0.274
  C  C35  1  0.760100  0.526200  0.146600  1.0  -0.2336
  C  C36  1  0.672900  0.632900  0.181700  1.0  0.7692
  C  C37  1  0.861900  0.856900  0.418700  1.0  0.7733
  C  C38  1  0.877400  0.824400  0.525800  1.0  -0.3589
  C  C39  1  0.715800  0.455500  0.015000  1.0  -0.369
  C  C40  1  0.819700  0.356900  0.956000  1.0  0.7379
  C  C41  1  0.364800  0.860200  0.977700  1.0  0.7625
  C  C42  1  0.384700  0.826900  0.848000  1.0  -0.3534
  C  C43  1  0.214600  0.804100  0.773000  1.0  -0.2701
  C  C44  1  0.144400  0.918200  0.799000  1.0  0.7816
  C  C45  1  0.355700  0.082200  0.361200  1.0  0.7693
  C  C46  1  0.286600  0.197900  0.419300  1.0  -0.2759
  C  C47  1  0.239900  0.473800  0.853400  1.0  -0.2342
  C  C48  1  0.327100  0.367100  0.818300  1.0  0.7707
  C  C49  1  0.138100  0.143100  0.581300  1.0  0.7718
  C  C50  1  0.122600  0.175600  0.474200  1.0  -0.3618
  C  C51  1  0.284200  0.544500  0.985000  1.0  -0.371
  C  C52  1  0.180300  0.643100  0.044000  1.0  0.736
  O  O53  1  0.771400  0.277900  0.850400  1.0  -0.8068
  O  O54  1  0.949000  0.355100  0.010600  1.0  -0.6039
  O  O55  1  0.766500  0.987200  0.208700  1.0  -0.8007
  O  O56  1  0.009900  0.079100  0.175500  1.0  -0.6827
  O  O57  1  0.547700  0.639500  0.243900  1.0  -0.6685
  O  O58  1  0.727200  0.721700  0.144500  1.0  -0.8222
  O  O59  1  0.515800  0.149800  0.961800  1.0  -0.6398
  O  O60  1  0.767700  0.101400  0.979800  1.0  -0.6933
  O  O61  1  0.982800  0.847300  0.350200  1.0  -0.6843
  O  O62  1  0.731000  0.896300  0.405100  1.0  -0.7052
  O  O63  1  0.735200  0.013800  0.716200  1.0  -0.849
  O  O64  1  0.488800  0.919600  0.616200  1.0  -0.674
  O  O65  1  0.228600  0.722100  0.149600  1.0  -0.8041
  O  O66  1  0.051000  0.644900  0.989400  1.0  -0.605
  O  O67  1  0.233500  0.012800  0.791300  1.0  -0.8005
  O  O68  1  0.990100  0.920900  0.824500  1.0  -0.6821
  O  O69  1  0.452300  0.360500  0.756100  1.0  -0.6688
  O  O70  1  0.272800  0.278300  0.855500  1.0  -0.8224
  O  O71  1  0.484200  0.850200  0.038200  1.0  -0.6397
  O  O72  1  0.232300  0.898600  0.020200  1.0  -0.6938
  O  O73  1  0.017200  0.152700  0.649800  1.0  -0.6844
  O  O74  1  0.269000  0.103700  0.594900  1.0  -0.7051
  O  O75  1  0.264800  0.986200  0.283800  1.0  -0.8506
  O  O76  1  0.511200  0.080400  0.383800  1.0  -0.6764
