# generated using pymatgen
data_LaH4(CO)6
_symmetry_space_group_name_H-M   'P 1'
_cell_length_a   7.97900000
_cell_length_b   12.09500000
_cell_length_c   12.29700000
_cell_angle_alpha   111.68100000
_cell_angle_beta   89.93200000
_cell_angle_gamma   100.15800000
_symmetry_Int_Tables_number   1
_chemical_formula_structural   LaH4(CO)6
_chemical_formula_sum   'La4 H16 C24 O24'
_cell_volume   1082.83533224
_cell_formula_units_Z   4
loop_
 _symmetry_equiv_pos_site_id
 _symmetry_equiv_pos_as_xyz
  1  'x, y, z'
loop_
 _atom_site_type_symbol
 _atom_site_label
 _atom_site_symmetry_multiplicity
 _atom_site_fract_x
 _atom_site_fract_y
 _atom_site_fract_z
 _atom_site_occupancy
 _atom_site_charge
  La  La1  1  0.990620  0.645410  0.353920  1.0  2.1815
  La  La2  1  0.490330  0.645080  0.251040  1.0  2.1814
  La  La3  1  0.009380  0.354590  0.646080  1.0  2.1811
  La  La4  1  0.509670  0.354920  0.748960  1.0  2.1832
  H  H5  1  0.739000  0.277600  0.143700  1.0  0.131
  H  H6  1  0.634400  0.251400  0.026200  1.0  0.1369
  H  H7  1  0.962500  0.402500  0.083900  1.0  0.142
  H  H8  1  0.939400  0.263600  0.009300  1.0  0.1372
  H  H9  1  0.286100  0.027100  0.322900  1.0  0.1159
  H  H10  1  0.122200  0.949200  0.347400  1.0  0.0976
  H  H11  1  0.404100  0.078400  0.508000  1.0  0.1254
  H  H12  1  0.261800  0.985200  0.532700  1.0  0.1228
  H  H13  1  0.261000  0.722400  0.856300  1.0  0.1315
  H  H14  1  0.365600  0.748600  0.973800  1.0  0.1369
  H  H15  1  0.037500  0.597500  0.916100  1.0  0.1424
  H  H16  1  0.060600  0.736400  0.990700  1.0  0.1384
  H  H17  1  0.713900  0.972900  0.677100  1.0  0.1189
  H  H18  1  0.877800  0.050800  0.652600  1.0  0.0935
  H  H19  1  0.595900  0.921600  0.492000  1.0  0.1246
  H  H20  1  0.738200  0.014800  0.467300  1.0  0.1225
  C  C21  1  0.646100  0.424300  0.143500  1.0  0.8009
  C  C22  1  0.718100  0.311000  0.085500  1.0  -0.2978
  C  C23  1  0.885700  0.333700  0.027700  1.0  -0.3328
  C  C24  1  0.863100  0.358100  0.917200  1.0  0.7621
  C  C25  1  0.143600  0.423500  0.301900  1.0  0.6787
  C  C26  1  0.216000  0.307900  0.275500  1.0  -0.0331
  C  C27  1  0.384100  0.330300  0.348800  1.0  -0.0322
  C  C28  1  0.365200  0.360600  0.478100  1.0  0.6981
  C  C29  1  0.325900  0.865300  0.320800  1.0  0.7673
  C  C30  1  0.244900  0.974100  0.364100  1.0  -0.2464
  C  C31  1  0.283600  0.042200  0.493500  1.0  -0.3518
  C  C32  1  0.180900  0.141000  0.547100  1.0  0.7405
  C  C33  1  0.353900  0.575700  0.856500  1.0  0.7982
  C  C34  1  0.281900  0.689000  0.914500  1.0  -0.296
  C  C35  1  0.114300  0.666300  0.972300  1.0  -0.3335
  C  C36  1  0.136900  0.641900  0.082800  1.0  0.7594
  C  C37  1  0.856400  0.576500  0.698100  1.0  0.6778
  C  C38  1  0.784000  0.692100  0.724500  1.0  -0.0299
  C  C39  1  0.615900  0.669700  0.651200  1.0  -0.0321
  C  C40  1  0.634800  0.639400  0.521900  1.0  0.7028
  C  C41  1  0.674100  0.134700  0.679200  1.0  0.7662
  C  C42  1  0.755100  0.025900  0.635900  1.0  -0.2425
  C  C43  1  0.716400  0.957800  0.506500  1.0  -0.354
  C  C44  1  0.819100  0.859000  0.452900  1.0  0.7401
  O  O45  1  0.736500  0.515700  0.217400  1.0  -0.767
  O  O46  1  0.492400  0.424600  0.119100  1.0  -0.6822
  O  O47  1  0.233400  0.515400  0.293800  1.0  -0.8051
  O  O48  1  0.991900  0.426000  0.327200  1.0  -0.6208
  O  O49  1  0.272200  0.779600  0.356700  1.0  -0.8236
  O  O50  1  0.445800  0.857800  0.256900  1.0  -0.6095
  O  O51  1  0.731800  0.393500  0.903200  1.0  -0.6665
  O  O52  1  0.985200  0.345700  0.850000  1.0  -0.6914
  O  O53  1  0.230700  0.219600  0.649900  1.0  -0.8434
  O  O54  1  0.053600  0.146500  0.493800  1.0  -0.6304
  O  O55  1  0.487000  0.349100  0.537700  1.0  -0.6871
  O  O56  1  0.231700  0.397200  0.520200  1.0  -0.7099
  O  O57  1  0.263500  0.484300  0.782600  1.0  -0.7649
  O  O58  1  0.507600  0.575400  0.880900  1.0  -0.6822
  O  O59  1  0.766600  0.484600  0.706200  1.0  -0.8068
  O  O60  1  0.008100  0.574000  0.672800  1.0  -0.6231
  O  O61  1  0.727800  0.220400  0.643300  1.0  -0.8233
  O  O62  1  0.554200  0.142200  0.743100  1.0  -0.6078
  O  O63  1  0.268200  0.606500  0.096800  1.0  -0.6676
  O  O64  1  0.014800  0.654300  0.150000  1.0  -0.6783
  O  O65  1  0.769300  0.780400  0.350100  1.0  -0.8444
  O  O66  1  0.946400  0.853500  0.506200  1.0  -0.624
  O  O67  1  0.513000  0.650900  0.462300  1.0  -0.6861
  O  O68  1  0.768300  0.602800  0.479800  1.0  -0.7093
