# generated using pymatgen
data_Ba3Cr2H4(C6O13)2
_symmetry_space_group_name_H-M   'P 1'
_cell_length_a   10.94130000
_cell_length_b   17.59540000
_cell_length_c   18.57730000
_cell_angle_alpha   88.85000000
_cell_angle_beta   85.81300000
_cell_angle_gamma   76.54600000
_symmetry_Int_Tables_number   1
_chemical_formula_structural   Ba3Cr2H4(C6O13)2
_chemical_formula_sum   'Ba12 Cr8 H16 C48 O104'
_cell_volume   3468.98879322
_cell_formula_units_Z   4
loop_
 _symmetry_equiv_pos_site_id
 _symmetry_equiv_pos_as_xyz
  1  'x, y, z'
loop_
 _atom_site_type_symbol
 _atom_site_label
 _atom_site_symmetry_multiplicity
 _atom_site_fract_x
 _atom_site_fract_y
 _atom_site_fract_z
 _atom_site_occupancy
 _atom_site_charge
  Ba  Ba1  1  0.598450  0.607560  0.507720  1.0  1.5741
  Ba  Ba2  1  0.442450  0.465670  0.243340  1.0  1.6813
  Ba  Ba3  1  0.142720  0.648150  0.032390  1.0  1.6444
  Ba  Ba4  1  0.202840  0.904520  0.014350  1.0  1.5803
  Ba  Ba5  1  0.887000  0.040480  0.737350  1.0  1.6927
  Ba  Ba6  1  0.797780  0.822880  0.541880  1.0  1.6174
  Ba  Ba7  1  0.401550  0.392440  0.492280  1.0  1.5745
  Ba  Ba8  1  0.557550  0.534330  0.756660  1.0  1.6818
  Ba  Ba9  1  0.857280  0.351850  0.967610  1.0  1.6452
  Ba  Ba10  1  0.797160  0.095480  0.985650  1.0  1.5804
  Ba  Ba11  1  0.113000  0.959520  0.262650  1.0  1.6935
  Ba  Ba12  1  0.202220  0.177120  0.458120  1.0  1.6171
  Cr  Cr13  1  0.889310  0.364750  0.633390  1.0  1.4855
  Cr  Cr14  1  0.605100  0.677820  0.174550  1.0  1.4887
  Cr  Cr15  1  0.740520  0.855180  0.874110  1.0  1.4754
  Cr  Cr16  1  0.255010  0.853780  0.676560  1.0  1.4879
  Cr  Cr17  1  0.110690  0.635250  0.366610  1.0  1.4857
  Cr  Cr18  1  0.394900  0.322180  0.825450  1.0  1.4895
  Cr  Cr19  1  0.259480  0.144820  0.125890  1.0  1.4735
  Cr  Cr20  1  0.744990  0.146220  0.323440  1.0  1.4882
  H  H21  1  0.210700  0.424200  0.355600  1.0  0.433
  H  H22  1  0.297500  0.342700  0.338200  1.0  0.4275
  H  H23  1  0.637700  0.404600  0.369500  1.0  0.4497
  H  H24  1  0.599000  0.329700  0.347300  1.0  0.4258
  H  H25  1  0.379400  0.880600  0.158500  1.0  0.4164
  H  H26  1  0.358100  0.969400  0.142000  1.0  0.4125
  H  H27  1  0.051900  0.829800  0.154300  1.0  0.4233
  H  H28  1  0.956000  0.906300  0.135900  1.0  0.4486
  H  H29  1  0.789300  0.575800  0.644400  1.0  0.4213
  H  H30  1  0.702500  0.657300  0.661800  1.0  0.4235
  H  H31  1  0.362300  0.595400  0.630500  1.0  0.441
  H  H32  1  0.401000  0.670300  0.652700  1.0  0.4243
  H  H33  1  0.620600  0.119400  0.841500  1.0  0.4049
  H  H34  1  0.641900  0.030600  0.858000  1.0  0.4112
  H  H35  1  0.948100  0.170200  0.845700  1.0  0.4204
  H  H36  1  0.044000  0.093700  0.864100  1.0  0.4386
  C  C37  1  0.702800  0.408500  0.539550  1.0  0.5698
  C  C38  1  0.700700  0.323660  0.562430  1.0  0.5268
  C  C39  1  0.897800  0.649480  0.457740  1.0  0.5572
  C  C40  1  0.903900  0.576950  0.410790  1.0  0.538
  C  C41  1  0.198800  0.618660  0.222860  1.0  0.5624
  C  C42  1  0.083000  0.688400  0.226460  1.0  0.5603
  C  C43  1  0.549000  0.614160  0.307290  1.0  0.5532
  C  C44  1  0.612200  0.681690  0.322620  1.0  0.568
  C  C45  1  0.378500  0.732560  0.111580  1.0  0.5674
  C  C46  1  0.452100  0.661230  0.067400  1.0  0.5562
  C  C47  1  0.851800  0.618270  0.124600  1.0  0.5479
  C  C48  1  0.814300  0.703360  0.095590  1.0  0.538
  C  C49  1  0.962100  0.821500  0.944210  1.0  0.5818
  C  C50  1  0.889400  0.903450  0.969140  1.0  0.5507
  C  C51  1  0.533300  0.847360  0.964310  1.0  0.5479
  C  C52  1  0.493500  0.921570  0.916730  1.0  0.5471
  C  C53  1  0.752200  0.796950  0.735110  1.0  0.566
  C  C54  1  0.815000  0.867380  0.729150  1.0  0.5739
  C  C55  1  0.262500  0.845990  0.824910  1.0  0.5549
  C  C56  1  0.148700  0.913540  0.810260  1.0  0.5619
  C  C57  1  0.482100  0.886220  0.623720  1.0  0.5436
  C  C58  1  0.484600  0.802400  0.598950  1.0  0.6318
  C  C59  1  0.084100  0.782760  0.621300  1.0  0.5264
  C  C60  1  0.091000  0.853220  0.571320  1.0  0.5451
  C  C61  1  0.297200  0.591500  0.460450  1.0  0.5699
  C  C62  1  0.299300  0.676340  0.437570  1.0  0.529
  C  C63  1  0.102200  0.350520  0.542260  1.0  0.5583
  C  C64  1  0.096100  0.423050  0.589210  1.0  0.5377
  C  C65  1  0.801200  0.381340  0.777140  1.0  0.5624
  C  C66  1  0.917000  0.311600  0.773540  1.0  0.56
  C  C67  1  0.451000  0.385840  0.692710  1.0  0.5529
  C  C68  1  0.387800  0.318310  0.677380  1.0  0.5645
  C  C69  1  0.621500  0.267440  0.888420  1.0  0.5652
  C  C70  1  0.547900  0.338770  0.932600  1.0  0.5476
  C  C71  1  0.148200  0.381730  0.875400  1.0  0.5468
  C  C72  1  0.185700  0.296640  0.904410  1.0  0.5381
  C  C73  1  0.037900  0.178500  0.055790  1.0  0.5821
  C  C74  1  0.110600  0.096550  0.030860  1.0  0.55
  C  C75  1  0.466700  0.152640  0.035690  1.0  0.5491
  C  C76  1  0.506500  0.078430  0.083270  1.0  0.5471
  C  C77  1  0.247800  0.203050  0.264890  1.0  0.5655
  C  C78  1  0.185000  0.132620  0.270850  1.0  0.5727
  C  C79  1  0.737500  0.154010  0.175090  1.0  0.5541
  C  C80  1  0.851300  0.086460  0.189740  1.0  0.5612
  C  C81  1  0.517900  0.113780  0.376280  1.0  0.5435
  C  C82  1  0.515400  0.197600  0.401050  1.0  0.623
  C  C83  1  0.915900  0.217240  0.378700  1.0  0.525
  C  C84  1  0.909000  0.146780  0.428680  1.0  0.5448
  O  O85  1  0.789300  0.435770  0.565340  1.0  -0.5977
  O  O86  1  0.622600  0.445150  0.500880  1.0  -0.6064
  O  O87  1  0.777900  0.296450  0.610980  1.0  -0.5969
  O  O88  1  0.629200  0.290000  0.535900  1.0  -0.5432
  O  O89  1  0.983600  0.686390  0.441870  1.0  -0.6112
  O  O90  1  0.812700  0.668460  0.505650  1.0  -0.6346
  O  O91  1  0.995200  0.563730  0.361940  1.0  -0.5823
  O  O92  1  0.823400  0.538880  0.421980  1.0  -0.5663
  O  O93  1  0.224400  0.585720  0.284700  1.0  -0.6696
  O  O94  1  0.260900  0.598760  0.166070  1.0  -0.629
  O  O95  1  0.031600  0.704820  0.290600  1.0  -0.5693
  O  O96  1  0.049500  0.722110  0.170530  1.0  -0.5706
  O  O97  1  0.526700  0.609050  0.240780  1.0  -0.6727
  O  O98  1  0.523800  0.570770  0.356350  1.0  -0.5834
  O  O99  1  0.635600  0.721010  0.266990  1.0  -0.5707
  O  O100  1  0.635600  0.692970  0.384710  1.0  -0.5955
  O  O101  1  0.437900  0.750920  0.163950  1.0  -0.6053
  O  O102  1  0.273100  0.766270  0.095400  1.0  -0.6294
  O  O103  1  0.562300  0.631120  0.088270  1.0  -0.6001
  O  O104  1  0.402700  0.637800  0.018210  1.0  -0.6362
  O  O105  1  0.767700  0.599100  0.168590  1.0  -0.586
  O  O106  1  0.954600  0.575880  0.104740  1.0  -0.6198
  O  O107  1  0.703200  0.740970  0.118710  1.0  -0.5533
  O  O108  1  0.888200  0.728500  0.054400  1.0  -0.578
  O  O109  1  0.906700  0.789860  0.898640  1.0  -0.5763
  O  O110  1  0.065100  0.793820  0.967830  1.0  -0.6505
  O  O111  1  0.783750  0.929040  0.940700  1.0  -0.6216
  O  O112  1  0.933400  0.940670  0.011120  1.0  -0.6094
  O  O113  1  0.647100  0.808250  0.949210  1.0  -0.5647
  O  O114  1  0.458800  0.831090  0.010820  1.0  -0.5778
  O  O115  1  0.577200  0.929660  0.866650  1.0  -0.6096
  O  O116  1  0.389400  0.965600  0.929140  1.0  -0.5682
  O  O117  1  0.820200  0.900580  0.789730  1.0  -0.6753
  O  O118  1  0.855100  0.888860  0.670610  1.0  -0.639
  O  O119  1  0.713200  0.782770  0.800090  1.0  -0.5839
  O  O120  1  0.741600  0.762130  0.680670  1.0  -0.578
  O  O121  1  0.322800  0.812700  0.767710  1.0  -0.5964
  O  O122  1  0.289000  0.826640  0.886440  1.0  -0.6022
  O  O123  1  0.134200  0.927580  0.742090  1.0  -0.6869
  O  O124  1  0.081500  0.947840  0.859970  1.0  -0.5499
  O  O125  1  0.378800  0.919540  0.660130  1.0  -0.5687
  O  O126  1  0.573400  0.914350  0.609890  1.0  -0.5984
  O  O127  1  0.386700  0.777980  0.621460  1.0  -0.6027
  O  O128  1  0.574800  0.764250  0.562050  1.0  -0.6209
  O  O129  1  0.147200  0.778390  0.677440  1.0  -0.5885
  O  O130  1  0.022400  0.736680  0.605080  1.0  -0.5593
  O  O131  1  0.168700  0.892990  0.589550  1.0  -0.604
  O  O132  1  0.024800  0.866720  0.520030  1.0  -0.6164
  O  O133  1  0.296400  0.394910  0.352190  1.0  -0.8947
  O  O134  1  0.567300  0.383410  0.360360  1.0  -0.9149
  O  O135  1  0.317800  0.926680  0.147270  1.0  -0.9132
  O  O136  1  0.042500  0.884260  0.144010  1.0  -0.9256
  O  O137  1  0.210700  0.564230  0.434660  1.0  -0.5974
  O  O138  1  0.377400  0.554850  0.499120  1.0  -0.6065
  O  O139  1  0.222100  0.703550  0.389020  1.0  -0.6027
  O  O140  1  0.370800  0.710000  0.464100  1.0  -0.5451
  O  O141  1  0.016400  0.313610  0.558130  1.0  -0.6104
  O  O142  1  0.187300  0.331540  0.494350  1.0  -0.6344
  O  O143  1  0.004800  0.436270  0.638060  1.0  -0.5823
  O  O144  1  0.176600  0.461120  0.578020  1.0  -0.5658
  O  O145  1  0.775600  0.414280  0.715300  1.0  -0.67
  O  O146  1  0.739100  0.401240  0.833930  1.0  -0.6293
  O  O147  1  0.968400  0.295180  0.709400  1.0  -0.5688
  O  O148  1  0.950500  0.277890  0.829470  1.0  -0.5692
  O  O149  1  0.473300  0.390950  0.759220  1.0  -0.6735
  O  O150  1  0.476200  0.429230  0.643650  1.0  -0.5826
  O  O151  1  0.364400  0.278990  0.733010  1.0  -0.572
  O  O152  1  0.364400  0.307030  0.615290  1.0  -0.5952
  O  O153  1  0.562100  0.249080  0.836050  1.0  -0.6051
  O  O154  1  0.726900  0.233730  0.904600  1.0  -0.6296
  O  O155  1  0.437700  0.368880  0.911730  1.0  -0.5995
  O  O156  1  0.597300  0.362200  0.981790  1.0  -0.6366
  O  O157  1  0.232300  0.400900  0.831410  1.0  -0.5854
  O  O158  1  0.045400  0.424120  0.895260  1.0  -0.6208
  O  O159  1  0.296800  0.259030  0.881290  1.0  -0.5533
  O  O160  1  0.111800  0.271500  0.945600  1.0  -0.5787
  O  O161  1  0.093300  0.210140  0.101360  1.0  -0.5758
  O  O162  1  0.934900  0.206180  0.032170  1.0  -0.65
  O  O163  1  0.216250  0.070960  0.059300  1.0  -0.6206
  O  O164  1  0.066600  0.059330  0.988880  1.0  -0.6092
  O  O165  1  0.352900  0.191750  0.050790  1.0  -0.5656
  O  O166  1  0.541200  0.168910  0.989180  1.0  -0.5831
  O  O167  1  0.422800  0.070340  0.133350  1.0  -0.6107
  O  O168  1  0.610600  0.034400  0.070860  1.0  -0.5647
  O  O169  1  0.179800  0.099420  0.210270  1.0  -0.6712
  O  O170  1  0.144900  0.111140  0.329390  1.0  -0.6375
  O  O171  1  0.286800  0.217230  0.199910  1.0  -0.5842
  O  O172  1  0.258400  0.237870  0.319330  1.0  -0.5798
  O  O173  1  0.677200  0.187300  0.232290  1.0  -0.596
  O  O174  1  0.711000  0.173360  0.113560  1.0  -0.6005
  O  O175  1  0.865800  0.072420  0.257910  1.0  -0.685
  O  O176  1  0.918500  0.052160  0.140030  1.0  -0.5503
  O  O177  1  0.621200  0.080460  0.339870  1.0  -0.569
  O  O178  1  0.426600  0.085650  0.390110  1.0  -0.5966
  O  O179  1  0.613300  0.222020  0.378540  1.0  -0.603
  O  O180  1  0.425200  0.235750  0.437950  1.0  -0.6187
  O  O181  1  0.852800  0.221610  0.322560  1.0  -0.5886
  O  O182  1  0.977600  0.263320  0.394920  1.0  -0.5598
  O  O183  1  0.831300  0.107010  0.410450  1.0  -0.6027
  O  O184  1  0.975200  0.133280  0.479970  1.0  -0.6173
  O  O185  1  0.703600  0.605090  0.647810  1.0  -0.9047
  O  O186  1  0.432700  0.616590  0.639640  1.0  -0.9069
  O  O187  1  0.682200  0.073320  0.852730  1.0  -0.91
  O  O188  1  0.957500  0.115740  0.855990  1.0  -0.9261
