# generated using pymatgen
data_Mg5H26(C8O9)2
_symmetry_space_group_name_H-M   'P 1'
_cell_length_a   23.19300000
_cell_length_b   23.19300000
_cell_length_c   12.06900000
_cell_angle_alpha   90.00000000
_cell_angle_beta   90.00000000
_cell_angle_gamma   90.00000000
_symmetry_Int_Tables_number   1
_chemical_formula_structural   Mg5H26(C8O9)2
_chemical_formula_sum   'Mg40 H208 C128 O144'
_cell_volume   6492.09914018
_cell_formula_units_Z   8
loop_
 _symmetry_equiv_pos_site_id
 _symmetry_equiv_pos_as_xyz
  1  'x, y, z'
loop_
 _atom_site_type_symbol
 _atom_site_label
 _atom_site_symmetry_multiplicity
 _atom_site_fract_x
 _atom_site_fract_y
 _atom_site_fract_z
 _atom_site_occupancy
 _atom_site_charge
  Mg  Mg1  1  0.629830  0.542340  0.500100  1.0  1.376
  Mg  Mg2  1  0.726070  0.451340  0.460400  1.0  1.4574
  Mg  Mg3  1  0.129830  0.042340  0.000100  1.0  1.376
  Mg  Mg4  1  0.226070  0.951340  0.960400  1.0  1.4574
  Mg  Mg5  1  0.870170  0.457660  0.000100  1.0  1.3759
  Mg  Mg6  1  0.773930  0.548660  0.960400  1.0  1.4584
  Mg  Mg7  1  0.370170  0.957660  0.500100  1.0  1.3759
  Mg  Mg8  1  0.273930  0.048660  0.460400  1.0  1.4584
  Mg  Mg9  1  0.207660  0.879830  0.750100  1.0  1.3747
  Mg  Mg10  1  0.298660  0.976070  0.710400  1.0  1.4554
  Mg  Mg11  1  0.707660  0.379830  0.250100  1.0  1.3747
  Mg  Mg12  1  0.798660  0.476070  0.210400  1.0  1.4554
  Mg  Mg13  1  0.292340  0.120170  0.250100  1.0  1.3748
  Mg  Mg14  1  0.201340  0.023930  0.210400  1.0  1.4564
  Mg  Mg15  1  0.792340  0.620170  0.750100  1.0  1.3748
  Mg  Mg16  1  0.701340  0.523930  0.710400  1.0  1.4564
  Mg  Mg17  1  0.370170  0.457660  0.499900  1.0  1.3762
  Mg  Mg18  1  0.273930  0.548660  0.539600  1.0  1.4576
  Mg  Mg19  1  0.870170  0.957660  0.999900  1.0  1.3762
  Mg  Mg20  1  0.773930  0.048660  0.039600  1.0  1.4576
  Mg  Mg21  1  0.129830  0.542340  0.999900  1.0  1.3764
  Mg  Mg22  1  0.226070  0.451340  0.039600  1.0  1.4559
  Mg  Mg23  1  0.629830  0.042340  0.499900  1.0  1.3764
  Mg  Mg24  1  0.726070  0.951340  0.539600  1.0  1.4559
  Mg  Mg25  1  0.792340  0.120170  0.249900  1.0  1.3752
  Mg  Mg26  1  0.701340  0.023930  0.289600  1.0  1.4543
  Mg  Mg27  1  0.292340  0.620170  0.749900  1.0  1.3752
  Mg  Mg28  1  0.201340  0.523930  0.789600  1.0  1.4543
  Mg  Mg29  1  0.707660  0.879830  0.749900  1.0  1.3753
  Mg  Mg30  1  0.798660  0.976070  0.789600  1.0  1.4549
  Mg  Mg31  1  0.207660  0.379830  0.249900  1.0  1.3753
  Mg  Mg32  1  0.298660  0.476070  0.289600  1.0  1.4549
  Mg  Mg33  1  0.500000  0.500000  0.500000  1.0  1.3778
  Mg  Mg34  1  0.000000  0.000000  0.000000  1.0  1.3778
  Mg  Mg35  1  0.000000  0.500000  0.000000  1.0  1.3778
  Mg  Mg36  1  0.500000  0.000000  0.500000  1.0  1.3778
  Mg  Mg37  1  0.250000  0.750000  0.750000  1.0  1.3779
  Mg  Mg38  1  0.250000  0.250000  0.250000  1.0  1.3778
  Mg  Mg39  1  0.750000  0.250000  0.250000  1.0  1.3778
  Mg  Mg40  1  0.750000  0.750000  0.750000  1.0  1.3779
  H  H41  1  0.654000  0.460000  0.582000  1.0  0.2254
  H  H42  1  0.616900  0.687800  0.530600  1.0  0.114
  H  H43  1  0.639300  0.729700  0.626900  1.0  0.1175
  H  H44  1  0.596100  0.678000  0.655600  1.0  0.1208
  H  H45  1  0.718800  0.643700  0.416700  1.0  0.0993
  H  H46  1  0.693600  0.639400  0.293500  1.0  0.115
  H  H47  1  0.761200  0.649500  0.312600  1.0  0.1087
  H  H48  1  0.530900  0.654200  0.241000  1.0  0.1523
  H  H49  1  0.544300  0.694000  0.346300  1.0  0.1289
  H  H50  1  0.481000  0.668100  0.328500  1.0  0.1346
  H  H51  1  0.524900  0.481600  0.839100  1.0  0.1117
  H  H52  1  0.484300  0.505500  0.742400  1.0  0.0913
  H  H53  1  0.509100  0.548700  0.834100  1.0  0.102
  H  H54  1  0.154000  0.960000  0.082000  1.0  0.2254
  H  H55  1  0.116900  0.187800  0.030600  1.0  0.114
  H  H56  1  0.139300  0.229700  0.126900  1.0  0.1175
  H  H57  1  0.096100  0.178000  0.155600  1.0  0.1208
  H  H58  1  0.218800  0.143700  0.916700  1.0  0.0993
  H  H59  1  0.193600  0.139400  0.793500  1.0  0.115
  H  H60  1  0.261200  0.149500  0.812600  1.0  0.1087
  H  H61  1  0.030900  0.154200  0.741000  1.0  0.1523
  H  H62  1  0.044300  0.194000  0.846300  1.0  0.1289
  H  H63  1  0.981000  0.168100  0.828500  1.0  0.1346
  H  H64  1  0.024900  0.981600  0.339100  1.0  0.1117
  H  H65  1  0.984300  0.005500  0.242400  1.0  0.0913
  H  H66  1  0.009100  0.048700  0.334100  1.0  0.102
  H  H67  1  0.846000  0.540000  0.082000  1.0  0.2252
  H  H68  1  0.883100  0.312200  0.030600  1.0  0.1135
  H  H69  1  0.860700  0.270300  0.126900  1.0  0.1164
  H  H70  1  0.903900  0.322000  0.155600  1.0  0.1202
  H  H71  1  0.781200  0.356300  0.916700  1.0  0.0992
  H  H72  1  0.806400  0.360600  0.793500  1.0  0.1177
  H  H73  1  0.738800  0.350500  0.812600  1.0  0.1095
  H  H74  1  0.969100  0.345800  0.741000  1.0  0.152
  H  H75  1  0.955700  0.306000  0.846300  1.0  0.1296
  H  H76  1  0.019000  0.331900  0.828500  1.0  0.1366
  H  H77  1  0.975100  0.518400  0.339100  1.0  0.1107
  H  H78  1  0.015700  0.494500  0.242400  1.0  0.0917
  H  H79  1  0.990900  0.451300  0.334100  1.0  0.1037
  H  H80  1  0.346000  0.040000  0.582000  1.0  0.2252
  H  H81  1  0.383100  0.812200  0.530600  1.0  0.1135
  H  H82  1  0.360700  0.770300  0.626900  1.0  0.1164
  H  H83  1  0.403900  0.822000  0.655600  1.0  0.1202
  H  H84  1  0.281200  0.856300  0.416700  1.0  0.0992
  H  H85  1  0.306400  0.860600  0.293500  1.0  0.1177
  H  H86  1  0.238800  0.850500  0.312600  1.0  0.1095
  H  H87  1  0.469100  0.845800  0.241000  1.0  0.152
  H  H88  1  0.455700  0.806000  0.346300  1.0  0.1296
  H  H89  1  0.519000  0.831900  0.328500  1.0  0.1366
  H  H90  1  0.475100  0.018400  0.839100  1.0  0.1107
  H  H91  1  0.515700  0.994500  0.742400  1.0  0.0917
  H  H92  1  0.490900  0.951300  0.834100  1.0  0.1037
  H  H93  1  0.290000  0.904000  0.832000  1.0  0.2256
  H  H94  1  0.062200  0.866900  0.780600  1.0  0.113
  H  H95  1  0.020300  0.889300  0.876900  1.0  0.1128
  H  H96  1  0.072000  0.846100  0.905600  1.0  0.1215
  H  H97  1  0.106300  0.968800  0.666667  1.0  0.0994
  H  H98  1  0.110600  0.943600  0.543500  1.0  0.1174
  H  H99  1  0.100500  0.011200  0.562600  1.0  0.1027
  H  H100  1  0.095800  0.780900  0.491000  1.0  0.1527
  H  H101  1  0.056000  0.794300  0.596300  1.0  0.1272
  H  H102  1  0.081900  0.731000  0.578500  1.0  0.1356
  H  H103  1  0.268400  0.774900  0.089100  1.0  0.1096
  H  H104  1  0.244500  0.734300  0.992400  1.0  0.0913
  H  H105  1  0.201300  0.759100  0.084100  1.0  0.1022
  H  H106  1  0.790000  0.404000  0.332000  1.0  0.2256
  H  H107  1  0.562200  0.366900  0.280600  1.0  0.113
  H  H108  1  0.520300  0.389300  0.376900  1.0  0.1128
  H  H109  1  0.572000  0.346100  0.405600  1.0  0.1215
  H  H110  1  0.606300  0.468800  0.166700  1.0  0.0993
  H  H111  1  0.610600  0.443600  0.043500  1.0  0.1175
  H  H112  1  0.600500  0.511200  0.062600  1.0  0.1105
  H  H113  1  0.595800  0.280900  0.991000  1.0  0.1527
  H  H114  1  0.556000  0.294300  0.096300  1.0  0.1272
  H  H115  1  0.581900  0.231000  0.078500  1.0  0.1356
  H  H116  1  0.768400  0.274900  0.589100  1.0  0.1096
  H  H117  1  0.744500  0.234300  0.492400  1.0  0.0913
  H  H118  1  0.701300  0.259100  0.584100  1.0  0.1022
  H  H119  1  0.210000  0.096000  0.332000  1.0  0.2286
  H  H120  1  0.437800  0.133100  0.280600  1.0  0.1135
  H  H121  1  0.479700  0.110700  0.376900  1.0  0.1136
  H  H122  1  0.428000  0.153900  0.405600  1.0  0.1204
  H  H123  1  0.393700  0.031200  0.166700  1.0  0.1006
  H  H124  1  0.389400  0.056400  0.043500  1.0  0.1188
  H  H125  1  0.399500  0.988800  0.062600  1.0  0.1116
  H  H126  1  0.404200  0.219100  0.991000  1.0  0.1532
  H  H127  1  0.444000  0.205700  0.096300  1.0  0.1297
  H  H128  1  0.418100  0.269000  0.078500  1.0  0.1406
  H  H129  1  0.231600  0.225100  0.589100  1.0  0.1095
  H  H130  1  0.255500  0.265700  0.492400  1.0  0.0908
  H  H131  1  0.298700  0.240900  0.584100  1.0  0.1013
  H  H132  1  0.710000  0.596000  0.832000  1.0  0.2286
  H  H133  1  0.937800  0.633100  0.780600  1.0  0.1135
  H  H134  1  0.979700  0.610700  0.876900  1.0  0.1136
  H  H135  1  0.928000  0.653900  0.905600  1.0  0.1204
  H  H136  1  0.893700  0.531200  0.666667  1.0  0.1007
  H  H137  1  0.889400  0.556400  0.543500  1.0  0.1188
  H  H138  1  0.899500  0.488800  0.562600  1.0  0.1039
  H  H139  1  0.904200  0.719100  0.491000  1.0  0.1532
  H  H140  1  0.944000  0.705700  0.596300  1.0  0.1297
  H  H141  1  0.918100  0.769000  0.578500  1.0  0.1406
  H  H142  1  0.731600  0.725100  0.089100  1.0  0.1095
  H  H143  1  0.755500  0.765700  0.992400  1.0  0.0908
  H  H144  1  0.798700  0.740900  0.084100  1.0  0.1013
  H  H145  1  0.346000  0.540000  0.418000  1.0  0.2249
  H  H146  1  0.383100  0.312200  0.469400  1.0  0.1144
  H  H147  1  0.360700  0.270300  0.373100  1.0  0.1173
  H  H148  1  0.403900  0.322000  0.344400  1.0  0.1209
  H  H149  1  0.281200  0.356300  0.583300  1.0  0.0985
  H  H150  1  0.306400  0.360600  0.706500  1.0  0.1184
  H  H151  1  0.238800  0.350500  0.687400  1.0  0.1096
  H  H152  1  0.469100  0.345800  0.759000  1.0  0.1531
  H  H153  1  0.455700  0.306000  0.653700  1.0  0.1295
  H  H154  1  0.519000  0.331900  0.671500  1.0  0.1367
  H  H155  1  0.475100  0.518400  0.160900  1.0  0.1116
  H  H156  1  0.515700  0.494500  0.257600  1.0  0.0914
  H  H157  1  0.490900  0.451300  0.165900  1.0  0.1025
  H  H158  1  0.846000  0.040000  0.918000  1.0  0.2249
  H  H159  1  0.883100  0.812200  0.969400  1.0  0.1144
  H  H160  1  0.860700  0.770300  0.873100  1.0  0.1173
  H  H161  1  0.903900  0.822000  0.844400  1.0  0.1209
  H  H162  1  0.781200  0.856300  0.083300  1.0  0.0985
  H  H163  1  0.806400  0.860600  0.206500  1.0  0.1184
  H  H164  1  0.738800  0.850500  0.187400  1.0  0.1096
  H  H165  1  0.969100  0.845800  0.259000  1.0  0.1531
  H  H166  1  0.955700  0.806000  0.153700  1.0  0.1295
  H  H167  1  0.019000  0.831900  0.171500  1.0  0.1367
  H  H168  1  0.975100  0.018400  0.660900  1.0  0.1116
  H  H169  1  0.015700  0.994500  0.757600  1.0  0.0914
  H  H170  1  0.990900  0.951300  0.665900  1.0  0.1024
  H  H171  1  0.154000  0.460000  0.918000  1.0  0.2258
  H  H172  1  0.116900  0.687800  0.969400  1.0  0.1142
  H  H173  1  0.139300  0.729700  0.873100  1.0  0.1188
  H  H174  1  0.096100  0.678000  0.844400  1.0  0.1221
  H  H175  1  0.218800  0.643700  0.083300  1.0  0.0985
  H  H176  1  0.193600  0.639400  0.206500  1.0  0.1171
  H  H177  1  0.261200  0.649500  0.187400  1.0  0.1086
  H  H178  1  0.030900  0.654200  0.259000  1.0  0.1534
  H  H179  1  0.044300  0.694000  0.153700  1.0  0.1291
  H  H180  1  0.981000  0.668100  0.171500  1.0  0.135
  H  H181  1  0.024900  0.481600  0.660900  1.0  0.1111
  H  H182  1  0.984300  0.505500  0.757600  1.0  0.0914
  H  H183  1  0.009100  0.548700  0.665900  1.0  0.1023
  H  H184  1  0.654000  0.960000  0.418000  1.0  0.2258
  H  H185  1  0.616900  0.187800  0.469400  1.0  0.1142
  H  H186  1  0.639300  0.229700  0.373100  1.0  0.1188
  H  H187  1  0.596100  0.178000  0.344400  1.0  0.1221
  H  H188  1  0.718800  0.143700  0.583300  1.0  0.0985
  H  H189  1  0.693600  0.139400  0.706500  1.0  0.1171
  H  H190  1  0.761200  0.149500  0.687400  1.0  0.1086
  H  H191  1  0.530900  0.154200  0.759000  1.0  0.1534
  H  H192  1  0.544300  0.194000  0.653700  1.0  0.1291
  H  H193  1  0.481000  0.168100  0.671500  1.0  0.135
  H  H194  1  0.524900  0.981600  0.160900  1.0  0.1111
  H  H195  1  0.484300  0.005500  0.257600  1.0  0.0914
  H  H196  1  0.509100  0.048700  0.165900  1.0  0.1024
  H  H197  1  0.710000  0.096000  0.168000  1.0  0.229
  H  H198  1  0.937800  0.133100  0.219400  1.0  0.1137
  H  H199  1  0.979700  0.110700  0.123100  1.0  0.1143
  H  H200  1  0.928000  0.153900  0.094400  1.0  0.1213
  H  H201  1  0.893700  0.031200  0.333333  1.0  0.099
  H  H202  1  0.889400  0.056400  0.456500  1.0  0.119
  H  H203  1  0.899500  0.988800  0.437400  1.0  0.104
  H  H204  1  0.904200  0.219100  0.509000  1.0  0.1539
  H  H205  1  0.944000  0.205700  0.403700  1.0  0.1293
  H  H206  1  0.918100  0.269000  0.421500  1.0  0.1402
  H  H207  1  0.731600  0.225100  0.910900  1.0  0.1092
  H  H208  1  0.755500  0.265700  0.007600  1.0  0.0916
  H  H209  1  0.798700  0.240900  0.915900  1.0  0.1023
  H  H210  1  0.210000  0.596000  0.668000  1.0  0.229
  H  H211  1  0.437800  0.633100  0.719400  1.0  0.1137
  H  H212  1  0.479700  0.610700  0.623100  1.0  0.1143
  H  H213  1  0.428000  0.653900  0.594400  1.0  0.1213
  H  H214  1  0.393700  0.531200  0.833300  1.0  0.0989
  H  H215  1  0.389400  0.556400  0.956500  1.0  0.119
  H  H216  1  0.399500  0.488800  0.937400  1.0  0.1119
  H  H217  1  0.404200  0.719100  0.009000  1.0  0.1539
  H  H218  1  0.444000  0.705700  0.903700  1.0  0.1293
  H  H219  1  0.418100  0.769000  0.921500  1.0  0.1402
  H  H220  1  0.231600  0.725100  0.410900  1.0  0.1092
  H  H221  1  0.255500  0.765700  0.507600  1.0  0.0916
  H  H222  1  0.298700  0.740900  0.415900  1.0  0.1023
  H  H223  1  0.790000  0.904000  0.668000  1.0  0.2256
  H  H224  1  0.562200  0.866900  0.719400  1.0  0.1135
  H  H225  1  0.520300  0.889300  0.623100  1.0  0.114
  H  H226  1  0.572000  0.846100  0.594400  1.0  0.1214
  H  H227  1  0.606300  0.968800  0.833300  1.0  0.0988
  H  H228  1  0.610600  0.943600  0.956500  1.0  0.1193
  H  H229  1  0.600500  0.011200  0.937400  1.0  0.1103
  H  H230  1  0.595800  0.780900  0.009000  1.0  0.1539
  H  H231  1  0.556000  0.794300  0.903700  1.0  0.1277
  H  H232  1  0.581900  0.731000  0.921500  1.0  0.1364
  H  H233  1  0.768400  0.774900  0.410900  1.0  0.1112
  H  H234  1  0.744500  0.734300  0.507600  1.0  0.0923
  H  H235  1  0.701300  0.759100  0.415900  1.0  0.1006
  H  H236  1  0.290000  0.404000  0.168000  1.0  0.2256
  H  H237  1  0.062200  0.366900  0.219400  1.0  0.1135
  H  H238  1  0.020300  0.389300  0.123100  1.0  0.114
  H  H239  1  0.072000  0.346100  0.094400  1.0  0.1214
  H  H240  1  0.106300  0.468800  0.333333  1.0  0.0989
  H  H241  1  0.110600  0.443600  0.456500  1.0  0.1193
  H  H242  1  0.100500  0.511200  0.437400  1.0  0.1024
  H  H243  1  0.095800  0.280900  0.509000  1.0  0.1539
  H  H244  1  0.056000  0.294300  0.403700  1.0  0.1277
  H  H245  1  0.081900  0.231000  0.421500  1.0  0.1364
  H  H246  1  0.268400  0.274900  0.910900  1.0  0.1112
  H  H247  1  0.244500  0.234300  0.007600  1.0  0.0923
  H  H248  1  0.201300  0.259100  0.915900  1.0  0.1006
  C  C249  1  0.679700  0.650100  0.628800  1.0  0.7151
  C  C250  1  0.628400  0.690000  0.608700  1.0  -0.4387
  C  C251  1  0.735800  0.567800  0.342200  1.0  0.7114
  C  C252  1  0.726600  0.630300  0.341100  1.0  -0.4209
  C  C253  1  0.538700  0.608500  0.384600  1.0  0.7264
  C  C254  1  0.522300  0.660700  0.319500  1.0  -0.4985
  C  C255  1  0.568600  0.524900  0.720100  1.0  0.7187
  C  C256  1  0.517400  0.514300  0.789800  1.0  -0.4413
  C  C257  1  0.179700  0.150100  0.128800  1.0  0.7151
  C  C258  1  0.128400  0.190000  0.108700  1.0  -0.4387
  C  C259  1  0.235800  0.067800  0.842200  1.0  0.7114
  C  C260  1  0.226600  0.130300  0.841100  1.0  -0.4209
  C  C261  1  0.038700  0.108500  0.884600  1.0  0.7264
  C  C262  1  0.022300  0.160700  0.819500  1.0  -0.4985
  C  C263  1  0.068600  0.024900  0.220100  1.0  0.7187
  C  C264  1  0.017400  0.014300  0.289800  1.0  -0.4413
  C  C265  1  0.820300  0.349900  0.128800  1.0  0.716
  C  C266  1  0.871600  0.310000  0.108700  1.0  -0.439
  C  C267  1  0.764200  0.432200  0.842200  1.0  0.7122
  C  C268  1  0.773400  0.369700  0.841100  1.0  -0.4211
  C  C269  1  0.961300  0.391500  0.884600  1.0  0.7265
  C  C270  1  0.977700  0.339300  0.819500  1.0  -0.5003
  C  C271  1  0.931400  0.475100  0.220100  1.0  0.7187
  C  C272  1  0.982600  0.485700  0.289800  1.0  -0.4408
  C  C273  1  0.320300  0.849900  0.628800  1.0  0.716
  C  C274  1  0.371600  0.810000  0.608700  1.0  -0.439
  C  C275  1  0.264200  0.932200  0.342200  1.0  0.7122
  C  C276  1  0.273400  0.869700  0.341100  1.0  -0.4211
  C  C277  1  0.461300  0.891500  0.384600  1.0  0.7265
  C  C278  1  0.477700  0.839300  0.319500  1.0  -0.5003
  C  C279  1  0.431400  0.975100  0.720100  1.0  0.7187
  C  C280  1  0.482600  0.985700  0.789800  1.0  -0.4408
  C  C281  1  0.099900  0.929700  0.878800  1.0  0.715
  C  C282  1  0.060000  0.878400  0.858700  1.0  -0.4393
  C  C283  1  0.182200  0.985800  0.592200  1.0  0.713
  C  C284  1  0.119700  0.976600  0.591100  1.0  -0.4189
  C  C285  1  0.141500  0.788700  0.634600  1.0  0.7296
  C  C286  1  0.089300  0.772300  0.569500  1.0  -0.4959
  C  C287  1  0.225100  0.818600  0.970100  1.0  0.719
  C  C288  1  0.235700  0.767400  0.039800  1.0  -0.4399
  C  C289  1  0.599900  0.429700  0.378800  1.0  0.715
  C  C290  1  0.560000  0.378400  0.358700  1.0  -0.4393
  C  C291  1  0.682200  0.485800  0.092200  1.0  0.713
  C  C292  1  0.619700  0.476600  0.091100  1.0  -0.4191
  C  C293  1  0.641500  0.288700  0.134600  1.0  0.7296
  C  C294  1  0.589300  0.272300  0.069500  1.0  -0.4959
  C  C295  1  0.725100  0.318600  0.470100  1.0  0.719
  C  C296  1  0.735700  0.267400  0.539800  1.0  -0.4399
  C  C297  1  0.400100  0.070300  0.378800  1.0  0.7144
  C  C298  1  0.440000  0.121600  0.358700  1.0  -0.4389
  C  C299  1  0.317800  0.014200  0.092200  1.0  0.7131
  C  C300  1  0.380300  0.023400  0.091100  1.0  -0.4205
  C  C301  1  0.358500  0.211300  0.134600  1.0  0.7295
  C  C302  1  0.410700  0.227700  0.069500  1.0  -0.4989
  C  C303  1  0.274900  0.181400  0.470100  1.0  0.7185
  C  C304  1  0.264300  0.232600  0.539800  1.0  -0.4399
  C  C305  1  0.900100  0.570300  0.878800  1.0  0.7143
  C  C306  1  0.940000  0.621600  0.858700  1.0  -0.4389
  C  C307  1  0.817800  0.514200  0.592200  1.0  0.7131
  C  C308  1  0.880300  0.523400  0.591100  1.0  -0.4204
  C  C309  1  0.858500  0.711300  0.634600  1.0  0.7295
  C  C310  1  0.910700  0.727700  0.569500  1.0  -0.4989
  C  C311  1  0.774900  0.681400  0.970100  1.0  0.7185
  C  C312  1  0.764300  0.732600  0.039800  1.0  -0.4399
  C  C313  1  0.320300  0.349900  0.371200  1.0  0.716
  C  C314  1  0.371600  0.310000  0.391300  1.0  -0.4392
  C  C315  1  0.264200  0.432200  0.657800  1.0  0.7127
  C  C316  1  0.273400  0.369700  0.658900  1.0  -0.4223
  C  C317  1  0.461300  0.391500  0.615400  1.0  0.7254
  C  C318  1  0.477700  0.339300  0.680500  1.0  -0.4991
  C  C319  1  0.431400  0.475100  0.279900  1.0  0.7194
  C  C320  1  0.482600  0.485700  0.210200  1.0  -0.4403
  C  C321  1  0.820300  0.849900  0.871200  1.0  0.716
  C  C322  1  0.871600  0.810000  0.891300  1.0  -0.4392
  C  C323  1  0.764200  0.932200  0.157800  1.0  0.7127
  C  C324  1  0.773400  0.869700  0.158900  1.0  -0.4223
  C  C325  1  0.961300  0.891500  0.115400  1.0  0.7254
  C  C326  1  0.977700  0.839300  0.180500  1.0  -0.4991
  C  C327  1  0.931400  0.975100  0.779900  1.0  0.7194
  C  C328  1  0.982600  0.985700  0.710200  1.0  -0.4403
  C  C329  1  0.179700  0.650100  0.871200  1.0  0.7149
  C  C330  1  0.128400  0.690000  0.891300  1.0  -0.4387
  C  C331  1  0.235800  0.567800  0.157800  1.0  0.7116
  C  C332  1  0.226600  0.630300  0.158900  1.0  -0.4214
  C  C333  1  0.038700  0.608500  0.115400  1.0  0.7246
  C  C334  1  0.022300  0.660700  0.180500  1.0  -0.4989
  C  C335  1  0.068600  0.524900  0.779900  1.0  0.7195
  C  C336  1  0.017400  0.514300  0.710200  1.0  -0.4415
  C  C337  1  0.679700  0.150100  0.371200  1.0  0.7149
  C  C338  1  0.628400  0.190000  0.391300  1.0  -0.4387
  C  C339  1  0.735800  0.067800  0.657800  1.0  0.7116
  C  C340  1  0.726600  0.130300  0.658900  1.0  -0.4214
  C  C341  1  0.538700  0.108500  0.615400  1.0  0.7246
  C  C342  1  0.522300  0.160700  0.680500  1.0  -0.4989
  C  C343  1  0.568600  0.024900  0.279900  1.0  0.7195
  C  C344  1  0.517400  0.014300  0.210200  1.0  -0.4415
  C  C345  1  0.900100  0.070300  0.121200  1.0  0.7144
  C  C346  1  0.940000  0.121600  0.141300  1.0  -0.4392
  C  C347  1  0.817800  0.014200  0.407800  1.0  0.7136
  C  C348  1  0.880300  0.023400  0.408900  1.0  -0.4209
  C  C349  1  0.858500  0.211300  0.365400  1.0  0.7277
  C  C350  1  0.910700  0.227700  0.430500  1.0  -0.4979
  C  C351  1  0.774900  0.181400  0.029900  1.0  0.7187
  C  C352  1  0.764300  0.232600  0.960200  1.0  -0.4397
  C  C353  1  0.400100  0.570300  0.621200  1.0  0.7144
  C  C354  1  0.440000  0.621600  0.641300  1.0  -0.4392
  C  C355  1  0.317800  0.514200  0.907800  1.0  0.7135
  C  C356  1  0.380300  0.523400  0.908900  1.0  -0.421
  C  C357  1  0.358500  0.711300  0.865400  1.0  0.7277
  C  C358  1  0.410700  0.727700  0.930500  1.0  -0.4979
  C  C359  1  0.274900  0.681400  0.529900  1.0  0.7187
  C  C360  1  0.264300  0.732600  0.460200  1.0  -0.4397
  C  C361  1  0.599900  0.929700  0.621200  1.0  0.7148
  C  C362  1  0.560000  0.878400  0.641300  1.0  -0.4393
  C  C363  1  0.682200  0.985800  0.907800  1.0  0.7131
  C  C364  1  0.619700  0.976600  0.908900  1.0  -0.4205
  C  C365  1  0.641500  0.788700  0.865400  1.0  0.7274
  C  C366  1  0.589300  0.772300  0.930500  1.0  -0.4967
  C  C367  1  0.725100  0.818600  0.529900  1.0  0.7198
  C  C368  1  0.735700  0.767400  0.460200  1.0  -0.4402
  C  C369  1  0.099900  0.429700  0.121200  1.0  0.7147
  C  C370  1  0.060000  0.378400  0.141300  1.0  -0.4393
  C  C371  1  0.182200  0.485800  0.407800  1.0  0.7132
  C  C372  1  0.119700  0.476600  0.408900  1.0  -0.4203
  C  C373  1  0.141500  0.288700  0.365400  1.0  0.7274
  C  C374  1  0.089300  0.272300  0.430500  1.0  -0.4967
  C  C375  1  0.225100  0.318600  0.029900  1.0  0.7198
  C  C376  1  0.235700  0.267400  0.960200  1.0  -0.4402
  O  O377  1  0.674140  0.598240  0.607700  1.0  -0.6792
  O  O378  1  0.725600  0.671000  0.672000  1.0  -0.7405
  O  O379  1  0.704070  0.535760  0.400600  1.0  -0.7093
  O  O380  1  0.777900  0.550000  0.290700  1.0  -0.6245
  O  O381  1  0.590700  0.603000  0.408800  1.0  -0.6107
  O  O382  1  0.499200  0.575100  0.413100  1.0  -0.6012
  O  O383  1  0.560590  0.533000  0.615300  1.0  -0.7065
  O  O384  1  0.616100  0.526600  0.765000  1.0  -0.6046
  O  O385  1  0.673200  0.479300  0.577800  1.0  -0.9421
  O  O386  1  0.174140  0.098240  0.107700  1.0  -0.6792
  O  O387  1  0.225600  0.171000  0.172000  1.0  -0.7405
  O  O388  1  0.204070  0.035760  0.900600  1.0  -0.7093
  O  O389  1  0.277900  0.050000  0.790700  1.0  -0.6245
  O  O390  1  0.090700  0.103000  0.908800  1.0  -0.6107
  O  O391  1  0.999200  0.075100  0.913100  1.0  -0.6012
  O  O392  1  0.060590  0.033000  0.115300  1.0  -0.7065
  O  O393  1  0.116100  0.026600  0.265000  1.0  -0.6046
  O  O394  1  0.173200  0.979300  0.077800  1.0  -0.9421
  O  O395  1  0.825860  0.401760  0.107700  1.0  -0.6797
  O  O396  1  0.774400  0.329000  0.172000  1.0  -0.7397
  O  O397  1  0.795930  0.464240  0.900600  1.0  -0.7093
  O  O398  1  0.722100  0.450000  0.790700  1.0  -0.6246
  O  O399  1  0.909300  0.397000  0.908800  1.0  -0.6093
  O  O400  1  0.000800  0.424900  0.913100  1.0  -0.603
  O  O401  1  0.939410  0.467000  0.115300  1.0  -0.7071
  O  O402  1  0.883900  0.473400  0.265000  1.0  -0.6041
  O  O403  1  0.826800  0.520700  0.077800  1.0  -0.9421
  O  O404  1  0.325860  0.901760  0.607700  1.0  -0.6797
  O  O405  1  0.274400  0.829000  0.672000  1.0  -0.7397
  O  O406  1  0.295930  0.964240  0.400600  1.0  -0.7093
  O  O407  1  0.222100  0.950000  0.290700  1.0  -0.6246
  O  O408  1  0.409300  0.897000  0.408800  1.0  -0.6093
  O  O409  1  0.500800  0.924900  0.413100  1.0  -0.603
  O  O410  1  0.439410  0.967000  0.615300  1.0  -0.7071
  O  O411  1  0.383900  0.973400  0.765000  1.0  -0.6041
  O  O412  1  0.326800  0.020700  0.577800  1.0  -0.9421
  O  O413  1  0.151760  0.924140  0.857700  1.0  -0.6769
  O  O414  1  0.079000  0.975600  0.922000  1.0  -0.7402
  O  O415  1  0.214240  0.954070  0.650600  1.0  -0.7082
  O  O416  1  0.200000  0.027900  0.540700  1.0  -0.6289
  O  O417  1  0.147000  0.840700  0.658800  1.0  -0.6121
  O  O418  1  0.174900  0.749200  0.663100  1.0  -0.6036
  O  O419  1  0.217000  0.810590  0.865300  1.0  -0.704
  O  O420  1  0.223400  0.866100  0.015000  1.0  -0.6061
  O  O421  1  0.270700  0.923200  0.827800  1.0  -0.9396
  O  O422  1  0.651760  0.424140  0.357700  1.0  -0.6769
  O  O423  1  0.579000  0.475600  0.422000  1.0  -0.7402
  O  O424  1  0.714240  0.454070  0.150600  1.0  -0.7082
  O  O425  1  0.700000  0.527900  0.040700  1.0  -0.6289
  O  O426  1  0.647000  0.340700  0.158800  1.0  -0.6121
  O  O427  1  0.674900  0.249200  0.163100  1.0  -0.6036
  O  O428  1  0.717000  0.310590  0.365300  1.0  -0.704
  O  O429  1  0.723400  0.366100  0.515000  1.0  -0.6061
  O  O430  1  0.770700  0.423200  0.327800  1.0  -0.9396
  O  O431  1  0.348240  0.075860  0.357700  1.0  -0.6786
  O  O432  1  0.421000  0.024400  0.422000  1.0  -0.7395
  O  O433  1  0.285760  0.045930  0.150600  1.0  -0.7071
  O  O434  1  0.300000  0.972100  0.040700  1.0  -0.6297
  O  O435  1  0.353000  0.159300  0.158800  1.0  -0.6129
  O  O436  1  0.325100  0.250800  0.163100  1.0  -0.6018
  O  O437  1  0.283000  0.189410  0.365300  1.0  -0.7044
  O  O438  1  0.276600  0.133900  0.515000  1.0  -0.6062
  O  O439  1  0.229300  0.076800  0.327800  1.0  -0.9391
  O  O440  1  0.848240  0.575860  0.857700  1.0  -0.6786
  O  O441  1  0.921000  0.524400  0.922000  1.0  -0.7395
  O  O442  1  0.785760  0.545930  0.650600  1.0  -0.7071
  O  O443  1  0.800000  0.472100  0.540700  1.0  -0.6297
  O  O444  1  0.853000  0.659300  0.658800  1.0  -0.6129
  O  O445  1  0.825100  0.750800  0.663100  1.0  -0.6018
  O  O446  1  0.783000  0.689410  0.865300  1.0  -0.7044
  O  O447  1  0.776600  0.633900  0.015000  1.0  -0.6062
  O  O448  1  0.729300  0.576800  0.827800  1.0  -0.939
  O  O449  1  0.325860  0.401760  0.392300  1.0  -0.6797
  O  O450  1  0.274400  0.329000  0.328000  1.0  -0.7398
  O  O451  1  0.295930  0.464240  0.599400  1.0  -0.7098
  O  O452  1  0.222100  0.450000  0.709300  1.0  -0.625
  O  O453  1  0.409300  0.397000  0.591200  1.0  -0.6094
  O  O454  1  0.500800  0.424900  0.586900  1.0  -0.6023
  O  O455  1  0.439410  0.467000  0.384700  1.0  -0.7084
  O  O456  1  0.383900  0.473400  0.235000  1.0  -0.6035
  O  O457  1  0.326800  0.520700  0.422200  1.0  -0.9432
  O  O458  1  0.825860  0.901760  0.892300  1.0  -0.6797
  O  O459  1  0.774400  0.829000  0.828000  1.0  -0.7398
  O  O460  1  0.795930  0.964240  0.099400  1.0  -0.7098
  O  O461  1  0.722100  0.950000  0.209300  1.0  -0.625
  O  O462  1  0.909300  0.897000  0.091200  1.0  -0.6094
  O  O463  1  0.000800  0.924900  0.086900  1.0  -0.6023
  O  O464  1  0.939410  0.967000  0.884700  1.0  -0.7084
  O  O465  1  0.883900  0.973400  0.735000  1.0  -0.6035
  O  O466  1  0.826800  0.020700  0.922200  1.0  -0.9432
  O  O467  1  0.174140  0.598240  0.892300  1.0  -0.6791
  O  O468  1  0.225600  0.671000  0.828000  1.0  -0.7404
  O  O469  1  0.204070  0.535760  0.099400  1.0  -0.7097
  O  O470  1  0.277900  0.550000  0.209300  1.0  -0.6252
  O  O471  1  0.090700  0.603000  0.091200  1.0  -0.611
  O  O472  1  0.999200  0.575100  0.086900  1.0  -0.6009
  O  O473  1  0.060590  0.533000  0.884700  1.0  -0.7081
  O  O474  1  0.116100  0.526600  0.735000  1.0  -0.6047
  O  O475  1  0.173200  0.479300  0.922200  1.0  -0.9431
  O  O476  1  0.674140  0.098240  0.392300  1.0  -0.6791
  O  O477  1  0.725600  0.171000  0.328000  1.0  -0.7404
  O  O478  1  0.704070  0.035760  0.599400  1.0  -0.7097
  O  O479  1  0.777900  0.050000  0.709300  1.0  -0.6252
  O  O480  1  0.590700  0.103000  0.591200  1.0  -0.611
  O  O481  1  0.499200  0.075100  0.586900  1.0  -0.6009
  O  O482  1  0.560590  0.033000  0.384700  1.0  -0.7081
  O  O483  1  0.616100  0.026600  0.235000  1.0  -0.6047
  O  O484  1  0.673200  0.979300  0.422200  1.0  -0.9431
  O  O485  1  0.848240  0.075860  0.142300  1.0  -0.6784
  O  O486  1  0.921000  0.024400  0.078000  1.0  -0.7392
  O  O487  1  0.785760  0.045930  0.349400  1.0  -0.7077
  O  O488  1  0.800000  0.972100  0.459300  1.0  -0.6303
  O  O489  1  0.853000  0.159300  0.341200  1.0  -0.6133
  O  O490  1  0.825100  0.250800  0.336900  1.0  -0.6012
  O  O491  1  0.783000  0.189410  0.134700  1.0  -0.7077
  O  O492  1  0.776600  0.133900  0.985000  1.0  -0.6058
  O  O493  1  0.729300  0.076800  0.172200  1.0  -0.9405
  O  O494  1  0.348240  0.575860  0.642300  1.0  -0.6784
  O  O495  1  0.421000  0.524400  0.578000  1.0  -0.7392
  O  O496  1  0.285760  0.545930  0.849400  1.0  -0.7077
  O  O497  1  0.300000  0.472100  0.959300  1.0  -0.6303
  O  O498  1  0.353000  0.659300  0.841200  1.0  -0.6133
  O  O499  1  0.325100  0.750800  0.836900  1.0  -0.6012
  O  O500  1  0.283000  0.689410  0.634700  1.0  -0.7077
  O  O501  1  0.276600  0.633900  0.485000  1.0  -0.6058
  O  O502  1  0.229300  0.576800  0.672200  1.0  -0.9405
  O  O503  1  0.651760  0.924140  0.642300  1.0  -0.6768
  O  O504  1  0.579000  0.975600  0.578000  1.0  -0.7401
  O  O505  1  0.714240  0.954070  0.849400  1.0  -0.7086
  O  O506  1  0.700000  0.027900  0.959300  1.0  -0.629
  O  O507  1  0.647000  0.840700  0.841200  1.0  -0.6119
  O  O508  1  0.674900  0.749200  0.836900  1.0  -0.603
  O  O509  1  0.717000  0.810590  0.634700  1.0  -0.707
  O  O510  1  0.723400  0.866100  0.485000  1.0  -0.6063
  O  O511  1  0.770700  0.923200  0.672200  1.0  -0.9403
  O  O512  1  0.151760  0.424140  0.142300  1.0  -0.6768
  O  O513  1  0.079000  0.475600  0.078000  1.0  -0.7401
  O  O514  1  0.214240  0.454070  0.349400  1.0  -0.7085
  O  O515  1  0.200000  0.527900  0.459300  1.0  -0.629
  O  O516  1  0.147000  0.340700  0.341200  1.0  -0.6119
  O  O517  1  0.174900  0.249200  0.336900  1.0  -0.603
  O  O518  1  0.217000  0.310590  0.134700  1.0  -0.707
  O  O519  1  0.223400  0.366100  0.985000  1.0  -0.6063
  O  O520  1  0.270700  0.423200  0.172200  1.0  -0.9403
