# generated using pymatgen
data_Fe3P3H2(CO5)4
_symmetry_space_group_name_H-M   'P 1'
_cell_length_a   9.63670000
_cell_length_b   10.17600000
_cell_length_c   12.61640000
_cell_angle_alpha   86.30200000
_cell_angle_beta   68.88000000
_cell_angle_gamma   61.80000000
_symmetry_Int_Tables_number   1
_chemical_formula_structural   Fe3P3H2(CO5)4
_chemical_formula_sum   'Fe6 P6 H4 C8 O40'
_cell_volume   1008.65618035
_cell_formula_units_Z   2
loop_
 _symmetry_equiv_pos_site_id
 _symmetry_equiv_pos_as_xyz
  1  'x, y, z'
loop_
 _atom_site_type_symbol
 _atom_site_label
 _atom_site_symmetry_multiplicity
 _atom_site_fract_x
 _atom_site_fract_y
 _atom_site_fract_z
 _atom_site_occupancy
 _atom_site_charge
  Fe  Fe1  1  0.096550  0.150340  0.337130  1.0  1.233
  Fe  Fe2  1  0.862910  0.922710  0.167020  1.0  1.3598
  Fe  Fe3  1  0.261920  0.231580  0.576790  1.0  1.099
  Fe  Fe4  1  0.903450  0.849660  0.662870  1.0  1.234
  Fe  Fe5  1  0.137090  0.077290  0.832980  1.0  1.3591
  Fe  Fe6  1  0.738080  0.768420  0.423210  1.0  1.1014
  P  P7  1  0.476790  0.022340  0.322270  1.0  1.8337
  P  P8  1  0.891400  0.963350  0.416850  1.0  1.7998
  P  P9  1  0.004010  0.161910  0.111810  1.0  1.8572
  P  P10  1  0.523210  0.977660  0.677730  1.0  1.8351
  P  P11  1  0.108600  0.036650  0.583150  1.0  1.7972
  P  P12  1  0.995990  0.838090  0.888190  1.0  1.8573
  H  H13  1  0.635800  0.134800  0.525600  1.0  0.4439
  H  H14  1  0.935200  0.401700  0.105300  1.0  0.4681
  H  H15  1  0.364200  0.865200  0.474400  1.0  0.4447
  H  H16  1  0.064800  0.598300  0.894700  1.0  0.4687
  C  C17  1  0.999600  0.460300  0.364200  1.0  0.6849
  C  C18  1  0.832200  0.453100  0.402000  1.0  0.6293
  C  C19  1  0.020800  0.603100  0.131000  1.0  0.6418
  C  C20  1  0.163300  0.642700  0.118400  1.0  0.6284
  C  C21  1  0.000400  0.539700  0.635800  1.0  0.6817
  C  C22  1  0.167800  0.546900  0.598000  1.0  0.6207
  C  C23  1  0.979200  0.396900  0.869000  1.0  0.6424
  C  C24  1  0.836700  0.357300  0.881600  1.0  0.6304
  O  O25  1  0.615800  0.025600  0.214800  1.0  -0.7122
  O  O26  1  0.340400  0.028900  0.281500  1.0  -0.7325
  O  O27  1  0.408800  0.156500  0.408900  1.0  -0.768
  O  O28  1  0.539200  0.873300  0.372600  1.0  -0.7646
  O  O29  1  0.041900  0.986300  0.350900  1.0  -0.7517
  O  O30  1  0.925800  0.849100  0.500500  1.0  -0.803
  O  O31  1  0.837100  0.906900  0.336600  1.0  -0.7974
  O  O32  1  0.739100  0.120900  0.481000  1.0  -0.5208
  O  O33  1  0.114300  0.078900  0.992200  1.0  -0.7705
  O  O34  1  0.876400  0.107700  0.176000  1.0  -0.7437
  O  O35  1  0.118700  0.149800  0.173800  1.0  -0.7498
  O  O36  1  0.889000  0.334100  0.108700  1.0  -0.4994
  O  O37  1  0.133500  0.337600  0.326900  1.0  -0.5064
  O  O38  1  0.986500  0.588000  0.370800  1.0  -0.5134
  O  O39  1  0.849200  0.324500  0.386800  1.0  -0.5224
  O  O40  1  0.696800  0.572100  0.441000  1.0  -0.5225
  O  O41  1  0.873100  0.714900  0.166600  1.0  -0.5255
  O  O42  1  0.061500  0.471200  0.107900  1.0  -0.5242
  O  O43  1  0.116400  0.781900  0.129100  1.0  -0.5209
  O  O44  1  0.307900  0.540400  0.101900  1.0  -0.4235
  O  O45  1  0.384200  0.974400  0.785200  1.0  -0.7106
  O  O46  1  0.659600  0.971100  0.718500  1.0  -0.7313
  O  O47  1  0.591200  0.843500  0.591100  1.0  -0.7685
  O  O48  1  0.460800  0.126700  0.627400  1.0  -0.7669
  O  O49  1  0.958100  0.013700  0.649100  1.0  -0.7531
  O  O50  1  0.074200  0.150900  0.499500  1.0  -0.8038
  O  O51  1  0.162900  0.093100  0.663400  1.0  -0.7973
  O  O52  1  0.260900  0.879100  0.519000  1.0  -0.5218
  O  O53  1  0.885700  0.921100  0.007800  1.0  -0.7729
  O  O54  1  0.123600  0.892300  0.824000  1.0  -0.7434
  O  O55  1  0.881300  0.850200  0.826200  1.0  -0.7487
  O  O56  1  0.111000  0.665900  0.891300  1.0  -0.4978
  O  O57  1  0.866500  0.662400  0.673100  1.0  -0.5062
  O  O58  1  0.013500  0.412000  0.629200  1.0  -0.5148
  O  O59  1  0.150800  0.675500  0.613200  1.0  -0.5231
  O  O60  1  0.303200  0.427900  0.559000  1.0  -0.5228
  O  O61  1  0.126900  0.285100  0.833400  1.0  -0.5245
  O  O62  1  0.938500  0.528800  0.892100  1.0  -0.5229
  O  O63  1  0.883600  0.218100  0.870900  1.0  -0.5225
  O  O64  1  0.692100  0.459600  0.898100  1.0  -0.426
