# generated using pymatgen
data_CoH20C20(NO)4
_symmetry_space_group_name_H-M   'P 1'
_cell_length_a   14.34900000
_cell_length_b   12.08800000
_cell_length_c   26.62000000
_cell_angle_alpha   90.00000000
_cell_angle_beta   97.25500000
_cell_angle_gamma   90.00000000
_symmetry_Int_Tables_number   1
_chemical_formula_structural   CoH20C20(NO)4
_chemical_formula_sum   'Co8 H160 C160 N32 O32'
_cell_volume   4580.29187675
_cell_formula_units_Z   8
loop_
 _symmetry_equiv_pos_site_id
 _symmetry_equiv_pos_as_xyz
  1  'x, y, z'
loop_
 _atom_site_type_symbol
 _atom_site_label
 _atom_site_symmetry_multiplicity
 _atom_site_fract_x
 _atom_site_fract_y
 _atom_site_fract_z
 _atom_site_occupancy
 _atom_site_charge
  Co  Co1  1  0.159460  0.211710  0.307300  1.0  0.9206
  Co  Co2  1  0.641940  0.837620  0.785060  1.0  0.8722
  Co  Co3  1  0.840540  0.711710  0.192700  1.0  0.92
  Co  Co4  1  0.358060  0.337620  0.714940  1.0  0.8743
  Co  Co5  1  0.840540  0.788290  0.692700  1.0  0.9203
  Co  Co6  1  0.358060  0.162380  0.214940  1.0  0.8735
  Co  Co7  1  0.159460  0.288290  0.807300  1.0  0.9199
  Co  Co8  1  0.641940  0.662380  0.285060  1.0  0.8726
  H  H9  1  0.119300  0.982700  0.254600  1.0  0.0664
  H  H10  1  0.052000  0.906700  0.179800  1.0  0.1177
  H  H11  1  0.948300  0.210100  0.140600  1.0  0.1281
  H  H12  1  0.017800  0.274600  0.217100  1.0  0.0873
  H  H13  1  0.955500  0.929700  0.095100  1.0  0.0764
  H  H14  1  0.859600  0.142200  0.985700  1.0  0.1055
  H  H15  1  0.837400  0.853300  0.955600  1.0  0.1066
  H  H16  1  0.762100  0.778100  0.883100  1.0  0.0864
  H  H17  1  0.706000  0.071000  0.825700  1.0  0.0733
  H  H18  1  0.779900  0.153800  0.897900  1.0  0.1089
  H  H19  1  0.219900  0.444800  0.350100  1.0  0.0707
  H  H20  1  0.293700  0.528300  0.420800  1.0  0.1173
  H  H21  1  0.353200  0.226400  0.479800  1.0  0.129
  H  H22  1  0.274300  0.150800  0.407600  1.0  0.0917
  H  H23  1  0.412400  0.389600  0.530000  1.0  0.0702
  H  H24  1  0.394200  0.709200  0.552500  1.0  0.0836
  H  H25  1  0.529000  0.551000  0.648400  1.0  0.1107
  H  H26  1  0.603800  0.614800  0.724400  1.0  0.0664
  H  H27  1  0.493500  0.906500  0.700300  1.0  0.074
  H  H28  1  0.421500  0.853500  0.622200  1.0  0.1274
  H  H29  1  0.258500  0.901100  0.344200  1.0  0.0895
  H  H30  1  0.456400  0.933300  0.350400  1.0  0.0903
  H  H31  1  0.392900  0.981200  0.389100  1.0  0.0872
  H  H32  1  0.474800  0.820700  0.421200  1.0  0.089
  H  H33  1  0.365800  0.806600  0.419300  1.0  0.0818
  H  H34  1  0.419600  0.646200  0.389600  1.0  0.1014
  H  H35  1  0.277000  0.694600  0.345500  1.0  0.0778
  H  H36  1  0.335800  0.638600  0.306600  1.0  0.082
  H  H37  1  0.375100  0.814100  0.276500  1.0  0.0841
  H  H38  1  0.265400  0.800900  0.270500  1.0  0.079
  H  H39  1  0.254000  0.472800  0.178500  1.0  0.0965
  H  H40  1  0.133300  0.368000  0.129900  1.0  0.088
  H  H41  1  0.057900  0.421400  0.160400  1.0  0.0812
  H  H42  1  0.055100  0.515300  0.084200  1.0  0.0919
  H  H43  1  0.163500  0.536800  0.094400  1.0  0.096
  H  H44  1  0.097900  0.700100  0.110800  1.0  0.0908
  H  H45  1  0.221900  0.674500  0.171500  1.0  0.0784
  H  H46  1  0.143200  0.725800  0.200100  1.0  0.0782
  H  H47  1  0.215100  0.579000  0.246800  1.0  0.074
  H  H48  1  0.108500  0.552100  0.230800  1.0  0.0723
  H  H49  1  0.880700  0.482700  0.245400  1.0  0.066
  H  H50  1  0.948000  0.406700  0.320200  1.0  0.1184
  H  H51  1  0.051700  0.710100  0.359400  1.0  0.1286
  H  H52  1  0.982200  0.774600  0.282900  1.0  0.0876
  H  H53  1  0.044500  0.429700  0.404900  1.0  0.076
  H  H54  1  0.140400  0.642200  0.514300  1.0  0.106
  H  H55  1  0.162600  0.353300  0.544400  1.0  0.1065
  H  H56  1  0.237900  0.278100  0.616900  1.0  0.0867
  H  H57  1  0.294000  0.571000  0.674300  1.0  0.0737
  H  H58  1  0.220100  0.653800  0.602100  1.0  0.1087
  H  H59  1  0.780100  0.944800  0.149900  1.0  0.0706
  H  H60  1  0.706300  0.028300  0.079200  1.0  0.1177
  H  H61  1  0.646800  0.726400  0.020200  1.0  0.1287
  H  H62  1  0.725700  0.650800  0.092400  1.0  0.0918
  H  H63  1  0.587600  0.889600  0.970000  1.0  0.0699
  H  H64  1  0.605800  0.209200  0.947500  1.0  0.0834
  H  H65  1  0.471000  0.051000  0.851600  1.0  0.1109
  H  H66  1  0.396200  0.114800  0.775600  1.0  0.0656
  H  H67  1  0.506500  0.406500  0.799700  1.0  0.0744
  H  H68  1  0.578500  0.353500  0.877800  1.0  0.1271
  H  H69  1  0.741500  0.401100  0.155800  1.0  0.0897
  H  H70  1  0.543600  0.433300  0.149600  1.0  0.0905
  H  H71  1  0.607100  0.481200  0.110900  1.0  0.0879
  H  H72  1  0.525200  0.320700  0.078800  1.0  0.0905
  H  H73  1  0.634200  0.306600  0.080700  1.0  0.0811
  H  H74  1  0.580400  0.146200  0.110400  1.0  0.1009
  H  H75  1  0.723000  0.194600  0.154500  1.0  0.0756
  H  H76  1  0.664200  0.138600  0.193400  1.0  0.0826
  H  H77  1  0.624900  0.314100  0.223500  1.0  0.0825
  H  H78  1  0.734600  0.300900  0.229500  1.0  0.0785
  H  H79  1  0.746000  0.972800  0.321500  1.0  0.0963
  H  H80  1  0.866700  0.868000  0.370100  1.0  0.088
  H  H81  1  0.942100  0.921400  0.339600  1.0  0.0838
  H  H82  1  0.944900  0.015300  0.415800  1.0  0.0919
  H  H83  1  0.836500  0.036800  0.405600  1.0  0.0959
  H  H84  1  0.902100  0.200100  0.389200  1.0  0.0881
  H  H85  1  0.778100  0.174500  0.328500  1.0  0.0789
  H  H86  1  0.856800  0.225800  0.299900  1.0  0.0782
  H  H87  1  0.784900  0.079000  0.253200  1.0  0.0741
  H  H88  1  0.891500  0.052100  0.269200  1.0  0.075
  H  H89  1  0.880700  0.017300  0.745400  1.0  0.0666
  H  H90  1  0.948000  0.093300  0.820200  1.0  0.1187
  H  H91  1  0.051700  0.789900  0.859400  1.0  0.1288
  H  H92  1  0.982200  0.725400  0.782900  1.0  0.0876
  H  H93  1  0.044500  0.070300  0.904900  1.0  0.0754
  H  H94  1  0.140400  0.857800  0.014300  1.0  0.107
  H  H95  1  0.162600  0.146700  0.044400  1.0  0.1065
  H  H96  1  0.237900  0.221900  0.116900  1.0  0.0877
  H  H97  1  0.294000  0.929000  0.174300  1.0  0.0738
  H  H98  1  0.220100  0.846200  0.102100  1.0  0.1094
  H  H99  1  0.780100  0.555200  0.649900  1.0  0.0706
  H  H100  1  0.706300  0.471700  0.579200  1.0  0.117
  H  H101  1  0.646800  0.773600  0.520200  1.0  0.1285
  H  H102  1  0.725700  0.849200  0.592400  1.0  0.0909
  H  H103  1  0.587600  0.610400  0.470000  1.0  0.0698
  H  H104  1  0.605800  0.290800  0.447500  1.0  0.0837
  H  H105  1  0.471000  0.449000  0.351600  1.0  0.1103
  H  H106  1  0.396200  0.385200  0.275600  1.0  0.0656
  H  H107  1  0.506500  0.093500  0.299700  1.0  0.0747
  H  H108  1  0.578500  0.146500  0.377800  1.0  0.1274
  H  H109  1  0.741500  0.098900  0.655800  1.0  0.0898
  H  H110  1  0.543600  0.066700  0.649600  1.0  0.0909
  H  H111  1  0.607100  0.018800  0.610900  1.0  0.087
  H  H112  1  0.525200  0.179300  0.578800  1.0  0.0901
  H  H113  1  0.634200  0.193400  0.580700  1.0  0.0808
  H  H114  1  0.580400  0.353800  0.610400  1.0  0.1004
  H  H115  1  0.723000  0.305400  0.654500  1.0  0.0755
  H  H116  1  0.664200  0.361400  0.693400  1.0  0.0825
  H  H117  1  0.624900  0.185900  0.723500  1.0  0.0826
  H  H118  1  0.734600  0.199100  0.729500  1.0  0.0783
  H  H119  1  0.746000  0.527200  0.821500  1.0  0.0962
  H  H120  1  0.866700  0.632000  0.870100  1.0  0.0865
  H  H121  1  0.942100  0.578600  0.839600  1.0  0.0839
  H  H122  1  0.944900  0.484700  0.915800  1.0  0.0916
  H  H123  1  0.836500  0.463200  0.905600  1.0  0.0957
  H  H124  1  0.902100  0.299900  0.889200  1.0  0.0899
  H  H125  1  0.778100  0.325500  0.828500  1.0  0.0788
  H  H126  1  0.856800  0.274200  0.799900  1.0  0.0786
  H  H127  1  0.784900  0.421000  0.753200  1.0  0.074
  H  H128  1  0.891500  0.447900  0.769200  1.0  0.0748
  H  H129  1  0.119300  0.517300  0.754600  1.0  0.0661
  H  H130  1  0.052000  0.593300  0.679800  1.0  0.1181
  H  H131  1  0.948300  0.289900  0.640600  1.0  0.1274
  H  H132  1  0.017800  0.225400  0.717100  1.0  0.0877
  H  H133  1  0.955500  0.570300  0.595100  1.0  0.0758
  H  H134  1  0.859600  0.357800  0.485700  1.0  0.1071
  H  H135  1  0.837400  0.646700  0.455600  1.0  0.1061
  H  H136  1  0.762100  0.721900  0.383100  1.0  0.0873
  H  H137  1  0.706000  0.429000  0.325700  1.0  0.0731
  H  H138  1  0.779900  0.346200  0.397900  1.0  0.1096
  H  H139  1  0.219900  0.055200  0.850100  1.0  0.0704
  H  H140  1  0.293700  0.971700  0.920800  1.0  0.1168
  H  H141  1  0.353200  0.273600  0.979800  1.0  0.1287
  H  H142  1  0.274300  0.349200  0.907600  1.0  0.0913
  H  H143  1  0.412400  0.110400  0.030000  1.0  0.0698
  H  H144  1  0.394200  0.790800  0.052500  1.0  0.0832
  H  H145  1  0.529000  0.949000  0.148400  1.0  0.1102
  H  H146  1  0.603800  0.885200  0.224400  1.0  0.0656
  H  H147  1  0.493500  0.593500  0.200300  1.0  0.0747
  H  H148  1  0.421500  0.646500  0.122200  1.0  0.1276
  H  H149  1  0.258500  0.598900  0.844200  1.0  0.0898
  H  H150  1  0.456400  0.566700  0.850400  1.0  0.0898
  H  H151  1  0.392900  0.518800  0.889100  1.0  0.0881
  H  H152  1  0.474800  0.679300  0.921200  1.0  0.0894
  H  H153  1  0.365800  0.693400  0.919300  1.0  0.0817
  H  H154  1  0.419600  0.853800  0.889600  1.0  0.0997
  H  H155  1  0.277000  0.805400  0.845500  1.0  0.0782
  H  H156  1  0.335800  0.861400  0.806600  1.0  0.0829
  H  H157  1  0.375100  0.685900  0.776500  1.0  0.0841
  H  H158  1  0.265400  0.699100  0.770500  1.0  0.079
  H  H159  1  0.254000  0.027200  0.678500  1.0  0.0965
  H  H160  1  0.133300  0.132000  0.629900  1.0  0.0885
  H  H161  1  0.057900  0.078600  0.660400  1.0  0.0814
  H  H162  1  0.055100  0.984700  0.584200  1.0  0.0921
  H  H163  1  0.163500  0.963200  0.594400  1.0  0.096
  H  H164  1  0.097900  0.799900  0.610800  1.0  0.0917
  H  H165  1  0.221900  0.825500  0.671500  1.0  0.0785
  H  H166  1  0.143200  0.774200  0.700100  1.0  0.0796
  H  H167  1  0.215100  0.921000  0.746800  1.0  0.0737
  H  H168  1  0.108500  0.947900  0.730800  1.0  0.0721
  C  C169  1  0.085800  0.028600  0.230800  1.0  0.1846
  C  C170  1  0.045600  0.981800  0.186100  1.0  -0.166
  C  C171  1  0.995300  0.050600  0.150600  1.0  -0.04
  C  C172  1  0.983800  0.163000  0.163000  1.0  -0.1263
  C  C173  1  0.026200  0.200900  0.208600  1.0  0.1374
  C  C174  1  0.957000  0.005900  0.100000  1.0  0.1665
  C  C175  1  0.858000  0.065500  0.983000  1.0  0.1339
  C  C176  1  0.816400  0.012200  0.936500  1.0  0.0803
  C  C177  1  0.810300  0.899800  0.930000  1.0  -0.0947
  C  C178  1  0.764800  0.854700  0.886300  1.0  0.1679
  C  C179  1  0.731500  0.026700  0.852500  1.0  0.1704
  C  C180  1  0.776400  0.077100  0.895900  1.0  -0.1855
  C  C181  1  0.246200  0.400600  0.376800  1.0  0.1772
  C  C182  1  0.291400  0.451500  0.418900  1.0  -0.1324
  C  C183  1  0.333600  0.388300  0.458400  1.0  0.0148
  C  C184  1  0.326200  0.272100  0.453800  1.0  -0.129
  C  C185  1  0.278500  0.227400  0.410500  1.0  0.1658
  C  C186  1  0.383100  0.436800  0.505300  1.0  0.19
  C  C187  1  0.428100  0.659500  0.574400  1.0  0.1568
  C  C188  1  0.470900  0.697900  0.625200  1.0  0.0531
  C  C189  1  0.523200  0.624700  0.657500  1.0  -0.1489
  C  C190  1  0.566600  0.663400  0.703500  1.0  0.1746
  C  C191  1  0.502800  0.834800  0.689300  1.0  0.178
  C  C192  1  0.458900  0.803400  0.642200  1.0  -0.1795
  C  C193  1  0.302300  0.016600  0.295800  1.0  0.6882
  C  C194  1  0.313900  0.909300  0.326500  1.0  -0.1848
  C  C195  1  0.401200  0.919100  0.367000  1.0  -0.1331
  C  C196  1  0.416400  0.813900  0.398600  1.0  -0.126
  C  C197  1  0.420400  0.709800  0.366800  1.0  -0.1641
  C  C198  1  0.331800  0.703000  0.327900  1.0  -0.1318
  C  C199  1  0.321300  0.807400  0.295000  1.0  -0.1425
  C  C200  1  0.509700  0.698600  0.338600  1.0  0.6336
  C  C201  1  0.210100  0.356800  0.227100  1.0  0.6704
  C  C202  1  0.195200  0.458600  0.192600  1.0  -0.1848
  C  C203  1  0.117200  0.434400  0.147400  1.0  -0.1443
  C  C204  1  0.106600  0.530800  0.110500  1.0  -0.1501
  C  C205  1  0.088300  0.641900  0.135200  1.0  -0.1765
  C  C206  1  0.160800  0.660600  0.182300  1.0  -0.1298
  C  C207  1  0.168400  0.563100  0.218100  1.0  -0.1513
  C  C208  1  0.989600  0.652500  0.147500  1.0  0.637
  C  C209  1  0.914200  0.528600  0.269200  1.0  0.1849
  C  C210  1  0.954400  0.481800  0.313900  1.0  -0.1654
  C  C211  1  0.004700  0.550600  0.349400  1.0  -0.0395
  C  C212  1  0.016200  0.663000  0.337000  1.0  -0.1259
  C  C213  1  0.973800  0.700900  0.291400  1.0  0.1377
  C  C214  1  0.043000  0.505900  0.400000  1.0  0.1678
  C  C215  1  0.142000  0.565500  0.517000  1.0  0.1339
  C  C216  1  0.183600  0.512200  0.563500  1.0  0.0818
  C  C217  1  0.189700  0.399800  0.570000  1.0  -0.093
  C  C218  1  0.235200  0.354700  0.613700  1.0  0.1673
  C  C219  1  0.268500  0.526700  0.647500  1.0  0.1703
  C  C220  1  0.223600  0.577100  0.604100  1.0  -0.186
  C  C221  1  0.753800  0.900600  0.123200  1.0  0.1768
  C  C222  1  0.708600  0.951500  0.081100  1.0  -0.1329
  C  C223  1  0.666400  0.888300  0.041600  1.0  0.0142
  C  C224  1  0.673800  0.772100  0.046200  1.0  -0.1313
  C  C225  1  0.721500  0.727400  0.089500  1.0  0.1644
  C  C226  1  0.616900  0.936800  0.994700  1.0  0.1898
  C  C227  1  0.571900  0.159500  0.925600  1.0  0.1567
  C  C228  1  0.529100  0.197900  0.874800  1.0  0.0529
  C  C229  1  0.476800  0.124700  0.842500  1.0  -0.1498
  C  C230  1  0.433400  0.163400  0.796500  1.0  0.1745
  C  C231  1  0.497200  0.334800  0.810700  1.0  0.1784
  C  C232  1  0.541100  0.303400  0.857800  1.0  -0.1808
  C  C233  1  0.697700  0.516600  0.204200  1.0  0.6857
  C  C234  1  0.686100  0.409300  0.173500  1.0  -0.184
  C  C235  1  0.598800  0.419100  0.133000  1.0  -0.1325
  C  C236  1  0.583600  0.313900  0.101400  1.0  -0.1269
  C  C237  1  0.579600  0.209800  0.133200  1.0  -0.1655
  C  C238  1  0.668200  0.203000  0.172100  1.0  -0.1338
  C  C239  1  0.678700  0.307400  0.205000  1.0  -0.1425
  C  C240  1  0.490300  0.198600  0.161400  1.0  0.6311
  C  C241  1  0.789900  0.856800  0.272900  1.0  0.6717
  C  C242  1  0.804800  0.958600  0.307400  1.0  -0.1844
  C  C243  1  0.882800  0.934400  0.352600  1.0  -0.1426
  C  C244  1  0.893400  0.030800  0.389500  1.0  -0.1492
  C  C245  1  0.911700  0.141900  0.364800  1.0  -0.1755
  C  C246  1  0.839200  0.160600  0.317700  1.0  -0.1281
  C  C247  1  0.831600  0.063100  0.281900  1.0  -0.1494
  C  C248  1  0.010400  0.152500  0.352500  1.0  0.6398
  C  C249  1  0.914200  0.971400  0.769200  1.0  0.1847
  C  C250  1  0.954400  0.018200  0.813900  1.0  -0.1641
  C  C251  1  0.004700  0.949400  0.849400  1.0  -0.0389
  C  C252  1  0.016200  0.837000  0.837000  1.0  -0.1262
  C  C253  1  0.973800  0.799100  0.791400  1.0  0.1367
  C  C254  1  0.043000  0.994100  0.900000  1.0  0.1695
  C  C255  1  0.142000  0.934500  0.017000  1.0  0.1342
  C  C256  1  0.183600  0.987800  0.063500  1.0  0.081
  C  C257  1  0.189700  0.100200  0.070000  1.0  -0.094
  C  C258  1  0.235200  0.145300  0.113700  1.0  0.1673
  C  C259  1  0.268500  0.973300  0.147500  1.0  0.1709
  C  C260  1  0.223600  0.922900  0.104100  1.0  -0.1842
  C  C261  1  0.753800  0.599400  0.623200  1.0  0.1766
  C  C262  1  0.708600  0.548500  0.581100  1.0  -0.1318
  C  C263  1  0.666400  0.611700  0.541600  1.0  0.0144
  C  C264  1  0.673800  0.727900  0.546200  1.0  -0.1304
  C  C265  1  0.721500  0.772600  0.589500  1.0  0.1662
  C  C266  1  0.616900  0.563200  0.494700  1.0  0.1891
  C  C267  1  0.571900  0.340500  0.425600  1.0  0.1571
  C  C268  1  0.529100  0.302100  0.374800  1.0  0.0528
  C  C269  1  0.476800  0.375300  0.342500  1.0  -0.1507
  C  C270  1  0.433400  0.336600  0.296500  1.0  0.1741
  C  C271  1  0.497200  0.165200  0.310700  1.0  0.1778
  C  C272  1  0.541100  0.196600  0.357800  1.0  -0.1795
  C  C273  1  0.697700  0.983400  0.704200  1.0  0.687
  C  C274  1  0.686100  0.090700  0.673500  1.0  -0.1853
  C  C275  1  0.598800  0.080900  0.633000  1.0  -0.1319
  C  C276  1  0.583600  0.186100  0.601400  1.0  -0.1266
  C  C277  1  0.579600  0.290200  0.633200  1.0  -0.1651
  C  C278  1  0.668200  0.297000  0.672100  1.0  -0.1343
  C  C279  1  0.678700  0.192600  0.705000  1.0  -0.1421
  C  C280  1  0.490300  0.301400  0.661400  1.0  0.6312
  C  C281  1  0.789900  0.643200  0.772900  1.0  0.6717
  C  C282  1  0.804800  0.541400  0.807400  1.0  -0.1847
  C  C283  1  0.882800  0.565600  0.852600  1.0  -0.1442
  C  C284  1  0.893400  0.469200  0.889500  1.0  -0.1493
  C  C285  1  0.911700  0.358100  0.864800  1.0  -0.1753
  C  C286  1  0.839200  0.339400  0.817700  1.0  -0.1275
  C  C287  1  0.831600  0.436900  0.781900  1.0  -0.1495
  C  C288  1  0.010400  0.347500  0.852500  1.0  0.6395
  C  C289  1  0.085800  0.471400  0.730800  1.0  0.1846
  C  C290  1  0.045600  0.518200  0.686100  1.0  -0.1652
  C  C291  1  0.995300  0.449400  0.650600  1.0  -0.0403
  C  C292  1  0.983800  0.337000  0.663000  1.0  -0.1262
  C  C293  1  0.026200  0.299100  0.708600  1.0  0.137
  C  C294  1  0.957000  0.494100  0.600000  1.0  0.1673
  C  C295  1  0.858000  0.434500  0.483000  1.0  0.1342
  C  C296  1  0.816400  0.487800  0.436500  1.0  0.0802
  C  C297  1  0.810300  0.600200  0.430000  1.0  -0.0945
  C  C298  1  0.764800  0.645300  0.386300  1.0  0.1675
  C  C299  1  0.731500  0.473300  0.352500  1.0  0.1705
  C  C300  1  0.776400  0.422900  0.395900  1.0  -0.1845
  C  C301  1  0.246200  0.099400  0.876800  1.0  0.1768
  C  C302  1  0.291400  0.048500  0.918900  1.0  -0.1322
  C  C303  1  0.333600  0.111700  0.958400  1.0  0.0141
  C  C304  1  0.326200  0.227900  0.953800  1.0  -0.1294
  C  C305  1  0.278500  0.272600  0.910500  1.0  0.164
  C  C306  1  0.383100  0.063200  0.005300  1.0  0.1893
  C  C307  1  0.428100  0.840500  0.074400  1.0  0.1567
  C  C308  1  0.470900  0.802100  0.125200  1.0  0.0528
  C  C309  1  0.523200  0.875300  0.157500  1.0  -0.15
  C  C310  1  0.566600  0.836600  0.203500  1.0  0.1746
  C  C311  1  0.502800  0.665200  0.189300  1.0  0.1782
  C  C312  1  0.458900  0.696600  0.142200  1.0  -0.1791
  C  C313  1  0.302300  0.483400  0.795800  1.0  0.6882
  C  C314  1  0.313900  0.590700  0.826500  1.0  -0.1844
  C  C315  1  0.401200  0.580900  0.867000  1.0  -0.1319
  C  C316  1  0.416400  0.686100  0.898600  1.0  -0.1255
  C  C317  1  0.420400  0.790200  0.866800  1.0  -0.1633
  C  C318  1  0.331800  0.797000  0.827900  1.0  -0.1323
  C  C319  1  0.321300  0.692600  0.795000  1.0  -0.1424
  C  C320  1  0.509700  0.801400  0.838600  1.0  0.6337
  C  C321  1  0.210100  0.143200  0.727100  1.0  0.6696
  C  C322  1  0.195200  0.041400  0.692600  1.0  -0.1837
  C  C323  1  0.117200  0.065600  0.647400  1.0  -0.145
  C  C324  1  0.106600  0.969200  0.610500  1.0  -0.1506
  C  C325  1  0.088300  0.858100  0.635200  1.0  -0.1774
  C  C326  1  0.160800  0.839400  0.682300  1.0  -0.129
  C  C327  1  0.168400  0.936900  0.718100  1.0  -0.1516
  C  C328  1  0.989600  0.847500  0.647500  1.0  0.6365
  N  N329  1  0.079800  0.135400  0.242020  1.0  -0.3474
  N  N330  1  0.926700  0.068800  0.063620  1.0  -0.2081
  N  N331  1  0.892900  0.003700  0.020610  1.0  -0.2692
  N  N332  1  0.723800  0.917700  0.847920  1.0  -0.3238
  N  N333  1  0.237600  0.290000  0.371830  1.0  -0.3451
  N  N334  1  0.386900  0.538900  0.513080  1.0  -0.216
  N  N335  1  0.436600  0.561400  0.560500  1.0  -0.2539
  N  N336  1  0.557400  0.767700  0.719340  1.0  -0.3273
  N  N337  1  0.920200  0.635400  0.257980  1.0  -0.3486
  N  N338  1  0.073300  0.568800  0.436380  1.0  -0.2081
  N  N339  1  0.107100  0.503700  0.479390  1.0  -0.2696
  N  N340  1  0.276200  0.417700  0.652080  1.0  -0.3222
  N  N341  1  0.762400  0.790000  0.128170  1.0  -0.3424
  N  N342  1  0.613100  0.038900  0.986920  1.0  -0.2163
  N  N343  1  0.563400  0.061400  0.939500  1.0  -0.2545
  N  N344  1  0.442600  0.267700  0.780660  1.0  -0.3305
  N  N345  1  0.920200  0.864600  0.757980  1.0  -0.3491
  N  N346  1  0.073300  0.931200  0.936380  1.0  -0.2091
  N  N347  1  0.107100  0.996300  0.979390  1.0  -0.268
  N  N348  1  0.276200  0.082300  0.152080  1.0  -0.3226
  N  N349  1  0.762400  0.710000  0.628170  1.0  -0.3434
  N  N350  1  0.613100  0.461100  0.486920  1.0  -0.2164
  N  N351  1  0.563400  0.438600  0.439500  1.0  -0.2546
  N  N352  1  0.442600  0.232300  0.280660  1.0  -0.3315
  N  N353  1  0.079800  0.364600  0.742020  1.0  -0.347
  N  N354  1  0.926700  0.431200  0.563620  1.0  -0.2088
  N  N355  1  0.892900  0.496300  0.520610  1.0  -0.2679
  N  N356  1  0.723800  0.582300  0.347920  1.0  -0.3233
  N  N357  1  0.237600  0.210000  0.871830  1.0  -0.3447
  N  N358  1  0.386900  0.961100  0.013080  1.0  -0.217
  N  N359  1  0.436600  0.938600  0.060500  1.0  -0.254
  N  N360  1  0.557400  0.732300  0.219340  1.0  -0.327
  O  O361  1  0.258500  0.093200  0.314210  1.0  -0.6279
  O  O362  1  0.340900  0.023000  0.256620  1.0  -0.5838
  O  O363  1  0.574600  0.767600  0.345400  1.0  -0.5968
  O  O364  1  0.514500  0.618700  0.310180  1.0  -0.5786
  O  O365  1  0.258600  0.278900  0.212250  1.0  -0.6419
  O  O366  1  0.169900  0.353800  0.266770  1.0  -0.5887
  O  O367  1  0.968200  0.745300  0.167600  1.0  -0.6187
  O  O368  1  0.930000  0.578800  0.141900  1.0  -0.6326
  O  O369  1  0.741500  0.593200  0.185790  1.0  -0.6301
  O  O370  1  0.659100  0.523000  0.243380  1.0  -0.5836
  O  O371  1  0.425400  0.267600  0.154600  1.0  -0.5962
  O  O372  1  0.485500  0.118700  0.189820  1.0  -0.5785
  O  O373  1  0.741400  0.778900  0.287750  1.0  -0.6412
  O  O374  1  0.830100  0.853800  0.233230  1.0  -0.589
  O  O375  1  0.031800  0.245300  0.332400  1.0  -0.6177
  O  O376  1  0.070000  0.078800  0.358100  1.0  -0.633
  O  O377  1  0.741500  0.906800  0.685790  1.0  -0.6296
  O  O378  1  0.659100  0.977000  0.743380  1.0  -0.5839
  O  O379  1  0.425400  0.232400  0.654600  1.0  -0.5973
  O  O380  1  0.485500  0.381300  0.689820  1.0  -0.5802
  O  O381  1  0.741400  0.721100  0.787750  1.0  -0.6411
  O  O382  1  0.830100  0.646200  0.733230  1.0  -0.5892
  O  O383  1  0.031800  0.254700  0.832400  1.0  -0.618
  O  O384  1  0.070000  0.421200  0.858100  1.0  -0.6336
  O  O385  1  0.258500  0.406800  0.814210  1.0  -0.6274
  O  O386  1  0.340900  0.477000  0.756620  1.0  -0.5842
  O  O387  1  0.574600  0.732400  0.845400  1.0  -0.598
  O  O388  1  0.514500  0.881300  0.810180  1.0  -0.5791
  O  O389  1  0.258600  0.221100  0.712250  1.0  -0.6423
  O  O390  1  0.169900  0.146200  0.766770  1.0  -0.5887
  O  O391  1  0.968200  0.754700  0.667600  1.0  -0.6192
  O  O392  1  0.930000  0.921200  0.641900  1.0  -0.6326
