# generated using pymatgen
data_Zn3H22C38(NO3)4
_symmetry_space_group_name_H-M   'P 1'
_cell_length_a   9.34900000
_cell_length_b   10.44100000
_cell_length_c   12.17700000
_cell_angle_alpha   109.95600000
_cell_angle_beta   103.38800000
_cell_angle_gamma   90.27500000
_symmetry_Int_Tables_number   1
_chemical_formula_structural   Zn3H22C38(NO3)4
_chemical_formula_sum   'Zn3 H22 C38 N4 O12'
_cell_volume   1082.32212835
_cell_formula_units_Z   1
loop_
 _symmetry_equiv_pos_site_id
 _symmetry_equiv_pos_as_xyz
  1  'x, y, z'
loop_
 _atom_site_type_symbol
 _atom_site_label
 _atom_site_symmetry_multiplicity
 _atom_site_fract_x
 _atom_site_fract_y
 _atom_site_fract_z
 _atom_site_occupancy
 _atom_site_charge
  Zn  Zn1  1  0.260550  0.073080  0.486560  1.0  0.9561
  Zn  Zn2  1  0.739450  0.926920  0.513440  1.0  0.9571
  Zn  Zn3  1  0.500000  0.500000  0.500000  1.0  0.8846
  H  H4  1  0.444500  0.082700  0.173200  1.0  0.1064
  H  H5  1  0.609200  0.067700  0.054900  1.0  0.1015
  H  H6  1  0.859600  0.117800  0.142000  1.0  0.118
  H  H7  1  0.110000  0.176500  0.676000  1.0  0.0853
  H  H8  1  0.153800  0.274400  0.882100  1.0  0.127
  H  H9  1  0.587600  0.287200  0.901500  1.0  0.1282
  H  H10  1  0.532600  0.191200  0.695300  1.0  0.0884
  H  H11  1  0.198700  0.317000  0.064400  1.0  0.1311
  H  H12  1  0.249100  0.391200  0.269000  1.0  0.0915
  H  H13  1  0.662200  0.483900  0.296900  1.0  0.0966
  H  H14  1  0.623700  0.404100  0.091500  1.0  0.1211
  H  H15  1  0.555500  0.917300  0.826800  1.0  0.1066
  H  H16  1  0.390800  0.932300  0.945100  1.0  0.102
  H  H17  1  0.140400  0.882200  0.858000  1.0  0.1168
  H  H18  1  0.890000  0.823500  0.324000  1.0  0.0863
  H  H19  1  0.846200  0.725600  0.117900  1.0  0.1279
  H  H20  1  0.412400  0.712800  0.098500  1.0  0.126
  H  H21  1  0.467400  0.808800  0.304700  1.0  0.0882
  H  H22  1  0.801300  0.683000  0.935600  1.0  0.133
  H  H23  1  0.750900  0.608800  0.731000  1.0  0.0922
  H  H24  1  0.337800  0.516100  0.703100  1.0  0.0967
  H  H25  1  0.376300  0.595900  0.908500  1.0  0.1207
  C  C26  1  0.846950  0.159780  0.315030  1.0  -0.0697
  C  C27  1  0.748400  0.173210  0.388080  1.0  -0.0842
  C  C28  1  0.596790  0.149230  0.334240  1.0  -0.1389
  C  C29  1  0.544980  0.104950  0.208940  1.0  -0.0764
  C  C30  1  0.643980  0.094350  0.138160  1.0  -0.1221
  C  C31  1  0.794050  0.122970  0.190060  1.0  -0.071
  C  C32  1  0.011640  0.176760  0.366150  1.0  0.7058
  C  C33  1  0.804790  0.213600  0.523200  1.0  0.6889
  C  C34  1  0.487860  0.173130  0.411280  1.0  0.7149
  C  C35  1  0.207000  0.198600  0.722060  1.0  0.1867
  C  C36  1  0.232700  0.257500  0.846220  1.0  -0.1805
  C  C37  1  0.377290  0.291370  0.917410  1.0  0.0862
  C  C38  1  0.489500  0.265350  0.857830  1.0  -0.1759
  C  C39  1  0.455720  0.206980  0.733610  1.0  0.1869
  C  C40  1  0.407380  0.349130  0.051440  1.0  0.0917
  C  C41  1  0.294900  0.348600  0.109630  1.0  -0.1794
  C  C42  1  0.326100  0.394500  0.233260  1.0  0.1846
  C  C43  1  0.567900  0.447820  0.249770  1.0  0.1811
  C  C44  1  0.544900  0.400680  0.125240  1.0  -0.19
  C  C45  1  0.153050  0.840220  0.684970  1.0  -0.0706
  C  C46  1  0.251600  0.826790  0.611920  1.0  -0.0853
  C  C47  1  0.403210  0.850770  0.665760  1.0  -0.1358
  C  C48  1  0.455020  0.895050  0.791060  1.0  -0.0765
  C  C49  1  0.356020  0.905650  0.861840  1.0  -0.1208
  C  C50  1  0.205950  0.877030  0.809940  1.0  -0.0722
  C  C51  1  0.988360  0.823240  0.633850  1.0  0.7096
  C  C52  1  0.195210  0.786400  0.476800  1.0  0.6855
  C  C53  1  0.512140  0.826870  0.588720  1.0  0.7152
  C  C54  1  0.793000  0.801400  0.277940  1.0  0.187
  C  C55  1  0.767300  0.742500  0.153780  1.0  -0.181
  C  C56  1  0.622710  0.708630  0.082590  1.0  0.0853
  C  C57  1  0.510500  0.734650  0.142170  1.0  -0.1718
  C  C58  1  0.544280  0.793020  0.266390  1.0  0.1876
  C  C59  1  0.592620  0.650870  0.948560  1.0  0.0912
  C  C60  1  0.705100  0.651400  0.890370  1.0  -0.1809
  C  C61  1  0.673900  0.605500  0.766740  1.0  0.1848
  C  C62  1  0.432100  0.552180  0.750230  1.0  0.181
  C  C63  1  0.455100  0.599320  0.874760  1.0  -0.1874
  N  N64  1  0.316480  0.172150  0.665850  1.0  -0.3614
  N  N65  1  0.460490  0.443900  0.305620  1.0  -0.3548
  N  N66  1  0.683520  0.827850  0.334150  1.0  -0.3596
  N  N67  1  0.539510  0.556100  0.694380  1.0  -0.353
  O  O68  1  0.056980  0.112850  0.437580  1.0  -0.5957
  O  O69  1  0.090170  0.244990  0.333520  1.0  -0.6151
  O  O70  1  0.872320  0.328190  0.581560  1.0  -0.5834
  O  O71  1  0.776890  0.129100  0.570690  1.0  -0.6115
  O  O72  1  0.486170  0.287990  0.487330  1.0  -0.6404
  O  O73  1  0.401210  0.069330  0.391900  1.0  -0.5801
  O  O74  1  0.943020  0.887150  0.562420  1.0  -0.5947
  O  O75  1  0.909830  0.755010  0.666480  1.0  -0.6127
  O  O76  1  0.127680  0.671810  0.418440  1.0  -0.5844
  O  O77  1  0.223110  0.870900  0.429310  1.0  -0.607
  O  O78  1  0.513830  0.712010  0.512670  1.0  -0.6391
  O  O79  1  0.598790  0.930670  0.608100  1.0  -0.5797
