# generated using pymatgen
data_Zn3H22C38(NO3)4
_symmetry_space_group_name_H-M   'P 1'
_cell_length_a   9.47200000
_cell_length_b   11.49770000
_cell_length_c   22.50390000
_cell_angle_alpha   78.41720000
_cell_angle_beta   77.85110000
_cell_angle_gamma   65.67530000
_symmetry_Int_Tables_number   1
_chemical_formula_structural   Zn3H22C38(NO3)4
_chemical_formula_sum   'Zn6 H44 C76 N8 O24'
_cell_volume   2165.24794323
_cell_formula_units_Z   2
loop_
 _symmetry_equiv_pos_site_id
 _symmetry_equiv_pos_as_xyz
  1  'x, y, z'
loop_
 _atom_site_type_symbol
 _atom_site_label
 _atom_site_symmetry_multiplicity
 _atom_site_fract_x
 _atom_site_fract_y
 _atom_site_fract_z
 _atom_site_occupancy
 _atom_site_charge
  Zn  Zn1  1  0.067070  0.837290  0.738630  1.0  0.9589
  Zn  Zn2  1  0.642990  0.662710  0.761370  1.0  0.9608
  Zn  Zn3  1  0.932930  0.162710  0.261370  1.0  0.9616
  Zn  Zn4  1  0.357010  0.337290  0.238630  1.0  0.9577
  Zn  Zn5  1  0.084350  0.250000  0.750000  1.0  1.0676
  Zn  Zn6  1  0.915650  0.750000  0.250000  1.0  1.0694
  H  H7  1  0.746700  0.053100  0.570900  1.0  0.1096
  H  H8  1  0.540800  0.066700  0.525700  1.0  0.1044
  H  H9  1  0.337400  0.018500  0.585100  1.0  0.0992
  H  H10  1  0.748600  0.167100  0.167900  1.0  0.0796
  H  H11  1  0.771100  0.172900  0.063500  1.0  0.1283
  H  H12  1  0.202900  0.165700  0.049100  1.0  0.1264
  H  H13  1  0.167100  0.162400  0.153000  1.0  0.0905
  H  H14  1  0.782800  0.276800  0.964800  1.0  0.1346
  H  H15  1  0.821700  0.297900  0.860300  1.0  0.0882
  H  H16  1  0.268000  0.103400  0.857000  1.0  0.086
  H  H17  1  0.243400  0.079500  0.960700  1.0  0.1306
  H  H18  1  0.370700  0.446900  0.929100  1.0  0.1095
  H  H19  1  0.133200  0.433300  0.974300  1.0  0.104
  H  H20  1  0.941000  0.481500  0.914900  1.0  0.1008
  H  H21  1  0.083600  0.332900  0.332100  1.0  0.0793
  H  H22  1  0.007500  0.327100  0.436500  1.0  0.1307
  H  H23  1  0.417700  0.334300  0.450900  1.0  0.1262
  H  H24  1  0.482500  0.337600  0.347000  1.0  0.0916
  H  H25  1  0.024400  0.223200  0.535200  1.0  0.1341
  H  H26  1  0.979900  0.202100  0.639700  1.0  0.0892
  H  H27  1  0.228400  0.396600  0.643000  1.0  0.0846
  H  H28  1  0.283600  0.420500  0.539300  1.0  0.1307
  H  H29  1  0.253300  0.946900  0.429100  1.0  0.1094
  H  H30  1  0.459200  0.933300  0.474300  1.0  0.1045
  H  H31  1  0.662600  0.981500  0.414900  1.0  0.0987
  H  H32  1  0.251400  0.832900  0.832100  1.0  0.0799
  H  H33  1  0.228900  0.827100  0.936500  1.0  0.1282
  H  H34  1  0.797100  0.834300  0.950900  1.0  0.1275
  H  H35  1  0.832900  0.837600  0.847000  1.0  0.0899
  H  H36  1  0.217200  0.723200  0.035200  1.0  0.1349
  H  H37  1  0.178300  0.702100  0.139700  1.0  0.0898
  H  H38  1  0.732000  0.896600  0.143000  1.0  0.0858
  H  H39  1  0.756600  0.920500  0.039300  1.0  0.1311
  H  H40  1  0.629300  0.553100  0.070900  1.0  0.11
  H  H41  1  0.866800  0.566700  0.025700  1.0  0.1036
  H  H42  1  0.059000  0.518500  0.085100  1.0  0.1002
  H  H43  1  0.916400  0.667100  0.667900  1.0  0.0797
  H  H44  1  0.992500  0.672900  0.563500  1.0  0.1294
  H  H45  1  0.582300  0.665700  0.549100  1.0  0.1268
  H  H46  1  0.517500  0.662400  0.653000  1.0  0.0923
  H  H47  1  0.975600  0.776800  0.464800  1.0  0.1347
  H  H48  1  0.020100  0.797900  0.360300  1.0  0.0895
  H  H49  1  0.771600  0.603400  0.357000  1.0  0.0851
  H  H50  1  0.716400  0.579500  0.460700  1.0  0.1306
  C  C51  1  0.663520  0.035250  0.594890  1.0  -0.0929
  C  C52  1  0.540220  0.043560  0.567720  1.0  -0.1217
  C  C53  1  0.417370  0.017310  0.603430  1.0  -0.0693
  C  C54  1  0.411740  0.988870  0.666870  1.0  -0.1368
  C  C55  1  0.535920  0.978150  0.694470  1.0  -0.0679
  C  C56  1  0.663230  0.000690  0.657410  1.0  -0.0443
  C  C57  1  0.805730  0.981470  0.682390  1.0  0.6108
  C  C58  1  0.532380  0.944790  0.762510  1.0  0.6795
  C  C59  1  0.267950  0.973560  0.704520  1.0  0.7046
  C  C60  1  0.841050  0.166900  0.143440  1.0  0.1974
  C  C61  1  0.853860  0.170240  0.080560  1.0  -0.202
  C  C62  1  0.990350  0.169540  0.043660  1.0  0.0958
  C  C63  1  0.108920  0.166170  0.072290  1.0  -0.1909
  C  C64  1  0.087050  0.163760  0.134640  1.0  0.1962
  C  C65  1  0.010150  0.176110  0.976250  1.0  0.1014
  C  C66  1  0.883510  0.241550  0.943890  1.0  -0.1928
  C  C67  1  0.907930  0.253890  0.880970  1.0  0.1827
  C  C68  1  0.168930  0.140650  0.878890  1.0  0.2122
  C  C69  1  0.154840  0.124970  0.941490  1.0  -0.2068
  C  C70  1  0.293660  0.464750  0.905110  1.0  -0.0949
  C  C71  1  0.151500  0.456440  0.932280  1.0  -0.1218
  C  C72  1  0.038110  0.482690  0.896570  1.0  -0.0707
  C  C73  1  0.067480  0.511130  0.833130  1.0  -0.1349
  C  C74  1  0.208540  0.521850  0.805530  1.0  -0.0685
  C  C75  1  0.321330  0.499310  0.842590  1.0  -0.0472
  C  C76  1  0.469590  0.518530  0.817610  1.0  0.6096
  C  C77  1  0.239680  0.555210  0.737490  1.0  0.6762
  C  C78  1  0.946030  0.526440  0.795480  1.0  0.7052
  C  C79  1  0.151390  0.333100  0.356560  1.0  0.1974
  C  C80  1  0.104660  0.329760  0.419440  1.0  -0.2027
  C  C81  1  0.203550  0.330460  0.456340  1.0  0.0953
  C  C82  1  0.347380  0.333830  0.427710  1.0  -0.1901
  C  C83  1  0.385450  0.336240  0.365360  1.0  0.1951
  C  C84  1  0.162510  0.323890  0.523750  1.0  0.1021
  C  C85  1  0.068950  0.258450  0.556110  1.0  -0.1934
  C  C86  1  0.042790  0.246110  0.619030  1.0  0.1848
  C  C87  1  0.188470  0.359350  0.621110  1.0  0.2096
  C  C88  1  0.221300  0.375030  0.558510  1.0  -0.2083
  C  C89  1  0.336480  0.964750  0.405110  1.0  -0.0932
  C  C90  1  0.459780  0.956440  0.432280  1.0  -0.1208
  C  C91  1  0.582630  0.982690  0.396570  1.0  -0.0699
  C  C92  1  0.588260  0.011130  0.333130  1.0  -0.1367
  C  C93  1  0.464080  0.021850  0.305530  1.0  -0.0685
  C  C94  1  0.336770  0.999310  0.342590  1.0  -0.0469
  C  C95  1  0.194270  0.018530  0.317610  1.0  0.6098
  C  C96  1  0.467620  0.055210  0.237490  1.0  0.6788
  C  C97  1  0.732050  0.026440  0.295480  1.0  0.7046
  C  C98  1  0.158950  0.833100  0.856560  1.0  0.1953
  C  C99  1  0.146140  0.829760  0.919440  1.0  -0.2021
  C  C100  1  0.009650  0.830460  0.956340  1.0  0.0951
  C  C101  1  0.891080  0.833830  0.927710  1.0  -0.1898
  C  C102  1  0.912950  0.836240  0.865360  1.0  0.1967
  C  C103  1  0.989850  0.823890  0.023750  1.0  0.1012
  C  C104  1  0.116490  0.758450  0.056110  1.0  -0.1927
  C  C105  1  0.092070  0.746110  0.119030  1.0  0.1811
  C  C106  1  0.831070  0.859350  0.121110  1.0  0.2108
  C  C107  1  0.845160  0.875030  0.058510  1.0  -0.2073
  C  C108  1  0.706340  0.535250  0.094890  1.0  -0.0952
  C  C109  1  0.848500  0.543560  0.067720  1.0  -0.1214
  C  C110  1  0.961890  0.517310  0.103430  1.0  -0.0714
  C  C111  1  0.932520  0.488870  0.166870  1.0  -0.1355
  C  C112  1  0.791460  0.478150  0.194470  1.0  -0.0685
  C  C113  1  0.678670  0.500690  0.157410  1.0  -0.0474
  C  C114  1  0.530410  0.481470  0.182390  1.0  0.6101
  C  C115  1  0.760320  0.444790  0.262510  1.0  0.676
  C  C116  1  0.053970  0.473560  0.204520  1.0  0.7054
  C  C117  1  0.848610  0.666900  0.643440  1.0  0.1986
  C  C118  1  0.895340  0.670240  0.580560  1.0  -0.2038
  C  C119  1  0.796450  0.669540  0.543660  1.0  0.0958
  C  C120  1  0.652620  0.666170  0.572290  1.0  -0.1897
  C  C121  1  0.614550  0.663760  0.634640  1.0  0.195
  C  C122  1  0.837490  0.676110  0.476250  1.0  0.1019
  C  C123  1  0.931050  0.741550  0.443890  1.0  -0.194
  C  C124  1  0.957210  0.753890  0.380970  1.0  0.1835
  C  C125  1  0.811530  0.640650  0.378890  1.0  0.2099
  C  C126  1  0.778700  0.624970  0.441490  1.0  -0.2071
  N  N127  1  0.954920  0.163400  0.169980  1.0  -0.3536
  N  N128  1  0.049940  0.205610  0.847650  1.0  -0.3611
  N  N129  1  0.288300  0.336600  0.330020  1.0  -0.3552
  N  N130  1  0.103200  0.294390  0.652350  1.0  -0.358
  N  N131  1  0.045080  0.836600  0.830020  1.0  -0.3553
  N  N132  1  0.950060  0.794390  0.152350  1.0  -0.3598
  N  N133  1  0.711700  0.663400  0.669980  1.0  -0.3527
  N  N134  1  0.896800  0.705610  0.347650  1.0  -0.359
  O  O135  1  0.851740  0.889680  0.723120  1.0  -0.559
  O  O136  1  0.839430  0.086730  0.674210  1.0  -0.6233
  O  O137  1  0.521720  0.029240  0.792780  1.0  -0.5873
  O  O138  1  0.531820  0.836920  0.787240  1.0  -0.6215
  O  O139  1  0.235890  0.885460  0.692000  1.0  -0.5693
  O  O140  1  0.188590  0.044390  0.744230  1.0  -0.6478
  O  O141  1  0.464540  0.610320  0.776880  1.0  -0.5587
  O  O142  1  0.600370  0.413270  0.825790  1.0  -0.6209
  O  O143  1  0.343740  0.470760  0.707220  1.0  -0.5884
  O  O144  1  0.155980  0.663080  0.712760  1.0  -0.6227
  O  O145  1  0.813350  0.614540  0.808000  1.0  -0.5679
  O  O146  1  0.977210  0.455610  0.755770  1.0  -0.6482
  O  O147  1  0.148260  0.110320  0.276880  1.0  -0.5588
  O  O148  1  0.160570  0.913270  0.325790  1.0  -0.6217
  O  O149  1  0.478280  0.970760  0.207220  1.0  -0.5893
  O  O150  1  0.468180  0.163080  0.212760  1.0  -0.6206
  O  O151  1  0.764110  0.114540  0.308000  1.0  -0.5688
  O  O152  1  0.811410  0.955610  0.255770  1.0  -0.6479
  O  O153  1  0.535460  0.389680  0.223120  1.0  -0.5587
  O  O154  1  0.399630  0.586730  0.174210  1.0  -0.6211
  O  O155  1  0.656260  0.529240  0.292780  1.0  -0.5864
  O  O156  1  0.844020  0.336920  0.287240  1.0  -0.6239
  O  O157  1  0.186650  0.385460  0.192000  1.0  -0.5671
  O  O158  1  0.022790  0.544390  0.244230  1.0  -0.6471
