# generated using pymatgen
data_ErH14C24(NO3)2
_symmetry_space_group_name_H-M   'P 1'
_cell_length_a   10.06910000
_cell_length_b   10.94910000
_cell_length_c   13.22110000
_cell_angle_alpha   99.75500000
_cell_angle_beta   110.24500000
_cell_angle_gamma   107.79300000
_symmetry_Int_Tables_number   1
_chemical_formula_structural   ErH14C24(NO3)2
_chemical_formula_sum   'Er2 H28 C48 N4 O12'
_cell_volume   1238.81811526
_cell_formula_units_Z   2
loop_
 _symmetry_equiv_pos_site_id
 _symmetry_equiv_pos_as_xyz
  1  'x, y, z'
loop_
 _atom_site_type_symbol
 _atom_site_label
 _atom_site_symmetry_multiplicity
 _atom_site_fract_x
 _atom_site_fract_y
 _atom_site_fract_z
 _atom_site_occupancy
 _atom_site_charge
  Er  Er1  1  0.154950  0.706490  0.195820  1.0  1.2585
  Er  Er2  1  0.845050  0.293510  0.804180  1.0  1.2613
  H  H3  1  0.723900  0.619500  0.162600  1.0  0.103
  H  H4  1  0.504000  0.366200  0.846300  1.0  0.1078
  H  H5  1  0.837500  0.915600  0.311100  1.0  0.1008
  H  H6  1  0.226300  0.968900  0.564300  1.0  0.0942
  H  H7  1  0.233400  0.409700  0.425400  1.0  0.1151
  H  H8  1  0.626200  0.668900  0.441200  1.0  0.1089
  H  H9  1  0.963900  0.641900  0.913600  1.0  0.0684
  H  H10  1  0.902000  0.734900  0.770900  1.0  0.1251
  H  H11  1  0.021700  0.966100  0.809800  1.0  0.1124
  H  H12  1  0.204200  0.190300  0.956000  1.0  0.1073
  H  H13  1  0.385500  0.311900  0.136500  1.0  0.1059
  H  H14  1  0.542900  0.315600  0.335300  1.0  0.1201
  H  H15  1  0.601400  0.194700  0.458400  1.0  0.1167
  H  H16  1  0.465200  0.964600  0.400300  1.0  0.0736
  H  H17  1  0.276100  0.380500  0.837400  1.0  0.1028
  H  H18  1  0.496000  0.633800  0.153700  1.0  0.1082
  H  H19  1  0.162500  0.084400  0.688900  1.0  0.1009
  H  H20  1  0.773700  0.031100  0.435700  1.0  0.095
  H  H21  1  0.766600  0.590300  0.574600  1.0  0.1156
  H  H22  1  0.373800  0.331100  0.558800  1.0  0.109
  H  H23  1  0.036100  0.358100  0.086400  1.0  0.0684
  H  H24  1  0.098000  0.265100  0.229100  1.0  0.126
  H  H25  1  0.978300  0.033900  0.190200  1.0  0.1125
  H  H26  1  0.795800  0.809700  0.044000  1.0  0.1077
  H  H27  1  0.614500  0.688100  0.863500  1.0  0.1062
  H  H28  1  0.457100  0.684400  0.664700  1.0  0.1208
  H  H29  1  0.398600  0.805300  0.541600  1.0  0.117
  H  H30  1  0.534800  0.035400  0.599700  1.0  0.0737
  C  C31  1  0.786600  0.485700  0.009900  1.0  0.6807
  C  C32  1  0.637200  0.492000  0.004800  1.0  -0.1339
  C  C33  1  0.633600  0.571400  0.096800  1.0  -0.0471
  C  C34  1  0.503100  0.420300  0.908300  1.0  -0.0439
  C  C35  1  0.077100  0.851500  0.343300  1.0  0.6362
  C  C36  1  0.038300  0.929400  0.424300  1.0  -0.104
  C  C37  1  0.904000  0.949600  0.387800  1.0  -0.0543
  C  C38  1  0.134300  0.981000  0.537600  1.0  -0.0529
  C  C39  1  0.326100  0.601000  0.336200  1.0  0.6246
  C  C40  1  0.415900  0.547500  0.420900  1.0  -0.1233
  C  C41  1  0.340400  0.446100  0.455400  1.0  -0.0439
  C  C42  1  0.575600  0.601300  0.464900  1.0  -0.0522
  C  C43  1  0.011100  0.734900  0.931000  1.0  0.2136
  C  C44  1  0.973600  0.789500  0.843700  1.0  -0.1714
  C  C45  1  0.044100  0.926000  0.866800  1.0  -0.0064
  C  C46  1  0.150700  0.004000  0.977800  1.0  -0.021
  C  C47  1  0.227700  0.145900  0.009600  1.0  -0.0838
  C  C48  1  0.336100  0.219000  0.117800  1.0  -0.0795
  C  C49  1  0.373800  0.154200  0.201700  1.0  -0.014
  C  C50  1  0.490000  0.222600  0.312300  1.0  -0.0074
  C  C51  1  0.524100  0.151200  0.385200  1.0  -0.1631
  C  C52  1  0.441500  0.011800  0.349000  1.0  0.1874
  C  C53  1  0.295800  0.013100  0.172100  1.0  0.1613
  C  C54  1  0.178800  0.938100  0.058000  1.0  0.1757
  C  C55  1  0.213400  0.514300  0.990100  1.0  0.682
  C  C56  1  0.362800  0.508000  0.995200  1.0  -0.1348
  C  C57  1  0.366400  0.428600  0.903200  1.0  -0.0461
  C  C58  1  0.496900  0.579700  0.091700  1.0  -0.0429
  C  C59  1  0.922900  0.148500  0.656700  1.0  0.6354
  C  C60  1  0.961700  0.070600  0.575700  1.0  -0.1028
  C  C61  1  0.096000  0.050400  0.612200  1.0  -0.0558
  C  C62  1  0.865700  0.019000  0.462400  1.0  -0.0518
  C  C63  1  0.673900  0.399000  0.663800  1.0  0.6252
  C  C64  1  0.584100  0.452500  0.579100  1.0  -0.1256
  C  C65  1  0.659600  0.553900  0.544600  1.0  -0.0447
  C  C66  1  0.424400  0.398700  0.535100  1.0  -0.0495
  C  C67  1  0.988900  0.265100  0.069000  1.0  0.214
  C  C68  1  0.026400  0.210500  0.156300  1.0  -0.1706
  C  C69  1  0.955900  0.074000  0.133200  1.0  -0.0064
  C  C70  1  0.849300  0.996000  0.022200  1.0  -0.019
  C  C71  1  0.772300  0.854100  0.990400  1.0  -0.0837
  C  C72  1  0.663900  0.781000  0.882200  1.0  -0.0799
  C  C73  1  0.626200  0.845800  0.798300  1.0  -0.0137
  C  C74  1  0.510000  0.777400  0.687700  1.0  -0.0075
  C  C75  1  0.475900  0.848800  0.614800  1.0  -0.1649
  C  C76  1  0.558500  0.988200  0.651000  1.0  0.1885
  C  C77  1  0.704200  0.986900  0.827900  1.0  0.1612
  C  C78  1  0.821200  0.061900  0.942000  1.0  0.1755
  N  N79  1  0.108500  0.804000  0.037100  1.0  -0.3727
  N  N80  1  0.331700  0.943200  0.245800  1.0  -0.3859
  N  N81  1  0.891500  0.196000  0.962900  1.0  -0.3734
  N  N82  1  0.668300  0.056800  0.754200  1.0  -0.3889
  O  O83  1  0.908800  0.559600  0.095900  1.0  -0.6053
  O  O84  1  0.780500  0.407000  0.925900  1.0  -0.5682
  O  O85  1  0.011700  0.833700  0.238200  1.0  -0.5648
  O  O86  1  0.176200  0.801700  0.380400  1.0  -0.5811
  O  O87  1  0.180800  0.537600  0.282400  1.0  -0.5651
  O  O88  1  0.394000  0.709000  0.320600  1.0  -0.5567
  O  O89  1  0.091200  0.440400  0.904100  1.0  -0.6053
  O  O90  1  0.219500  0.593000  0.074100  1.0  -0.5683
  O  O91  1  0.988300  0.166300  0.761800  1.0  -0.566
  O  O92  1  0.823800  0.198300  0.619600  1.0  -0.5797
  O  O93  1  0.819200  0.462400  0.717600  1.0  -0.5648
  O  O94  1  0.606000  0.291000  0.679400  1.0  -0.5565
