# generated using pymatgen
data_TmH6(C2O)6
_symmetry_space_group_name_H-M   'P 1'
_cell_length_a   8.65140000
_cell_length_b   10.15310000
_cell_length_c   11.17030000
_cell_angle_alpha   65.43700000
_cell_angle_beta   71.66600000
_cell_angle_gamma   78.42100000
_symmetry_Int_Tables_number   1
_chemical_formula_structural   TmH6(C2O)6
_chemical_formula_sum   'Tm2 H12 C24 O12'
_cell_volume   844.30587098
_cell_formula_units_Z   2
loop_
 _symmetry_equiv_pos_site_id
 _symmetry_equiv_pos_as_xyz
  1  'x, y, z'
loop_
 _atom_site_type_symbol
 _atom_site_label
 _atom_site_symmetry_multiplicity
 _atom_site_fract_x
 _atom_site_fract_y
 _atom_site_fract_z
 _atom_site_occupancy
 _atom_site_charge
  Tm  Tm1  1  0.132110  0.440270  0.652780  1.0  2.0572
  Tm  Tm2  1  0.867890  0.559730  0.347220  1.0  2.0572
  H  H3  1  0.633600  0.111800  0.773100  1.0  0.1014
  H  H4  1  0.230300  0.070200  0.081100  1.0  0.1023
  H  H5  1  0.543900  0.354500  0.876900  1.0  0.0898
  H  H6  1  0.713200  0.618300  0.984700  1.0  0.1042
  H  H7  1  0.925900  0.782100  0.680100  1.0  0.1056
  H  H8  1  0.020700  0.027100  0.279500  1.0  0.1128
  H  H9  1  0.366400  0.888200  0.226900  1.0  0.1023
  H  H10  1  0.769700  0.929800  0.918900  1.0  0.1018
  H  H11  1  0.456100  0.645500  0.123100  1.0  0.0901
  H  H12  1  0.286800  0.381700  0.015300  1.0  0.1045
  H  H13  1  0.074100  0.217900  0.319900  1.0  0.1061
  H  H14  1  0.979300  0.972900  0.720500  1.0  0.113
  C  C15  1  0.325800  0.231400  0.820900  1.0  0.6841
  C  C16  1  0.418100  0.111800  0.911000  1.0  -0.1002
  C  C17  1  0.579300  0.067400  0.864400  1.0  -0.0332
  C  C18  1  0.339300  0.042200  0.048100  1.0  -0.0395
  C  C19  1  0.820200  0.461500  0.830900  1.0  0.6807
  C  C20  1  0.654200  0.482900  0.917400  1.0  -0.118
  C  C21  1  0.526100  0.412900  0.926600  1.0  -0.0464
  C  C22  1  0.627900  0.570800  0.990900  1.0  -0.0476
  C  C23  1  0.929900  0.766100  0.447600  1.0  0.7383
  C  C24  1  0.966100  0.886000  0.476400  1.0  -0.1174
  C  C25  1  0.955100  0.869200  0.608000  1.0  -0.0649
  C  C26  1  0.012000  0.016500  0.368100  1.0  -0.0625
  C  C27  1  0.674200  0.768600  0.179100  1.0  0.6829
  C  C28  1  0.581900  0.888200  0.089000  1.0  -0.1006
  C  C29  1  0.420700  0.932600  0.135600  1.0  -0.0319
  C  C30  1  0.660700  0.957800  0.951900  1.0  -0.0401
  C  C31  1  0.179800  0.538500  0.169100  1.0  0.677
  C  C32  1  0.345800  0.517100  0.082600  1.0  -0.1189
  C  C33  1  0.473900  0.587100  0.073400  1.0  -0.0483
  C  C34  1  0.372100  0.429200  0.009100  1.0  -0.0462
  C  C35  1  0.070100  0.233900  0.552400  1.0  0.743
  C  C36  1  0.033900  0.114000  0.523600  1.0  -0.1178
  C  C37  1  0.044900  0.130800  0.392000  1.0  -0.0614
  C  C38  1  0.988000  0.983500  0.631900  1.0  -0.0641
  O  O39  1  0.397800  0.298900  0.696100  1.0  -0.7239
  O  O40  1  0.178700  0.265600  0.868500  1.0  -0.6247
  O  O41  1  0.843300  0.381300  0.763700  1.0  -0.6503
  O  O42  1  0.935500  0.523600  0.825100  1.0  -0.6672
  O  O43  1  0.962300  0.634300  0.518900  1.0  -0.8516
  O  O44  1  0.868000  0.799400  0.350000  1.0  -0.6221
  O  O45  1  0.602200  0.701100  0.303900  1.0  -0.7279
  O  O46  1  0.821300  0.734400  0.131500  1.0  -0.6305
  O  O47  1  0.156700  0.618700  0.236300  1.0  -0.6534
  O  O48  1  0.064500  0.476400  0.174900  1.0  -0.6666
  O  O49  1  0.037700  0.365700  0.481100  1.0  -0.8524
  O  O50  1  0.132000  0.200600  0.650000  1.0  -0.6244
