# generated using pymatgen
data_TmH6(C2O)6
_symmetry_space_group_name_H-M   'P 1'
_cell_length_a   8.65140000
_cell_length_b   10.15310000
_cell_length_c   11.17030000
_cell_angle_alpha   65.43700000
_cell_angle_beta   71.66600000
_cell_angle_gamma   78.42100000
_symmetry_Int_Tables_number   1
_chemical_formula_structural   TmH6(C2O)6
_chemical_formula_sum   'Tm2 H12 C24 O12'
_cell_volume   844.30587098
_cell_formula_units_Z   2
loop_
 _symmetry_equiv_pos_site_id
 _symmetry_equiv_pos_as_xyz
  1  'x, y, z'
loop_
 _atom_site_type_symbol
 _atom_site_label
 _atom_site_symmetry_multiplicity
 _atom_site_fract_x
 _atom_site_fract_y
 _atom_site_fract_z
 _atom_site_occupancy
 _atom_site_charge
  Tm  Tm1  1  0.132130  0.440280  0.652760  1.0  2.0563
  Tm  Tm2  1  0.867870  0.559720  0.347240  1.0  2.0565
  H  H3  1  0.634700  0.112500  0.770800  1.0  0.1044
  H  H4  1  0.228000  0.072100  0.081800  1.0  0.1099
  H  H5  1  0.544300  0.353100  0.875600  1.0  0.0931
  H  H6  1  0.715300  0.618800  0.985200  1.0  0.1055
  H  H7  1  0.925000  0.780400  0.681900  1.0  0.1008
  H  H8  1  0.019900  0.027300  0.277700  1.0  0.1145
  H  H9  1  0.365300  0.887500  0.229200  1.0  0.1049
  H  H10  1  0.772000  0.927900  0.918200  1.0  0.1102
  H  H11  1  0.455700  0.646900  0.124400  1.0  0.0929
  H  H12  1  0.284700  0.381200  0.014800  1.0  0.1058
  H  H13  1  0.075000  0.219600  0.318100  1.0  0.1011
  H  H14  1  0.980100  0.972700  0.722300  1.0  0.1147
  C  C15  1  0.326600  0.231600  0.820400  1.0  0.6818
  C  C16  1  0.418300  0.112000  0.910600  1.0  -0.0963
  C  C17  1  0.579300  0.067300  0.864000  1.0  -0.0422
  C  C18  1  0.339000  0.043000  0.048200  1.0  -0.0564
  C  C19  1  0.820300  0.461600  0.831200  1.0  0.682
  C  C20  1  0.654000  0.482800  0.917400  1.0  -0.1083
  C  C21  1  0.526100  0.412800  0.926300  1.0  -0.0412
  C  C22  1  0.628000  0.570600  0.991300  1.0  -0.0479
  C  C23  1  0.930200  0.766800  0.447300  1.0  0.7448
  C  C24  1  0.966700  0.885600  0.475900  1.0  -0.1153
  C  C25  1  0.955200  0.869200  0.608000  1.0  -0.0671
  C  C26  1  0.011700  0.016200  0.368100  1.0  -0.0613
  C  C27  1  0.673400  0.768400  0.179600  1.0  0.6808
  C  C28  1  0.581700  0.888000  0.089400  1.0  -0.0963
  C  C29  1  0.420700  0.932700  0.136000  1.0  -0.0375
  C  C30  1  0.661000  0.957000  0.951800  1.0  -0.0578
  C  C31  1  0.179700  0.538400  0.168800  1.0  0.681
  C  C32  1  0.346000  0.517200  0.082600  1.0  -0.1093
  C  C33  1  0.473900  0.587200  0.073700  1.0  -0.0414
  C  C34  1  0.372000  0.429400  0.008700  1.0  -0.0475
  C  C35  1  0.069800  0.233200  0.552700  1.0  0.7439
  C  C36  1  0.033300  0.114400  0.524100  1.0  -0.1154
  C  C37  1  0.044800  0.130800  0.392000  1.0  -0.0642
  C  C38  1  0.988300  0.983800  0.631900  1.0  -0.0618
  O  O39  1  0.398300  0.298900  0.696000  1.0  -0.7261
  O  O40  1  0.178800  0.265500  0.868800  1.0  -0.6314
  O  O41  1  0.843200  0.381300  0.763600  1.0  -0.6556
  O  O42  1  0.935300  0.523900  0.825000  1.0  -0.6532
  O  O43  1  0.962100  0.634300  0.518700  1.0  -0.8626
  O  O44  1  0.868400  0.799500  0.349800  1.0  -0.6247
  O  O45  1  0.601700  0.701100  0.304000  1.0  -0.73
  O  O46  1  0.821200  0.734500  0.131200  1.0  -0.6326
  O  O47  1  0.156800  0.618700  0.236400  1.0  -0.6589
  O  O48  1  0.064700  0.476100  0.175000  1.0  -0.6535
  O  O49  1  0.037900  0.365700  0.481300  1.0  -0.8635
  O  O50  1  0.131600  0.200500  0.650200  1.0  -0.6254
