# generated using pymatgen
data_TmH18(C3O)6
_symmetry_space_group_name_H-M   'P 1'
_cell_length_a   9.95500000
_cell_length_b   12.79500000
_cell_length_c   13.80100000
_cell_angle_alpha   69.41500000
_cell_angle_beta   82.56200000
_cell_angle_gamma   83.11700000
_symmetry_Int_Tables_number   1
_chemical_formula_structural   TmH18(C3O)6
_chemical_formula_sum   'Tm2 H36 C36 O12'
_cell_volume   1626.56649176
_cell_formula_units_Z   2
loop_
 _symmetry_equiv_pos_site_id
 _symmetry_equiv_pos_as_xyz
  1  'x, y, z'
loop_
 _atom_site_type_symbol
 _atom_site_label
 _atom_site_symmetry_multiplicity
 _atom_site_fract_x
 _atom_site_fract_y
 _atom_site_fract_z
 _atom_site_occupancy
 _atom_site_charge
  Tm  Tm1  1  0.530180  0.640350  0.374780  1.0  2.0658
  Tm  Tm2  1  0.469820  0.359650  0.625220  1.0  2.0664
  H  H3  1  0.210200  0.981400  0.411100  1.0  0.1088
  H  H4  1  0.302200  0.875600  0.403500  1.0  0.1235
  H  H5  1  0.222900  0.873600  0.509900  1.0  0.1223
  H  H6  1  0.710800  0.850600  0.677800  1.0  0.117
  H  H7  1  0.682500  0.765700  0.625500  1.0  0.1112
  H  H8  1  0.793000  0.851200  0.572700  1.0  0.112
  H  H9  1  0.134600  0.423100  0.297400  1.0  0.1053
  H  H10  1  0.203700  0.532500  0.281700  1.0  0.1227
  H  H11  1  0.259700  0.417300  0.358000  1.0  0.1174
  H  H12  1  0.095000  0.566900  0.694000  1.0  0.1138
  H  H13  1  0.189100  0.632300  0.596600  1.0  0.1213
  H  H14  1  0.040700  0.682200  0.616700  1.0  0.1168
  H  H15  1  0.244900  0.032900  0.171500  1.0  0.1119
  H  H16  1  0.187400  0.959900  0.118300  1.0  0.1096
  H  H17  1  0.280300  0.903000  0.209200  1.0  0.1162
  H  H18  1  0.808900  0.868300  0.986500  1.0  0.1045
  H  H19  1  0.774900  0.850500  0.105100  1.0  0.1178
  H  H20  1  0.719400  0.771800  0.057000  1.0  0.1154
  H  H21  1  0.789800  0.018600  0.588900  1.0  0.1083
  H  H22  1  0.697800  0.124400  0.596500  1.0  0.124
  H  H23  1  0.777100  0.126400  0.490100  1.0  0.1228
  H  H24  1  0.289200  0.149400  0.322200  1.0  0.1153
  H  H25  1  0.317500  0.234300  0.374500  1.0  0.1099
  H  H26  1  0.207000  0.148800  0.427300  1.0  0.1092
  H  H27  1  0.865400  0.576900  0.702600  1.0  0.105
  H  H28  1  0.796300  0.467500  0.718300  1.0  0.1221
  H  H29  1  0.740300  0.582700  0.642000  1.0  0.1168
  H  H30  1  0.905000  0.433100  0.306000  1.0  0.1139
  H  H31  1  0.810900  0.367700  0.403400  1.0  0.1222
  H  H32  1  0.959300  0.317800  0.383300  1.0  0.1163
  H  H33  1  0.755100  0.967100  0.828500  1.0  0.1129
  H  H34  1  0.812600  0.040100  0.881700  1.0  0.1107
  H  H35  1  0.719700  0.097000  0.790800  1.0  0.1145
  H  H36  1  0.191100  0.131700  0.013500  1.0  0.1036
  H  H37  1  0.225100  0.149500  0.894900  1.0  0.1197
  H  H38  1  0.280600  0.228200  0.943000  1.0  0.1146
  C  C39  1  0.474700  0.764500  0.556000  1.0  0.7514
  C  C40  1  0.488600  0.888300  0.526200  1.0  -0.1695
  C  C41  1  0.388300  0.962500  0.473500  1.0  0.0833
  C  C42  1  0.270500  0.919400  0.447100  1.0  -0.3643
  C  C43  1  0.600100  0.923800  0.553300  1.0  0.0585
  C  C44  1  0.706200  0.840200  0.612700  1.0  -0.3436
  C  C45  1  0.268900  0.573200  0.451600  1.0  0.7779
  C  C46  1  0.128300  0.534400  0.478000  1.0  -0.2219
  C  C47  1  0.085200  0.480200  0.418300  1.0  0.0757
  C  C48  1  0.179300  0.461600  0.331000  1.0  -0.3692
  C  C49  1  0.046000  0.555300  0.559900  1.0  0.0612
  C  C50  1  0.097400  0.614400  0.622400  1.0  -0.3573
  C  C51  1  0.504900  0.817100  0.194300  1.0  0.7156
  C  C52  1  0.502100  0.913200  0.092000  1.0  -0.1522
  C  C53  1  0.386700  0.985500  0.073400  1.0  0.0737
  C  C54  1  0.263900  0.968600  0.149900  1.0  -0.341
  C  C55  1  0.614600  0.925700  0.021100  1.0  0.0678
  C  C56  1  0.740900  0.846900  0.044400  1.0  -0.3518
  C  C57  1  0.525300  0.235500  0.444000  1.0  0.752
  C  C58  1  0.511400  0.111700  0.473800  1.0  -0.1712
  C  C59  1  0.611700  0.037500  0.526500  1.0  0.0838
  C  C60  1  0.729500  0.080600  0.552900  1.0  -0.3647
  C  C61  1  0.399900  0.076200  0.446700  1.0  0.0592
  C  C62  1  0.293800  0.159800  0.387300  1.0  -0.3448
  C  C63  1  0.731100  0.426800  0.548400  1.0  0.7784
  C  C64  1  0.871700  0.465600  0.522000  1.0  -0.2211
  C  C65  1  0.914800  0.519800  0.581700  1.0  0.0763
  C  C66  1  0.820700  0.538400  0.669000  1.0  -0.3695
  C  C67  1  0.954000  0.444700  0.440100  1.0  0.0618
  C  C68  1  0.902600  0.385600  0.377600  1.0  -0.3609
  C  C69  1  0.495100  0.182900  0.805700  1.0  0.7157
  C  C70  1  0.497900  0.086800  0.908000  1.0  -0.1551
  C  C71  1  0.613300  0.014500  0.926600  1.0  0.0725
  C  C72  1  0.736100  0.031400  0.850100  1.0  -0.3413
  C  C73  1  0.385400  0.074300  0.978900  1.0  0.0681
  C  C74  1  0.259100  0.153100  0.955600  1.0  -0.3512
  O  O75  1  0.529100  0.715300  0.494600  1.0  -0.7719
  O  O76  1  0.411900  0.715400  0.639300  1.0  -0.5259
  O  O77  1  0.290100  0.664100  0.382300  1.0  -0.6253
  O  O78  1  0.366900  0.513300  0.496800  1.0  -0.8471
  O  O79  1  0.507800  0.836400  0.276400  1.0  -0.6637
  O  O80  1  0.504800  0.719900  0.196100  1.0  -0.6868
  O  O81  1  0.470900  0.284700  0.505400  1.0  -0.7708
  O  O82  1  0.588100  0.284600  0.360700  1.0  -0.5259
  O  O83  1  0.709900  0.335900  0.617700  1.0  -0.6258
  O  O84  1  0.633100  0.486700  0.503200  1.0  -0.856
  O  O85  1  0.492200  0.163600  0.723600  1.0  -0.6607
  O  O86  1  0.495200  0.280100  0.803900  1.0  -0.6839
