# generated using pymatgen
data_PrH3C12(NO2)3
_symmetry_space_group_name_H-M   'P 1'
_cell_length_a   10.39100000
_cell_length_b   15.05600000
_cell_length_c   10.12100000
_cell_angle_alpha   101.36300000
_cell_angle_beta   101.11500000
_cell_angle_gamma   105.73700000
_symmetry_Int_Tables_number   1
_chemical_formula_structural   PrH3C12(NO2)3
_chemical_formula_sum   'Pr4 H12 C48 N12 O24'
_cell_volume   1442.41756555
_cell_formula_units_Z   4
loop_
 _symmetry_equiv_pos_site_id
 _symmetry_equiv_pos_as_xyz
  1  'x, y, z'
loop_
 _atom_site_type_symbol
 _atom_site_label
 _atom_site_symmetry_multiplicity
 _atom_site_fract_x
 _atom_site_fract_y
 _atom_site_fract_z
 _atom_site_occupancy
 _atom_site_charge
  Pr  Pr1  1  0.032420  0.194450  0.780120  1.0  2.237
  Pr  Pr2  1  0.006390  0.222750  0.289230  1.0  2.2103
  Pr  Pr3  1  0.967580  0.805550  0.219880  1.0  2.2358
  Pr  Pr4  1  0.993610  0.777250  0.710770  1.0  2.2112
  H  H5  1  0.409500  0.301300  0.962600  1.0  0.1164
  H  H6  1  0.628300  0.581200  0.311300  1.0  0.1172
  H  H7  1  0.606400  0.160400  0.084100  1.0  0.1318
  H  H8  1  0.344800  0.959100  0.653500  1.0  0.1279
  H  H9  1  0.692600  0.210000  0.711900  1.0  0.1237
  H  H10  1  0.363800  0.250800  0.374400  1.0  0.1217
  H  H11  1  0.590500  0.698700  0.037400  1.0  0.1172
  H  H12  1  0.371700  0.418800  0.688700  1.0  0.1176
  H  H13  1  0.393600  0.839600  0.915900  1.0  0.1323
  H  H14  1  0.655200  0.040900  0.346500  1.0  0.1276
  H  H15  1  0.307400  0.790000  0.288100  1.0  0.124
  H  H16  1  0.636200  0.749200  0.625600  1.0  0.122
  C  C17  1  0.246200  0.318300  0.123200  1.0  0.7417
  C  C18  1  0.386600  0.382900  0.136100  1.0  -0.1402
  C  C19  1  0.454900  0.356700  0.034700  1.0  -0.0038
  C  C20  1  0.588600  0.411200  0.039300  1.0  0.3183
  C  C21  1  0.649700  0.496800  0.145300  1.0  -0.1205
  C  C22  1  0.584600  0.523800  0.242700  1.0  -0.062
  C  C23  1  0.452700  0.466700  0.242200  1.0  0.247
  C  C24  1  0.788800  0.563800  0.144200  1.0  0.6989
  C  C25  1  0.778200  0.117200  0.946800  1.0  0.7537
  C  C26  1  0.622600  0.086200  0.901800  1.0  -0.1686
  C  C27  1  0.554100  0.121300  0.996300  1.0  -0.1097
  C  C28  1  0.411500  0.099800  0.963900  1.0  0.44
  C  C29  1  0.333500  0.037800  0.833000  1.0  -0.1586
  C  C30  1  0.398200  0.001100  0.739000  1.0  -0.0951
  C  C31  1  0.544600  0.026300  0.770100  1.0  0.2394
  C  C32  1  0.178700  0.014100  0.792200  1.0  0.7208
  C  C33  1  0.797500  0.234100  0.501200  1.0  0.7136
  C  C34  1  0.660900  0.237200  0.523800  1.0  -0.134
  C  C35  1  0.626700  0.218600  0.643600  1.0  -0.0579
  C  C36  1  0.496600  0.212300  0.664700  1.0  0.267
  C  C37  1  0.397100  0.221600  0.560600  1.0  -0.1253
  C  C38  1  0.431000  0.244100  0.443400  1.0  -0.0926
  C  C39  1  0.564400  0.256900  0.426600  1.0  0.2639
  C  C40  1  0.250700  0.199200  0.571800  1.0  0.733
  C  C41  1  0.753800  0.681700  0.876800  1.0  0.7413
  C  C42  1  0.613400  0.617100  0.863900  1.0  -0.1418
  C  C43  1  0.545100  0.643300  0.965300  1.0  -0.0034
  C  C44  1  0.411400  0.588800  0.960700  1.0  0.3161
  C  C45  1  0.350300  0.503200  0.854700  1.0  -0.1169
  C  C46  1  0.415400  0.476200  0.757300  1.0  -0.0627
  C  C47  1  0.547300  0.533300  0.757800  1.0  0.2476
  C  C48  1  0.211200  0.436200  0.855800  1.0  0.6973
  C  C49  1  0.221800  0.882800  0.053200  1.0  0.7545
  C  C50  1  0.377400  0.913800  0.098200  1.0  -0.1697
  C  C51  1  0.445900  0.878700  0.003700  1.0  -0.1091
  C  C52  1  0.588500  0.900200  0.036100  1.0  0.4432
  C  C53  1  0.666500  0.962200  0.167000  1.0  -0.1571
  C  C54  1  0.601800  0.998900  0.261000  1.0  -0.0952
  C  C55  1  0.455400  0.973700  0.229900  1.0  0.2406
  C  C56  1  0.821300  0.985900  0.207800  1.0  0.7194
  C  C57  1  0.202500  0.765900  0.498800  1.0  0.7136
  C  C58  1  0.339100  0.762800  0.476200  1.0  -0.1331
  C  C59  1  0.373300  0.781400  0.356400  1.0  -0.0577
  C  C60  1  0.503400  0.787700  0.335300  1.0  0.2688
  C  C61  1  0.602900  0.778400  0.439400  1.0  -0.1247
  C  C62  1  0.569000  0.755900  0.556600  1.0  -0.0922
  C  C63  1  0.435600  0.743100  0.573400  1.0  0.2635
  C  C64  1  0.749300  0.800800  0.428200  1.0  0.7312
  N  N65  1  0.392700  0.496500  0.347200  1.0  -0.2695
  N  N66  1  0.659000  0.371000  0.969000  1.0  -0.3913
  N  N67  1  0.601100  0.991400  0.667100  1.0  -0.2748
  N  N68  1  0.358000  0.131000  0.058000  1.0  -0.3768
  N  N69  1  0.599500  0.293000  0.318700  1.0  -0.2606
  N  N70  1  0.497000  0.244100  0.797000  1.0  -0.4007
  N  N71  1  0.607300  0.503500  0.652800  1.0  -0.273
  N  N72  1  0.341000  0.629000  0.031000  1.0  -0.3901
  N  N73  1  0.398900  0.008600  0.332900  1.0  -0.2727
  N  N74  1  0.642000  0.869000  0.942000  1.0  -0.3776
  N  N75  1  0.400500  0.707000  0.681300  1.0  -0.2595
  N  N76  1  0.503000  0.755900  0.203000  1.0  -0.4001
  O  O77  1  0.198900  0.323600  0.227800  1.0  -0.6646
  O  O78  1  0.181200  0.259600  0.007500  1.0  -0.7149
  O  O79  1  0.840700  0.643500  0.238400  1.0  -0.617
  O  O80  1  0.845000  0.537700  0.050700  1.0  -0.5262
  O  O81  1  0.842200  0.103200  0.856700  1.0  -0.7046
  O  O82  1  0.835800  0.156400  0.072700  1.0  -0.7383
  O  O83  1  0.109300  0.941900  0.689300  1.0  -0.7005
  O  O84  1  0.121800  0.065600  0.857600  1.0  -0.6789
  O  O85  1  0.880700  0.218400  0.593200  1.0  -0.7564
  O  O86  1  0.821900  0.245300  0.387500  1.0  -0.6374
  O  O87  1  0.223800  0.182900  0.681200  1.0  -0.6318
  O  O88  1  0.159000  0.195300  0.469400  1.0  -0.7102
  O  O89  1  0.801100  0.676400  0.772200  1.0  -0.6654
  O  O90  1  0.818800  0.740400  0.992500  1.0  -0.7167
  O  O91  1  0.159300  0.356500  0.761600  1.0  -0.62
  O  O92  1  0.155000  0.462300  0.949300  1.0  -0.5229
  O  O93  1  0.157800  0.896800  0.143300  1.0  -0.7044
  O  O94  1  0.164200  0.843600  0.927300  1.0  -0.7385
  O  O95  1  0.890700  0.058100  0.310700  1.0  -0.7017
  O  O96  1  0.878200  0.934400  0.142400  1.0  -0.6782
  O  O97  1  0.119300  0.781600  0.406800  1.0  -0.758
  O  O98  1  0.178100  0.754700  0.612500  1.0  -0.6395
  O  O99  1  0.776200  0.817100  0.318800  1.0  -0.6331
  O  O100  1  0.841000  0.804700  0.530600  1.0  -0.7108
