# generated using pymatgen
data_AgH6C6(SO)2
_symmetry_space_group_name_H-M   'P 1'
_cell_length_a   12.96770000
_cell_length_b   12.96770000
_cell_length_c   13.54500000
_cell_angle_alpha   90.00000000
_cell_angle_beta   90.00000000
_cell_angle_gamma   90.00000000
_symmetry_Int_Tables_number   1
_chemical_formula_structural   AgH6C6(SO)2
_chemical_formula_sum   'Ag8 H48 C48 S16 O16'
_cell_volume   2277.74404036
_cell_formula_units_Z   8
loop_
 _symmetry_equiv_pos_site_id
 _symmetry_equiv_pos_as_xyz
  1  'x, y, z'
loop_
 _atom_site_type_symbol
 _atom_site_label
 _atom_site_symmetry_multiplicity
 _atom_site_fract_x
 _atom_site_fract_y
 _atom_site_fract_z
 _atom_site_occupancy
 _atom_site_charge
  Ag  Ag1  1  0.831910  0.331630  0.747400  1.0  0.317
  Ag  Ag2  1  0.668090  0.168370  0.747400  1.0  0.3182
  Ag  Ag3  1  0.668370  0.331910  0.247400  1.0  0.3175
  Ag  Ag4  1  0.831630  0.168090  0.247400  1.0  0.318
  Ag  Ag5  1  0.168090  0.668370  0.252600  1.0  0.3184
  Ag  Ag6  1  0.331910  0.831630  0.252600  1.0  0.317
  Ag  Ag7  1  0.331630  0.668090  0.752600  1.0  0.318
  Ag  Ag8  1  0.168370  0.831910  0.752600  1.0  0.3175
  H  H9  1  0.075800  0.314500  0.782200  1.0  0.1192
  H  H10  1  0.106300  0.369200  0.680300  1.0  0.1396
  H  H11  1  0.156100  0.408300  0.781800  1.0  0.1294
  H  H12  1  0.028900  0.788800  0.991200  1.0  0.1432
  H  H13  1  0.101800  0.855700  0.061900  1.0  0.1436
  H  H14  1  0.007600  0.791900  0.107600  1.0  0.1214
  H  H15  1  0.424200  0.185500  0.782200  1.0  0.1195
  H  H16  1  0.393700  0.130800  0.680300  1.0  0.1393
  H  H17  1  0.343900  0.091700  0.781800  1.0  0.1301
  H  H18  1  0.471100  0.711200  0.991200  1.0  0.1441
  H  H19  1  0.398200  0.644300  0.061900  1.0  0.1442
  H  H20  1  0.492400  0.708100  0.107600  1.0  0.1229
  H  H21  1  0.685500  0.575800  0.282200  1.0  0.1187
  H  H22  1  0.630800  0.606300  0.180300  1.0  0.1392
  H  H23  1  0.591700  0.656100  0.281800  1.0  0.1289
  H  H24  1  0.211200  0.528900  0.491200  1.0  0.1441
  H  H25  1  0.144300  0.601800  0.561900  1.0  0.1431
  H  H26  1  0.208100  0.507600  0.607600  1.0  0.1213
  H  H27  1  0.814500  0.924200  0.282200  1.0  0.1188
  H  H28  1  0.869200  0.893700  0.180300  1.0  0.1393
  H  H29  1  0.908300  0.843900  0.281800  1.0  0.1293
  H  H30  1  0.288800  0.971100  0.491200  1.0  0.1446
  H  H31  1  0.355700  0.898200  0.561900  1.0  0.1432
  H  H32  1  0.291900  0.992400  0.607600  1.0  0.1218
  H  H33  1  0.924200  0.685500  0.217800  1.0  0.1196
  H  H34  1  0.893700  0.630800  0.319700  1.0  0.1404
  H  H35  1  0.843900  0.591700  0.218200  1.0  0.1308
  H  H36  1  0.971100  0.211200  0.008800  1.0  0.1433
  H  H37  1  0.898200  0.144300  0.938100  1.0  0.1442
  H  H38  1  0.992400  0.208100  0.892400  1.0  0.1209
  H  H39  1  0.575800  0.814500  0.217800  1.0  0.1191
  H  H40  1  0.606300  0.869200  0.319700  1.0  0.1408
  H  H41  1  0.656100  0.908300  0.218200  1.0  0.1304
  H  H42  1  0.528900  0.288800  0.008800  1.0  0.1432
  H  H43  1  0.601800  0.355700  0.938100  1.0  0.1431
  H  H44  1  0.507600  0.291900  0.892400  1.0  0.1202
  H  H45  1  0.314500  0.424200  0.717800  1.0  0.119
  H  H46  1  0.369200  0.393700  0.819700  1.0  0.1406
  H  H47  1  0.408300  0.343900  0.718200  1.0  0.1297
  H  H48  1  0.788800  0.471100  0.508800  1.0  0.1436
  H  H49  1  0.855700  0.398200  0.438100  1.0  0.1432
  H  H50  1  0.791900  0.492400  0.392400  1.0  0.1209
  H  H51  1  0.185500  0.075800  0.717800  1.0  0.1185
  H  H52  1  0.130800  0.106300  0.819700  1.0  0.1406
  H  H53  1  0.091700  0.156100  0.718200  1.0  0.1302
  H  H54  1  0.711200  0.028900  0.508800  1.0  0.1436
  H  H55  1  0.644300  0.101800  0.438100  1.0  0.1428
  H  H56  1  0.708100  0.007600  0.392400  1.0  0.1203
  C  C57  1  0.123000  0.622400  0.863900  1.0  0.6113
  C  C58  1  0.057400  0.559100  0.934300  1.0  -0.0783
  C  C59  1  0.996600  0.482300  0.897700  1.0  0.0125
  C  C60  1  0.058300  0.581200  0.037100  1.0  0.0138
  C  C61  1  0.093700  0.380300  0.750900  1.0  -0.3106
  C  C62  1  0.061200  0.792200  0.056600  1.0  -0.3033
  C  C63  1  0.377000  0.877600  0.863900  1.0  0.6118
  C  C64  1  0.442600  0.940900  0.934300  1.0  -0.0781
  C  C65  1  0.503400  0.017700  0.897700  1.0  0.0121
  C  C66  1  0.441700  0.918800  0.037100  1.0  0.0146
  C  C67  1  0.406300  0.119700  0.750900  1.0  -0.3095
  C  C68  1  0.438800  0.707800  0.056600  1.0  -0.3049
  C  C69  1  0.377600  0.623000  0.363900  1.0  0.6128
  C  C70  1  0.440900  0.557400  0.434300  1.0  -0.0786
  C  C71  1  0.517700  0.496600  0.397700  1.0  0.0118
  C  C72  1  0.418800  0.558300  0.537100  1.0  0.0145
  C  C73  1  0.619700  0.593700  0.250900  1.0  -0.3098
  C  C74  1  0.207800  0.561200  0.556600  1.0  -0.3042
  C  C75  1  0.122400  0.877000  0.363900  1.0  0.6124
  C  C76  1  0.059100  0.942600  0.434300  1.0  -0.0785
  C  C77  1  0.982300  0.003400  0.397700  1.0  0.0102
  C  C78  1  0.081200  0.941700  0.537100  1.0  0.0143
  C  C79  1  0.880300  0.906300  0.250900  1.0  -0.3096
  C  C80  1  0.292200  0.938800  0.556600  1.0  -0.3048
  C  C81  1  0.877000  0.377600  0.136100  1.0  0.6122
  C  C82  1  0.942600  0.440900  0.065700  1.0  -0.0784
  C  C83  1  0.003400  0.517700  0.102300  1.0  0.0132
  C  C84  1  0.941700  0.418800  0.962900  1.0  0.0151
  C  C85  1  0.906300  0.619700  0.249100  1.0  -0.3082
  C  C86  1  0.938800  0.207800  0.943400  1.0  -0.307
  C  C87  1  0.623000  0.122400  0.136100  1.0  0.6111
  C  C88  1  0.557400  0.059100  0.065700  1.0  -0.0786
  C  C89  1  0.496600  0.982300  0.102300  1.0  0.0131
  C  C90  1  0.558300  0.081200  0.962900  1.0  0.0142
  C  C91  1  0.593700  0.880300  0.249100  1.0  -0.3097
  C  C92  1  0.561200  0.292200  0.943400  1.0  -0.3056
  C  C93  1  0.622400  0.377000  0.636100  1.0  0.6131
  C  C94  1  0.559100  0.442600  0.565700  1.0  -0.0788
  C  C95  1  0.482300  0.503400  0.602300  1.0  0.0106
  C  C96  1  0.581200  0.441700  0.462900  1.0  0.0148
  C  C97  1  0.380300  0.406300  0.749100  1.0  -0.3086
  C  C98  1  0.792200  0.438800  0.443400  1.0  -0.3035
  C  C99  1  0.877600  0.123000  0.636100  1.0  0.6131
  C  C100  1  0.940900  0.057400  0.565700  1.0  -0.0789
  C  C101  1  0.017700  0.996600  0.602300  1.0  0.0127
  C  C102  1  0.918800  0.058300  0.462900  1.0  0.0154
  C  C103  1  0.119700  0.093700  0.749100  1.0  -0.3083
  C  C104  1  0.707800  0.061200  0.443400  1.0  -0.303
  S  S105  1  0.988600  0.470400  0.766400  1.0  0.0244
  S  S106  1  0.145800  0.680700  0.073500  1.0  0.0249
  S  S107  1  0.511400  0.029600  0.766400  1.0  0.0243
  S  S108  1  0.354200  0.819300  0.073500  1.0  0.0253
  S  S109  1  0.529600  0.488600  0.266400  1.0  0.026
  S  S110  1  0.319300  0.645800  0.573500  1.0  0.0264
  S  S111  1  0.970400  0.011400  0.266400  1.0  0.0248
  S  S112  1  0.180700  0.854200  0.573500  1.0  0.0265
  S  S113  1  0.011400  0.529600  0.233600  1.0  0.0252
  S  S114  1  0.854200  0.319300  0.926500  1.0  0.0248
  S  S115  1  0.488600  0.970400  0.233600  1.0  0.0247
  S  S116  1  0.645800  0.180700  0.926500  1.0  0.0241
  S  S117  1  0.470400  0.511400  0.733600  1.0  0.0261
  S  S118  1  0.680700  0.354200  0.426500  1.0  0.0261
  S  S119  1  0.029600  0.988600  0.733600  1.0  0.0261
  S  S120  1  0.819300  0.145800  0.426500  1.0  0.0259
  O  O121  1  0.085900  0.705300  0.836900  1.0  -0.5485
  O  O122  1  0.209600  0.585300  0.841400  1.0  -0.5638
  O  O123  1  0.414100  0.794700  0.836900  1.0  -0.549
  O  O124  1  0.290400  0.914700  0.841400  1.0  -0.565
  O  O125  1  0.294700  0.585900  0.336900  1.0  -0.5481
  O  O126  1  0.414700  0.709600  0.341400  1.0  -0.5631
  O  O127  1  0.205300  0.914100  0.336900  1.0  -0.5472
  O  O128  1  0.085300  0.790400  0.341400  1.0  -0.5632
  O  O129  1  0.914100  0.294700  0.163100  1.0  -0.5499
  O  O130  1  0.790400  0.414700  0.158600  1.0  -0.5649
  O  O131  1  0.585900  0.205300  0.163100  1.0  -0.549
  O  O132  1  0.709600  0.085300  0.158600  1.0  -0.5632
  O  O133  1  0.705300  0.414100  0.663100  1.0  -0.5477
  O  O134  1  0.585300  0.290400  0.658600  1.0  -0.5633
  O  O135  1  0.794700  0.085900  0.663100  1.0  -0.5489
  O  O136  1  0.914700  0.209600  0.658600  1.0  -0.5626
