# generated using pymatgen
data_Cd11H32(C2O)48
_symmetry_space_group_name_H-M   'P 1'
_cell_length_a   10.14300000
_cell_length_b   16.12700000
_cell_length_c   22.93700000
_cell_angle_alpha   79.01500000
_cell_angle_beta   84.96300000
_cell_angle_gamma   77.48400000
_symmetry_Int_Tables_number   1
_chemical_formula_structural   Cd11H32(C2O)48
_chemical_formula_sum   'Cd11 H32 C96 O48'
_cell_volume   3591.43471846
_cell_formula_units_Z   1
loop_
 _symmetry_equiv_pos_site_id
 _symmetry_equiv_pos_as_xyz
  1  'x, y, z'
loop_
 _atom_site_type_symbol
 _atom_site_label
 _atom_site_symmetry_multiplicity
 _atom_site_fract_x
 _atom_site_fract_y
 _atom_site_fract_z
 _atom_site_occupancy
 _atom_site_charge
  Cd  Cd1  1  0.204490  0.971910  0.211400  1.0  1.0746
  Cd  Cd2  1  0.135970  0.444380  0.195510  1.0  1.0852
  Cd  Cd3  1  0.424040  0.036280  0.306900  1.0  1.1283
  Cd  Cd4  1  0.498800  0.686160  0.230990  1.0  1.0766
  Cd  Cd5  1  0.323780  0.523140  0.287970  1.0  1.1073
  Cd  Cd6  1  0.795510  0.028090  0.788600  1.0  1.0748
  Cd  Cd7  1  0.864030  0.555620  0.804490  1.0  1.0868
  Cd  Cd8  1  0.575960  0.963720  0.693100  1.0  1.1291
  Cd  Cd9  1  0.501200  0.313840  0.769010  1.0  1.076
  Cd  Cd10  1  0.676220  0.476860  0.712030  1.0  1.1066
  Cd  Cd11  1  0.500000  0.000000  0.500000  1.0  0.8608
  H  H12  1  0.870400  0.149300  0.085100  1.0  0.1288
  H  H13  1  0.485900  0.141900  0.069700  1.0  0.1293
  H  H14  1  0.687900  0.993200  0.207700  1.0  0.1245
  H  H15  1  0.498400  0.337900  0.080600  1.0  0.1273
  H  H16  1  0.889700  0.355300  0.051200  1.0  0.134
  H  H17  1  0.666400  0.456200  0.185400  1.0  0.1267
  H  H18  1  0.736300  0.401500  0.943500  1.0  0.1236
  H  H19  1  0.675600  0.123000  0.962300  1.0  0.1289
  H  H20  1  0.207000  0.619800  0.457500  1.0  0.1302
  H  H21  1  0.195800  0.907900  0.447900  1.0  0.1206
  H  H22  1  0.950100  0.830500  0.581200  1.0  0.1278
  H  H23  1  0.093500  0.959700  0.686800  1.0  0.1242
  H  H24  1  0.330800  0.877100  0.551400  1.0  0.1316
  H  H25  1  0.955700  0.666000  0.569900  1.0  0.125
  H  H26  1  0.127600  0.496100  0.705900  1.0  0.1175
  H  H27  1  0.357100  0.616600  0.580300  1.0  0.1325
  H  H28  1  0.129600  0.850700  0.914900  1.0  0.1292
  H  H29  1  0.514100  0.858100  0.930300  1.0  0.1297
  H  H30  1  0.312100  0.006800  0.792300  1.0  0.1253
  H  H31  1  0.501600  0.662100  0.919400  1.0  0.1255
  H  H32  1  0.110300  0.644700  0.948800  1.0  0.1328
  H  H33  1  0.333600  0.543800  0.814600  1.0  0.1272
  H  H34  1  0.263700  0.598500  0.056500  1.0  0.1238
  H  H35  1  0.324400  0.877000  0.037700  1.0  0.1311
  H  H36  1  0.793000  0.380200  0.542500  1.0  0.1301
  H  H37  1  0.804200  0.092100  0.552100  1.0  0.1207
  H  H38  1  0.049900  0.169500  0.418800  1.0  0.1279
  H  H39  1  0.906500  0.040300  0.313200  1.0  0.1246
  H  H40  1  0.669200  0.122900  0.448600  1.0  0.1313
  H  H41  1  0.044300  0.334000  0.430100  1.0  0.1252
  H  H42  1  0.872400  0.503900  0.294100  1.0  0.1193
  H  H43  1  0.642900  0.383400  0.419700  1.0  0.1333
  C  C44  1  0.934200  0.029000  0.179100  1.0  0.6799
  C  C45  1  0.802300  0.064400  0.150400  1.0  -0.1428
  C  C46  1  0.794800  0.126200  0.099000  1.0  -0.0223
  C  C47  1  0.677300  0.154400  0.067800  1.0  0.0338
  C  C48  1  0.564800  0.123500  0.090400  1.0  -0.0599
  C  C49  1  0.565200  0.064700  0.144000  1.0  -0.1259
  C  C50  1  0.685100  0.034100  0.173000  1.0  -0.0028
  C  C51  1  0.440500  0.032000  0.167200  1.0  0.7293
  C  C52  1  0.432100  0.416400  0.173800  1.0  0.7401
  C  C53  1  0.562300  0.398000  0.138500  1.0  -0.1564
  C  C54  1  0.573300  0.356100  0.090400  1.0  -0.0081
  C  C55  1  0.694100  0.340600  0.056400  1.0  0.0043
  C  C56  1  0.807900  0.366300  0.072900  1.0  -0.027
  C  C57  1  0.798300  0.408300  0.122000  1.0  -0.1392
  C  C58  1  0.674500  0.426100  0.154100  1.0  0.0246
  C  C59  1  0.920100  0.427600  0.142500  1.0  0.6688
  C  C60  1  0.701900  0.298600  0.003700  1.0  0.0403
  C  C61  1  0.722500  0.345600  0.946700  1.0  -0.0895
  C  C62  1  0.723400  0.313500  0.895500  1.0  -0.0597
  C  C63  1  0.702500  0.226900  0.900500  1.0  -0.1035
  C  C64  1  0.685700  0.179800  0.958400  1.0  -0.0782
  C  C65  1  0.683600  0.214000  0.008900  1.0  -0.0099
  C  C66  1  0.746500  0.369000  0.837600  1.0  0.7752
  C  C67  1  0.713400  0.178600  0.849100  1.0  0.7446
  C  C68  1  0.283900  0.869100  0.344300  1.0  0.748
  C  C69  1  0.244300  0.812100  0.400500  1.0  -0.0197
  C  C70  1  0.244300  0.726100  0.403100  1.0  -0.0772
  C  C71  1  0.208400  0.677600  0.456200  1.0  -0.0131
  C  C72  1  0.173600  0.713300  0.508600  1.0  0.0287
  C  C73  1  0.169100  0.801000  0.504300  1.0  0.0263
  C  C74  1  0.202100  0.848900  0.450600  1.0  -0.1014
  C  C75  1  0.294100  0.679800  0.350200  1.0  0.6949
  C  C76  1  0.143400  0.845400  0.556700  1.0  -0.0136
  C  C77  1  0.019500  0.854400  0.590500  1.0  -0.0127
  C  C78  1  0.002000  0.898900  0.637700  1.0  -0.0985
  C  C79  1  0.105700  0.932000  0.654100  1.0  0.0278
  C  C80  1  0.230700  0.923200  0.620500  1.0  -0.1232
  C  C81  1  0.248800  0.881900  0.573400  1.0  -0.0537
  C  C82  1  0.350700  0.952400  0.637100  1.0  0.7204
  C  C83  1  0.865200  0.913400  0.669300  1.0  0.7334
  C  C84  1  0.157900  0.652300  0.565800  1.0  0.0094
  C  C85  1  0.033300  0.636300  0.589400  1.0  -0.0269
  C  C86  1  0.021000  0.576900  0.641400  1.0  -0.1579
  C  C87  1  0.135300  0.534000  0.670300  1.0  0.013
  C  C88  1  0.261900  0.546000  0.647700  1.0  -0.1281
  C  C89  1  0.272500  0.606900  0.595300  1.0  0.0101
  C  C90  1  0.387300  0.496900  0.678900  1.0  0.7625
  C  C91  1  0.885300  0.557800  0.663500  1.0  0.7434
  C  C92  1  0.065800  0.971000  0.820900  1.0  0.6799
  C  C93  1  0.197700  0.935600  0.849600  1.0  -0.1423
  C  C94  1  0.205200  0.873800  0.901000  1.0  -0.0218
  C  C95  1  0.322700  0.845600  0.932200  1.0  0.0335
  C  C96  1  0.435200  0.876500  0.909600  1.0  -0.0571
  C  C97  1  0.434800  0.935300  0.856000  1.0  -0.1256
  C  C98  1  0.314900  0.965900  0.827000  1.0  -0.0052
  C  C99  1  0.559500  0.968000  0.832800  1.0  0.7278
  C  C100  1  0.567900  0.583600  0.826200  1.0  0.7393
  C  C101  1  0.437700  0.602000  0.861500  1.0  -0.1561
  C  C102  1  0.426700  0.643900  0.909600  1.0  -0.0067
  C  C103  1  0.305900  0.659400  0.943600  1.0  0.004
  C  C104  1  0.192100  0.633700  0.927100  1.0  -0.0282
  C  C105  1  0.201700  0.591700  0.878000  1.0  -0.1383
  C  C106  1  0.325500  0.573900  0.845900  1.0  0.027
  C  C107  1  0.079900  0.572400  0.857500  1.0  0.6713
  C  C108  1  0.298100  0.701400  0.996300  1.0  0.0408
  C  C109  1  0.277500  0.654400  0.053300  1.0  -0.0875
  C  C110  1  0.276600  0.686500  0.104500  1.0  -0.0606
  C  C111  1  0.297500  0.773100  0.099500  1.0  -0.1032
  C  C112  1  0.314300  0.820200  0.041600  1.0  -0.0783
  C  C113  1  0.316400  0.786000  0.991100  1.0  -0.0089
  C  C114  1  0.253500  0.631000  0.162400  1.0  0.7751
  C  C115  1  0.286600  0.821400  0.150900  1.0  0.7437
  C  C116  1  0.716100  0.130900  0.655700  1.0  0.7483
  C  C117  1  0.755700  0.187900  0.599500  1.0  -0.0183
  C  C118  1  0.755700  0.273900  0.596900  1.0  -0.0765
  C  C119  1  0.791600  0.322400  0.543800  1.0  -0.0143
  C  C120  1  0.826400  0.286700  0.491400  1.0  0.0306
  C  C121  1  0.830900  0.199000  0.495700  1.0  0.0264
  C  C122  1  0.797900  0.151100  0.549400  1.0  -0.1002
  C  C123  1  0.705900  0.320200  0.649800  1.0  0.6952
  C  C124  1  0.856600  0.154600  0.443300  1.0  -0.0135
  C  C125  1  0.980500  0.145600  0.409500  1.0  -0.0122
  C  C126  1  0.998000  0.101100  0.362300  1.0  -0.0993
  C  C127  1  0.894300  0.068000  0.345900  1.0  0.0291
  C  C128  1  0.769300  0.076800  0.379500  1.0  -0.1225
  C  C129  1  0.751200  0.118100  0.426600  1.0  -0.055
  C  C130  1  0.649300  0.047600  0.362900  1.0  0.7243
  C  C131  1  0.134800  0.086600  0.330700  1.0  0.7316
  C  C132  1  0.842100  0.347700  0.434200  1.0  0.0093
  C  C133  1  0.966700  0.363700  0.410600  1.0  -0.0273
  C  C134  1  0.979000  0.423100  0.358600  1.0  -0.1582
  C  C135  1  0.864700  0.466000  0.329700  1.0  0.0143
  C  C136  1  0.738100  0.454000  0.352300  1.0  -0.1261
  C  C137  1  0.727500  0.393100  0.404700  1.0  0.0091
  C  C138  1  0.612700  0.503100  0.321100  1.0  0.769
  C  C139  1  0.114700  0.442200  0.336500  1.0  0.743
  O  O140  1  0.945400  0.967200  0.222100  1.0  -0.6411
  O  O141  1  0.033500  0.062500  0.159500  1.0  -0.578
  O  O142  1  0.436500  0.988200  0.220000  1.0  -0.6997
  O  O143  1  0.340900  0.048200  0.135700  1.0  -0.6303
  O  O144  1  0.331500  0.406700  0.149400  1.0  -0.5726
  O  O145  1  0.429900  0.434200  0.224200  1.0  -0.6487
  O  O146  1  0.911400  0.464300  0.186400  1.0  -0.5629
  O  O147  1  0.033800  0.402900  0.116200  1.0  -0.5987
  O  O148  1  0.832400  0.413100  0.836000  1.0  -0.7137
  O  O149  1  0.681300  0.368900  0.793900  1.0  -0.6532
  O  O150  1  0.617200  0.188300  0.817700  1.0  -0.6103
  O  O151  1  0.817300  0.128200  0.843400  1.0  -0.5578
  O  O152  1  0.211700  0.882600  0.300700  1.0  -0.6245
  O  O153  1  0.380600  0.903800  0.347200  1.0  -0.6331
  O  O154  1  0.388300  0.705300  0.318400  1.0  -0.6634
  O  O155  1  0.234100  0.621700  0.344700  1.0  -0.559
  O  O156  1  0.452800  0.949300  0.602800  1.0  -0.656
  O  O157  1  0.344000  0.978400  0.686000  1.0  -0.6012
  O  O158  1  0.850100  0.925000  0.722100  1.0  -0.7326
  O  O159  1  0.762100  0.914500  0.639100  1.0  -0.5865
  O  O160  1  0.495500  0.519700  0.659600  1.0  -0.576
  O  O161  1  0.376500  0.437700  0.722400  1.0  -0.7022
  O  O162  1  0.879800  0.511300  0.714900  1.0  -0.6477
  O  O163  1  0.788800  0.579700  0.631100  1.0  -0.6094
  O  O164  1  0.054600  0.032800  0.777900  1.0  -0.6391
  O  O165  1  0.966500  0.937500  0.840500  1.0  -0.579
  O  O166  1  0.563500  0.011800  0.780000  1.0  -0.7066
  O  O167  1  0.659100  0.951800  0.864300  1.0  -0.631
  O  O168  1  0.668500  0.593300  0.850600  1.0  -0.5715
  O  O169  1  0.570100  0.565800  0.775800  1.0  -0.6478
  O  O170  1  0.088600  0.535700  0.813600  1.0  -0.5641
  O  O171  1  0.966200  0.597100  0.883800  1.0  -0.5983
  O  O172  1  0.167600  0.586900  0.164000  1.0  -0.7134
  O  O173  1  0.318700  0.631100  0.206100  1.0  -0.6545
  O  O174  1  0.382800  0.811700  0.182300  1.0  -0.6099
  O  O175  1  0.182700  0.871800  0.156600  1.0  -0.5531
  O  O176  1  0.788300  0.117400  0.699300  1.0  -0.626
  O  O177  1  0.619400  0.096200  0.652800  1.0  -0.6317
  O  O178  1  0.611700  0.294700  0.681600  1.0  -0.663
  O  O179  1  0.765900  0.378300  0.655300  1.0  -0.5592
  O  O180  1  0.547200  0.050700  0.397200  1.0  -0.6551
  O  O181  1  0.656000  0.021600  0.314000  1.0  -0.6006
  O  O182  1  0.149900  0.075000  0.277900  1.0  -0.7294
  O  O183  1  0.237900  0.085500  0.360900  1.0  -0.5853
  O  O184  1  0.504500  0.480300  0.340400  1.0  -0.5748
  O  O185  1  0.623500  0.562300  0.277600  1.0  -0.7051
  O  O186  1  0.120200  0.488700  0.285100  1.0  -0.6484
  O  O187  1  0.211200  0.420300  0.368900  1.0  -0.6065
