# generated using pymatgen
data_Cd3H12C29NO12
_symmetry_space_group_name_H-M   'P 1'
_cell_length_a   18.84500000
_cell_length_b   29.99600000
_cell_length_c   12.41000000
_cell_angle_alpha   90.00000000
_cell_angle_beta   90.00000000
_cell_angle_gamma   90.00000000
_symmetry_Int_Tables_number   1
_chemical_formula_structural   Cd3H12C29NO12
_chemical_formula_sum   'Cd24 H96 C232 N8 O96'
_cell_volume   7015.05803420
_cell_formula_units_Z   8
loop_
 _symmetry_equiv_pos_site_id
 _symmetry_equiv_pos_as_xyz
  1  'x, y, z'
loop_
 _atom_site_type_symbol
 _atom_site_label
 _atom_site_symmetry_multiplicity
 _atom_site_fract_x
 _atom_site_fract_y
 _atom_site_fract_z
 _atom_site_occupancy
 _atom_site_charge
  Cd  Cd1  1  0.092190  0.653330  0.560540  1.0  1.0252
  Cd  Cd2  1  0.176500  0.610200  0.817290  1.0  1.159
  Cd  Cd3  1  0.364930  0.614010  0.821890  1.0  1.0151
  Cd  Cd4  1  0.407810  0.346670  0.560540  1.0  1.0259
  Cd  Cd5  1  0.323500  0.389800  0.817290  1.0  1.1609
  Cd  Cd6  1  0.135070  0.385990  0.821890  1.0  1.0159
  Cd  Cd7  1  0.407810  0.153330  0.939460  1.0  1.0259
  Cd  Cd8  1  0.323500  0.110200  0.682710  1.0  1.1597
  Cd  Cd9  1  0.135070  0.114010  0.678110  1.0  1.014
  Cd  Cd10  1  0.092190  0.846670  0.939460  1.0  1.0263
  Cd  Cd11  1  0.176500  0.889800  0.682710  1.0  1.1581
  Cd  Cd12  1  0.364930  0.885990  0.678110  1.0  1.016
  Cd  Cd13  1  0.907810  0.346670  0.439460  1.0  1.0243
  Cd  Cd14  1  0.823500  0.389800  0.182710  1.0  1.1601
  Cd  Cd15  1  0.635070  0.385990  0.178110  1.0  1.0154
  Cd  Cd16  1  0.592190  0.653330  0.439460  1.0  1.0235
  Cd  Cd17  1  0.676500  0.610200  0.182710  1.0  1.1579
  Cd  Cd18  1  0.864930  0.614010  0.178110  1.0  1.0144
  Cd  Cd19  1  0.592190  0.846670  0.060540  1.0  1.0236
  Cd  Cd20  1  0.676500  0.889800  0.317290  1.0  1.1593
  Cd  Cd21  1  0.864930  0.885990  0.321890  1.0  1.0162
  Cd  Cd22  1  0.907810  0.153330  0.060540  1.0  1.023
  Cd  Cd23  1  0.823500  0.110200  0.317290  1.0  1.1608
  Cd  Cd24  1  0.635070  0.114010  0.321890  1.0  1.0148
  H  H25  1  0.310500  0.707600  0.379700  1.0  0.1154
  H  H26  1  0.353300  0.688600  0.065800  1.0  0.123
  H  H27  1  0.172600  0.640800  0.192100  1.0  0.1094
  H  H28  1  0.475500  0.675000  0.206000  1.0  0.1143
  H  H29  1  0.359700  0.624800  0.556900  1.0  0.1186
  H  H30  1  0.394900  0.556100  0.285300  1.0  0.1217
  H  H31  1  0.208000  0.543600  0.439200  1.0  0.109
  H  H32  1  0.314000  0.565300  0.148000  1.0  0.1059
  H  H33  1  0.515600  0.600500  0.693400  1.0  0.0952
  H  H34  1  0.565600  0.558400  0.560000  1.0  0.1194
  H  H35  1  0.398100  0.476300  0.575300  1.0  0.13
  H  H36  1  0.355300  0.518900  0.714600  1.0  0.0774
  H  H37  1  0.189500  0.292400  0.379700  1.0  0.1154
  H  H38  1  0.146700  0.311400  0.065800  1.0  0.1225
  H  H39  1  0.327400  0.359200  0.192100  1.0  0.1095
  H  H40  1  0.024500  0.325000  0.206000  1.0  0.114
  H  H41  1  0.140300  0.375200  0.556900  1.0  0.1189
  H  H42  1  0.105100  0.443900  0.285300  1.0  0.1212
  H  H43  1  0.292000  0.456400  0.439200  1.0  0.1086
  H  H44  1  0.186000  0.434700  0.148000  1.0  0.1058
  H  H45  1  0.984400  0.399500  0.693400  1.0  0.0944
  H  H46  1  0.934400  0.441600  0.560000  1.0  0.1182
  H  H47  1  0.101900  0.523700  0.575300  1.0  0.1307
  H  H48  1  0.144700  0.481100  0.714600  1.0  0.0777
  H  H49  1  0.189500  0.207600  0.120300  1.0  0.1164
  H  H50  1  0.146700  0.188600  0.434200  1.0  0.1235
  H  H51  1  0.327400  0.140800  0.307900  1.0  0.1096
  H  H52  1  0.024500  0.175000  0.294000  1.0  0.114
  H  H53  1  0.140300  0.124800  0.943100  1.0  0.1193
  H  H54  1  0.105100  0.056100  0.214700  1.0  0.1217
  H  H55  1  0.292000  0.043600  0.060800  1.0  0.1088
  H  H56  1  0.186000  0.065300  0.352000  1.0  0.1064
  H  H57  1  0.984400  0.100500  0.806600  1.0  0.0955
  H  H58  1  0.934400  0.058400  0.940000  1.0  0.1189
  H  H59  1  0.101900  0.976300  0.924700  1.0  0.1299
  H  H60  1  0.144700  0.018900  0.785400  1.0  0.077
  H  H61  1  0.310500  0.792400  0.120300  1.0  0.1167
  H  H62  1  0.353300  0.811400  0.434200  1.0  0.1234
  H  H63  1  0.172600  0.859200  0.307900  1.0  0.1094
  H  H64  1  0.475500  0.825000  0.294000  1.0  0.1138
  H  H65  1  0.359700  0.875200  0.943100  1.0  0.1184
  H  H66  1  0.394900  0.943900  0.214700  1.0  0.1217
  H  H67  1  0.208000  0.956400  0.060800  1.0  0.1088
  H  H68  1  0.314000  0.934700  0.352000  1.0  0.1062
  H  H69  1  0.515600  0.899500  0.806600  1.0  0.0951
  H  H70  1  0.565600  0.941600  0.940000  1.0  0.1182
  H  H71  1  0.398100  0.023700  0.924700  1.0  0.1308
  H  H72  1  0.355300  0.981100  0.785400  1.0  0.0772
  H  H73  1  0.689500  0.292400  0.620300  1.0  0.1167
  H  H74  1  0.646700  0.311400  0.934200  1.0  0.1236
  H  H75  1  0.827400  0.359200  0.807900  1.0  0.1097
  H  H76  1  0.524500  0.325000  0.794000  1.0  0.1138
  H  H77  1  0.640300  0.375200  0.443100  1.0  0.1185
  H  H78  1  0.605100  0.443900  0.714700  1.0  0.1216
  H  H79  1  0.792000  0.456400  0.560800  1.0  0.1084
  H  H80  1  0.686000  0.434700  0.852000  1.0  0.1065
  H  H81  1  0.484400  0.399500  0.306600  1.0  0.095
  H  H82  1  0.434400  0.441600  0.440000  1.0  0.1201
  H  H83  1  0.601900  0.523700  0.424700  1.0  0.1308
  H  H84  1  0.644700  0.481100  0.285400  1.0  0.0771
  H  H85  1  0.810500  0.707600  0.620300  1.0  0.1163
  H  H86  1  0.853300  0.688600  0.934200  1.0  0.123
  H  H87  1  0.672600  0.640800  0.807900  1.0  0.1094
  H  H88  1  0.975500  0.675000  0.794000  1.0  0.114
  H  H89  1  0.859700  0.624800  0.443100  1.0  0.1189
  H  H90  1  0.894900  0.556100  0.714700  1.0  0.1219
  H  H91  1  0.708000  0.543600  0.560800  1.0  0.1089
  H  H92  1  0.814000  0.565300  0.852000  1.0  0.1059
  H  H93  1  0.015600  0.600500  0.306600  1.0  0.0954
  H  H94  1  0.065600  0.558400  0.440000  1.0  0.1193
  H  H95  1  0.898100  0.476300  0.424700  1.0  0.1298
  H  H96  1  0.855300  0.518900  0.285400  1.0  0.077
  H  H97  1  0.810500  0.792400  0.879700  1.0  0.1155
  H  H98  1  0.853300  0.811400  0.565800  1.0  0.1233
  H  H99  1  0.672600  0.859200  0.692100  1.0  0.1094
  H  H100  1  0.975500  0.825000  0.706000  1.0  0.1142
  H  H101  1  0.859700  0.875200  0.056900  1.0  0.1188
  H  H102  1  0.894900  0.943900  0.785300  1.0  0.1217
  H  H103  1  0.708000  0.956400  0.939200  1.0  0.1088
  H  H104  1  0.814000  0.934700  0.648000  1.0  0.1059
  H  H105  1  0.015600  0.899500  0.193400  1.0  0.0948
  H  H106  1  0.065600  0.941600  0.060000  1.0  0.1206
  H  H107  1  0.898100  0.023700  0.075300  1.0  0.1308
  H  H108  1  0.855300  0.981100  0.214600  1.0  0.0775
  H  H109  1  0.689500  0.207600  0.879700  1.0  0.1154
  H  H110  1  0.646700  0.188600  0.565800  1.0  0.1224
  H  H111  1  0.827400  0.140800  0.692100  1.0  0.1094
  H  H112  1  0.524500  0.175000  0.706000  1.0  0.114
  H  H113  1  0.640300  0.124800  0.056900  1.0  0.119
  H  H114  1  0.605100  0.056100  0.785300  1.0  0.1211
  H  H115  1  0.792000  0.043600  0.939200  1.0  0.1089
  H  H116  1  0.686000  0.065300  0.648000  1.0  0.1061
  H  H117  1  0.484400  0.100500  0.193400  1.0  0.095
  H  H118  1  0.434400  0.058400  0.060000  1.0  0.1198
  H  H119  1  0.601900  0.976300  0.075300  1.0  0.1301
  H  H120  1  0.644700  0.018900  0.214600  1.0  0.0779
  C  C121  1  0.186800  0.664900  0.397000  1.0  0.6076
  C  C122  1  0.233900  0.672100  0.301900  1.0  -0.1407
  C  C123  1  0.298000  0.695820  0.313000  1.0  -0.036
  C  C124  1  0.342800  0.701770  0.225000  1.0  0.0616
  C  C125  1  0.323300  0.684900  0.124600  1.0  -0.0476
  C  C126  1  0.259200  0.662560  0.111900  1.0  -0.1402
  C  C127  1  0.215200  0.656100  0.200600  1.0  0.0317
  C  C128  1  0.237300  0.646330  0.002300  1.0  0.678
  C  C129  1  0.411300  0.727420  0.237500  1.0  0.0129
  C  C130  1  0.475600  0.705130  0.224000  1.0  -0.073
  C  C131  1  0.539700  0.727140  0.237100  1.0  -0.0733
  C  C132  1  0.608600  0.703480  0.213000  1.0  0.7176
  C  C133  1  0.234700  0.595000  0.612000  1.0  0.6775
  C  C134  1  0.278300  0.584420  0.515400  1.0  -0.1424
  C  C135  1  0.344500  0.604460  0.505300  1.0  0.0202
  C  C136  1  0.387900  0.594300  0.418600  1.0  -0.1365
  C  C137  1  0.460200  0.615500  0.414200  1.0  0.687
  C  C138  1  0.364500  0.564140  0.341100  1.0  -0.0651
  C  C139  1  0.296300  0.545650  0.344800  1.0  0.0031
  C  C140  1  0.253200  0.555800  0.434000  1.0  -0.0261
  C  C141  1  0.270400  0.519830  0.249200  1.0  0.0277
  C  C142  1  0.288300  0.538830  0.148700  1.0  -0.131
  C  C143  1  0.269200  0.519900  0.051200  1.0  -0.0869
  C  C144  1  0.286100  0.544100  0.948900  1.0  0.711
  C  C145  1  0.491300  0.575400  0.669200  1.0  0.1753
  C  C146  1  0.521600  0.550300  0.587600  1.0  -0.1838
  C  C147  1  0.486400  0.512890  0.546500  1.0  0.1065
  C  C148  1  0.423000  0.501510  0.597200  1.0  -0.1803
  C  C149  1  0.397000  0.527800  0.680700  1.0  0.1869
  C  C150  1  0.313200  0.335100  0.397000  1.0  0.6087
  C  C151  1  0.266100  0.327900  0.301900  1.0  -0.1417
  C  C152  1  0.202000  0.304180  0.313000  1.0  -0.0368
  C  C153  1  0.157200  0.298230  0.225000  1.0  0.0614
  C  C154  1  0.176700  0.315100  0.124600  1.0  -0.0475
  C  C155  1  0.240800  0.337440  0.111900  1.0  -0.1403
  C  C156  1  0.284800  0.343900  0.200600  1.0  0.0315
  C  C157  1  0.262700  0.353670  0.002300  1.0  0.6754
  C  C158  1  0.088700  0.272580  0.237500  1.0  0.0116
  C  C159  1  0.024400  0.294870  0.224000  1.0  -0.0741
  C  C160  1  0.960300  0.272860  0.237100  1.0  -0.0731
  C  C161  1  0.891400  0.296520  0.213000  1.0  0.7198
  C  C162  1  0.265300  0.405000  0.612000  1.0  0.6786
  C  C163  1  0.221700  0.415580  0.515400  1.0  -0.1438
  C  C164  1  0.155500  0.395540  0.505300  1.0  0.021
  C  C165  1  0.112100  0.405700  0.418600  1.0  -0.1374
  C  C166  1  0.039800  0.384500  0.414200  1.0  0.6872
  C  C167  1  0.135500  0.435860  0.341100  1.0  -0.0649
  C  C168  1  0.203700  0.454350  0.344800  1.0  0.0026
  C  C169  1  0.246800  0.444200  0.434000  1.0  -0.0266
  C  C170  1  0.229600  0.480170  0.249200  1.0  0.0307
  C  C171  1  0.211700  0.461170  0.148700  1.0  -0.1283
  C  C172  1  0.230800  0.480100  0.051200  1.0  -0.0867
  C  C173  1  0.213900  0.455900  0.948900  1.0  0.7114
  C  C174  1  0.008700  0.424600  0.669200  1.0  0.1752
  C  C175  1  0.978400  0.449700  0.587600  1.0  -0.1825
  C  C176  1  0.013600  0.487110  0.546500  1.0  0.106
  C  C177  1  0.077000  0.498490  0.597200  1.0  -0.1789
  C  C178  1  0.103000  0.472200  0.680700  1.0  0.1853
  C  C179  1  0.313200  0.164900  0.103000  1.0  0.6083
  C  C180  1  0.266100  0.172100  0.198100  1.0  -0.1402
  C  C181  1  0.202000  0.195820  0.187000  1.0  -0.0378
  C  C182  1  0.157200  0.201770  0.275000  1.0  0.0626
  C  C183  1  0.176700  0.184900  0.375400  1.0  -0.0484
  C  C184  1  0.240800  0.162560  0.388100  1.0  -0.1417
  C  C185  1  0.284800  0.156100  0.299400  1.0  0.0315
  C  C186  1  0.262700  0.146330  0.497700  1.0  0.6756
  C  C187  1  0.088700  0.227420  0.262500  1.0  0.0113
  C  C188  1  0.024400  0.205130  0.276000  1.0  -0.0713
  C  C189  1  0.960300  0.227140  0.262900  1.0  -0.0725
  C  C190  1  0.891400  0.203480  0.287000  1.0  0.7191
  C  C191  1  0.265300  0.095000  0.888000  1.0  0.6781
  C  C192  1  0.221700  0.084420  0.984600  1.0  -0.1439
  C  C193  1  0.155500  0.104460  0.994700  1.0  0.0195
  C  C194  1  0.112100  0.094300  0.081400  1.0  -0.1351
  C  C195  1  0.039800  0.115500  0.085800  1.0  0.6855
  C  C196  1  0.135500  0.064140  0.158900  1.0  -0.0646
  C  C197  1  0.203700  0.045650  0.155200  1.0  0.0021
  C  C198  1  0.246800  0.055800  0.066000  1.0  -0.0265
  C  C199  1  0.229600  0.019830  0.250800  1.0  0.0274
  C  C200  1  0.211700  0.038830  0.351300  1.0  -0.1292
  C  C201  1  0.230800  0.019900  0.448800  1.0  -0.086
  C  C202  1  0.213900  0.044100  0.551100  1.0  0.7114
  C  C203  1  0.008700  0.075400  0.830800  1.0  0.1768
  C  C204  1  0.978400  0.050300  0.912400  1.0  -0.1847
  C  C205  1  0.013600  0.012890  0.953500  1.0  0.1062
  C  C206  1  0.077000  0.001510  0.902800  1.0  -0.1816
  C  C207  1  0.103000  0.027800  0.819300  1.0  0.1871
  C  C208  1  0.186800  0.835100  0.103000  1.0  0.6094
  C  C209  1  0.233900  0.827900  0.198100  1.0  -0.1418
  C  C210  1  0.298000  0.804180  0.187000  1.0  -0.0372
  C  C211  1  0.342800  0.798230  0.275000  1.0  0.0624
  C  C212  1  0.323300  0.815100  0.375400  1.0  -0.0467
  C  C213  1  0.259200  0.837440  0.388100  1.0  -0.1391
  C  C214  1  0.215200  0.843900  0.299400  1.0  0.0315
  C  C215  1  0.237300  0.853670  0.497700  1.0  0.6774
  C  C216  1  0.411300  0.772580  0.262500  1.0  0.0135
  C  C217  1  0.475600  0.794870  0.276000  1.0  -0.0705
  C  C218  1  0.539700  0.772860  0.262900  1.0  -0.073
  C  C219  1  0.608600  0.796520  0.287000  1.0  0.7186
  C  C220  1  0.234700  0.905000  0.888000  1.0  0.678
  C  C221  1  0.278300  0.915580  0.984600  1.0  -0.1434
  C  C222  1  0.344500  0.895540  0.994700  1.0  0.0215
  C  C223  1  0.387900  0.905700  0.081400  1.0  -0.137
  C  C224  1  0.460200  0.884500  0.085800  1.0  0.6878
  C  C225  1  0.364500  0.935860  0.158900  1.0  -0.065
  C  C226  1  0.296300  0.954350  0.155200  1.0  0.0035
  C  C227  1  0.253200  0.944200  0.066000  1.0  -0.0255
  C  C228  1  0.270400  0.980170  0.250800  1.0  0.0315
  C  C229  1  0.288300  0.961170  0.351300  1.0  -0.127
  C  C230  1  0.269200  0.980100  0.448800  1.0  -0.0864
  C  C231  1  0.286100  0.955900  0.551100  1.0  0.7117
  C  C232  1  0.491300  0.924600  0.830800  1.0  0.1739
  C  C233  1  0.521600  0.949700  0.912400  1.0  -0.1852
  C  C234  1  0.486400  0.987110  0.953500  1.0  0.1066
  C  C235  1  0.423000  0.998490  0.902800  1.0  -0.1812
  C  C236  1  0.397000  0.972200  0.819300  1.0  0.188
  C  C237  1  0.813200  0.335100  0.603000  1.0  0.6088
  C  C238  1  0.766100  0.327900  0.698100  1.0  -0.1407
  C  C239  1  0.702000  0.304180  0.687000  1.0  -0.0377
  C  C240  1  0.657200  0.298230  0.775000  1.0  0.0624
  C  C241  1  0.676700  0.315100  0.875400  1.0  -0.0488
  C  C242  1  0.740800  0.337440  0.888100  1.0  -0.1417
  C  C243  1  0.784800  0.343900  0.799400  1.0  0.0315
  C  C244  1  0.762700  0.353670  0.997700  1.0  0.6762
  C  C245  1  0.588700  0.272580  0.762500  1.0  0.0118
  C  C246  1  0.524400  0.294870  0.776000  1.0  -0.0729
  C  C247  1  0.460300  0.272860  0.762900  1.0  -0.072
  C  C248  1  0.391400  0.296520  0.787000  1.0  0.7194
  C  C249  1  0.765300  0.405000  0.388000  1.0  0.6779
  C  C250  1  0.721700  0.415580  0.484600  1.0  -0.1442
  C  C251  1  0.655500  0.395540  0.494700  1.0  0.0215
  C  C252  1  0.612100  0.405700  0.581400  1.0  -0.1365
  C  C253  1  0.539800  0.384500  0.585800  1.0  0.6878
  C  C254  1  0.635500  0.435860  0.658900  1.0  -0.0648
  C  C255  1  0.703700  0.454350  0.655200  1.0  0.0025
  C  C256  1  0.746800  0.444200  0.566000  1.0  -0.0263
  C  C257  1  0.729600  0.480170  0.750800  1.0  0.0276
  C  C258  1  0.711700  0.461170  0.851300  1.0  -0.1297
  C  C259  1  0.730800  0.480100  0.948800  1.0  -0.0861
  C  C260  1  0.713900  0.455900  0.051100  1.0  0.7114
  C  C261  1  0.508700  0.424600  0.330800  1.0  0.1752
  C  C262  1  0.478400  0.449700  0.412400  1.0  -0.1843
  C  C263  1  0.513600  0.487110  0.453500  1.0  0.1063
  C  C264  1  0.577000  0.498490  0.402800  1.0  -0.181
  C  C265  1  0.603000  0.472200  0.319300  1.0  0.1867
  C  C266  1  0.686800  0.664900  0.603000  1.0  0.609
  C  C267  1  0.733900  0.672100  0.698100  1.0  -0.1407
  C  C268  1  0.798000  0.695820  0.687000  1.0  -0.0374
  C  C269  1  0.842800  0.701770  0.775000  1.0  0.0624
  C  C270  1  0.823300  0.684900  0.875400  1.0  -0.0463
  C  C271  1  0.759200  0.662560  0.888100  1.0  -0.1393
  C  C272  1  0.715200  0.656100  0.799400  1.0  0.0321
  C  C273  1  0.737300  0.646330  0.997700  1.0  0.6771
  C  C274  1  0.911300  0.727420  0.762500  1.0  0.013
  C  C275  1  0.975600  0.705130  0.776000  1.0  -0.0722
  C  C276  1  0.039700  0.727140  0.762900  1.0  -0.0728
  C  C277  1  0.108600  0.703480  0.787000  1.0  0.7184
  C  C278  1  0.734700  0.595000  0.388000  1.0  0.6782
  C  C279  1  0.778300  0.584420  0.484600  1.0  -0.143
  C  C280  1  0.844500  0.604460  0.494700  1.0  0.0203
  C  C281  1  0.887900  0.594300  0.581400  1.0  -0.1363
  C  C282  1  0.960200  0.615500  0.585800  1.0  0.6866
  C  C283  1  0.864500  0.564140  0.658900  1.0  -0.0647
  C  C284  1  0.796300  0.545650  0.655200  1.0  0.0031
  C  C285  1  0.753200  0.555800  0.566000  1.0  -0.0258
  C  C286  1  0.770400  0.519830  0.750800  1.0  0.0313
  C  C287  1  0.788300  0.538830  0.851300  1.0  -0.1265
  C  C288  1  0.769200  0.519900  0.948800  1.0  -0.0864
  C  C289  1  0.786100  0.544100  0.051100  1.0  0.7117
  C  C290  1  0.991300  0.575400  0.330800  1.0  0.176
  C  C291  1  0.021600  0.550300  0.412400  1.0  -0.1852
  C  C292  1  0.986400  0.512890  0.453500  1.0  0.1067
  C  C293  1  0.923000  0.501510  0.402800  1.0  -0.1819
  C  C294  1  0.897000  0.527800  0.319300  1.0  0.1885
  C  C295  1  0.686800  0.835100  0.897000  1.0  0.6087
  C  C296  1  0.733900  0.827900  0.801900  1.0  -0.1413
  C  C297  1  0.798000  0.804180  0.813000  1.0  -0.036
  C  C298  1  0.842800  0.798230  0.725000  1.0  0.0615
  C  C299  1  0.823300  0.815100  0.624600  1.0  -0.0476
  C  C300  1  0.759200  0.837440  0.611900  1.0  -0.1396
  C  C301  1  0.715200  0.843900  0.700600  1.0  0.0312
  C  C302  1  0.737300  0.853670  0.502300  1.0  0.6775
  C  C303  1  0.911300  0.772580  0.737500  1.0  0.0135
  C  C304  1  0.975600  0.794870  0.724000  1.0  -0.0718
  C  C305  1  0.039700  0.772860  0.737100  1.0  -0.0736
  C  C306  1  0.108600  0.796520  0.713000  1.0  0.7179
  C  C307  1  0.734700  0.905000  0.112000  1.0  0.6775
  C  C308  1  0.778300  0.915580  0.015400  1.0  -0.1427
  C  C309  1  0.844500  0.895540  0.005300  1.0  0.0214
  C  C310  1  0.887900  0.905700  0.918600  1.0  -0.1378
  C  C311  1  0.960200  0.884500  0.914200  1.0  0.6871
  C  C312  1  0.864500  0.935860  0.841100  1.0  -0.0652
  C  C313  1  0.796300  0.954350  0.844800  1.0  0.0035
  C  C314  1  0.753200  0.944200  0.934000  1.0  -0.0258
  C  C315  1  0.770400  0.980170  0.749200  1.0  0.0282
  C  C316  1  0.788300  0.961170  0.648700  1.0  -0.1311
  C  C317  1  0.769200  0.980100  0.551200  1.0  -0.0869
  C  C318  1  0.786100  0.955900  0.448900  1.0  0.7111
  C  C319  1  0.991300  0.924600  0.169200  1.0  0.1749
  C  C320  1  0.021600  0.949700  0.087600  1.0  -0.1836
  C  C321  1  0.986400  0.987110  0.046500  1.0  0.1064
  C  C322  1  0.923000  0.998490  0.097200  1.0  -0.1792
  C  C323  1  0.897000  0.972200  0.180700  1.0  0.1864
  C  C324  1  0.813200  0.164900  0.897000  1.0  0.6073
  C  C325  1  0.766100  0.172100  0.801900  1.0  -0.1417
  C  C326  1  0.702000  0.195820  0.813000  1.0  -0.0367
  C  C327  1  0.657200  0.201770  0.725000  1.0  0.0616
  C  C328  1  0.676700  0.184900  0.624600  1.0  -0.0474
  C  C329  1  0.740800  0.162560  0.611900  1.0  -0.1406
  C  C330  1  0.784800  0.156100  0.700600  1.0  0.0315
  C  C331  1  0.762700  0.146330  0.502300  1.0  0.6757
  C  C332  1  0.588700  0.227420  0.737500  1.0  0.0111
  C  C333  1  0.524400  0.205130  0.724000  1.0  -0.0718
  C  C334  1  0.460300  0.227140  0.737100  1.0  -0.0734
  C  C335  1  0.391400  0.203480  0.713000  1.0  0.7193
  C  C336  1  0.765300  0.095000  0.112000  1.0  0.6787
  C  C337  1  0.721700  0.084420  0.015400  1.0  -0.1436
  C  C338  1  0.655500  0.104460  0.005300  1.0  0.0192
  C  C339  1  0.612100  0.094300  0.918600  1.0  -0.1354
  C  C340  1  0.539800  0.115500  0.914200  1.0  0.6861
  C  C341  1  0.635500  0.064140  0.841100  1.0  -0.0647
  C  C342  1  0.703700  0.045650  0.844800  1.0  0.0023
  C  C343  1  0.746800  0.055800  0.934000  1.0  -0.0268
  C  C344  1  0.729600  0.019830  0.749200  1.0  0.0302
  C  C345  1  0.711700  0.038830  0.648700  1.0  -0.1279
  C  C346  1  0.730800  0.019900  0.551200  1.0  -0.0867
  C  C347  1  0.713900  0.044100  0.448900  1.0  0.7113
  C  C348  1  0.508700  0.075400  0.169200  1.0  0.1749
  C  C349  1  0.478400  0.050300  0.087600  1.0  -0.1827
  C  C350  1  0.513600  0.012890  0.046500  1.0  0.106
  C  C351  1  0.577000  0.001510  0.097200  1.0  -0.1796
  C  C352  1  0.603000  0.027800  0.180700  1.0  0.1857
  N  N353  1  0.428700  0.565410  0.715100  1.0  -0.3388
  N  N354  1  0.071300  0.434590  0.715100  1.0  -0.3376
  N  N355  1  0.071300  0.065410  0.784900  1.0  -0.3377
  N  N356  1  0.428700  0.934590  0.784900  1.0  -0.3417
  N  N357  1  0.571300  0.434590  0.284900  1.0  -0.3395
  N  N358  1  0.928700  0.565410  0.284900  1.0  -0.3396
  N  N359  1  0.928700  0.934590  0.215100  1.0  -0.3381
  N  N360  1  0.571300  0.065410  0.215100  1.0  -0.3385
  O  O361  1  0.204600  0.677650  0.489100  1.0  -0.5928
  O  O362  1  0.127900  0.644750  0.382200  1.0  -0.594
  O  O363  1  0.177200  0.627810  0.993400  1.0  -0.594
  O  O364  1  0.278000  0.651770  0.923300  1.0  -0.7071
  O  O365  1  0.620900  0.667940  0.266300  1.0  -0.6747
  O  O366  1  0.647700  0.718070  0.142800  1.0  -0.4933
  O  O367  1  0.266600  0.610000  0.694500  1.0  -0.6572
  O  O368  1  0.168500  0.588560  0.612200  1.0  -0.697
  O  O369  1  0.473200  0.647650  0.474900  1.0  -0.578
  O  O370  1  0.507200  0.598850  0.354400  1.0  -0.6003
  O  O371  1  0.346700  0.561300  0.944100  1.0  -0.5907
  O  O372  1  0.238400  0.547590  0.878900  1.0  -0.67
  O  O373  1  0.295400  0.322350  0.489100  1.0  -0.5926
  O  O374  1  0.372100  0.355250  0.382200  1.0  -0.5946
  O  O375  1  0.322800  0.372190  0.993400  1.0  -0.5944
  O  O376  1  0.222000  0.348230  0.923300  1.0  -0.707
  O  O377  1  0.879100  0.332060  0.266300  1.0  -0.676
  O  O378  1  0.852300  0.281930  0.142800  1.0  -0.4941
  O  O379  1  0.233400  0.390000  0.694500  1.0  -0.657
  O  O380  1  0.331500  0.411440  0.612200  1.0  -0.6967
  O  O381  1  0.026800  0.352350  0.474900  1.0  -0.5755
  O  O382  1  0.992800  0.401150  0.354400  1.0  -0.5994
  O  O383  1  0.153300  0.438700  0.944100  1.0  -0.5874
  O  O384  1  0.261600  0.452410  0.878900  1.0  -0.6699
  O  O385  1  0.295400  0.177650  0.010900  1.0  -0.5898
  O  O386  1  0.372100  0.144750  0.117800  1.0  -0.5958
  O  O387  1  0.322800  0.127810  0.506600  1.0  -0.5949
  O  O388  1  0.222000  0.151770  0.576700  1.0  -0.7055
  O  O389  1  0.879100  0.167940  0.233700  1.0  -0.6757
  O  O390  1  0.852300  0.218070  0.357200  1.0  -0.4927
  O  O391  1  0.233400  0.110000  0.805500  1.0  -0.6589
  O  O392  1  0.331500  0.088560  0.887800  1.0  -0.6957
  O  O393  1  0.026800  0.147650  0.025100  1.0  -0.5793
  O  O394  1  0.992800  0.098850  0.145600  1.0  -0.6006
  O  O395  1  0.153300  0.061300  0.555900  1.0  -0.5874
  O  O396  1  0.261600  0.047590  0.621100  1.0  -0.6696
  O  O397  1  0.204600  0.822350  0.010900  1.0  -0.5911
  O  O398  1  0.127900  0.855250  0.117800  1.0  -0.5918
  O  O399  1  0.177200  0.872190  0.506600  1.0  -0.595
  O  O400  1  0.278000  0.848230  0.576700  1.0  -0.7048
  O  O401  1  0.620900  0.832060  0.233700  1.0  -0.6742
  O  O402  1  0.647700  0.781930  0.357200  1.0  -0.4945
  O  O403  1  0.266600  0.890000  0.805500  1.0  -0.6584
  O  O404  1  0.168500  0.911440  0.887800  1.0  -0.6974
  O  O405  1  0.473200  0.852350  0.025100  1.0  -0.575
  O  O406  1  0.507200  0.901150  0.145600  1.0  -0.6002
  O  O407  1  0.346700  0.938700  0.555900  1.0  -0.5901
  O  O408  1  0.238400  0.952410  0.621100  1.0  -0.6702
  O  O409  1  0.795400  0.322350  0.510900  1.0  -0.5906
  O  O410  1  0.872100  0.355250  0.617800  1.0  -0.5947
  O  O411  1  0.822800  0.372190  0.006600  1.0  -0.595
  O  O412  1  0.722000  0.348230  0.076700  1.0  -0.7054
  O  O413  1  0.379100  0.332060  0.733700  1.0  -0.6754
  O  O414  1  0.352300  0.281930  0.857200  1.0  -0.4929
  O  O415  1  0.733400  0.390000  0.305500  1.0  -0.659
  O  O416  1  0.831500  0.411440  0.387800  1.0  -0.6966
  O  O417  1  0.526800  0.352350  0.525100  1.0  -0.5748
  O  O418  1  0.492800  0.401150  0.645600  1.0  -0.6011
  O  O419  1  0.653300  0.438700  0.055900  1.0  -0.5872
  O  O420  1  0.761600  0.452410  0.121100  1.0  -0.6696
  O  O421  1  0.704600  0.677650  0.510900  1.0  -0.5904
  O  O422  1  0.627900  0.644750  0.617800  1.0  -0.5935
  O  O423  1  0.677200  0.627810  0.006600  1.0  -0.5946
  O  O424  1  0.778000  0.651770  0.076700  1.0  -0.7049
  O  O425  1  0.120900  0.667940  0.733700  1.0  -0.6744
  O  O426  1  0.147700  0.718070  0.857200  1.0  -0.4945
  O  O427  1  0.766600  0.610000  0.305500  1.0  -0.6587
  O  O428  1  0.668500  0.588560  0.387800  1.0  -0.697
  O  O429  1  0.973200  0.647650  0.525100  1.0  -0.5793
  O  O430  1  0.007200  0.598850  0.645600  1.0  -0.6
  O  O431  1  0.846700  0.561300  0.055900  1.0  -0.5909
  O  O432  1  0.738400  0.547590  0.121100  1.0  -0.6701
  O  O433  1  0.704600  0.822350  0.989100  1.0  -0.5929
  O  O434  1  0.627900  0.855250  0.882200  1.0  -0.5918
  O  O435  1  0.677200  0.872190  0.493400  1.0  -0.5946
  O  O436  1  0.778000  0.848230  0.423300  1.0  -0.7075
  O  O437  1  0.120900  0.832060  0.766300  1.0  -0.6749
  O  O438  1  0.147700  0.781930  0.642800  1.0  -0.494
  O  O439  1  0.766600  0.890000  0.194500  1.0  -0.6564
  O  O440  1  0.668500  0.911440  0.112200  1.0  -0.6969
  O  O441  1  0.973200  0.852350  0.974900  1.0  -0.5754
  O  O442  1  0.007200  0.901150  0.854400  1.0  -0.6
  O  O443  1  0.846700  0.938700  0.444100  1.0  -0.5899
  O  O444  1  0.738400  0.952410  0.378900  1.0  -0.6702
  O  O445  1  0.795400  0.177650  0.989100  1.0  -0.5927
  O  O446  1  0.872100  0.144750  0.882200  1.0  -0.5957
  O  O447  1  0.822800  0.127810  0.493400  1.0  -0.5946
  O  O448  1  0.722000  0.151770  0.423300  1.0  -0.7065
  O  O449  1  0.379100  0.167940  0.766300  1.0  -0.6759
  O  O450  1  0.352300  0.218070  0.642800  1.0  -0.4935
  O  O451  1  0.733400  0.110000  0.194500  1.0  -0.6579
  O  O452  1  0.831500  0.088560  0.112200  1.0  -0.6962
  O  O453  1  0.526800  0.147650  0.974900  1.0  -0.5785
  O  O454  1  0.492800  0.098850  0.854400  1.0  -0.5995
  O  O455  1  0.653300  0.061300  0.444100  1.0  -0.5875
  O  O456  1  0.761600  0.047590  0.378900  1.0  -0.6697
