# generated using pymatgen
data_Zn3H7C18O13
_symmetry_space_group_name_H-M   'P 1'
_cell_length_a   16.37900000
_cell_length_b   16.36100000
_cell_length_c   28.99900000
_cell_angle_alpha   90.00000000
_cell_angle_beta   90.00000000
_cell_angle_gamma   90.00000000
_symmetry_Int_Tables_number   1
_chemical_formula_structural   Zn3H7C18O13
_chemical_formula_sum   'Zn24 H56 C144 O104'
_cell_volume   7771.05977418
_cell_formula_units_Z   8
loop_
 _symmetry_equiv_pos_site_id
 _symmetry_equiv_pos_as_xyz
  1  'x, y, z'
loop_
 _atom_site_type_symbol
 _atom_site_label
 _atom_site_symmetry_multiplicity
 _atom_site_fract_x
 _atom_site_fract_y
 _atom_site_fract_z
 _atom_site_occupancy
 _atom_site_charge
  Zn  Zn1  1  0.540270  0.159910  0.920010  1.0  1.1015
  Zn  Zn2  1  0.549470  0.277500  0.830720  1.0  1.085
  Zn  Zn3  1  0.372890  0.246670  0.882340  1.0  1.0587
  Zn  Zn4  1  0.959730  0.840090  0.420010  1.0  1.101
  Zn  Zn5  1  0.950520  0.722500  0.330720  1.0  1.0813
  Zn  Zn6  1  0.127110  0.753330  0.382340  1.0  1.0573
  Zn  Zn7  1  0.459730  0.659910  0.579990  1.0  1.0994
  Zn  Zn8  1  0.450520  0.777500  0.669280  1.0  1.0837
  Zn  Zn9  1  0.627110  0.746670  0.617660  1.0  1.0578
  Zn  Zn10  1  0.040270  0.340090  0.079990  1.0  1.1007
  Zn  Zn11  1  0.049470  0.222500  0.169280  1.0  1.0827
  Zn  Zn12  1  0.872890  0.253330  0.117660  1.0  1.0581
  Zn  Zn13  1  0.459730  0.840090  0.079990  1.0  1.0999
  Zn  Zn14  1  0.450520  0.722500  0.169280  1.0  1.0823
  Zn  Zn15  1  0.627110  0.753330  0.117660  1.0  1.0572
  Zn  Zn16  1  0.040270  0.159910  0.579990  1.0  1.1002
  Zn  Zn17  1  0.049470  0.277500  0.669280  1.0  1.0842
  Zn  Zn18  1  0.872890  0.246670  0.617660  1.0  1.0588
  Zn  Zn19  1  0.540270  0.340090  0.420010  1.0  1.1016
  Zn  Zn20  1  0.549470  0.222500  0.330720  1.0  1.0825
  Zn  Zn21  1  0.372890  0.253330  0.382340  1.0  1.058
  Zn  Zn22  1  0.959730  0.659910  0.920010  1.0  1.1009
  Zn  Zn23  1  0.950520  0.777500  0.830720  1.0  1.0838
  Zn  Zn24  1  0.127110  0.746670  0.882340  1.0  1.0575
  H  H25  1  0.472500  0.498400  0.767100  1.0  0.1155
  H  H26  1  0.300100  0.490800  0.865600  1.0  0.1176
  H  H27  1  0.236300  0.070600  0.116400  1.0  0.1177
  H  H28  1  0.252200  0.244700  0.018900  1.0  0.1164
  H  H29  1  0.421700  0.069400  0.026600  1.0  0.1122
  H  H30  1  0.314600  0.683200  0.781100  1.0  0.1112
  H  H31  1  0.481000  0.165300  0.844700  1.0  0.4314
  H  H32  1  0.027500  0.501600  0.267100  1.0  0.1154
  H  H33  1  0.199900  0.509200  0.365600  1.0  0.1169
  H  H34  1  0.263700  0.929400  0.616400  1.0  0.1173
  H  H35  1  0.247800  0.755300  0.518900  1.0  0.1162
  H  H36  1  0.078300  0.930600  0.526600  1.0  0.1121
  H  H37  1  0.185400  0.316800  0.281100  1.0  0.1115
  H  H38  1  0.019000  0.834700  0.344700  1.0  0.4306
  H  H39  1  0.527500  0.998400  0.732900  1.0  0.1159
  H  H40  1  0.699900  0.990800  0.634400  1.0  0.1173
  H  H41  1  0.763700  0.570600  0.383600  1.0  0.1175
  H  H42  1  0.747800  0.744700  0.481100  1.0  0.117
  H  H43  1  0.578300  0.569400  0.473400  1.0  0.1124
  H  H44  1  0.685400  0.183200  0.718900  1.0  0.1112
  H  H45  1  0.519000  0.665300  0.655300  1.0  0.4323
  H  H46  1  0.972500  0.001600  0.232900  1.0  0.1158
  H  H47  1  0.800100  0.009200  0.134400  1.0  0.1173
  H  H48  1  0.736300  0.429400  0.883600  1.0  0.1175
  H  H49  1  0.752200  0.255300  0.981100  1.0  0.1166
  H  H50  1  0.921700  0.430600  0.973400  1.0  0.1125
  H  H51  1  0.814600  0.816800  0.218900  1.0  0.1111
  H  H52  1  0.981000  0.334700  0.155300  1.0  0.43
  H  H53  1  0.527500  0.501600  0.232900  1.0  0.1156
  H  H54  1  0.699900  0.509200  0.134400  1.0  0.117
  H  H55  1  0.763700  0.929400  0.883600  1.0  0.1176
  H  H56  1  0.747800  0.755300  0.981100  1.0  0.1167
  H  H57  1  0.578300  0.930600  0.973400  1.0  0.112
  H  H58  1  0.685400  0.316800  0.218900  1.0  0.1113
  H  H59  1  0.519000  0.834700  0.155300  1.0  0.4302
  H  H60  1  0.972500  0.498400  0.732900  1.0  0.116
  H  H61  1  0.800100  0.490800  0.634400  1.0  0.1175
  H  H62  1  0.736300  0.070600  0.383600  1.0  0.1175
  H  H63  1  0.752200  0.244700  0.481100  1.0  0.1168
  H  H64  1  0.921700  0.069400  0.473400  1.0  0.1127
  H  H65  1  0.814600  0.683200  0.718900  1.0  0.1107
  H  H66  1  0.981000  0.165300  0.655300  1.0  0.432
  H  H67  1  0.472500  0.001600  0.267100  1.0  0.1156
  H  H68  1  0.300100  0.009200  0.365600  1.0  0.1174
  H  H69  1  0.236300  0.429400  0.616400  1.0  0.1176
  H  H70  1  0.252200  0.255300  0.518900  1.0  0.1161
  H  H71  1  0.421700  0.430600  0.526600  1.0  0.1122
  H  H72  1  0.314600  0.816800  0.281100  1.0  0.1114
  H  H73  1  0.481000  0.334700  0.344700  1.0  0.4304
  H  H74  1  0.027500  0.998400  0.767100  1.0  0.1157
  H  H75  1  0.199900  0.990800  0.865600  1.0  0.1171
  H  H76  1  0.263700  0.570600  0.116400  1.0  0.1174
  H  H77  1  0.247800  0.744700  0.018900  1.0  0.1165
  H  H78  1  0.078300  0.569400  0.026600  1.0  0.1122
  H  H79  1  0.185400  0.183200  0.781100  1.0  0.1116
  H  H80  1  0.019000  0.665300  0.844700  1.0  0.432
  C  C81  1  0.440610  0.642040  0.728490  1.0  0.6809
  C  C82  1  0.399750  0.597850  0.767930  1.0  -0.1585
  C  C83  1  0.296520  0.593120  0.827110  1.0  -0.1516
  C  C84  1  0.428300  0.522150  0.782200  1.0  0.0414
  C  C85  1  0.325150  0.517640  0.841160  1.0  0.0412
  C  C86  1  0.391510  0.481500  0.818800  1.0  -0.1643
  C  C87  1  0.421680  0.399830  0.833970  1.0  0.7199
  C  C88  1  0.233470  0.165160  0.071230  1.0  -0.1483
  C  C89  1  0.263330  0.093480  0.091370  1.0  0.0399
  C  C90  1  0.344130  0.162510  0.016590  1.0  -0.1603
  C  C91  1  0.273190  0.198360  0.033240  1.0  0.0313
  C  C92  1  0.373600  0.092700  0.037400  1.0  0.0291
  C  C93  1  0.388130  0.195150  0.975120  1.0  0.7565
  C  C94  1  0.333290  0.056360  0.074060  1.0  -0.16
  C  C95  1  0.334000  0.632450  0.790610  1.0  0.0478
  C  C96  1  0.226370  0.632720  0.852050  1.0  0.6664
  C  C97  1  0.363610  0.975820  0.093180  1.0  0.713
  C  C98  1  0.159540  0.206380  0.091060  1.0  0.7394
  C  C99  1  0.059390  0.357960  0.228490  1.0  0.6812
  C  C100  1  0.100250  0.402150  0.267930  1.0  -0.1587
  C  C101  1  0.203480  0.406880  0.327110  1.0  -0.1513
  C  C102  1  0.071700  0.477850  0.282200  1.0  0.0409
  C  C103  1  0.174850  0.482360  0.341160  1.0  0.0414
  C  C104  1  0.108490  0.518500  0.318800  1.0  -0.164
  C  C105  1  0.078320  0.600170  0.333970  1.0  0.7198
  C  C106  1  0.266530  0.834840  0.571230  1.0  -0.1486
  C  C107  1  0.236670  0.906520  0.591370  1.0  0.0404
  C  C108  1  0.155870  0.837490  0.516590  1.0  -0.1602
  C  C109  1  0.226810  0.801640  0.533240  1.0  0.0326
  C  C110  1  0.126400  0.907300  0.537400  1.0  0.0285
  C  C111  1  0.111870  0.804850  0.475120  1.0  0.7555
  C  C112  1  0.166710  0.943640  0.574060  1.0  -0.1596
  C  C113  1  0.166000  0.367550  0.290610  1.0  0.0492
  C  C114  1  0.273630  0.367280  0.352050  1.0  0.6673
  C  C115  1  0.136390  0.024180  0.593180  1.0  0.7128
  C  C116  1  0.340460  0.793620  0.591060  1.0  0.7378
  C  C117  1  0.559390  0.142040  0.771510  1.0  0.6808
  C  C118  1  0.600250  0.097850  0.732070  1.0  -0.1588
  C  C119  1  0.703480  0.093120  0.672890  1.0  -0.151
  C  C120  1  0.571700  0.022150  0.717800  1.0  0.0408
  C  C121  1  0.674850  0.017640  0.658840  1.0  0.0411
  C  C122  1  0.608490  0.981500  0.681200  1.0  -0.1646
  C  C123  1  0.578320  0.899830  0.666030  1.0  0.7196
  C  C124  1  0.766530  0.665160  0.428770  1.0  -0.1482
  C  C125  1  0.736670  0.593480  0.408630  1.0  0.0359
  C  C126  1  0.655870  0.662510  0.483410  1.0  -0.1604
  C  C127  1  0.726810  0.698360  0.466760  1.0  0.0319
  C  C128  1  0.626400  0.592700  0.462600  1.0  0.0285
  C  C129  1  0.611870  0.695150  0.524880  1.0  0.756
  C  C130  1  0.666667  0.556360  0.425940  1.0  -0.1563
  C  C131  1  0.666000  0.132450  0.709390  1.0  0.0484
  C  C132  1  0.773630  0.132720  0.647950  1.0  0.6682
  C  C133  1  0.636390  0.475820  0.406820  1.0  0.7128
  C  C134  1  0.840460  0.706380  0.408940  1.0  0.738
  C  C135  1  0.940610  0.857960  0.271510  1.0  0.6808
  C  C136  1  0.899750  0.902150  0.232070  1.0  -0.1592
  C  C137  1  0.796520  0.906880  0.172890  1.0  -0.1517
  C  C138  1  0.928300  0.977850  0.217800  1.0  0.0412
  C  C139  1  0.825150  0.982360  0.158840  1.0  0.0416
  C  C140  1  0.891510  0.018500  0.181200  1.0  -0.1639
  C  C141  1  0.921680  0.100170  0.166030  1.0  0.7202
  C  C142  1  0.733470  0.334840  0.928770  1.0  -0.1487
  C  C143  1  0.763330  0.406520  0.908630  1.0  0.0391
  C  C144  1  0.844130  0.337490  0.983410  1.0  -0.161
  C  C145  1  0.773190  0.301640  0.966760  1.0  0.032
  C  C146  1  0.873600  0.407300  0.962600  1.0  0.0288
  C  C147  1  0.888130  0.304850  0.024880  1.0  0.7564
  C  C148  1  0.833290  0.443640  0.925940  1.0  -0.1582
  C  C149  1  0.834000  0.867550  0.209390  1.0  0.0485
  C  C150  1  0.726370  0.867280  0.147950  1.0  0.669
  C  C151  1  0.863610  0.524180  0.906820  1.0  0.7125
  C  C152  1  0.659540  0.293620  0.908940  1.0  0.7388
  C  C153  1  0.559390  0.357960  0.271510  1.0  0.6805
  C  C154  1  0.600250  0.402150  0.232070  1.0  -0.1585
  C  C155  1  0.703480  0.406880  0.172890  1.0  -0.1512
  C  C156  1  0.571700  0.477850  0.217800  1.0  0.0407
  C  C157  1  0.674850  0.482360  0.158840  1.0  0.0412
  C  C158  1  0.608490  0.518500  0.181200  1.0  -0.164
  C  C159  1  0.578320  0.600170  0.166030  1.0  0.7198
  C  C160  1  0.766530  0.834840  0.928770  1.0  -0.1485
  C  C161  1  0.736670  0.906520  0.908630  1.0  0.0358
  C  C162  1  0.655870  0.837490  0.983410  1.0  -0.1608
  C  C163  1  0.726810  0.801640  0.966760  1.0  0.0325
  C  C164  1  0.626400  0.907300  0.962600  1.0  0.028
  C  C165  1  0.611870  0.804850  0.024880  1.0  0.7558
  C  C166  1  0.666667  0.943640  0.925940  1.0  -0.1555
  C  C167  1  0.666000  0.367550  0.209390  1.0  0.0493
  C  C168  1  0.773630  0.367280  0.147950  1.0  0.6671
  C  C169  1  0.636390  0.024180  0.906820  1.0  0.713
  C  C170  1  0.840460  0.793620  0.908940  1.0  0.7377
  C  C171  1  0.940610  0.642040  0.771510  1.0  0.681
  C  C172  1  0.899750  0.597850  0.732070  1.0  -0.1594
  C  C173  1  0.796520  0.593120  0.672890  1.0  -0.1514
  C  C174  1  0.928300  0.522150  0.717800  1.0  0.0414
  C  C175  1  0.825150  0.517640  0.658840  1.0  0.0414
  C  C176  1  0.891510  0.481500  0.681200  1.0  -0.1644
  C  C177  1  0.921680  0.399830  0.666030  1.0  0.7197
  C  C178  1  0.733470  0.165160  0.428770  1.0  -0.1483
  C  C179  1  0.763330  0.093480  0.408630  1.0  0.0391
  C  C180  1  0.844130  0.162510  0.483410  1.0  -0.1609
  C  C181  1  0.773190  0.198360  0.466760  1.0  0.0312
  C  C182  1  0.873600  0.092700  0.462600  1.0  0.0293
  C  C183  1  0.888130  0.195150  0.524880  1.0  0.7566
  C  C184  1  0.833290  0.056360  0.425940  1.0  -0.1589
  C  C185  1  0.834000  0.632450  0.709390  1.0  0.0476
  C  C186  1  0.726370  0.632720  0.647950  1.0  0.6678
  C  C187  1  0.863610  0.975820  0.406820  1.0  0.7129
  C  C188  1  0.659540  0.206380  0.408940  1.0  0.7391
  C  C189  1  0.440610  0.857960  0.228490  1.0  0.6803
  C  C190  1  0.399750  0.902150  0.267930  1.0  -0.1586
  C  C191  1  0.296520  0.906880  0.327110  1.0  -0.1518
  C  C192  1  0.428300  0.977850  0.282200  1.0  0.0414
  C  C193  1  0.325150  0.982360  0.341160  1.0  0.0409
  C  C194  1  0.391510  0.018500  0.318800  1.0  -0.1639
  C  C195  1  0.421680  0.100170  0.333970  1.0  0.7207
  C  C196  1  0.233470  0.334840  0.571230  1.0  -0.1486
  C  C197  1  0.263330  0.406520  0.591370  1.0  0.0392
  C  C198  1  0.344130  0.337490  0.516590  1.0  -0.1606
  C  C199  1  0.273190  0.301640  0.533240  1.0  0.0319
  C  C200  1  0.373600  0.407300  0.537400  1.0  0.0286
  C  C201  1  0.388130  0.304850  0.475120  1.0  0.7561
  C  C202  1  0.333290  0.443640  0.574060  1.0  -0.16
  C  C203  1  0.334000  0.867550  0.290610  1.0  0.0482
  C  C204  1  0.226370  0.867280  0.352050  1.0  0.6715
  C  C205  1  0.363610  0.524180  0.593180  1.0  0.7127
  C  C206  1  0.159540  0.293620  0.591060  1.0  0.739
  C  C207  1  0.059390  0.142040  0.728490  1.0  0.6806
  C  C208  1  0.100250  0.097850  0.767930  1.0  -0.1585
  C  C209  1  0.203480  0.093120  0.827110  1.0  -0.1512
  C  C210  1  0.071700  0.022150  0.782200  1.0  0.0407
  C  C211  1  0.174850  0.017640  0.841160  1.0  0.0418
  C  C212  1  0.108490  0.981500  0.818800  1.0  -0.1646
  C  C213  1  0.078320  0.899830  0.833970  1.0  0.7197
  C  C214  1  0.266530  0.665160  0.071230  1.0  -0.1484
  C  C215  1  0.236670  0.593480  0.091370  1.0  0.0406
  C  C216  1  0.155870  0.662510  0.016590  1.0  -0.1595
  C  C217  1  0.226810  0.698360  0.033240  1.0  0.032
  C  C218  1  0.126400  0.592700  0.037400  1.0  0.0289
  C  C219  1  0.111870  0.695150  0.975120  1.0  0.7562
  C  C220  1  0.166710  0.556360  0.074060  1.0  -0.1598
  C  C221  1  0.166000  0.132450  0.790610  1.0  0.0486
  C  C222  1  0.273630  0.132720  0.852050  1.0  0.6682
  C  C223  1  0.136390  0.475820  0.093180  1.0  0.7139
  C  C224  1  0.340460  0.706380  0.091060  1.0  0.7382
  O  O225  1  0.414710  0.715060  0.721630  1.0  -0.585
  O  O226  1  0.484830  0.372270  0.813480  1.0  -0.584
  O  O227  1  0.383430  0.363170  0.865090  1.0  -0.6188
  O  O228  1  0.179720  0.592210  0.876060  1.0  -0.5064
  O  O229  1  0.350220  0.241450  0.948350  1.0  -0.5927
  O  O230  1  0.219530  0.710530  0.846320  1.0  -0.5854
  O  O231  1  0.480110  0.199420  0.865890  1.0  -0.9854
  O  O232  1  0.429050  0.950610  0.074040  1.0  -0.5916
  O  O233  1  0.461000  0.171830  0.970400  1.0  -0.6422
  O  O234  1  0.494260  0.606920  0.706550  1.0  -0.5385
  O  O235  1  0.326750  0.940010  0.123170  1.0  -0.4583
  O  O236  1  0.126660  0.261300  0.067010  1.0  -0.6222
  O  O237  1  0.136130  0.183090  0.130190  1.0  -0.6152
  O  O238  1  0.085290  0.284940  0.221630  1.0  -0.5838
  O  O239  1  0.015170  0.627730  0.313480  1.0  -0.5832
  O  O240  1  0.116570  0.636830  0.365090  1.0  -0.6172
  O  O241  1  0.320280  0.407790  0.376060  1.0  -0.509
  O  O242  1  0.149780  0.758550  0.448350  1.0  -0.5918
  O  O243  1  0.280470  0.289470  0.346320  1.0  -0.5868
  O  O244  1  0.019890  0.800580  0.365890  1.0  -0.986
  O  O245  1  0.070950  0.049390  0.574040  1.0  -0.5912
  O  O246  1  0.039000  0.828170  0.470400  1.0  -0.6416
  O  O247  1  0.005740  0.393080  0.206550  1.0  -0.5366
  O  O248  1  0.173250  0.059990  0.623170  1.0  -0.4632
  O  O249  1  0.373340  0.738700  0.567010  1.0  -0.6222
  O  O250  1  0.363870  0.816910  0.630190  1.0  -0.6179
  O  O251  1  0.585290  0.215060  0.778370  1.0  -0.5844
  O  O252  1  0.515170  0.872270  0.686520  1.0  -0.5847
  O  O253  1  0.616570  0.863170  0.634910  1.0  -0.616
  O  O254  1  0.820280  0.092210  0.623940  1.0  -0.5084
  O  O255  1  0.649780  0.741450  0.551650  1.0  -0.592
  O  O256  1  0.780470  0.210530  0.653680  1.0  -0.5865
  O  O257  1  0.519890  0.699420  0.634110  1.0  -0.9875
  O  O258  1  0.570950  0.450610  0.425960  1.0  -0.5906
  O  O259  1  0.539000  0.671830  0.529600  1.0  -0.6416
  O  O260  1  0.505740  0.106920  0.793450  1.0  -0.5378
  O  O261  1  0.673250  0.440010  0.376830  1.0  -0.4594
  O  O262  1  0.873340  0.761300  0.432990  1.0  -0.623
  O  O263  1  0.863870  0.683090  0.369810  1.0  -0.6159
  O  O264  1  0.914710  0.784940  0.278370  1.0  -0.5841
  O  O265  1  0.984830  0.127730  0.186520  1.0  -0.5838
  O  O266  1  0.883430  0.136830  0.134910  1.0  -0.6167
  O  O267  1  0.679720  0.907790  0.123940  1.0  -0.5095
  O  O268  1  0.850220  0.258550  0.051650  1.0  -0.5922
  O  O269  1  0.719530  0.789470  0.153680  1.0  -0.5846
  O  O270  1  0.980110  0.300580  0.134110  1.0  -0.9867
  O  O271  1  0.929050  0.549390  0.925960  1.0  -0.5915
  O  O272  1  0.961000  0.328170  0.029600  1.0  -0.6416
  O  O273  1  0.994260  0.893080  0.293450  1.0  -0.5383
  O  O274  1  0.826750  0.559990  0.876830  1.0  -0.4598
  O  O275  1  0.626660  0.238700  0.932990  1.0  -0.6247
  O  O276  1  0.636130  0.316910  0.869810  1.0  -0.615
  O  O277  1  0.585290  0.284940  0.278370  1.0  -0.5841
  O  O278  1  0.515170  0.627730  0.186520  1.0  -0.584
  O  O279  1  0.616570  0.636830  0.134910  1.0  -0.6162
  O  O280  1  0.820280  0.407790  0.123940  1.0  -0.5095
  O  O281  1  0.649780  0.758550  0.051650  1.0  -0.5918
  O  O282  1  0.780470  0.289470  0.153680  1.0  -0.585
  O  O283  1  0.519890  0.800580  0.134110  1.0  -0.9873
  O  O284  1  0.570950  0.049390  0.925960  1.0  -0.5908
  O  O285  1  0.539000  0.828170  0.029600  1.0  -0.6417
  O  O286  1  0.505740  0.393080  0.293450  1.0  -0.5368
  O  O287  1  0.673250  0.059990  0.876830  1.0  -0.4601
  O  O288  1  0.873340  0.738700  0.932990  1.0  -0.6227
  O  O289  1  0.863870  0.816910  0.869810  1.0  -0.6161
  O  O290  1  0.914710  0.715060  0.778370  1.0  -0.5851
  O  O291  1  0.984830  0.372270  0.686520  1.0  -0.5845
  O  O292  1  0.883430  0.363170  0.634910  1.0  -0.616
  O  O293  1  0.679720  0.592210  0.623940  1.0  -0.511
  O  O294  1  0.850220  0.241450  0.551650  1.0  -0.5921
  O  O295  1  0.719530  0.710530  0.653680  1.0  -0.5857
  O  O296  1  0.980110  0.199420  0.634110  1.0  -0.987
  O  O297  1  0.929050  0.950610  0.425960  1.0  -0.5914
  O  O298  1  0.961000  0.171830  0.529600  1.0  -0.6417
  O  O299  1  0.994260  0.606920  0.793450  1.0  -0.539
  O  O300  1  0.826750  0.940010  0.376830  1.0  -0.4598
  O  O301  1  0.626660  0.261300  0.432990  1.0  -0.6247
  O  O302  1  0.636130  0.183090  0.369810  1.0  -0.6146
  O  O303  1  0.414710  0.784940  0.221630  1.0  -0.5842
  O  O304  1  0.484830  0.127730  0.313480  1.0  -0.5838
  O  O305  1  0.383430  0.136830  0.365090  1.0  -0.6183
  O  O306  1  0.179720  0.907790  0.376060  1.0  -0.5088
  O  O307  1  0.350220  0.258550  0.448350  1.0  -0.5922
  O  O308  1  0.219530  0.789470  0.346320  1.0  -0.5848
  O  O309  1  0.480110  0.300580  0.365890  1.0  -0.9854
  O  O310  1  0.429050  0.549390  0.574040  1.0  -0.5921
  O  O311  1  0.461000  0.328170  0.470400  1.0  -0.6415
  O  O312  1  0.494260  0.893080  0.206550  1.0  -0.5379
  O  O313  1  0.326750  0.559990  0.623170  1.0  -0.4587
  O  O314  1  0.126660  0.238700  0.567010  1.0  -0.622
  O  O315  1  0.136130  0.316910  0.630190  1.0  -0.6155
  O  O316  1  0.085290  0.215060  0.721630  1.0  -0.5838
  O  O317  1  0.015170  0.872270  0.813480  1.0  -0.5834
  O  O318  1  0.116570  0.863170  0.865090  1.0  -0.6179
  O  O319  1  0.320280  0.092210  0.876060  1.0  -0.5077
  O  O320  1  0.149780  0.741450  0.948350  1.0  -0.5923
  O  O321  1  0.280470  0.210530  0.846320  1.0  -0.5879
  O  O322  1  0.019890  0.699420  0.865890  1.0  -0.986
  O  O323  1  0.070950  0.450610  0.074040  1.0  -0.5906
  O  O324  1  0.039000  0.671830  0.970400  1.0  -0.6416
  O  O325  1  0.005740  0.106920  0.706550  1.0  -0.537
  O  O326  1  0.173250  0.440010  0.123170  1.0  -0.4622
  O  O327  1  0.373340  0.761300  0.067010  1.0  -0.6224
  O  O328  1  0.363870  0.683090  0.130190  1.0  -0.6171
