# generated using pymatgen
data_Zn5H34C46S2(N2O3)6
_symmetry_space_group_name_H-M   'P 1'
_cell_length_a   10.78820000
_cell_length_b   12.30720000
_cell_length_c   14.28930000
_cell_angle_alpha   83.18300000
_cell_angle_beta   69.59000000
_cell_angle_gamma   65.17400000
_symmetry_Int_Tables_number   1
_chemical_formula_structural   Zn5H34C46S2(N2O3)6
_chemical_formula_sum   'Zn5 H34 C46 S2 N12 O18'
_cell_volume   1612.94211395
_cell_formula_units_Z   1
loop_
 _symmetry_equiv_pos_site_id
 _symmetry_equiv_pos_as_xyz
  1  'x, y, z'
loop_
 _atom_site_type_symbol
 _atom_site_label
 _atom_site_symmetry_multiplicity
 _atom_site_fract_x
 _atom_site_fract_y
 _atom_site_fract_z
 _atom_site_occupancy
 _atom_site_charge
  Zn  Zn1  1  0.248430  0.445680  0.961800  1.0  1.0071
  Zn  Zn2  1  0.210810  0.203920  0.093210  1.0  1.0254
  Zn  Zn3  1  0.751570  0.554320  0.038200  1.0  1.0067
  Zn  Zn4  1  0.789190  0.796080  0.906790  1.0  1.0053
  Zn  Zn5  1  0.500000  0.500000  0.000000  1.0  0.9698
  H  H6  1  0.501900  0.681400  0.022300  1.0  0.4484
  H  H7  1  0.074000  0.355200  0.003100  1.0  0.4278
  H  H8  1  0.454000  0.284700  0.329700  1.0  0.1439
  H  H9  1  0.493100  0.313600  0.162000  1.0  0.0737
  H  H10  1  0.328200  0.658600  0.199700  1.0  0.0866
  H  H11  1  0.380900  0.313100  0.617300  1.0  0.1382
  H  H12  1  0.860500  0.773800  0.127400  1.0  0.0915
  H  H13  1  0.202000  0.857500  0.058200  1.0  0.116
  H  H14  1  0.224200  0.639800  0.812000  1.0  0.0706
  H  H15  1  0.284000  0.639200  0.367900  1.0  0.1305
  H  H16  1  0.125500  0.226400  0.455500  1.0  0.1392
  H  H17  1  0.012800  0.542600  0.325800  1.0  0.133
  H  H18  1  0.792400  0.100500  0.194400  1.0  0.1
  H  H19  1  0.197600  0.136300  0.307000  1.0  0.0752
  H  H20  1  0.349200  0.296900  0.785000  1.0  0.0963
  H  H21  1  0.249800  0.666800  0.647300  1.0  0.1485
  H  H22  1  0.091700  0.442900  0.177500  1.0  0.0772
  H  H23  1  0.498100  0.318600  0.977700  1.0  0.4478
  H  H24  1  0.926000  0.644800  0.996900  1.0  0.4271
  H  H25  1  0.546000  0.715300  0.670300  1.0  0.1424
  H  H26  1  0.506900  0.686400  0.838000  1.0  0.0735
  H  H27  1  0.671800  0.341400  0.800300  1.0  0.0868
  H  H28  1  0.619100  0.686900  0.382700  1.0  0.1388
  H  H29  1  0.139500  0.226200  0.872600  1.0  0.0911
  H  H30  1  0.798000  0.142500  0.941800  1.0  0.1153
  H  H31  1  0.775800  0.360200  0.188000  1.0  0.0698
  H  H32  1  0.716000  0.360800  0.632100  1.0  0.1296
  H  H33  1  0.874500  0.773600  0.544500  1.0  0.1392
  H  H34  1  0.987200  0.457400  0.674200  1.0  0.1343
  H  H35  1  0.207600  0.899500  0.805600  1.0  0.0992
  H  H36  1  0.802400  0.863700  0.693000  1.0  0.078
  H  H37  1  0.650800  0.703100  0.215000  1.0  0.0964
  H  H38  1  0.750200  0.333200  0.352700  1.0  0.1496
  H  H39  1  0.908300  0.557100  0.822500  1.0  0.0773
  C  C40  1  0.157500  0.674200  0.036100  1.0  0.6806
  C  C41  1  0.429000  0.361400  0.304600  1.0  -0.2153
  C  C42  1  0.451400  0.380500  0.204500  1.0  0.1952
  C  C43  1  0.047800  0.796400  0.085500  1.0  -0.1674
  C  C44  1  0.354900  0.582500  0.225800  1.0  0.1619
  C  C45  1  0.347700  0.380800  0.656900  1.0  -0.1836
  C  C46  1  0.897300  0.829800  0.127600  1.0  0.0082
  C  C47  1  0.103000  0.877400  0.085000  1.0  -0.0265
  C  C48  1  0.004900  0.992900  0.126600  1.0  -0.1566
  C  C49  1  0.254300  0.573500  0.771500  1.0  0.1963
  C  C50  1  0.801800  0.943500  0.169400  1.0  -0.1911
  C  C51  1  0.060700  0.394700  0.406900  1.0  0.2587
  C  C52  1  0.328700  0.571400  0.326100  1.0  -0.1762
  C  C53  1  0.117300  0.272000  0.399500  1.0  -0.2303
  C  C54  1  0.062100  0.082200  0.123000  1.0  0.6648
  C  C55  1  0.050900  0.459400  0.322700  1.0  -0.2161
  C  C56  1  0.317200  0.493600  0.615600  1.0  0.2072
  C  C57  1  0.854700  0.023600  0.168000  1.0  0.0111
  C  C58  1  0.160200  0.219500  0.311300  1.0  0.1925
  C  C59  1  0.327900  0.371800  0.756700  1.0  0.2077
  C  C60  1  0.368600  0.459700  0.364600  1.0  0.2134
  C  C61  1  0.270300  0.590800  0.673600  1.0  -0.2315
  C  C62  1  0.097800  0.399500  0.234800  1.0  0.1964
  C  C63  1  0.842500  0.325800  0.963900  1.0  0.6814
  C  C64  1  0.571000  0.638600  0.695400  1.0  -0.2174
  C  C65  1  0.548600  0.619500  0.795500  1.0  0.1946
  C  C66  1  0.952200  0.203600  0.914500  1.0  -0.1647
  C  C67  1  0.645100  0.417500  0.774200  1.0  0.1613
  C  C68  1  0.652300  0.619200  0.343100  1.0  -0.1749
  C  C69  1  0.102700  0.170200  0.872400  1.0  0.0071
  C  C70  1  0.897000  0.122600  0.915000  1.0  -0.0268
  C  C71  1  0.995100  0.007100  0.873400  1.0  -0.1558
  C  C72  1  0.745700  0.426500  0.228500  1.0  0.196
  C  C73  1  0.198200  0.056500  0.830600  1.0  -0.1935
  C  C74  1  0.939300  0.605300  0.593100  1.0  0.2584
  C  C75  1  0.671300  0.428600  0.673900  1.0  -0.1579
  C  C76  1  0.882700  0.728000  0.600500  1.0  -0.231
  C  C77  1  0.937900  0.917800  0.877000  1.0  0.6647
  C  C78  1  0.949100  0.540600  0.677300  1.0  -0.217
  C  C79  1  0.682800  0.506400  0.384400  1.0  0.208
  C  C80  1  0.145300  0.976400  0.832000  1.0  0.017
  C  C81  1  0.839800  0.780500  0.688700  1.0  0.1939
  C  C82  1  0.672100  0.628200  0.243300  1.0  0.2099
  C  C83  1  0.631400  0.540300  0.635400  1.0  0.2141
  C  C84  1  0.729700  0.409200  0.326400  1.0  -0.2313
  C  C85  1  0.902200  0.600500  0.765200  1.0  0.196
  S  S86  1  0.603900  0.985700  0.223400  1.0  1.3831
  S  S87  1  0.396100  0.014300  0.776600  1.0  1.3833
  N  N88  1  0.418200  0.486800  0.164100  1.0  -0.3498
  N  N89  1  0.279100  0.467400  0.813400  1.0  -0.3867
  N  N90  1  0.152300  0.280600  0.228300  1.0  -0.3932
  N  N91  1  0.332500  0.518400  0.511600  1.0  -0.1436
  N  N92  1  0.352000  0.435700  0.469300  1.0  -0.1099
  N  N93  1  0.016600  0.445600  0.500200  1.0  -0.18
  N  N94  1  0.581800  0.513200  0.835900  1.0  -0.3482
  N  N95  1  0.720900  0.532600  0.186600  1.0  -0.39
  N  N96  1  0.847700  0.719400  0.771700  1.0  -0.3881
  N  N97  1  0.667500  0.481600  0.488400  1.0  -0.142
  N  N98  1  0.648000  0.564300  0.530700  1.0  -0.1112
  N  N99  1  0.983400  0.554400  0.499800  1.0  -0.1809
  O  O100  1  0.578800  0.910400  0.174500  1.0  -0.6149
  O  O101  1  0.572300  0.954100  0.320500  1.0  -0.6202
  O  O102  1  0.535600  0.101900  0.193200  1.0  -0.6375
  O  O103  1  0.102500  0.604300  0.031100  1.0  -0.5979
  O  O104  1  0.291200  0.649500  0.004100  1.0  -0.6153
  O  O105  1  0.575500  0.614800  0.010000  1.0  -0.9677
  O  O106  1  0.155500  0.337300  0.009900  1.0  -0.9675
  O  O107  1  0.199700  0.049400  0.095700  1.0  -0.6035
  O  O108  1  0.978300  0.187600  0.143700  1.0  -0.603
  O  O109  1  0.421200  0.089600  0.825500  1.0  -0.6441
  O  O110  1  0.427700  0.045900  0.679500  1.0  -0.6192
  O  O111  1  0.464400  0.898100  0.806800  1.0  -0.6359
  O  O112  1  0.897500  0.395700  0.968900  1.0  -0.5989
  O  O113  1  0.708800  0.350500  0.995900  1.0  -0.6156
  O  O114  1  0.424500  0.385200  0.990000  1.0  -0.967
  O  O115  1  0.844500  0.662700  0.990100  1.0  -0.9678
  O  O116  1  0.800300  0.950600  0.904300  1.0  -0.6038
  O  O117  1  0.021700  0.812400  0.856300  1.0  -0.6014
