# generated using pymatgen
data_Zn3H7C18O13
_symmetry_space_group_name_H-M   'P 1'
_cell_length_a   16.29500000
_cell_length_b   16.29500000
_cell_length_c   28.94600000
_cell_angle_alpha   90.00000000
_cell_angle_beta   90.00000000
_cell_angle_gamma   90.00000000
_symmetry_Int_Tables_number   1
_chemical_formula_structural   Zn3H7C18O13
_chemical_formula_sum   'Zn24 H56 C144 O104'
_cell_volume   7685.94526565
_cell_formula_units_Z   8
loop_
 _symmetry_equiv_pos_site_id
 _symmetry_equiv_pos_as_xyz
  1  'x, y, z'
loop_
 _atom_site_type_symbol
 _atom_site_label
 _atom_site_symmetry_multiplicity
 _atom_site_fract_x
 _atom_site_fract_y
 _atom_site_fract_z
 _atom_site_occupancy
 _atom_site_charge
  Zn  Zn1  1  0.959510  0.157870  0.580580  1.0  1.1051
  Zn  Zn2  1  0.950010  0.275150  0.669670  1.0  1.0994
  Zn  Zn3  1  0.627130  0.255050  0.381910  1.0  1.0964
  Zn  Zn4  1  0.540490  0.842130  0.080580  1.0  1.1069
  Zn  Zn5  1  0.549990  0.724850  0.169670  1.0  1.0978
  Zn  Zn6  1  0.872870  0.744950  0.881910  1.0  1.0971
  Zn  Zn7  1  0.040490  0.657870  0.919420  1.0  1.1076
  Zn  Zn8  1  0.049990  0.775150  0.830330  1.0  1.1001
  Zn  Zn9  1  0.372870  0.755050  0.118090  1.0  1.0967
  Zn  Zn10  1  0.459510  0.342130  0.419420  1.0  1.1066
  Zn  Zn11  1  0.450010  0.224850  0.330330  1.0  1.0971
  Zn  Zn12  1  0.127130  0.244950  0.618090  1.0  1.0969
  Zn  Zn13  1  0.040490  0.842130  0.419420  1.0  1.1077
  Zn  Zn14  1  0.049990  0.724850  0.330330  1.0  1.0973
  Zn  Zn15  1  0.372870  0.744950  0.618090  1.0  1.0971
  Zn  Zn16  1  0.459510  0.157870  0.919420  1.0  1.1065
  Zn  Zn17  1  0.450010  0.275150  0.830330  1.0  1.1001
  Zn  Zn18  1  0.127130  0.255050  0.118090  1.0  1.0965
  Zn  Zn19  1  0.959510  0.342130  0.080580  1.0  1.1057
  Zn  Zn20  1  0.950010  0.224850  0.169670  1.0  1.0976
  Zn  Zn21  1  0.627130  0.244950  0.881910  1.0  1.0967
  Zn  Zn22  1  0.540490  0.657870  0.580580  1.0  1.1063
  Zn  Zn23  1  0.549990  0.775150  0.669670  1.0  1.0997
  Zn  Zn24  1  0.872870  0.755050  0.381910  1.0  1.0967
  H  H25  1  0.747500  0.253400  0.518800  1.0  0.1251
  H  H26  1  0.578300  0.430500  0.526200  1.0  0.1161
  H  H27  1  0.762100  0.426200  0.617000  1.0  0.1188
  H  H28  1  0.973700  0.997100  0.767200  1.0  0.1174
  H  H29  1  0.801200  0.988700  0.865800  1.0  0.1199
  H  H30  1  0.814600  0.181300  0.781100  1.0  0.1171
  H  H31  1  0.024600  0.160700  0.658800  1.0  0.3856
  H  H32  1  0.752500  0.746600  0.018800  1.0  0.1257
  H  H33  1  0.921700  0.569500  0.026200  1.0  0.1159
  H  H34  1  0.737900  0.573800  0.117000  1.0  0.1192
  H  H35  1  0.526300  0.002900  0.267200  1.0  0.1177
  H  H36  1  0.698800  0.011300  0.365800  1.0  0.1194
  H  H37  1  0.685400  0.818700  0.281100  1.0  0.1167
  H  H38  1  0.475400  0.839300  0.158800  1.0  0.3838
  H  H39  1  0.252500  0.753400  0.981200  1.0  0.1256
  H  H40  1  0.421700  0.930500  0.973800  1.0  0.1159
  H  H41  1  0.237900  0.926200  0.883000  1.0  0.1186
  H  H42  1  0.026300  0.497100  0.732800  1.0  0.1179
  H  H43  1  0.198800  0.488700  0.634200  1.0  0.1194
  H  H44  1  0.185400  0.681300  0.718900  1.0  0.1167
  H  H45  1  0.975400  0.660700  0.841200  1.0  0.3849
  H  H46  1  0.247500  0.246600  0.481200  1.0  0.1261
  H  H47  1  0.078300  0.069500  0.473800  1.0  0.1162
  H  H48  1  0.262100  0.073800  0.383000  1.0  0.1186
  H  H49  1  0.473700  0.502900  0.232800  1.0  0.1179
  H  H50  1  0.301200  0.511300  0.134200  1.0  0.1197
  H  H51  1  0.314600  0.318700  0.218900  1.0  0.1168
  H  H52  1  0.524600  0.339300  0.341200  1.0  0.3832
  H  H53  1  0.252500  0.746600  0.481200  1.0  0.1259
  H  H54  1  0.421700  0.569500  0.473800  1.0  0.116
  H  H55  1  0.237900  0.573800  0.383000  1.0  0.1187
  H  H56  1  0.026300  0.002900  0.232800  1.0  0.1178
  H  H57  1  0.198800  0.011300  0.134200  1.0  0.1193
  H  H58  1  0.185400  0.818700  0.218900  1.0  0.1166
  H  H59  1  0.975400  0.839300  0.341200  1.0  0.3835
  H  H60  1  0.247500  0.253400  0.981200  1.0  0.1256
  H  H61  1  0.078300  0.430500  0.973800  1.0  0.1159
  H  H62  1  0.262100  0.426200  0.883000  1.0  0.1185
  H  H63  1  0.473700  0.997100  0.732800  1.0  0.1177
  H  H64  1  0.301200  0.988700  0.634200  1.0  0.1198
  H  H65  1  0.314600  0.181300  0.718900  1.0  0.1167
  H  H66  1  0.524600  0.160700  0.841200  1.0  0.3842
  H  H67  1  0.747500  0.246600  0.018800  1.0  0.1257
  H  H68  1  0.578300  0.069500  0.026200  1.0  0.1161
  H  H69  1  0.762100  0.073800  0.117000  1.0  0.1189
  H  H70  1  0.973700  0.502900  0.267200  1.0  0.1176
  H  H71  1  0.801200  0.511300  0.365800  1.0  0.1199
  H  H72  1  0.814600  0.318700  0.281100  1.0  0.1171
  H  H73  1  0.024600  0.339300  0.158800  1.0  0.3833
  H  H74  1  0.752500  0.753400  0.518800  1.0  0.1252
  H  H75  1  0.921700  0.930500  0.526200  1.0  0.1159
  H  H76  1  0.737900  0.926200  0.617000  1.0  0.119
  H  H77  1  0.526300  0.497100  0.767200  1.0  0.1177
  H  H78  1  0.698800  0.488700  0.865800  1.0  0.1193
  H  H79  1  0.685400  0.681300  0.781100  1.0  0.117
  H  H80  1  0.475400  0.660700  0.658800  1.0  0.3863
  C  C81  1  0.765180  0.332400  0.571530  1.0  -0.1501
  C  C82  1  0.726260  0.299800  0.533240  1.0  0.0197
  C  C83  1  0.655770  0.336400  0.516360  1.0  -0.1608
  C  C84  1  0.626230  0.406500  0.537240  1.0  -0.054
  C  C85  1  0.666500  0.441800  0.574120  1.0  -0.1629
  C  C86  1  0.735400  0.403800  0.591580  1.0  0.0264
  C  C87  1  0.839200  0.290000  0.591690  1.0  0.7503
  C  C88  1  0.611600  0.305700  0.474640  1.0  0.7657
  C  C89  1  0.635500  0.521800  0.592960  1.0  0.7243
  C  C90  1  0.900400  0.095700  0.768050  1.0  -0.1473
  C  C91  1  0.929030  0.020600  0.782230  1.0  0.0211
  C  C92  1  0.892230  0.979600  0.818570  1.0  -0.1531
  C  C93  1  0.826120  0.015700  0.841190  1.0  0.0294
  C  C94  1  0.797400  0.091200  0.827390  1.0  -0.1504
  C  C95  1  0.834410  0.130500  0.790740  1.0  0.0439
  C  C96  1  0.940900  0.139600  0.729010  1.0  0.702
  C  C97  1  0.922500  0.897300  0.833420  1.0  0.7309
  C  C98  1  0.726800  0.130400  0.852130  1.0  0.6922
  C  C99  1  0.734820  0.667600  0.071530  1.0  -0.1506
  C  C100  1  0.773740  0.700200  0.033240  1.0  0.0188
  C  C101  1  0.844230  0.663600  0.016360  1.0  -0.1602
  C  C102  1  0.873770  0.593500  0.037240  1.0  -0.0541
  C  C103  1  0.833500  0.558200  0.074120  1.0  -0.1631
  C  C104  1  0.764600  0.596200  0.091580  1.0  0.0261
  C  C105  1  0.660800  0.710000  0.091690  1.0  0.7521
  C  C106  1  0.888400  0.694300  0.974640  1.0  0.7664
  C  C107  1  0.864500  0.478200  0.092960  1.0  0.7244
  C  C108  1  0.599600  0.904300  0.268050  1.0  -0.1482
  C  C109  1  0.570970  0.979400  0.282230  1.0  0.0208
  C  C110  1  0.607770  0.020400  0.318570  1.0  -0.1532
  C  C111  1  0.673880  0.984300  0.341190  1.0  0.03
  C  C112  1  0.702600  0.908800  0.327390  1.0  -0.1504
  C  C113  1  0.665590  0.869500  0.290740  1.0  0.0445
  C  C114  1  0.559100  0.860400  0.229010  1.0  0.7019
  C  C115  1  0.577500  0.102700  0.333420  1.0  0.7313
  C  C116  1  0.773200  0.869600  0.352130  1.0  0.6918
  C  C117  1  0.234820  0.832400  0.928470  1.0  -0.1504
  C  C118  1  0.273740  0.799800  0.966760  1.0  0.0202
  C  C119  1  0.344230  0.836400  0.983640  1.0  -0.1601
  C  C120  1  0.373770  0.906500  0.962760  1.0  -0.0547
  C  C121  1  0.333500  0.941800  0.925880  1.0  -0.1614
  C  C122  1  0.264600  0.903800  0.908420  1.0  0.0252
  C  C123  1  0.160800  0.790000  0.908310  1.0  0.7515
  C  C124  1  0.388400  0.805700  0.025360  1.0  0.7667
  C  C125  1  0.364500  0.021800  0.907040  1.0  0.7238
  C  C126  1  0.099600  0.595700  0.731950  1.0  -0.1473
  C  C127  1  0.070970  0.520600  0.717770  1.0  0.0211
  C  C128  1  0.107770  0.479600  0.681430  1.0  -0.1538
  C  C129  1  0.173880  0.515700  0.658810  1.0  0.0285
  C  C130  1  0.202600  0.591200  0.672610  1.0  -0.1502
  C  C131  1  0.165590  0.630500  0.709260  1.0  0.0442
  C  C132  1  0.059100  0.639600  0.770990  1.0  0.7016
  C  C133  1  0.077500  0.397300  0.666580  1.0  0.7309
  C  C134  1  0.273200  0.630400  0.647870  1.0  0.6921
  C  C135  1  0.265180  0.167600  0.428470  1.0  -0.1502
  C  C136  1  0.226260  0.200200  0.466760  1.0  0.0185
  C  C137  1  0.155770  0.163600  0.483640  1.0  -0.1601
  C  C138  1  0.126230  0.093500  0.462760  1.0  -0.0533
  C  C139  1  0.166500  0.058200  0.425880  1.0  -0.1622
  C  C140  1  0.235400  0.096200  0.408420  1.0  0.0247
  C  C141  1  0.339200  0.210000  0.408310  1.0  0.7504
  C  C142  1  0.111600  0.194300  0.525360  1.0  0.7661
  C  C143  1  0.135500  0.978200  0.407040  1.0  0.7244
  C  C144  1  0.400400  0.404300  0.231950  1.0  -0.1481
  C  C145  1  0.429030  0.479400  0.217770  1.0  0.0209
  C  C146  1  0.392230  0.520400  0.181430  1.0  -0.1531
  C  C147  1  0.326120  0.484300  0.158810  1.0  0.0294
  C  C148  1  0.297400  0.408800  0.172610  1.0  -0.1506
  C  C149  1  0.334410  0.369500  0.209260  1.0  0.0441
  C  C150  1  0.440900  0.360400  0.270990  1.0  0.7015
  C  C151  1  0.422500  0.602700  0.166580  1.0  0.7313
  C  C152  1  0.226800  0.369600  0.147870  1.0  0.6923
  C  C153  1  0.234820  0.667600  0.428470  1.0  -0.1506
  C  C154  1  0.273740  0.700200  0.466760  1.0  0.0187
  C  C155  1  0.344230  0.663600  0.483640  1.0  -0.1603
  C  C156  1  0.373770  0.593500  0.462760  1.0  -0.054
  C  C157  1  0.333500  0.558200  0.425880  1.0  -0.1621
  C  C158  1  0.264600  0.596200  0.408420  1.0  0.0253
  C  C159  1  0.160800  0.710000  0.408310  1.0  0.7518
  C  C160  1  0.388400  0.694300  0.525360  1.0  0.7665
  C  C161  1  0.364500  0.478200  0.407040  1.0  0.7237
  C  C162  1  0.099600  0.904300  0.231950  1.0  -0.1476
  C  C163  1  0.070970  0.979400  0.217770  1.0  0.0207
  C  C164  1  0.107770  0.020400  0.181430  1.0  -0.1533
  C  C165  1  0.173880  0.984300  0.158810  1.0  0.0288
  C  C166  1  0.202600  0.908800  0.172610  1.0  -0.1503
  C  C167  1  0.165590  0.869500  0.209260  1.0  0.0446
  C  C168  1  0.059100  0.860400  0.270990  1.0  0.7012
  C  C169  1  0.077500  0.102700  0.166580  1.0  0.7312
  C  C170  1  0.273200  0.869600  0.147870  1.0  0.6919
  C  C171  1  0.265180  0.332400  0.928470  1.0  -0.1498
  C  C172  1  0.226260  0.299800  0.966760  1.0  0.0198
  C  C173  1  0.155770  0.336400  0.983640  1.0  -0.1602
  C  C174  1  0.126230  0.406500  0.962760  1.0  -0.054
  C  C175  1  0.166500  0.441800  0.925880  1.0  -0.1615
  C  C176  1  0.235400  0.403800  0.908420  1.0  0.0245
  C  C177  1  0.339200  0.290000  0.908310  1.0  0.75
  C  C178  1  0.111600  0.305700  0.025360  1.0  0.7661
  C  C179  1  0.135500  0.521800  0.907040  1.0  0.724
  C  C180  1  0.400400  0.095700  0.731950  1.0  -0.1479
  C  C181  1  0.429030  0.020600  0.717770  1.0  0.0212
  C  C182  1  0.392230  0.979600  0.681430  1.0  -0.1533
  C  C183  1  0.326120  0.015700  0.658810  1.0  0.0291
  C  C184  1  0.297400  0.091200  0.672610  1.0  -0.1503
  C  C185  1  0.334410  0.130500  0.709260  1.0  0.0439
  C  C186  1  0.440900  0.139600  0.770990  1.0  0.7017
  C  C187  1  0.422500  0.897300  0.666580  1.0  0.7309
  C  C188  1  0.226800  0.130400  0.647870  1.0  0.6921
  C  C189  1  0.765180  0.167600  0.071530  1.0  -0.1504
  C  C190  1  0.726260  0.200200  0.033240  1.0  0.0186
  C  C191  1  0.655770  0.163600  0.016360  1.0  -0.1601
  C  C192  1  0.626230  0.093500  0.037240  1.0  -0.0535
  C  C193  1  0.666500  0.058200  0.074120  1.0  -0.163
  C  C194  1  0.735400  0.096200  0.091580  1.0  0.0269
  C  C195  1  0.839200  0.210000  0.091690  1.0  0.7507
  C  C196  1  0.611600  0.194300  0.974640  1.0  0.7662
  C  C197  1  0.635500  0.978200  0.092960  1.0  0.7251
  C  C198  1  0.900400  0.404300  0.268050  1.0  -0.1481
  C  C199  1  0.929030  0.479400  0.282230  1.0  0.0211
  C  C200  1  0.892230  0.520400  0.318570  1.0  -0.153
  C  C201  1  0.826120  0.484300  0.341190  1.0  0.029
  C  C202  1  0.797400  0.408800  0.327390  1.0  -0.1505
  C  C203  1  0.834410  0.369500  0.290740  1.0  0.0439
  C  C204  1  0.940900  0.360400  0.229010  1.0  0.7019
  C  C205  1  0.922500  0.602700  0.333420  1.0  0.7315
  C  C206  1  0.726800  0.369600  0.352130  1.0  0.6923
  C  C207  1  0.734820  0.832400  0.571530  1.0  -0.1505
  C  C208  1  0.773740  0.799800  0.533240  1.0  0.0201
  C  C209  1  0.844230  0.836400  0.516360  1.0  -0.1606
  C  C210  1  0.873770  0.906500  0.537240  1.0  -0.0547
  C  C211  1  0.833500  0.941800  0.574120  1.0  -0.163
  C  C212  1  0.764600  0.903800  0.591580  1.0  0.0255
  C  C213  1  0.660800  0.790000  0.591690  1.0  0.7517
  C  C214  1  0.888400  0.805700  0.474640  1.0  0.7662
  C  C215  1  0.864500  0.021800  0.592960  1.0  0.7241
  C  C216  1  0.599600  0.595700  0.768050  1.0  -0.1472
  C  C217  1  0.570970  0.520600  0.782230  1.0  0.0209
  C  C218  1  0.607770  0.479600  0.818570  1.0  -0.1536
  C  C219  1  0.673880  0.515700  0.841190  1.0  0.0301
  C  C220  1  0.702600  0.591200  0.827390  1.0  -0.1505
  C  C221  1  0.665590  0.630500  0.790740  1.0  0.0442
  C  C222  1  0.559100  0.639600  0.729010  1.0  0.7022
  C  C223  1  0.577500  0.397300  0.833420  1.0  0.7309
  C  C224  1  0.773200  0.630400  0.852130  1.0  0.6921
  O  O225  1  0.871840  0.235520  0.567680  1.0  -0.6034
  O  O226  1  0.862640  0.313970  0.630580  1.0  -0.6165
  O  O227  1  0.649760  0.259440  0.447880  1.0  -0.5843
  O  O228  1  0.539180  0.329340  0.469560  1.0  -0.6109
  O  O229  1  0.570560  0.547360  0.574470  1.0  -0.5992
  O  O230  1  0.673740  0.557940  0.623060  1.0  -0.468
  O  O231  1  0.915240  0.212580  0.722110  1.0  -0.5826
  O  O232  1  0.995050  0.105140  0.706840  1.0  -0.5714
  O  O233  1  0.985650  0.870050  0.813380  1.0  -0.5927
  O  O234  1  0.883170  0.861070  0.864300  1.0  -0.612
  O  O235  1  0.719410  0.207370  0.846440  1.0  -0.5838
  O  O236  1  0.680180  0.090610  0.876450  1.0  -0.5087
  O  O237  1  0.020020  0.197300  0.634490  1.0  -1.0008
  O  O238  1  0.628160  0.764480  0.067680  1.0  -0.6036
  O  O239  1  0.637360  0.686030  0.130580  1.0  -0.6156
  O  O240  1  0.850240  0.740560  0.947880  1.0  -0.5841
  O  O241  1  0.960820  0.670660  0.969560  1.0  -0.6111
  O  O242  1  0.929440  0.452640  0.074470  1.0  -0.5986
  O  O243  1  0.826260  0.442060  0.123060  1.0  -0.4655
  O  O244  1  0.584760  0.787420  0.222110  1.0  -0.5823
  O  O245  1  0.504950  0.894860  0.206840  1.0  -0.5709
  O  O246  1  0.514350  0.129950  0.313380  1.0  -0.5907
  O  O247  1  0.616830  0.138930  0.364300  1.0  -0.6102
  O  O248  1  0.780590  0.792630  0.346440  1.0  -0.5836
  O  O249  1  0.819820  0.909390  0.376450  1.0  -0.5096
  O  O250  1  0.479980  0.802700  0.134490  1.0  -1.0004
  O  O251  1  0.128160  0.735520  0.932320  1.0  -0.6035
  O  O252  1  0.137360  0.813970  0.869420  1.0  -0.6152
  O  O253  1  0.350240  0.759440  0.052120  1.0  -0.5846
  O  O254  1  0.460820  0.829340  0.030440  1.0  -0.6107
  O  O255  1  0.429440  0.047360  0.925530  1.0  -0.5985
  O  O256  1  0.326260  0.057940  0.876940  1.0  -0.467
  O  O257  1  0.084760  0.712580  0.777890  1.0  -0.5818
  O  O258  1  0.004950  0.605140  0.793160  1.0  -0.5721
  O  O259  1  0.014350  0.370050  0.686620  1.0  -0.5922
  O  O260  1  0.116830  0.361070  0.635700  1.0  -0.609
  O  O261  1  0.280590  0.707370  0.653560  1.0  -0.585
  O  O262  1  0.319820  0.590610  0.623550  1.0  -0.5091
  O  O263  1  0.979980  0.697300  0.865510  1.0  -0.9997
  O  O264  1  0.371840  0.264480  0.432320  1.0  -0.6038
  O  O265  1  0.362640  0.186030  0.369420  1.0  -0.6146
  O  O266  1  0.149760  0.240560  0.552120  1.0  -0.5836
  O  O267  1  0.039180  0.170660  0.530440  1.0  -0.6101
  O  O268  1  0.070560  0.952640  0.425530  1.0  -0.5986
  O  O269  1  0.173740  0.942060  0.376940  1.0  -0.4646
  O  O270  1  0.415240  0.287420  0.277890  1.0  -0.5822
  O  O271  1  0.495050  0.394860  0.293160  1.0  -0.5728
  O  O272  1  0.485650  0.629950  0.186620  1.0  -0.5922
  O  O273  1  0.383170  0.638930  0.135700  1.0  -0.6094
  O  O274  1  0.219410  0.292630  0.153560  1.0  -0.5831
  O  O275  1  0.180180  0.409390  0.123550  1.0  -0.5095
  O  O276  1  0.520020  0.302700  0.365510  1.0  -0.9992
  O  O277  1  0.128160  0.764480  0.432320  1.0  -0.6039
  O  O278  1  0.137360  0.686030  0.369420  1.0  -0.6153
  O  O279  1  0.350240  0.740560  0.552120  1.0  -0.5841
  O  O280  1  0.460820  0.670660  0.530440  1.0  -0.6105
  O  O281  1  0.429440  0.452640  0.425530  1.0  -0.5984
  O  O282  1  0.326260  0.442060  0.376940  1.0  -0.4675
  O  O283  1  0.084760  0.787420  0.277890  1.0  -0.5822
  O  O284  1  0.004950  0.894860  0.293160  1.0  -0.5717
  O  O285  1  0.014350  0.129950  0.186620  1.0  -0.5914
  O  O286  1  0.116830  0.138930  0.135700  1.0  -0.6089
  O  O287  1  0.280590  0.792630  0.153560  1.0  -0.5833
  O  O288  1  0.319820  0.909390  0.123550  1.0  -0.51
  O  O289  1  0.979980  0.802700  0.365510  1.0  -0.9992
  O  O290  1  0.371840  0.235520  0.932320  1.0  -0.6036
  O  O291  1  0.362640  0.313970  0.869420  1.0  -0.6155
  O  O292  1  0.149760  0.259440  0.052120  1.0  -0.584
  O  O293  1  0.039180  0.329340  0.030440  1.0  -0.6104
  O  O294  1  0.070560  0.547360  0.925530  1.0  -0.599
  O  O295  1  0.173740  0.557940  0.876940  1.0  -0.4649
  O  O296  1  0.415240  0.212580  0.777890  1.0  -0.5818
  O  O297  1  0.495050  0.105140  0.793160  1.0  -0.5725
  O  O298  1  0.485650  0.870050  0.686620  1.0  -0.593
  O  O299  1  0.383170  0.861070  0.635700  1.0  -0.6092
  O  O300  1  0.219410  0.207370  0.653560  1.0  -0.5836
  O  O301  1  0.180180  0.090610  0.623550  1.0  -0.5098
  O  O302  1  0.520020  0.197300  0.865510  1.0  -0.9998
  O  O303  1  0.871840  0.264480  0.067680  1.0  -0.6034
  O  O304  1  0.862640  0.186030  0.130580  1.0  -0.6157
  O  O305  1  0.649760  0.240560  0.947880  1.0  -0.5836
  O  O306  1  0.539180  0.170660  0.969560  1.0  -0.6106
  O  O307  1  0.570560  0.952640  0.074470  1.0  -0.5989
  O  O308  1  0.673740  0.942060  0.123060  1.0  -0.4674
  O  O309  1  0.915240  0.287420  0.222110  1.0  -0.5828
  O  O310  1  0.995050  0.394860  0.206840  1.0  -0.5717
  O  O311  1  0.985650  0.629950  0.313380  1.0  -0.5925
  O  O312  1  0.883170  0.638930  0.364300  1.0  -0.6115
  O  O313  1  0.719410  0.292630  0.346440  1.0  -0.5834
  O  O314  1  0.680180  0.409390  0.376450  1.0  -0.5097
  O  O315  1  0.020020  0.302700  0.134490  1.0  -1.0002
  O  O316  1  0.628160  0.735520  0.567680  1.0  -0.6032
  O  O317  1  0.637360  0.813970  0.630580  1.0  -0.616
  O  O318  1  0.850240  0.759440  0.447880  1.0  -0.5848
  O  O319  1  0.960820  0.829340  0.469560  1.0  -0.6112
  O  O320  1  0.929440  0.047360  0.574470  1.0  -0.5986
  O  O321  1  0.826260  0.057940  0.623060  1.0  -0.4657
  O  O322  1  0.584760  0.712580  0.722110  1.0  -0.5818
  O  O323  1  0.504950  0.605140  0.706840  1.0  -0.5711
  O  O324  1  0.514350  0.370050  0.813380  1.0  -0.5909
  O  O325  1  0.616830  0.361070  0.864300  1.0  -0.6108
  O  O326  1  0.780590  0.707370  0.846440  1.0  -0.5847
  O  O327  1  0.819820  0.590610  0.876450  1.0  -0.5082
  O  O328  1  0.479980  0.697300  0.634490  1.0  -1.0009
