# generated using pymatgen
data_CuH12(CN2)12
_symmetry_space_group_name_H-M   'P 1'
_cell_length_a   8.11560000
_cell_length_b   20.38610000
_cell_length_c   8.65790000
_cell_angle_alpha   90.00000000
_cell_angle_beta   91.19900000
_cell_angle_gamma   90.00000000
_symmetry_Int_Tables_number   1
_chemical_formula_structural   CuH12(CN2)12
_chemical_formula_sum   'Cu2 H24 C24 N48'
_cell_volume   1432.09638792
_cell_formula_units_Z   2
loop_
 _symmetry_equiv_pos_site_id
 _symmetry_equiv_pos_as_xyz
  1  'x, y, z'
loop_
 _atom_site_type_symbol
 _atom_site_label
 _atom_site_symmetry_multiplicity
 _atom_site_fract_x
 _atom_site_fract_y
 _atom_site_fract_z
 _atom_site_occupancy
 _atom_site_charge
  Cu  Cu1  1  0.500000  0.500000  0.000000  1.0  0.7869
  Cu  Cu2  1  0.000000  0.000000  0.500000  1.0  0.7869
  H  H3  1  0.993500  0.863100  0.721000  1.0  0.1091
  H  H4  1  0.512500  0.836700  0.635500  1.0  0.1023
  H  H5  1  0.940200  0.651000  0.827200  1.0  0.1039
  H  H6  1  0.448700  0.640000  0.850400  1.0  0.1135
  H  H7  1  0.892400  0.503000  0.132000  1.0  0.115
  H  H8  1  0.682400  0.491600  0.545000  1.0  0.0959
  H  H9  1  0.006500  0.136900  0.279000  1.0  0.1103
  H  H10  1  0.487500  0.163300  0.364500  1.0  0.1023
  H  H11  1  0.059800  0.349000  0.172800  1.0  0.1031
  H  H12  1  0.551300  0.360000  0.149600  1.0  0.1125
  H  H13  1  0.107600  0.497000  0.868000  1.0  0.1154
  H  H14  1  0.317600  0.508400  0.455000  1.0  0.0958
  H  H15  1  0.506500  0.363100  0.779000  1.0  0.1103
  H  H16  1  0.987500  0.336700  0.864500  1.0  0.1021
  H  H17  1  0.559800  0.151000  0.672800  1.0  0.1034
  H  H18  1  0.051300  0.140000  0.649600  1.0  0.1123
  H  H19  1  0.607600  0.003000  0.368000  1.0  0.1153
  H  H20  1  0.817600  0.991600  0.955000  1.0  0.0959
  H  H21  1  0.493500  0.636900  0.221000  1.0  0.1094
  H  H22  1  0.012500  0.663300  0.135500  1.0  0.1021
  H  H23  1  0.440200  0.849000  0.327200  1.0  0.1034
  H  H24  1  0.948700  0.860000  0.350400  1.0  0.1136
  H  H25  1  0.392400  0.997000  0.632000  1.0  0.1149
  H  H26  1  0.182400  0.008400  0.045000  1.0  0.0958
  C  C27  1  0.882200  0.870200  0.688800  1.0  0.1343
  C  C28  1  0.619000  0.856000  0.642100  1.0  0.1202
  C  C29  1  0.832200  0.635300  0.845600  1.0  0.1133
  C  C30  1  0.562800  0.629800  0.858300  1.0  0.1347
  C  C31  1  0.812700  0.500300  0.210500  1.0  0.1602
  C  C32  1  0.697000  0.493800  0.436500  1.0  0.1185
  C  C33  1  0.117800  0.129800  0.311200  1.0  0.1338
  C  C34  1  0.381000  0.144000  0.357900  1.0  0.1191
  C  C35  1  0.167800  0.364700  0.154400  1.0  0.114
  C  C36  1  0.437200  0.370200  0.141700  1.0  0.1347
  C  C37  1  0.187300  0.499700  0.789500  1.0  0.1597
  C  C38  1  0.303000  0.506200  0.563500  1.0  0.1178
  C  C39  1  0.617800  0.370200  0.811200  1.0  0.1338
  C  C40  1  0.881000  0.356000  0.857900  1.0  0.1182
  C  C41  1  0.667800  0.135300  0.654400  1.0  0.1132
  C  C42  1  0.937200  0.129800  0.641700  1.0  0.1351
  C  C43  1  0.687300  0.000300  0.289500  1.0  0.1596
  C  C44  1  0.803000  0.993800  0.063500  1.0  0.1176
  C  C45  1  0.382200  0.629800  0.188800  1.0  0.1339
  C  C46  1  0.119000  0.644000  0.142100  1.0  0.119
  C  C47  1  0.332200  0.864700  0.345600  1.0  0.113
  C  C48  1  0.062800  0.870200  0.358300  1.0  0.1343
  C  C49  1  0.312700  0.999700  0.710500  1.0  0.1601
  C  C50  1  0.197000  0.006200  0.936500  1.0  0.1187
  N  N51  1  0.825500  0.923700  0.626500  1.0  -0.2368
  N  N52  1  0.655800  0.914800  0.597200  1.0  -0.2667
  N  N53  1  0.758600  0.825900  0.701000  1.0  0.1597
  N  N54  1  0.789400  0.763200  0.756200  1.0  -0.2776
  N  N55  1  0.656900  0.732900  0.759500  1.0  -0.2918
  N  N56  1  0.687800  0.669200  0.814400  1.0  0.1209
  N  N57  1  0.796300  0.578500  0.904500  1.0  -0.2676
  N  N58  1  0.625000  0.575900  0.912800  1.0  -0.1421
  N  N59  1  0.653000  0.498100  0.188700  1.0  -0.1966
  N  N60  1  0.579200  0.493000  0.333200  1.0  -0.2642
  N  N61  1  0.844800  0.498100  0.366000  1.0  0.1548
  N  N62  1  0.003100  0.500700  0.427400  1.0  -0.3045
  N  N63  1  0.174500  0.076300  0.373500  1.0  -0.2357
  N  N64  1  0.344200  0.085200  0.402800  1.0  -0.2653
  N  N65  1  0.241400  0.174100  0.299000  1.0  0.1604
  N  N66  1  0.210600  0.236800  0.243800  1.0  -0.2747
  N  N67  1  0.343100  0.267100  0.240500  1.0  -0.291
  N  N68  1  0.312200  0.330800  0.185600  1.0  0.1189
  N  N69  1  0.203700  0.421500  0.095500  1.0  -0.2665
  N  N70  1  0.375000  0.424100  0.087200  1.0  -0.1413
  N  N71  1  0.347000  0.501900  0.811300  1.0  -0.199
  N  N72  1  0.420800  0.507000  0.666800  1.0  -0.2648
  N  N73  1  0.155200  0.501900  0.634000  1.0  0.1533
  N  N74  1  0.996900  0.499300  0.572600  1.0  -0.305
  N  N75  1  0.674500  0.423700  0.873500  1.0  -0.2374
  N  N76  1  0.844200  0.414800  0.902800  1.0  -0.265
  N  N77  1  0.741400  0.325900  0.799000  1.0  0.1591
  N  N78  1  0.710600  0.263200  0.743800  1.0  -0.2751
  N  N79  1  0.843100  0.232900  0.740500  1.0  -0.2911
  N  N80  1  0.812200  0.169200  0.685600  1.0  0.1197
  N  N81  1  0.703700  0.078500  0.595500  1.0  -0.2672
  N  N82  1  0.875000  0.075900  0.587200  1.0  -0.142
  N  N83  1  0.847000  0.998100  0.311300  1.0  -0.199
  N  N84  1  0.920800  0.993000  0.166800  1.0  -0.2648
  N  N85  1  0.655200  0.998100  0.134000  1.0  0.1534
  N  N86  1  0.496900  0.000700  0.072600  1.0  -0.3051
  N  N87  1  0.325500  0.576300  0.126500  1.0  -0.236
  N  N88  1  0.155800  0.585200  0.097200  1.0  -0.2663
  N  N89  1  0.258600  0.674100  0.201000  1.0  0.1608
  N  N90  1  0.289400  0.736800  0.256200  1.0  -0.2775
  N  N91  1  0.156900  0.767100  0.259500  1.0  -0.2921
  N  N92  1  0.187800  0.830800  0.314400  1.0  0.1191
  N  N93  1  0.296300  0.921500  0.404500  1.0  -0.2669
  N  N94  1  0.125000  0.924100  0.412800  1.0  -0.1416
  N  N95  1  0.153000  0.001900  0.688700  1.0  -0.1965
  N  N96  1  0.079200  0.007000  0.833200  1.0  -0.264
  N  N97  1  0.344800  0.001900  0.866000  1.0  0.1549
  N  N98  1  0.503100  0.999300  0.927400  1.0  -0.3044
