# generated using pymatgen
data_Ga3Co2(PO4)5
_symmetry_space_group_name_H-M   'P 1'
_cell_length_a   9.84800000
_cell_length_b   12.47000000
_cell_length_c   12.60300000
_cell_angle_alpha   63.47000000
_cell_angle_beta   74.56000000
_cell_angle_gamma   76.03000000
_symmetry_Int_Tables_number   1
_chemical_formula_structural   Ga3Co2(PO4)5
_chemical_formula_sum   'Ga6 Co4 P10 O40'
_cell_volume   1321.22451249
_cell_formula_units_Z   2
loop_
 _symmetry_equiv_pos_site_id
 _symmetry_equiv_pos_as_xyz
  1  'x, y, z'
loop_
 _atom_site_type_symbol
 _atom_site_label
 _atom_site_symmetry_multiplicity
 _atom_site_fract_x
 _atom_site_fract_y
 _atom_site_fract_z
 _atom_site_occupancy
 _atom_site_charge
  Ga  Ga1  1  0.200200  0.882460  0.518110  1.0  1.6705
  Ga  Ga2  1  0.097300  0.401440  0.162340  1.0  1.684
  Ga  Ga3  1  0.366900  0.161900  0.506000  1.0  1.6671
  Ga  Ga4  1  0.799800  0.117540  0.481890  1.0  1.6708
  Ga  Ga5  1  0.902700  0.598560  0.837660  1.0  1.6834
  Ga  Ga6  1  0.633100  0.838100  0.494000  1.0  1.6671
  Co  Co7  1  0.392100  0.660200  0.903100  1.0  1.0035
  Co  Co8  1  0.531400  0.535300  0.310000  1.0  0.9725
  Co  Co9  1  0.607900  0.339800  0.096900  1.0  1.0012
  Co  Co10  1  0.468600  0.464700  0.690000  1.0  0.9702
  P  P11  1  0.115700  0.169400  0.400400  1.0  1.975
  P  P12  1  0.361600  0.896700  0.685100  1.0  1.9118
  P  P13  1  0.338700  0.508700  0.170600  1.0  1.954
  P  P14  1  0.451800  0.697900  0.451200  1.0  1.9609
  P  P15  1  0.210200  0.489400  0.883100  1.0  1.9874
  P  P16  1  0.884300  0.830600  0.599600  1.0  1.9715
  P  P17  1  0.638400  0.103300  0.314900  1.0  1.9115
  P  P18  1  0.661300  0.491300  0.829400  1.0  1.9577
  P  P19  1  0.548200  0.302100  0.548800  1.0  1.9609
  P  P20  1  0.789800  0.510600  0.116900  1.0  1.9895
  O  O21  1  0.344900  0.811100  0.433200  1.0  -0.8908
  O  O22  1  0.236700  0.866800  0.660200  1.0  -0.8176
  O  O23  1  0.182800  0.044700  0.414400  1.0  -0.9312
  O  O24  1  0.960800  0.178300  0.463800  1.0  -0.8592
  O  O25  1  0.156900  0.400800  0.010700  1.0  -0.8498
  O  O26  1  0.090900  0.533100  0.811000  1.0  -0.8067
  O  O27  1  0.127100  0.242100  0.264500  1.0  -0.8776
  O  O28  1  0.181400  0.496500  0.199400  1.0  -0.7871
  O  O29  1  0.192800  0.223200  0.452600  1.0  -0.7895
  O  O30  1  0.341900  0.029300  0.655200  1.0  -0.7631
  O  O31  1  0.497600  0.857900  0.615400  1.0  -0.968
  O  O32  1  0.590900  0.719400  0.462100  1.0  -0.7857
  O  O33  1  0.365400  0.827800  0.821000  1.0  -0.7814
  O  O34  1  0.256400  0.594700  0.884100  1.0  -0.9034
  O  O35  1  0.421600  0.406200  0.137000  1.0  -0.8949
  O  O36  1  0.365600  0.630000  0.066000  1.0  -0.7901
  O  O37  1  0.469200  0.669300  0.342300  1.0  -0.8447
  O  O38  1  0.331600  0.418000  0.827600  1.0  -0.7991
  O  O39  1  0.394000  0.594200  0.562900  1.0  -0.8479
  O  O40  1  0.373700  0.507200  0.281200  1.0  -0.8018
  O  O41  1  0.655100  0.188900  0.566800  1.0  -0.8919
  O  O42  1  0.763300  0.133200  0.339800  1.0  -0.8163
  O  O43  1  0.817200  0.955300  0.585600  1.0  -0.9301
  O  O44  1  0.039200  0.821700  0.536200  1.0  -0.8582
  O  O45  1  0.843100  0.599200  0.989300  1.0  -0.8458
  O  O46  1  0.909100  0.466900  0.189000  1.0  -0.8073
  O  O47  1  0.872900  0.757900  0.735500  1.0  -0.8794
  O  O48  1  0.818600  0.503500  0.800600  1.0  -0.7886
  O  O49  1  0.807200  0.776800  0.547400  1.0  -0.79
  O  O50  1  0.658100  0.970700  0.344800  1.0  -0.7639
  O  O51  1  0.502400  0.142100  0.384600  1.0  -0.967
  O  O52  1  0.409100  0.280600  0.537900  1.0  -0.785
  O  O53  1  0.634600  0.172200  0.179000  1.0  -0.78
  O  O54  1  0.743600  0.405300  0.115900  1.0  -0.9007
  O  O55  1  0.578400  0.593800  0.863000  1.0  -0.8941
  O  O56  1  0.634400  0.370000  0.934000  1.0  -0.791
  O  O57  1  0.530800  0.330700  0.657700  1.0  -0.844
  O  O58  1  0.668400  0.582000  0.172400  1.0  -0.7985
  O  O59  1  0.606000  0.405800  0.437100  1.0  -0.8465
  O  O60  1  0.626300  0.492800  0.718800  1.0  -0.8029
