# generated using pymatgen
data_KV2P2C3O8
_symmetry_space_group_name_H-M   'P 1'
_cell_length_a   14.49390000
_cell_length_b   10.25950000
_cell_length_c   18.67820000
_cell_angle_alpha   90.00000000
_cell_angle_beta   98.99100000
_cell_angle_gamma   90.00000000
_symmetry_Int_Tables_number   1
_chemical_formula_structural   KV2P2C3O8
_chemical_formula_sum   'K8 V16 P16 C24 O64'
_cell_volume   2743.32463935
_cell_formula_units_Z   8
loop_
 _symmetry_equiv_pos_site_id
 _symmetry_equiv_pos_as_xyz
  1  'x, y, z'
loop_
 _atom_site_type_symbol
 _atom_site_label
 _atom_site_symmetry_multiplicity
 _atom_site_fract_x
 _atom_site_fract_y
 _atom_site_fract_z
 _atom_site_occupancy
 _atom_site_charge
  K  K1  1  0.343800  0.305900  0.042500  1.0  0.8866
  K  K2  1  0.843800  0.805900  0.042500  1.0  0.8866
  K  K3  1  0.656200  0.305900  0.457500  1.0  0.8875
  K  K4  1  0.156200  0.805900  0.457500  1.0  0.8875
  K  K5  1  0.656200  0.694100  0.957500  1.0  0.8871
  K  K6  1  0.156200  0.194100  0.957500  1.0  0.8874
  K  K7  1  0.343800  0.694100  0.542500  1.0  0.8864
  K  K8  1  0.843800  0.194100  0.542500  1.0  0.8867
  V  V9  1  0.154900  0.884000  0.087200  1.0  1.9893
  V  V10  1  0.737000  0.554300  0.780600  1.0  1.2624
  V  V11  1  0.654900  0.384000  0.087200  1.0  1.9893
  V  V12  1  0.237000  0.054300  0.780600  1.0  1.2628
  V  V13  1  0.845100  0.884000  0.412800  1.0  1.9909
  V  V14  1  0.263000  0.554300  0.719400  1.0  1.2628
  V  V15  1  0.345100  0.384000  0.412800  1.0  1.9909
  V  V16  1  0.763000  0.054300  0.719400  1.0  1.2628
  V  V17  1  0.845100  0.116000  0.912800  1.0  1.9906
  V  V18  1  0.263000  0.445700  0.219400  1.0  1.2613
  V  V19  1  0.345100  0.616000  0.912800  1.0  1.9906
  V  V20  1  0.763000  0.945700  0.219400  1.0  1.2619
  V  V21  1  0.154900  0.116000  0.587200  1.0  1.9892
  V  V22  1  0.737000  0.445700  0.280600  1.0  1.2627
  V  V23  1  0.654900  0.616000  0.587200  1.0  1.9892
  V  V24  1  0.237000  0.945700  0.280600  1.0  1.2627
  P  P25  1  0.217400  0.876400  0.924000  1.0  1.4604
  P  P26  1  0.835200  0.833400  0.831600  1.0  1.3705
  P  P27  1  0.717400  0.376400  0.924000  1.0  1.4604
  P  P28  1  0.335200  0.333400  0.831600  1.0  1.3705
  P  P29  1  0.782600  0.876400  0.576000  1.0  1.4603
  P  P30  1  0.164800  0.833400  0.668400  1.0  1.3693
  P  P31  1  0.282600  0.376400  0.576000  1.0  1.4603
  P  P32  1  0.664800  0.333400  0.668400  1.0  1.3693
  P  P33  1  0.782600  0.123600  0.076000  1.0  1.4595
  P  P34  1  0.164800  0.166600  0.168400  1.0  1.3681
  P  P35  1  0.282600  0.623600  0.076000  1.0  1.4595
  P  P36  1  0.664800  0.666667  0.168400  1.0  1.3641
  P  P37  1  0.217400  0.123600  0.424000  1.0  1.4586
  P  P38  1  0.835200  0.166600  0.331600  1.0  1.3692
  P  P39  1  0.717400  0.623600  0.424000  1.0  1.4586
  P  P40  1  0.335200  0.666667  0.331600  1.0  1.3654
  C  C41  1  0.120400  0.771700  0.891400  1.0  -0.1494
  C  C42  1  0.945300  0.752700  0.856400  1.0  -0.1293
  C  C43  1  0.028400  0.845500  0.875300  1.0  -0.031
  C  C44  1  0.620400  0.271700  0.891400  1.0  -0.1494
  C  C45  1  0.445300  0.252700  0.856400  1.0  -0.1293
  C  C46  1  0.528400  0.345500  0.875300  1.0  -0.031
  C  C47  1  0.879600  0.771700  0.608600  1.0  -0.1499
  C  C48  1  0.054700  0.752700  0.643600  1.0  -0.1299
  C  C49  1  0.971600  0.845500  0.624700  1.0  -0.0311
  C  C50  1  0.379600  0.271700  0.608600  1.0  -0.1499
  C  C51  1  0.554700  0.252700  0.643600  1.0  -0.1299
  C  C52  1  0.471600  0.345500  0.624700  1.0  -0.0311
  C  C53  1  0.879600  0.228300  0.108600  1.0  -0.1488
  C  C54  1  0.054700  0.247300  0.143600  1.0  -0.1271
  C  C55  1  0.971600  0.154500  0.124700  1.0  -0.0316
  C  C56  1  0.379600  0.728300  0.108600  1.0  -0.1488
  C  C57  1  0.554700  0.747300  0.143600  1.0  -0.1273
  C  C58  1  0.471600  0.654500  0.124700  1.0  -0.0316
  C  C59  1  0.120400  0.228300  0.391400  1.0  -0.148
  C  C60  1  0.945300  0.247300  0.356400  1.0  -0.1267
  C  C61  1  0.028400  0.154500  0.375300  1.0  -0.0314
  C  C62  1  0.620400  0.728300  0.391400  1.0  -0.148
  C  C63  1  0.445300  0.747300  0.356400  1.0  -0.1269
  C  C64  1  0.528400  0.654500  0.375300  1.0  -0.0314
  O  O65  1  0.208600  0.923900  0.000100  1.0  -0.9261
  O  O66  1  0.757900  0.731000  0.825300  1.0  -0.8446
  O  O67  1  0.820500  0.929000  0.892000  1.0  -0.8741
  O  O68  1  0.214800  0.997700  0.876600  1.0  -0.9288
  O  O69  1  0.838300  0.903600  0.759900  1.0  -0.739
  O  O70  1  0.307800  0.800100  0.923500  1.0  -0.7823
  O  O71  1  0.044500  0.872300  0.067400  1.0  -0.7438
  O  O72  1  0.189900  0.851000  0.190800  1.0  -0.8218
  O  O73  1  0.708600  0.423900  0.000100  1.0  -0.9261
  O  O74  1  0.257900  0.231000  0.825300  1.0  -0.8446
  O  O75  1  0.320500  0.429000  0.892000  1.0  -0.8741
  O  O76  1  0.714800  0.497700  0.876600  1.0  -0.9288
  O  O77  1  0.338300  0.403600  0.759900  1.0  -0.739
  O  O78  1  0.807800  0.300100  0.923500  1.0  -0.7823
  O  O79  1  0.544500  0.372300  0.067400  1.0  -0.7438
  O  O80  1  0.689900  0.351000  0.190800  1.0  -0.8218
  O  O81  1  0.791400  0.923900  0.499900  1.0  -0.926
  O  O82  1  0.242100  0.731000  0.674700  1.0  -0.8425
  O  O83  1  0.179500  0.929000  0.608000  1.0  -0.8714
  O  O84  1  0.785200  0.997700  0.623400  1.0  -0.931
  O  O85  1  0.161700  0.903600  0.740100  1.0  -0.739
  O  O86  1  0.692200  0.800100  0.576500  1.0  -0.7802
  O  O87  1  0.955500  0.872300  0.432600  1.0  -0.7436
  O  O88  1  0.810100  0.851000  0.309200  1.0  -0.8239
  O  O89  1  0.291400  0.423900  0.499900  1.0  -0.926
  O  O90  1  0.742100  0.231000  0.674700  1.0  -0.8425
  O  O91  1  0.679500  0.429000  0.608000  1.0  -0.8714
  O  O92  1  0.285200  0.497700  0.623400  1.0  -0.931
  O  O93  1  0.661700  0.403600  0.740100  1.0  -0.739
  O  O94  1  0.192200  0.300100  0.576500  1.0  -0.7802
  O  O95  1  0.455500  0.372300  0.432600  1.0  -0.7436
  O  O96  1  0.310100  0.351000  0.309200  1.0  -0.8239
  O  O97  1  0.791400  0.076100  0.999900  1.0  -0.9244
  O  O98  1  0.242100  0.269000  0.174700  1.0  -0.8417
  O  O99  1  0.179500  0.071000  0.108000  1.0  -0.8721
  O  O100  1  0.785200  0.002300  0.123400  1.0  -0.9288
  O  O101  1  0.161700  0.096400  0.240100  1.0  -0.7391
  O  O102  1  0.692200  0.199900  0.076500  1.0  -0.7806
  O  O103  1  0.955500  0.127700  0.932600  1.0  -0.7435
  O  O104  1  0.810100  0.149000  0.809200  1.0  -0.825
  O  O105  1  0.291400  0.576100  0.999900  1.0  -0.9244
  O  O106  1  0.742100  0.769000  0.174700  1.0  -0.8417
  O  O107  1  0.679500  0.571000  0.108000  1.0  -0.8721
  O  O108  1  0.285200  0.502300  0.123400  1.0  -0.9288
  O  O109  1  0.661700  0.596400  0.240100  1.0  -0.7398
  O  O110  1  0.192200  0.699900  0.076500  1.0  -0.7806
  O  O111  1  0.455500  0.627700  0.932600  1.0  -0.7435
  O  O112  1  0.310100  0.649000  0.809200  1.0  -0.825
  O  O113  1  0.208600  0.076100  0.500100  1.0  -0.9245
  O  O114  1  0.757900  0.269000  0.325300  1.0  -0.8441
  O  O115  1  0.820500  0.071000  0.392000  1.0  -0.8748
  O  O116  1  0.214800  0.002300  0.376600  1.0  -0.9273
  O  O117  1  0.838300  0.096400  0.259900  1.0  -0.7393
  O  O118  1  0.307800  0.199900  0.423500  1.0  -0.7829
  O  O119  1  0.044500  0.127700  0.567400  1.0  -0.7441
  O  O120  1  0.189900  0.149000  0.690800  1.0  -0.824
  O  O121  1  0.708600  0.576100  0.500100  1.0  -0.9245
  O  O122  1  0.257900  0.769000  0.325300  1.0  -0.8441
  O  O123  1  0.320500  0.571000  0.392000  1.0  -0.8748
  O  O124  1  0.714800  0.502300  0.376600  1.0  -0.9273
  O  O125  1  0.338300  0.596400  0.259900  1.0  -0.74
  O  O126  1  0.807800  0.699900  0.423500  1.0  -0.7829
  O  O127  1  0.544500  0.627700  0.567400  1.0  -0.7441
  O  O128  1  0.689900  0.649000  0.690800  1.0  -0.824
