# generated using pymatgen
data_AgH21C24N3ClO7
_symmetry_space_group_name_H-M   'P 1'
_cell_length_a   10.40900000
_cell_length_b   11.15400000
_cell_length_c   22.25800000
_cell_angle_alpha   90.00000000
_cell_angle_beta   90.00000000
_cell_angle_gamma   90.00000000
_symmetry_Int_Tables_number   1
_chemical_formula_structural   AgH21C24N3ClO7
_chemical_formula_sum   'Ag4 H84 C96 N12 Cl4 O28'
_cell_volume   2584.19800439
_cell_formula_units_Z   4
loop_
 _symmetry_equiv_pos_site_id
 _symmetry_equiv_pos_as_xyz
  1  'x, y, z'
loop_
 _atom_site_type_symbol
 _atom_site_label
 _atom_site_symmetry_multiplicity
 _atom_site_fract_x
 _atom_site_fract_y
 _atom_site_fract_z
 _atom_site_occupancy
 _atom_site_charge
  Ag  Ag1  1  0.153970  0.808580  0.302920  1.0  0.2634
  Ag  Ag2  1  0.653970  0.191420  0.697080  1.0  0.2635
  Ag  Ag3  1  0.153970  0.691420  0.802920  1.0  0.2636
  Ag  Ag4  1  0.653970  0.308580  0.197080  1.0  0.2634
  H  H5  1  0.338500  0.503200  0.308700  1.0  0.1076
  H  H6  1  0.189100  0.452100  0.141500  1.0  0.1146
  H  H7  1  0.556100  0.568100  0.159200  1.0  0.1049
  H  H8  1  0.660100  0.690000  0.229300  1.0  0.0692
  H  H9  1  0.712700  0.554700  0.227500  1.0  0.0683
  H  H10  1  0.905300  0.707700  0.248700  1.0  0.0784
  H  H11  1  0.661400  0.586400  0.375900  1.0  0.1035
  H  H12  1  0.808200  0.651400  0.448800  1.0  0.1017
  H  H13  1  0.001200  0.733200  0.419300  1.0  0.0705
  H  H14  1  0.118500  0.510700  0.330400  1.0  0.0817
  H  H15  1  0.171300  0.375400  0.333900  1.0  0.0795
  H  H16  1  0.921000  0.393600  0.235300  1.0  0.0779
  H  H17  1  0.983700  0.361300  0.411500  1.0  0.096
  H  H18  1  0.773900  0.289700  0.423600  1.0  0.104
  H  H19  1  0.642900  0.275100  0.339000  1.0  0.0732
  H  H20  1  0.217000  0.559000  0.059600  1.0  0.0677
  H  H21  1  0.269200  0.438000  0.028900  1.0  0.0846
  H  H22  1  0.174000  0.563400  0.937400  1.0  0.0777
  H  H23  1  0.511800  0.641900  0.015900  1.0  0.1045
  H  H24  1  0.567300  0.748100  0.929800  1.0  0.0897
  H  H25  1  0.422600  0.762800  0.851300  1.0  0.0639
  H  H26  1  0.838500  0.496800  0.691300  1.0  0.1073
  H  H27  1  0.689100  0.547900  0.858500  1.0  0.1149
  H  H28  1  0.056100  0.431900  0.840800  1.0  0.1054
  H  H29  1  0.160100  0.310000  0.770700  1.0  0.0714
  H  H30  1  0.212700  0.445300  0.772500  1.0  0.0677
  H  H31  1  0.405300  0.292300  0.751300  1.0  0.0784
  H  H32  1  0.161400  0.413600  0.624100  1.0  0.1031
  H  H33  1  0.308200  0.348600  0.551200  1.0  0.1016
  H  H34  1  0.501200  0.266800  0.580700  1.0  0.0702
  H  H35  1  0.618500  0.489300  0.669600  1.0  0.0824
  H  H36  1  0.671300  0.624600  0.666100  1.0  0.0784
  H  H37  1  0.421000  0.606400  0.764700  1.0  0.0773
  H  H38  1  0.483700  0.638700  0.588500  1.0  0.0965
  H  H39  1  0.273900  0.710300  0.576400  1.0  0.1038
  H  H40  1  0.142900  0.724900  0.661000  1.0  0.0725
  H  H41  1  0.717000  0.441000  0.940400  1.0  0.067
  H  H42  1  0.769200  0.562000  0.971100  1.0  0.0852
  H  H43  1  0.674000  0.436600  0.062600  1.0  0.0779
  H  H44  1  0.011800  0.358100  0.984100  1.0  0.1043
  H  H45  1  0.067300  0.251900  0.070200  1.0  0.0908
  H  H46  1  0.922600  0.237200  0.148700  1.0  0.0642
  H  H47  1  0.338500  0.996800  0.808700  1.0  0.1081
  H  H48  1  0.189100  0.047900  0.641500  1.0  0.1147
  H  H49  1  0.556100  0.931900  0.659200  1.0  0.105
  H  H50  1  0.660100  0.810000  0.729300  1.0  0.0706
  H  H51  1  0.712700  0.945300  0.727500  1.0  0.068
  H  H52  1  0.905300  0.792300  0.748700  1.0  0.0785
  H  H53  1  0.661400  0.913600  0.875900  1.0  0.1033
  H  H54  1  0.808200  0.848600  0.948800  1.0  0.1016
  H  H55  1  0.001200  0.766800  0.919300  1.0  0.0699
  H  H56  1  0.118500  0.989300  0.830400  1.0  0.0822
  H  H57  1  0.171300  0.124600  0.833900  1.0  0.0789
  H  H58  1  0.921000  0.106400  0.735300  1.0  0.0778
  H  H59  1  0.983700  0.138700  0.911500  1.0  0.0961
  H  H60  1  0.773900  0.210300  0.923600  1.0  0.1037
  H  H61  1  0.642900  0.224900  0.839000  1.0  0.0731
  H  H62  1  0.217000  0.941000  0.559600  1.0  0.0682
  H  H63  1  0.269200  0.062000  0.528900  1.0  0.085
  H  H64  1  0.174000  0.936600  0.437400  1.0  0.0779
  H  H65  1  0.511800  0.858100  0.515900  1.0  0.1047
  H  H66  1  0.567300  0.751900  0.429800  1.0  0.0899
  H  H67  1  0.422600  0.737200  0.351300  1.0  0.0639
  H  H68  1  0.838500  0.003200  0.191300  1.0  0.1072
  H  H69  1  0.689100  0.952100  0.358500  1.0  0.1148
  H  H70  1  0.056100  0.068100  0.340800  1.0  0.105
  H  H71  1  0.160100  0.190000  0.270700  1.0  0.0698
  H  H72  1  0.212700  0.054700  0.272500  1.0  0.0688
  H  H73  1  0.405300  0.207700  0.251300  1.0  0.0783
  H  H74  1  0.161400  0.086400  0.124100  1.0  0.1027
  H  H75  1  0.308200  0.151400  0.051200  1.0  0.1015
  H  H76  1  0.501200  0.233200  0.080700  1.0  0.0699
  H  H77  1  0.618500  0.010700  0.169600  1.0  0.0832
  H  H78  1  0.671300  0.875400  0.166100  1.0  0.0786
  H  H79  1  0.421000  0.893600  0.264700  1.0  0.0775
  H  H80  1  0.483700  0.861300  0.088500  1.0  0.0968
  H  H81  1  0.273900  0.789700  0.076400  1.0  0.1045
  H  H82  1  0.142900  0.775100  0.161000  1.0  0.0727
  H  H83  1  0.717000  0.059000  0.440400  1.0  0.0671
  H  H84  1  0.769200  0.938000  0.471100  1.0  0.0853
  H  H85  1  0.674000  0.063400  0.562600  1.0  0.0777
  H  H86  1  0.011800  0.141900  0.484100  1.0  0.1045
  H  H87  1  0.067300  0.248100  0.570200  1.0  0.0904
  H  H88  1  0.922600  0.262800  0.648700  1.0  0.0636
  C  C89  1  0.464400  0.541900  0.239100  1.0  0.2185
  C  C90  1  0.347400  0.504700  0.266200  1.0  -0.2064
  C  C91  1  0.248900  0.471300  0.230100  1.0  0.2454
  C  C92  1  0.258700  0.475100  0.166600  1.0  -0.2036
  C  C93  1  0.374400  0.513800  0.142800  1.0  0.2839
  C  C94  1  0.477200  0.544800  0.177230  1.0  -0.2134
  C  C95  1  0.675400  0.617200  0.253800  1.0  0.0114
  C  C96  1  0.884900  0.695600  0.289830  1.0  0.1273
  C  C97  1  0.766500  0.645400  0.304300  1.0  0.0237
  C  C98  1  0.739200  0.624700  0.364400  1.0  -0.081
  C  C99  1  0.826900  0.660800  0.407300  1.0  -0.1374
  C  C100  1  0.940900  0.710200  0.389400  1.0  0.1578
  C  C101  1  0.109500  0.429000  0.313470  1.0  0.0315
  C  C102  1  0.891200  0.371800  0.274200  1.0  0.0757
  C  C103  1  0.974800  0.384100  0.321800  1.0  0.061
  C  C104  1  0.929200  0.353500  0.377500  1.0  -0.055
  C  C105  1  0.805300  0.311500  0.385100  1.0  -0.1454
  C  C106  1  0.728700  0.302600  0.334400  1.0  0.1624
  C  C107  1  0.292700  0.520700  0.040640  1.0  0.0342
  C  C108  1  0.255000  0.602500  0.936500  1.0  0.162
  C  C109  1  0.334200  0.590600  0.986930  1.0  0.0653
  C  C110  1  0.453200  0.647000  0.983300  1.0  -0.0436
  C  C111  1  0.485900  0.710100  0.932600  1.0  -0.1079
  C  C112  1  0.399500  0.717800  0.885900  1.0  0.1604
  C  C113  1  0.964400  0.458100  0.760900  1.0  0.2189
  C  C114  1  0.847400  0.495300  0.733800  1.0  -0.2028
  C  C115  1  0.748900  0.528700  0.769900  1.0  0.2455
  C  C116  1  0.758700  0.524900  0.833400  1.0  -0.2043
  C  C117  1  0.874400  0.486200  0.857200  1.0  0.2839
  C  C118  1  0.977200  0.455200  0.822770  1.0  -0.2134
  C  C119  1  0.175400  0.382800  0.746200  1.0  0.0131
  C  C120  1  0.384900  0.304400  0.710170  1.0  0.125
  C  C121  1  0.266500  0.354600  0.695700  1.0  0.0236
  C  C122  1  0.239200  0.375300  0.635600  1.0  -0.0819
  C  C123  1  0.326900  0.339200  0.592700  1.0  -0.1385
  C  C124  1  0.440900  0.289800  0.610600  1.0  0.1574
  C  C125  1  0.609500  0.571000  0.686530  1.0  0.0312
  C  C126  1  0.391200  0.628200  0.725800  1.0  0.0751
  C  C127  1  0.474800  0.615900  0.678200  1.0  0.0602
  C  C128  1  0.429200  0.646500  0.622500  1.0  -0.0546
  C  C129  1  0.305300  0.688500  0.614900  1.0  -0.1457
  C  C130  1  0.228700  0.697400  0.665600  1.0  0.1617
  C  C131  1  0.792700  0.479300  0.959360  1.0  0.0352
  C  C132  1  0.755000  0.397500  0.063500  1.0  0.1627
  C  C133  1  0.834200  0.409400  0.013070  1.0  0.0647
  C  C134  1  0.953200  0.353000  0.016700  1.0  -0.0437
  C  C135  1  0.985900  0.289900  0.067400  1.0  -0.1098
  C  C136  1  0.899500  0.282200  0.114100  1.0  0.16
  C  C137  1  0.464400  0.958100  0.739100  1.0  0.2187
  C  C138  1  0.347400  0.995300  0.766200  1.0  -0.2064
  C  C139  1  0.248900  0.028700  0.730100  1.0  0.2455
  C  C140  1  0.258700  0.024900  0.666667  1.0  -0.1933
  C  C141  1  0.374400  0.986200  0.642800  1.0  0.2836
  C  C142  1  0.477200  0.955200  0.677230  1.0  -0.2131
  C  C143  1  0.675400  0.882800  0.753800  1.0  0.0111
  C  C144  1  0.884900  0.804400  0.789830  1.0  0.127
  C  C145  1  0.766500  0.854600  0.804300  1.0  0.0239
  C  C146  1  0.739200  0.875300  0.864400  1.0  -0.0813
  C  C147  1  0.826900  0.839200  0.907300  1.0  -0.1377
  C  C148  1  0.940900  0.789800  0.889400  1.0  0.1574
  C  C149  1  0.109500  0.071000  0.813470  1.0  0.032
  C  C150  1  0.891200  0.128200  0.774200  1.0  0.0754
  C  C151  1  0.974800  0.115900  0.821800  1.0  0.0611
  C  C152  1  0.929200  0.146500  0.877500  1.0  -0.0548
  C  C153  1  0.805300  0.188500  0.885100  1.0  -0.1454
  C  C154  1  0.728700  0.197400  0.834400  1.0  0.162
  C  C155  1  0.292700  0.979300  0.540640  1.0  0.0345
  C  C156  1  0.255000  0.897500  0.436500  1.0  0.1626
  C  C157  1  0.334200  0.909400  0.486930  1.0  0.0652
  C  C158  1  0.453200  0.853000  0.483300  1.0  -0.0442
  C  C159  1  0.485900  0.789900  0.432600  1.0  -0.1098
  C  C160  1  0.399500  0.782200  0.385900  1.0  0.1589
  C  C161  1  0.964400  0.041900  0.260900  1.0  0.2185
  C  C162  1  0.847400  0.004700  0.233800  1.0  -0.203
  C  C163  1  0.748900  0.971300  0.269900  1.0  0.2455
  C  C164  1  0.758700  0.975100  0.333400  1.0  -0.2042
  C  C165  1  0.874400  0.013800  0.357200  1.0  0.2839
  C  C166  1  0.977200  0.044800  0.322770  1.0  -0.2135
  C  C167  1  0.175400  0.117200  0.246200  1.0  0.0133
  C  C168  1  0.384900  0.195600  0.210170  1.0  0.1249
  C  C169  1  0.266500  0.145400  0.195700  1.0  0.0234
  C  C170  1  0.239200  0.124700  0.135600  1.0  -0.0824
  C  C171  1  0.326900  0.160800  0.092700  1.0  -0.1386
  C  C172  1  0.440900  0.210200  0.110600  1.0  0.1577
  C  C173  1  0.609500  0.929000  0.186530  1.0  0.031
  C  C174  1  0.391200  0.871800  0.225800  1.0  0.0752
  C  C175  1  0.474800  0.884100  0.178200  1.0  0.0599
  C  C176  1  0.429200  0.853500  0.122500  1.0  -0.0552
  C  C177  1  0.305300  0.811500  0.114900  1.0  -0.1456
  C  C178  1  0.228700  0.802600  0.165600  1.0  0.1621
  C  C179  1  0.792700  0.020700  0.459360  1.0  0.0347
  C  C180  1  0.755000  0.102500  0.563500  1.0  0.1621
  C  C181  1  0.834200  0.090600  0.513070  1.0  0.0646
  C  C182  1  0.953200  0.147000  0.516700  1.0  -0.0433
  C  C183  1  0.985900  0.210100  0.567400  1.0  -0.1083
  C  C184  1  0.899500  0.217800  0.614100  1.0  0.1599
  N  N185  1  0.971100  0.727700  0.331290  1.0  -0.3638
  N  N186  1  0.770300  0.331000  0.279160  1.0  -0.3615
  N  N187  1  0.284400  0.664500  0.887170  1.0  -0.366
  N  N188  1  0.471100  0.272300  0.668710  1.0  -0.3631
  N  N189  1  0.270300  0.669000  0.720840  1.0  -0.3595
  N  N190  1  0.784400  0.335500  0.112830  1.0  -0.3645
  N  N191  1  0.971100  0.772300  0.831290  1.0  -0.363
  N  N192  1  0.770300  0.169000  0.779160  1.0  -0.3604
  N  N193  1  0.284400  0.835500  0.387170  1.0  -0.3658
  N  N194  1  0.471100  0.227700  0.168710  1.0  -0.3641
  N  N195  1  0.270300  0.831000  0.220840  1.0  -0.3597
  N  N196  1  0.784400  0.164500  0.612830  1.0  -0.3652
  Cl  Cl197  1  0.387260  0.215600  0.409200  1.0  1.5756
  Cl  Cl198  1  0.887260  0.784400  0.590800  1.0  1.5765
  Cl  Cl199  1  0.387260  0.284400  0.909200  1.0  1.5764
  Cl  Cl200  1  0.887260  0.715600  0.090800  1.0  1.5754
  O  O201  1  0.558400  0.576200  0.278480  1.0  -0.2735
  O  O202  1  0.133000  0.430500  0.249880  1.0  -0.2711
  O  O203  1  0.397100  0.519200  0.080970  1.0  -0.2738
  O  O204  1  0.058400  0.423800  0.721520  1.0  -0.273
  O  O205  1  0.633000  0.569500  0.750120  1.0  -0.2704
  O  O206  1  0.897100  0.480800  0.919030  1.0  -0.2745
  O  O207  1  0.558400  0.923800  0.778480  1.0  -0.2741
  O  O208  1  0.133000  0.069500  0.749880  1.0  -0.2715
  O  O209  1  0.397100  0.980800  0.580970  1.0  -0.2745
  O  O210  1  0.058400  0.076200  0.221520  1.0  -0.2739
  O  O211  1  0.633000  0.930500  0.250120  1.0  -0.2703
  O  O212  1  0.897100  0.019200  0.419030  1.0  -0.2743
  O  O213  1  0.409900  0.332400  0.388700  1.0  -0.6194
  O  O214  1  0.414500  0.133500  0.363100  1.0  -0.5746
  O  O215  1  0.259100  0.203100  0.428900  1.0  -0.5807
  O  O216  1  0.469800  0.190200  0.455700  1.0  -0.6044
  O  O217  1  0.909900  0.667600  0.611300  1.0  -0.6174
  O  O218  1  0.914500  0.866500  0.636900  1.0  -0.5751
  O  O219  1  0.759100  0.796900  0.571100  1.0  -0.5797
  O  O220  1  0.969800  0.809800  0.544300  1.0  -0.6036
  O  O221  1  0.409900  0.167600  0.888700  1.0  -0.6184
  O  O222  1  0.414500  0.366500  0.863100  1.0  -0.5756
  O  O223  1  0.259100  0.296900  0.928900  1.0  -0.5807
  O  O224  1  0.469800  0.309800  0.955700  1.0  -0.6046
  O  O225  1  0.909900  0.832400  0.111300  1.0  -0.6201
  O  O226  1  0.914500  0.633500  0.136900  1.0  -0.5747
  O  O227  1  0.759100  0.703100  0.071100  1.0  -0.5798
  O  O228  1  0.969800  0.690200  0.044300  1.0  -0.6032
