# generated using pymatgen
data_Zn3H33C35N11O18
_symmetry_space_group_name_H-M   'P 1'
_cell_length_a   13.03600000
_cell_length_b   12.29480000
_cell_length_c   18.70550000
_cell_angle_alpha   90.00000000
_cell_angle_beta   123.01900000
_cell_angle_gamma   90.00000000
_symmetry_Int_Tables_number   1
_chemical_formula_structural   Zn3H33C35N11O18
_chemical_formula_sum   'Zn6 H66 C70 N22 O36'
_cell_volume   2513.81309325
_cell_formula_units_Z   2
loop_
 _symmetry_equiv_pos_site_id
 _symmetry_equiv_pos_as_xyz
  1  'x, y, z'
loop_
 _atom_site_type_symbol
 _atom_site_label
 _atom_site_symmetry_multiplicity
 _atom_site_fract_x
 _atom_site_fract_y
 _atom_site_fract_z
 _atom_site_occupancy
 _atom_site_charge
  Zn  Zn1  1  0.599930  0.692520  0.126250  1.0  0.9184
  Zn  Zn2  1  0.400070  0.692520  0.373750  1.0  0.9196
  Zn  Zn3  1  0.400070  0.307480  0.873750  1.0  0.9194
  Zn  Zn4  1  0.599930  0.307480  0.626250  1.0  0.9176
  Zn  Zn5  1  0.500000  0.686970  0.250000  1.0  0.984
  Zn  Zn6  1  0.500000  0.313030  0.750000  1.0  0.9839
  H  H7  1  0.637400  0.520500  0.010200  1.0  0.1158
  H  H8  1  0.601800  0.566100  0.871200  1.0  0.1274
  H  H9  1  0.529400  0.826600  0.962500  1.0  0.109
  H  H10  1  0.558400  0.930800  0.873800  1.0  0.1372
  H  H11  1  0.754500  0.368400  0.186200  1.0  0.1029
  H  H12  1  0.870500  0.438100  0.248200  1.0  0.0975
  H  H13  1  0.817000  0.440600  0.348000  1.0  0.1324
  H  H14  1  0.704100  0.365600  0.289500  1.0  0.1023
  H  H15  1  0.234400  0.261800  0.418200  1.0  0.1018
  H  H16  1  0.239100  0.134600  0.422700  1.0  0.0981
  H  H17  1  0.219200  0.266200  0.539600  1.0  0.1011
  H  H18  1  0.230000  0.138300  0.545100  1.0  0.1052
  H  H19  1  0.891800  0.936100  0.256700  1.0  0.1003
  H  H20  1  0.767200  0.996800  0.198300  1.0  0.1001
  H  H21  1  0.854700  0.915100  0.363200  1.0  0.1215
  H  H22  1  0.739900  0.991600  0.315800  1.0  0.1067
  H  H23  1  0.362600  0.520500  0.489800  1.0  0.1158
  H  H24  1  0.398200  0.566100  0.628800  1.0  0.1274
  H  H25  1  0.470600  0.826600  0.537500  1.0  0.1088
  H  H26  1  0.441600  0.930800  0.626200  1.0  0.1368
  H  H27  1  0.245500  0.368400  0.313800  1.0  0.1015
  H  H28  1  0.129500  0.438100  0.251800  1.0  0.097
  H  H29  1  0.183000  0.440600  0.152000  1.0  0.1315
  H  H30  1  0.295900  0.365600  0.210500  1.0  0.1016
  H  H31  1  0.765600  0.261800  0.081800  1.0  0.1016
  H  H32  1  0.760900  0.134600  0.077300  1.0  0.0988
  H  H33  1  0.780800  0.266200  0.960400  1.0  0.1025
  H  H34  1  0.770000  0.138300  0.954900  1.0  0.1052
  H  H35  1  0.108200  0.936100  0.243300  1.0  0.1008
  H  H36  1  0.232800  0.996800  0.301700  1.0  0.1014
  H  H37  1  0.145300  0.915100  0.136800  1.0  0.122
  H  H38  1  0.260100  0.991600  0.184200  1.0  0.1066
  H  H39  1  0.362600  0.479500  0.989800  1.0  0.1161
  H  H40  1  0.398200  0.433900  0.128800  1.0  0.1272
  H  H41  1  0.470600  0.173400  0.037500  1.0  0.1085
  H  H42  1  0.441600  0.069200  0.126200  1.0  0.1366
  H  H43  1  0.245500  0.631600  0.813800  1.0  0.1025
  H  H44  1  0.129500  0.561900  0.751800  1.0  0.0975
  H  H45  1  0.183000  0.559400  0.652000  1.0  0.1319
  H  H46  1  0.295900  0.634400  0.710500  1.0  0.102
  H  H47  1  0.765600  0.738200  0.581800  1.0  0.1012
  H  H48  1  0.760900  0.865400  0.577300  1.0  0.0978
  H  H49  1  0.780800  0.733800  0.460400  1.0  0.1024
  H  H50  1  0.770000  0.861700  0.454900  1.0  0.1049
  H  H51  1  0.108200  0.063900  0.743300  1.0  0.1006
  H  H52  1  0.232800  0.003200  0.801700  1.0  0.1008
  H  H53  1  0.145300  0.084900  0.636800  1.0  0.1218
  H  H54  1  0.260100  0.008400  0.684200  1.0  0.1066
  H  H55  1  0.637400  0.479500  0.510200  1.0  0.1156
  H  H56  1  0.601800  0.433900  0.371200  1.0  0.1275
  H  H57  1  0.529400  0.173400  0.462500  1.0  0.109
  H  H58  1  0.558400  0.069200  0.373800  1.0  0.1372
  H  H59  1  0.754500  0.631600  0.686200  1.0  0.1024
  H  H60  1  0.870500  0.561900  0.748200  1.0  0.0969
  H  H61  1  0.817000  0.559400  0.848000  1.0  0.1324
  H  H62  1  0.704100  0.634400  0.789500  1.0  0.1018
  H  H63  1  0.234400  0.738200  0.918200  1.0  0.1012
  H  H64  1  0.239100  0.865400  0.922700  1.0  0.0979
  H  H65  1  0.219200  0.733800  0.039600  1.0  0.1023
  H  H66  1  0.230000  0.861700  0.045100  1.0  0.1037
  H  H67  1  0.891800  0.063900  0.756700  1.0  0.1011
  H  H68  1  0.767200  0.003200  0.698300  1.0  0.0999
  H  H69  1  0.854700  0.084900  0.863200  1.0  0.1215
  H  H70  1  0.739900  0.008400  0.815800  1.0  0.1068
  H  H71  1  0.500000  0.028500  0.750000  1.0  0.1175
  H  H72  1  0.500000  0.971500  0.250000  1.0  0.1175
  C  C73  1  0.611300  0.587600  0.983000  1.0  0.0495
  C  C74  1  0.592700  0.612400  0.906700  1.0  -0.1037
  C  C75  1  0.552600  0.756700  0.958000  1.0  0.1676
  C  C76  1  0.529300  0.784100  0.818200  1.0  0.3746
  C  C77  1  0.533600  0.895200  0.823000  1.0  -0.1609
  C  C78  1  0.823100  0.185700  0.256700  1.0  0.4803
  C  C79  1  0.008500  0.291600  0.346700  1.0  0.6339
  C  C80  1  0.018900  0.093600  0.351600  1.0  0.5684
  C  C81  1  0.816300  0.382100  0.245800  1.0  0.0558
  C  C82  1  0.755000  0.422900  0.289200  1.0  -0.3527
  C  C83  1  0.677300  0.522000  0.246100  1.0  0.7548
  C  C84  1  0.205000  0.198400  0.432800  1.0  0.0055
  C  C85  1  0.252600  0.203500  0.527600  1.0  -0.2446
  C  C86  1  0.389800  0.212500  0.573800  1.0  0.7184
  C  C87  1  0.834900  0.986700  0.256800  1.0  0.0467
  C  C88  1  0.786600  0.937400  0.307500  1.0  -0.3523
  C  C89  1  0.706200  0.840100  0.261300  1.0  0.7476
  C  C90  1  0.388700  0.587600  0.517000  1.0  0.0497
  C  C91  1  0.407300  0.612400  0.593300  1.0  -0.1054
  C  C92  1  0.447400  0.756700  0.542000  1.0  0.1673
  C  C93  1  0.470700  0.784100  0.681800  1.0  0.3743
  C  C94  1  0.466400  0.895200  0.677000  1.0  -0.1588
  C  C95  1  0.176900  0.185700  0.243300  1.0  0.4844
  C  C96  1  0.991500  0.291600  0.153300  1.0  0.6263
  C  C97  1  0.981100  0.093600  0.148400  1.0  0.5614
  C  C98  1  0.183700  0.382100  0.254200  1.0  0.0576
  C  C99  1  0.245000  0.422900  0.210800  1.0  -0.3535
  C  C100  1  0.322700  0.522000  0.253900  1.0  0.7533
  C  C101  1  0.795000  0.198400  0.067200  1.0  0.0058
  C  C102  1  0.747400  0.203500  0.972400  1.0  -0.2447
  C  C103  1  0.610200  0.212500  0.926200  1.0  0.7176
  C  C104  1  0.165100  0.986700  0.243200  1.0  0.0461
  C  C105  1  0.213400  0.937400  0.192500  1.0  -0.3536
  C  C106  1  0.293800  0.840100  0.238700  1.0  0.7488
  C  C107  1  0.388700  0.412400  0.017000  1.0  0.0498
  C  C108  1  0.407300  0.387600  0.093300  1.0  -0.1051
  C  C109  1  0.447400  0.243300  0.042000  1.0  0.1671
  C  C110  1  0.470700  0.215900  0.181800  1.0  0.3746
  C  C111  1  0.466400  0.104800  0.177000  1.0  -0.1599
  C  C112  1  0.176900  0.814300  0.743300  1.0  0.4845
  C  C113  1  0.991500  0.708400  0.653300  1.0  0.6278
  C  C114  1  0.981100  0.906400  0.648400  1.0  0.561
  C  C115  1  0.183700  0.617900  0.754200  1.0  0.0562
  C  C116  1  0.245000  0.577100  0.710800  1.0  -0.3534
  C  C117  1  0.322700  0.478000  0.753900  1.0  0.7531
  C  C118  1  0.795000  0.801600  0.567200  1.0  0.0057
  C  C119  1  0.747400  0.796500  0.472400  1.0  -0.2447
  C  C120  1  0.610200  0.787500  0.426200  1.0  0.7175
  C  C121  1  0.165100  0.013300  0.743200  1.0  0.0454
  C  C122  1  0.213400  0.062600  0.692500  1.0  -0.3539
  C  C123  1  0.293800  0.159900  0.738700  1.0  0.7485
  C  C124  1  0.611300  0.412400  0.483000  1.0  0.0502
  C  C125  1  0.592700  0.387600  0.406700  1.0  -0.1036
  C  C126  1  0.552600  0.243300  0.458000  1.0  0.1676
  C  C127  1  0.529300  0.215900  0.318200  1.0  0.3747
  C  C128  1  0.533600  0.104800  0.323000  1.0  -0.161
  C  C129  1  0.823100  0.814300  0.756700  1.0  0.4804
  C  C130  1  0.008500  0.708400  0.846700  1.0  0.6352
  C  C131  1  0.018900  0.906400  0.851600  1.0  0.5681
  C  C132  1  0.816300  0.617900  0.745800  1.0  0.0554
  C  C133  1  0.755000  0.577100  0.789200  1.0  -0.3511
  C  C134  1  0.677300  0.478000  0.746100  1.0  0.7545
  C  C135  1  0.205000  0.801600  0.932800  1.0  0.0054
  C  C136  1  0.252600  0.796500  0.027600  1.0  -0.2445
  C  C137  1  0.389800  0.787500  0.073800  1.0  0.7182
  C  C138  1  0.834900  0.013300  0.756800  1.0  0.0457
  C  C139  1  0.786600  0.062600  0.807500  1.0  -0.3534
  C  C140  1  0.706200  0.159900  0.761300  1.0  0.7482
  C  C141  1  0.500000  0.952800  0.750000  1.0  -0.0623
  C  C142  1  0.500000  0.047200  0.250000  1.0  -0.0617
  N  N143  1  0.584800  0.680000  0.015000  1.0  -0.3527
  N  N144  1  0.557500  0.720600  0.891600  1.0  0.0499
  N  N145  1  0.886600  0.282800  0.284100  1.0  -0.322
  N  N146  1  0.072100  0.194300  0.376200  1.0  -0.309
  N  N147  1  0.896200  0.090700  0.290800  1.0  -0.327
  N  N148  1  0.415200  0.680000  0.485000  1.0  -0.3513
  N  N149  1  0.442500  0.720600  0.608400  1.0  0.0503
  N  N150  1  0.113400  0.282800  0.215900  1.0  -0.3212
  N  N151  1  0.927900  0.194300  0.123800  1.0  -0.3097
  N  N152  1  0.103800  0.090700  0.209200  1.0  -0.3269
  N  N153  1  0.415200  0.320000  0.985000  1.0  -0.3511
  N  N154  1  0.442500  0.279400  0.108400  1.0  0.0503
  N  N155  1  0.113400  0.717200  0.715900  1.0  -0.3217
  N  N156  1  0.927900  0.805700  0.623800  1.0  -0.3098
  N  N157  1  0.103800  0.909300  0.709200  1.0  -0.3263
  N  N158  1  0.584800  0.320000  0.515000  1.0  -0.3528
  N  N159  1  0.557500  0.279400  0.391600  1.0  0.0496
  N  N160  1  0.886600  0.717200  0.784100  1.0  -0.3219
  N  N161  1  0.072100  0.805700  0.876200  1.0  -0.309
  N  N162  1  0.896200  0.909300  0.790800  1.0  -0.3268
  N  N163  1  0.500000  0.728700  0.750000  1.0  -0.4714
  N  N164  1  0.500000  0.271300  0.250000  1.0  -0.4703
  O  O165  1  0.626200  0.567200  0.278300  1.0  -0.5931
  O  O166  1  0.670500  0.552100  0.179300  1.0  -0.5746
  O  O167  1  0.448200  0.144700  0.563600  1.0  -0.5404
  O  O168  1  0.441400  0.301800  0.618600  1.0  -0.6777
  O  O169  1  0.629700  0.810100  0.279200  1.0  -0.6064
  O  O170  1  0.720900  0.794600  0.206900  1.0  -0.5827
  O  O171  1  0.715000  0.180800  0.206200  1.0  -0.4846
  O  O172  1  0.058000  0.378400  0.371900  1.0  -0.5058
  O  O173  1  0.077300  0.011100  0.381500  1.0  -0.5197
  O  O174  1  0.373800  0.567200  0.221700  1.0  -0.5916
  O  O175  1  0.329500  0.552100  0.320700  1.0  -0.5747
  O  O176  1  0.551800  0.144700  0.936400  1.0  -0.5395
  O  O177  1  0.558600  0.301800  0.881400  1.0  -0.6769
  O  O178  1  0.370300  0.810100  0.220800  1.0  -0.6063
  O  O179  1  0.279100  0.794600  0.293100  1.0  -0.5824
  O  O180  1  0.285000  0.180800  0.293800  1.0  -0.4854
  O  O181  1  0.942000  0.378400  0.128100  1.0  -0.5054
  O  O182  1  0.922700  0.011100  0.118500  1.0  -0.5203
  O  O183  1  0.373800  0.432800  0.721700  1.0  -0.5919
  O  O184  1  0.329500  0.447900  0.820700  1.0  -0.5738
  O  O185  1  0.551800  0.855300  0.436400  1.0  -0.5397
  O  O186  1  0.558600  0.698200  0.381400  1.0  -0.6768
  O  O187  1  0.370300  0.189900  0.720800  1.0  -0.6069
  O  O188  1  0.279100  0.205400  0.793100  1.0  -0.5831
  O  O189  1  0.285000  0.819200  0.793800  1.0  -0.4853
  O  O190  1  0.942000  0.621600  0.628100  1.0  -0.5068
  O  O191  1  0.922700  0.988900  0.618500  1.0  -0.5201
  O  O192  1  0.626200  0.432800  0.778300  1.0  -0.5933
  O  O193  1  0.670500  0.447900  0.679300  1.0  -0.5746
  O  O194  1  0.448200  0.855300  0.063600  1.0  -0.5391
  O  O195  1  0.441400  0.698200  0.118600  1.0  -0.6775
  O  O196  1  0.629700  0.189900  0.779200  1.0  -0.6071
  O  O197  1  0.720900  0.205400  0.706900  1.0  -0.5832
  O  O198  1  0.715000  0.819200  0.706200  1.0  -0.4847
  O  O199  1  0.058000  0.621600  0.871900  1.0  -0.5071
  O  O200  1  0.077300  0.988900  0.881500  1.0  -0.5187
