# generated using pymatgen
data_ErCoH7C12(NO2)4
_symmetry_space_group_name_H-M   'P 1'
_cell_length_a   24.04310000
_cell_length_b   9.05160000
_cell_length_c   18.75940000
_cell_angle_alpha   90.00000000
_cell_angle_beta   114.50600000
_cell_angle_gamma   90.00000000
_symmetry_Int_Tables_number   1
_chemical_formula_structural   ErCoH7C12(NO2)4
_chemical_formula_sum   'Er8 Co8 H56 C96 N32 O64'
_cell_volume   3714.81285684
_cell_formula_units_Z   8
loop_
 _symmetry_equiv_pos_site_id
 _symmetry_equiv_pos_as_xyz
  1  'x, y, z'
loop_
 _atom_site_type_symbol
 _atom_site_label
 _atom_site_symmetry_multiplicity
 _atom_site_fract_x
 _atom_site_fract_y
 _atom_site_fract_z
 _atom_site_occupancy
 _atom_site_charge
  Er  Er1  1  0.457150  0.693340  0.504150  1.0  1.5303
  Er  Er2  1  0.957150  0.193340  0.504150  1.0  1.5303
  Er  Er3  1  0.542850  0.693340  0.995850  1.0  1.5309
  Er  Er4  1  0.042850  0.193340  0.995850  1.0  1.5309
  Er  Er5  1  0.542850  0.306660  0.495850  1.0  1.5302
  Er  Er6  1  0.042850  0.806660  0.495850  1.0  1.5302
  Er  Er7  1  0.457150  0.306660  0.004150  1.0  1.53
  Er  Er8  1  0.957150  0.806660  0.004150  1.0  1.53
  Co  Co9  1  0.288230  0.509290  0.162190  1.0  1.0321
  Co  Co10  1  0.788230  0.009290  0.162190  1.0  1.0321
  Co  Co11  1  0.711770  0.509290  0.337810  1.0  1.037
  Co  Co12  1  0.211770  0.009290  0.337810  1.0  1.037
  Co  Co13  1  0.711770  0.490710  0.837810  1.0  1.0358
  Co  Co14  1  0.211770  0.990710  0.837810  1.0  1.0358
  Co  Co15  1  0.288230  0.490710  0.662190  1.0  1.0319
  Co  Co16  1  0.788230  0.990710  0.662190  1.0  1.0319
  H  H17  1  0.632400  0.908100  0.461300  1.0  0.3181
  H  H18  1  0.145300  0.648600  0.162200  1.0  0.1495
  H  H19  1  0.162800  0.778300  0.120100  1.0  0.1284
  H  H20  1  0.136800  0.812900  0.182300  1.0  0.1666
  H  H21  1  0.758300  0.885100  0.416600  1.0  0.1333
  H  H22  1  0.715400  0.004300  0.428100  1.0  0.1391
  H  H23  1  0.699100  0.936300  0.345000  1.0  0.1406
  H  H24  1  0.132400  0.408100  0.461300  1.0  0.3181
  H  H25  1  0.645300  0.148600  0.162200  1.0  0.1495
  H  H26  1  0.662800  0.278300  0.120100  1.0  0.1284
  H  H27  1  0.636800  0.312900  0.182300  1.0  0.1666
  H  H28  1  0.258300  0.385100  0.416600  1.0  0.1333
  H  H29  1  0.215400  0.504300  0.428100  1.0  0.1391
  H  H30  1  0.199100  0.436300  0.345000  1.0  0.1406
  H  H31  1  0.367600  0.908100  0.038700  1.0  0.316
  H  H32  1  0.854700  0.648600  0.337800  1.0  0.1503
  H  H33  1  0.837200  0.778300  0.379900  1.0  0.1292
  H  H34  1  0.863200  0.812900  0.317700  1.0  0.1669
  H  H35  1  0.241700  0.885100  0.083400  1.0  0.1333
  H  H36  1  0.284600  0.004300  0.071900  1.0  0.1393
  H  H37  1  0.300900  0.936300  0.155000  1.0  0.1412
  H  H38  1  0.867600  0.408100  0.038700  1.0  0.316
  H  H39  1  0.354700  0.148600  0.337800  1.0  0.1503
  H  H40  1  0.337200  0.278300  0.379900  1.0  0.1292
  H  H41  1  0.363200  0.312900  0.317700  1.0  0.1669
  H  H42  1  0.741700  0.385100  0.083400  1.0  0.1333
  H  H43  1  0.784600  0.504300  0.071900  1.0  0.1393
  H  H44  1  0.800900  0.436300  0.155000  1.0  0.1412
  H  H45  1  0.367600  0.091900  0.538700  1.0  0.3167
  H  H46  1  0.854700  0.351400  0.837800  1.0  0.1511
  H  H47  1  0.837200  0.221700  0.879900  1.0  0.1291
  H  H48  1  0.863200  0.187100  0.817700  1.0  0.1665
  H  H49  1  0.241700  0.114900  0.583400  1.0  0.1335
  H  H50  1  0.284600  0.995700  0.571900  1.0  0.1385
  H  H51  1  0.300900  0.063700  0.655000  1.0  0.1412
  H  H52  1  0.867600  0.591900  0.538700  1.0  0.3167
  H  H53  1  0.354700  0.851400  0.837800  1.0  0.1511
  H  H54  1  0.337200  0.721700  0.879900  1.0  0.1291
  H  H55  1  0.363200  0.687100  0.817700  1.0  0.1665
  H  H56  1  0.741700  0.614900  0.583400  1.0  0.1335
  H  H57  1  0.784600  0.495700  0.571900  1.0  0.1385
  H  H58  1  0.800900  0.563700  0.655000  1.0  0.1412
  H  H59  1  0.632400  0.091900  0.961300  1.0  0.3188
  H  H60  1  0.145300  0.351400  0.662200  1.0  0.1502
  H  H61  1  0.162800  0.221700  0.620100  1.0  0.1285
  H  H62  1  0.136800  0.187100  0.682300  1.0  0.1664
  H  H63  1  0.758300  0.114900  0.916600  1.0  0.1332
  H  H64  1  0.715400  0.995700  0.928100  1.0  0.139
  H  H65  1  0.699100  0.063700  0.845000  1.0  0.1408
  H  H66  1  0.132400  0.591900  0.961300  1.0  0.3188
  H  H67  1  0.645300  0.851400  0.662200  1.0  0.1502
  H  H68  1  0.662800  0.721700  0.620100  1.0  0.1285
  H  H69  1  0.636800  0.687100  0.682300  1.0  0.1664
  H  H70  1  0.258300  0.614900  0.916600  1.0  0.1332
  H  H71  1  0.215400  0.495700  0.928100  1.0  0.139
  H  H72  1  0.199100  0.563700  0.845000  1.0  0.1408
  C  C73  1  0.375900  0.618900  0.311300  1.0  0.713
  C  C74  1  0.318900  0.698200  0.296600  1.0  0.0264
  C  C75  1  0.301700  0.801700  0.336400  1.0  0.0424
  C  C76  1  0.333900  0.890600  0.406500  1.0  0.6809
  C  C77  1  0.224800  0.747000  0.231100  1.0  0.4707
  C  C78  1  0.161900  0.746700  0.168400  1.0  -0.4377
  C  C79  1  0.565500  0.686200  0.479800  1.0  0.6841
  C  C80  1  0.617000  0.690700  0.456800  1.0  0.0121
  C  C81  1  0.644600  0.588000  0.430000  1.0  0.0697
  C  C82  1  0.641900  0.425700  0.424500  1.0  0.7082
  C  C83  1  0.681000  0.797100  0.417200  1.0  0.3964
  C  C84  1  0.716600  0.916400  0.400200  1.0  -0.4151
  C  C85  1  0.875900  0.118900  0.311300  1.0  0.713
  C  C86  1  0.818900  0.198200  0.296600  1.0  0.0264
  C  C87  1  0.801700  0.301700  0.336400  1.0  0.0424
  C  C88  1  0.833900  0.390600  0.406500  1.0  0.6809
  C  C89  1  0.724800  0.247000  0.231100  1.0  0.4707
  C  C90  1  0.661900  0.246700  0.168400  1.0  -0.4377
  C  C91  1  0.065500  0.186200  0.479800  1.0  0.6841
  C  C92  1  0.117000  0.190700  0.456800  1.0  0.0121
  C  C93  1  0.144600  0.088000  0.430000  1.0  0.0697
  C  C94  1  0.141900  0.925700  0.424500  1.0  0.7082
  C  C95  1  0.181000  0.297100  0.417200  1.0  0.3964
  C  C96  1  0.216600  0.416400  0.400200  1.0  -0.4151
  C  C97  1  0.624100  0.618900  0.188700  1.0  0.7136
  C  C98  1  0.681100  0.698200  0.203400  1.0  0.0264
  C  C99  1  0.698300  0.801700  0.163600  1.0  0.0417
  C  C100  1  0.666100  0.890600  0.093500  1.0  0.6806
  C  C101  1  0.775200  0.747000  0.268900  1.0  0.4721
  C  C102  1  0.838100  0.746700  0.331600  1.0  -0.4376
  C  C103  1  0.434500  0.686200  0.020200  1.0  0.6854
  C  C104  1  0.383000  0.690700  0.043200  1.0  0.0154
  C  C105  1  0.355400  0.588000  0.070000  1.0  0.0705
  C  C106  1  0.358100  0.425700  0.075500  1.0  0.7093
  C  C107  1  0.319000  0.797100  0.082800  1.0  0.3984
  C  C108  1  0.283400  0.916400  0.099800  1.0  -0.4157
  C  C109  1  0.124100  0.118900  0.188700  1.0  0.7136
  C  C110  1  0.181100  0.198200  0.203400  1.0  0.0264
  C  C111  1  0.198300  0.301700  0.163600  1.0  0.0417
  C  C112  1  0.166100  0.390600  0.093500  1.0  0.6806
  C  C113  1  0.275200  0.247000  0.268900  1.0  0.4721
  C  C114  1  0.338100  0.246700  0.331600  1.0  -0.4376
  C  C115  1  0.934500  0.186200  0.020200  1.0  0.6854
  C  C116  1  0.883000  0.190700  0.043200  1.0  0.0154
  C  C117  1  0.855400  0.088000  0.070000  1.0  0.0705
  C  C118  1  0.858100  0.925700  0.075500  1.0  0.7093
  C  C119  1  0.819000  0.297100  0.082800  1.0  0.3984
  C  C120  1  0.783400  0.416400  0.099800  1.0  -0.4157
  C  C121  1  0.624100  0.381100  0.688700  1.0  0.7136
  C  C122  1  0.681100  0.301800  0.703400  1.0  0.0262
  C  C123  1  0.698300  0.198300  0.663600  1.0  0.0417
  C  C124  1  0.666100  0.109400  0.593500  1.0  0.68
  C  C125  1  0.775200  0.253000  0.768900  1.0  0.4723
  C  C126  1  0.838100  0.253300  0.831600  1.0  -0.4379
  C  C127  1  0.434500  0.313800  0.520200  1.0  0.6872
  C  C128  1  0.383000  0.309300  0.543200  1.0  0.0153
  C  C129  1  0.355400  0.412000  0.570000  1.0  0.0697
  C  C130  1  0.358100  0.574300  0.575500  1.0  0.7111
  C  C131  1  0.319000  0.202900  0.582800  1.0  0.3982
  C  C132  1  0.283400  0.083600  0.599800  1.0  -0.4155
  C  C133  1  0.124100  0.881100  0.688700  1.0  0.7136
  C  C134  1  0.181100  0.801800  0.703400  1.0  0.0262
  C  C135  1  0.198300  0.698300  0.663600  1.0  0.0417
  C  C136  1  0.166100  0.609400  0.593500  1.0  0.68
  C  C137  1  0.275200  0.753000  0.768900  1.0  0.4723
  C  C138  1  0.338100  0.753300  0.831600  1.0  -0.4379
  C  C139  1  0.934500  0.813800  0.520200  1.0  0.6872
  C  C140  1  0.883000  0.809300  0.543200  1.0  0.0153
  C  C141  1  0.855400  0.912000  0.570000  1.0  0.0697
  C  C142  1  0.858100  0.074300  0.575500  1.0  0.7111
  C  C143  1  0.819000  0.702900  0.582800  1.0  0.3982
  C  C144  1  0.783400  0.583600  0.599800  1.0  -0.4155
  C  C145  1  0.375900  0.381100  0.811300  1.0  0.7129
  C  C146  1  0.318900  0.301800  0.796600  1.0  0.0265
  C  C147  1  0.301700  0.198300  0.836400  1.0  0.0425
  C  C148  1  0.333900  0.109400  0.906500  1.0  0.68
  C  C149  1  0.224800  0.253000  0.731100  1.0  0.4708
  C  C150  1  0.161900  0.253300  0.668400  1.0  -0.4381
  C  C151  1  0.565500  0.313800  0.979800  1.0  0.6856
  C  C152  1  0.617000  0.309300  0.956800  1.0  0.0126
  C  C153  1  0.644600  0.412000  0.930000  1.0  0.0702
  C  C154  1  0.641900  0.574300  0.924500  1.0  0.7124
  C  C155  1  0.681000  0.202900  0.917200  1.0  0.3964
  C  C156  1  0.716600  0.083600  0.900200  1.0  -0.4175
  C  C157  1  0.875900  0.881100  0.811300  1.0  0.7129
  C  C158  1  0.818900  0.801800  0.796600  1.0  0.0265
  C  C159  1  0.801700  0.698300  0.836400  1.0  0.0425
  C  C160  1  0.833900  0.609400  0.906500  1.0  0.68
  C  C161  1  0.724800  0.753000  0.731100  1.0  0.4708
  C  C162  1  0.661900  0.753300  0.668400  1.0  -0.4381
  C  C163  1  0.065500  0.813800  0.979800  1.0  0.6856
  C  C164  1  0.117000  0.809300  0.956800  1.0  0.0126
  C  C165  1  0.144600  0.912000  0.930000  1.0  0.0702
  C  C166  1  0.141900  0.074300  0.924500  1.0  0.7124
  C  C167  1  0.181000  0.702900  0.917200  1.0  0.3964
  C  C168  1  0.216600  0.583600  0.900200  1.0  -0.4175
  N  N169  1  0.269800  0.662200  0.230500  1.0  -0.4289
  N  N170  1  0.241500  0.834500  0.293700  1.0  -0.496
  N  N171  1  0.641200  0.823000  0.448500  1.0  -0.2266
  N  N172  1  0.684000  0.654700  0.404500  1.0  -0.4309
  N  N173  1  0.769800  0.162200  0.230500  1.0  -0.4289
  N  N174  1  0.741500  0.334500  0.293700  1.0  -0.496
  N  N175  1  0.141200  0.323000  0.448500  1.0  -0.2266
  N  N176  1  0.184000  0.154700  0.404500  1.0  -0.4309
  N  N177  1  0.730200  0.662200  0.269500  1.0  -0.4272
  N  N178  1  0.758500  0.834500  0.206300  1.0  -0.4948
  N  N179  1  0.358800  0.823000  0.051500  1.0  -0.2259
  N  N180  1  0.316000  0.654700  0.095500  1.0  -0.4304
  N  N181  1  0.230200  0.162200  0.269500  1.0  -0.4272
  N  N182  1  0.258500  0.334500  0.206300  1.0  -0.4948
  N  N183  1  0.858800  0.323000  0.051500  1.0  -0.2259
  N  N184  1  0.816000  0.154700  0.095500  1.0  -0.4304
  N  N185  1  0.730200  0.337800  0.769500  1.0  -0.427
  N  N186  1  0.758500  0.165500  0.706300  1.0  -0.4951
  N  N187  1  0.358800  0.177000  0.551500  1.0  -0.2257
  N  N188  1  0.316000  0.345300  0.595500  1.0  -0.4318
  N  N189  1  0.230200  0.837800  0.769500  1.0  -0.427
  N  N190  1  0.258500  0.665500  0.706300  1.0  -0.4951
  N  N191  1  0.858800  0.677000  0.551500  1.0  -0.2257
  N  N192  1  0.816000  0.845300  0.595500  1.0  -0.4318
  N  N193  1  0.269800  0.337800  0.730500  1.0  -0.4289
  N  N194  1  0.241500  0.165500  0.793700  1.0  -0.4957
  N  N195  1  0.641200  0.177000  0.948500  1.0  -0.2251
  N  N196  1  0.684000  0.345300  0.904500  1.0  -0.4315
  N  N197  1  0.769800  0.837800  0.730500  1.0  -0.4289
  N  N198  1  0.741500  0.665500  0.793700  1.0  -0.4957
  N  N199  1  0.141200  0.677000  0.948500  1.0  -0.2251
  N  N200  1  0.184000  0.845300  0.904500  1.0  -0.4315
  O  O201  1  0.421500  0.627400  0.376800  1.0  -0.6907
  O  O202  1  0.376800  0.538800  0.258000  1.0  -0.5539
  O  O203  1  0.391200  0.874300  0.445000  1.0  -0.6931
  O  O204  1  0.302900  0.979300  0.425600  1.0  -0.5321
  O  O205  1  0.539600  0.804400  0.481600  1.0  -0.604
  O  O206  1  0.546800  0.567700  0.496100  1.0  -0.7829
  O  O207  1  0.616400  0.353500  0.459200  1.0  -0.7073
  O  O208  1  0.668300  0.368100  0.387300  1.0  -0.558
  O  O209  1  0.921500  0.127400  0.376800  1.0  -0.6907
  O  O210  1  0.876800  0.038800  0.258000  1.0  -0.5539
  O  O211  1  0.891200  0.374300  0.445000  1.0  -0.6931
  O  O212  1  0.802900  0.479300  0.425600  1.0  -0.5321
  O  O213  1  0.039600  0.304400  0.481600  1.0  -0.604
  O  O214  1  0.046800  0.067700  0.496100  1.0  -0.7829
  O  O215  1  0.116400  0.853500  0.459200  1.0  -0.7073
  O  O216  1  0.168300  0.868100  0.387300  1.0  -0.5581
  O  O217  1  0.578500  0.627400  0.123200  1.0  -0.6891
  O  O218  1  0.623200  0.538800  0.242000  1.0  -0.5519
  O  O219  1  0.608800  0.874300  0.055000  1.0  -0.691
  O  O220  1  0.697100  0.979300  0.074400  1.0  -0.5325
  O  O221  1  0.460400  0.804400  0.018400  1.0  -0.6019
  O  O222  1  0.453200  0.567700  0.003900  1.0  -0.7832
  O  O223  1  0.383600  0.353500  0.040800  1.0  -0.7058
  O  O224  1  0.331700  0.368100  0.112700  1.0  -0.5575
  O  O225  1  0.078500  0.127400  0.123200  1.0  -0.6891
  O  O226  1  0.123200  0.038800  0.242000  1.0  -0.5519
  O  O227  1  0.108800  0.374300  0.055000  1.0  -0.691
  O  O228  1  0.197100  0.479300  0.074400  1.0  -0.5325
  O  O229  1  0.960400  0.304400  0.018400  1.0  -0.6019
  O  O230  1  0.953200  0.067700  0.003900  1.0  -0.7832
  O  O231  1  0.883600  0.853500  0.040800  1.0  -0.7058
  O  O232  1  0.831700  0.868100  0.112700  1.0  -0.5575
  O  O233  1  0.578500  0.372600  0.623200  1.0  -0.689
  O  O234  1  0.623200  0.461200  0.742000  1.0  -0.5534
  O  O235  1  0.608800  0.125700  0.555000  1.0  -0.6909
  O  O236  1  0.697100  0.020700  0.574400  1.0  -0.5327
  O  O237  1  0.460400  0.195600  0.518400  1.0  -0.6027
  O  O238  1  0.453200  0.432300  0.503900  1.0  -0.7836
  O  O239  1  0.383600  0.646500  0.540800  1.0  -0.7046
  O  O240  1  0.331700  0.631900  0.612700  1.0  -0.5578
  O  O241  1  0.078500  0.872600  0.623200  1.0  -0.689
  O  O242  1  0.123200  0.961200  0.742000  1.0  -0.5534
  O  O243  1  0.108800  0.625700  0.555000  1.0  -0.6909
  O  O244  1  0.197100  0.520700  0.574400  1.0  -0.5327
  O  O245  1  0.960400  0.695600  0.518400  1.0  -0.6027
  O  O246  1  0.953200  0.932300  0.503900  1.0  -0.7836
  O  O247  1  0.883600  0.146500  0.540800  1.0  -0.7046
  O  O248  1  0.831700  0.131900  0.612700  1.0  -0.5578
  O  O249  1  0.421500  0.372600  0.876800  1.0  -0.6904
  O  O250  1  0.376800  0.461200  0.758000  1.0  -0.5539
  O  O251  1  0.391200  0.125700  0.945000  1.0  -0.6932
  O  O252  1  0.302900  0.020700  0.925600  1.0  -0.5327
  O  O253  1  0.539600  0.195600  0.981600  1.0  -0.6001
  O  O254  1  0.546800  0.432300  0.996100  1.0  -0.7841
  O  O255  1  0.616400  0.646500  0.959200  1.0  -0.7066
  O  O256  1  0.668300  0.631900  0.887300  1.0  -0.559
  O  O257  1  0.921500  0.872600  0.876800  1.0  -0.6904
  O  O258  1  0.876800  0.961200  0.758000  1.0  -0.5539
  O  O259  1  0.891200  0.625700  0.945000  1.0  -0.6932
  O  O260  1  0.802900  0.520700  0.925600  1.0  -0.5327
  O  O261  1  0.039600  0.695600  0.981600  1.0  -0.6001
  O  O262  1  0.046800  0.932300  0.996100  1.0  -0.7841
  O  O263  1  0.116400  0.146500  0.959200  1.0  -0.7066
  O  O264  1  0.168300  0.131900  0.887300  1.0  -0.559
