# generated using pymatgen
data_AlPO4
_symmetry_space_group_name_H-M   'P 1'
_cell_length_a   13.84250000
_cell_length_b   13.84250000
_cell_length_c   20.20420000
_cell_angle_alpha   90.00000000
_cell_angle_beta   90.00000000
_cell_angle_gamma   120.00000000
_symmetry_Int_Tables_number   1
_chemical_formula_structural   AlPO4
_chemical_formula_sum   'Al24 P24 O96'
_cell_volume   3352.75141888
_cell_formula_units_Z   24
loop_
 _symmetry_equiv_pos_site_id
 _symmetry_equiv_pos_as_xyz
  1  'x, y, z'
loop_
 _atom_site_type_symbol
 _atom_site_label
 _atom_site_symmetry_multiplicity
 _atom_site_fract_x
 _atom_site_fract_y
 _atom_site_fract_z
 _atom_site_occupancy
 _atom_site_charge
  Al  Al1  1  0.893670  0.331460  0.824780  1.0  1.9718
  Al  Al2  1  0.994680  0.225800  0.573710  1.0  1.9861
  Al  Al3  1  0.668540  0.562210  0.824780  1.0  1.9728
  Al  Al4  1  0.774200  0.768880  0.573710  1.0  1.9847
  Al  Al5  1  0.437790  0.106330  0.824780  1.0  1.9747
  Al  Al6  1  0.231120  0.005320  0.573710  1.0  1.9853
  Al  Al7  1  0.668540  0.106330  0.675220  1.0  1.9727
  Al  Al8  1  0.774200  0.005320  0.926290  1.0  1.9851
  Al  Al9  1  0.437790  0.331460  0.675220  1.0  1.9735
  Al  Al10  1  0.231120  0.225800  0.926290  1.0  1.9861
  Al  Al11  1  0.893670  0.562210  0.675220  1.0  1.9741
  Al  Al12  1  0.994680  0.768880  0.926290  1.0  1.9852
  Al  Al13  1  0.106330  0.668540  0.175220  1.0  1.9712
  Al  Al14  1  0.005320  0.774200  0.426290  1.0  1.9859
  Al  Al15  1  0.331460  0.437790  0.175220  1.0  1.9739
  Al  Al16  1  0.225800  0.231120  0.426290  1.0  1.9851
  Al  Al17  1  0.562210  0.893670  0.175220  1.0  1.9752
  Al  Al18  1  0.768880  0.994680  0.426290  1.0  1.9849
  Al  Al19  1  0.331460  0.893670  0.324780  1.0  1.9729
  Al  Al20  1  0.225800  0.994680  0.073710  1.0  1.9849
  Al  Al21  1  0.562210  0.668540  0.324780  1.0  1.9738
  Al  Al22  1  0.768880  0.774200  0.073710  1.0  1.986
  Al  Al23  1  0.106330  0.437790  0.324780  1.0  1.9727
  Al  Al24  1  0.005320  0.231120  0.073710  1.0  1.9846
  P  P25  1  0.894520  0.333490  0.668730  1.0  2.1013
  P  P26  1  0.769500  0.995710  0.581620  1.0  2.097
  P  P27  1  0.666510  0.561030  0.668730  1.0  2.0978
  P  P28  1  0.004290  0.773790  0.581620  1.0  2.0974
  P  P29  1  0.438970  0.105480  0.668730  1.0  2.1018
  P  P30  1  0.226210  0.230500  0.581620  1.0  2.0991
  P  P31  1  0.666510  0.105480  0.831270  1.0  2.1018
  P  P32  1  0.004290  0.230500  0.918380  1.0  2.0978
  P  P33  1  0.438970  0.333490  0.831270  1.0  2.1001
  P  P34  1  0.226210  0.995710  0.918380  1.0  2.0976
  P  P35  1  0.894520  0.561030  0.831270  1.0  2.1002
  P  P36  1  0.769500  0.773790  0.918380  1.0  2.0972
  P  P37  1  0.105480  0.666510  0.331270  1.0  2.1003
  P  P38  1  0.230500  0.004290  0.418380  1.0  2.0801
  P  P39  1  0.333490  0.438970  0.331270  1.0  2.1004
  P  P40  1  0.995710  0.226210  0.418380  1.0  2.0794
  P  P41  1  0.561030  0.894520  0.331270  1.0  2.1016
  P  P42  1  0.773790  0.769500  0.418380  1.0  2.0984
  P  P43  1  0.333490  0.894520  0.168730  1.0  2.1011
  P  P44  1  0.995710  0.769500  0.081620  1.0  2.0985
  P  P45  1  0.561030  0.666510  0.168730  1.0  2.1014
  P  P46  1  0.773790  0.004290  0.081620  1.0  2.097
  P  P47  1  0.105480  0.438970  0.168730  1.0  2.0974
  P  P48  1  0.230500  0.226210  0.081620  1.0  2.0971
  O  O49  1  0.926100  0.327000  0.739200  1.0  -1.0426
  O  O50  1  0.755500  0.225300  0.844900  1.0  -1.0334
  O  O51  1  0.889800  0.087800  0.590300  1.0  -1.0488
  O  O52  1  0.971200  0.316700  0.623300  1.0  -1.0145
  O  O53  1  0.908300  0.461700  0.845000  1.0  -1.0225
  O  O54  1  0.124700  0.240500  0.598600  1.0  -0.9683
  O  O55  1  0.996300  0.264000  0.488900  1.0  -1.0001
  O  O56  1  0.986500  0.306400  0.871900  1.0  -1.0208
  O  O57  1  0.673000  0.599100  0.739200  1.0  -1.0445
  O  O58  1  0.774700  0.530200  0.844900  1.0  -1.0329
  O  O59  1  0.912200  0.802000  0.590300  1.0  -1.0522
  O  O60  1  0.683300  0.654500  0.623300  1.0  -1.015
  O  O61  1  0.538300  0.446600  0.845000  1.0  -1.0247
  O  O62  1  0.759500  0.884200  0.598600  1.0  -0.9705
  O  O63  1  0.736000  0.732300  0.488900  1.0  -1.0002
  O  O64  1  0.693600  0.680100  0.871900  1.0  -1.0192
  O  O65  1  0.400900  0.073900  0.739200  1.0  -1.0415
  O  O66  1  0.469800  0.244500  0.844900  1.0  -1.032
  O  O67  1  0.198000  0.110200  0.590300  1.0  -1.0488
  O  O68  1  0.345500  0.028800  0.623300  1.0  -1.0185
  O  O69  1  0.553400  0.091700  0.845000  1.0  -1.0224
  O  O70  1  0.115800  0.875300  0.598600  1.0  -0.9676
  O  O71  1  0.267700  0.003700  0.488900  1.0  -1.0012
  O  O72  1  0.319900  0.013500  0.871900  1.0  -1.0171
  O  O73  1  0.673000  0.073900  0.760800  1.0  -1.0423
  O  O74  1  0.774700  0.244500  0.655100  1.0  -1.0314
  O  O75  1  0.912200  0.110200  0.909700  1.0  -1.0488
  O  O76  1  0.683300  0.028800  0.876700  1.0  -1.0196
  O  O77  1  0.538300  0.091700  0.655000  1.0  -1.0222
  O  O78  1  0.759500  0.875300  0.901400  1.0  -0.9688
  O  O79  1  0.736000  0.003700  0.011100  1.0  -1.0009
  O  O80  1  0.693600  0.013500  0.628100  1.0  -1.02
  O  O81  1  0.400900  0.327000  0.760800  1.0  -1.043
  O  O82  1  0.469800  0.225300  0.655100  1.0  -1.0331
  O  O83  1  0.198000  0.087800  0.909700  1.0  -1.0481
  O  O84  1  0.345500  0.316700  0.876700  1.0  -1.018
  O  O85  1  0.553400  0.461700  0.655000  1.0  -1.0227
  O  O86  1  0.115800  0.240500  0.901400  1.0  -0.9678
  O  O87  1  0.267700  0.264000  0.011100  1.0  -0.9993
  O  O88  1  0.319900  0.306400  0.628100  1.0  -1.0233
  O  O89  1  0.926100  0.599100  0.760800  1.0  -1.0442
  O  O90  1  0.755500  0.530200  0.655100  1.0  -1.0322
  O  O91  1  0.889800  0.802000  0.909700  1.0  -1.0514
  O  O92  1  0.971200  0.654500  0.876700  1.0  -1.0165
  O  O93  1  0.908300  0.446600  0.655000  1.0  -1.0237
  O  O94  1  0.124700  0.884200  0.901400  1.0  -0.97
  O  O95  1  0.996300  0.732300  0.011100  1.0  -1.0017
  O  O96  1  0.986500  0.680100  0.628100  1.0  -1.0193
  O  O97  1  0.073900  0.673000  0.260800  1.0  -1.0437
  O  O98  1  0.244500  0.774700  0.155100  1.0  -1.033
  O  O99  1  0.110200  0.912200  0.409700  1.0  -1.0475
  O  O100  1  0.028800  0.683300  0.376700  1.0  -1.0166
  O  O101  1  0.091700  0.538300  0.155000  1.0  -1.0227
  O  O102  1  0.875300  0.759500  0.401400  1.0  -0.9679
  O  O103  1  0.003700  0.736000  0.511100  1.0  -0.9997
  O  O104  1  0.013500  0.693600  0.128100  1.0  -1.0222
  O  O105  1  0.327000  0.400900  0.260800  1.0  -1.0427
  O  O106  1  0.225300  0.469800  0.155100  1.0  -1.033
  O  O107  1  0.087800  0.198000  0.409700  1.0  -1.0483
  O  O108  1  0.316700  0.345500  0.376700  1.0  -1.0156
  O  O109  1  0.461700  0.553400  0.155000  1.0  -1.0248
  O  O110  1  0.240500  0.115800  0.401400  1.0  -0.9701
  O  O111  1  0.264000  0.267700  0.511100  1.0  -0.9986
  O  O112  1  0.306400  0.319900  0.128100  1.0  -1.0185
  O  O113  1  0.599100  0.926100  0.260800  1.0  -1.0429
  O  O114  1  0.530200  0.755500  0.155100  1.0  -1.0312
  O  O115  1  0.802000  0.889800  0.409700  1.0  -1.0508
  O  O116  1  0.654500  0.971200  0.376700  1.0  -1.0196
  O  O117  1  0.446600  0.908300  0.155000  1.0  -1.0212
  O  O118  1  0.884200  0.124700  0.401400  1.0  -0.9688
  O  O119  1  0.732300  0.996300  0.511100  1.0  -1.0001
  O  O120  1  0.680100  0.986500  0.128100  1.0  -1.0199
  O  O121  1  0.327000  0.926100  0.239200  1.0  -1.0417
  O  O122  1  0.225300  0.755500  0.344900  1.0  -1.032
  O  O123  1  0.087800  0.889800  0.090300  1.0  -1.0511
  O  O124  1  0.316700  0.971200  0.123300  1.0  -1.0191
  O  O125  1  0.461700  0.908300  0.345000  1.0  -1.0224
  O  O126  1  0.240500  0.124700  0.098600  1.0  -0.9675
  O  O127  1  0.264000  0.996300  0.988900  1.0  -1.0024
  O  O128  1  0.306400  0.986500  0.371900  1.0  -1.0172
  O  O129  1  0.599100  0.673000  0.239200  1.0  -1.0417
  O  O130  1  0.530200  0.774700  0.344900  1.0  -1.033
  O  O131  1  0.802000  0.912200  0.090300  1.0  -1.048
  O  O132  1  0.654500  0.683300  0.123300  1.0  -1.0153
  O  O133  1  0.446600  0.538300  0.345000  1.0  -1.0217
  O  O134  1  0.884200  0.759500  0.098600  1.0  -0.9684
  O  O135  1  0.732300  0.736000  0.988900  1.0  -1.0009
  O  O136  1  0.680100  0.693600  0.371900  1.0  -1.0206
  O  O137  1  0.073900  0.400900  0.239200  1.0  -1.041
  O  O138  1  0.244500  0.469800  0.344900  1.0  -1.034
  O  O139  1  0.110200  0.198000  0.090300  1.0  -1.0487
  O  O140  1  0.028800  0.345500  0.123300  1.0  -1.0157
  O  O141  1  0.091700  0.553400  0.345000  1.0  -1.0251
  O  O142  1  0.875300  0.115800  0.098600  1.0  -0.971
  O  O143  1  0.003700  0.267700  0.988900  1.0  -1.0009
  O  O144  1  0.013500  0.319900  0.371900  1.0  -1.0191
