# generated using pymatgen
data_EuH14C24(NO3)2
_symmetry_space_group_name_H-M   'P 1'
_cell_length_a   11.59890000
_cell_length_b   20.97900000
_cell_length_c   20.81000000
_cell_angle_alpha   110.39100000
_cell_angle_beta   90.00000000
_cell_angle_gamma   90.00000000
_symmetry_Int_Tables_number   1
_chemical_formula_structural   EuH14C24(NO3)2
_chemical_formula_sum   'Eu8 H112 C192 N16 O48'
_cell_volume   4746.45429679
_cell_formula_units_Z   8
loop_
 _symmetry_equiv_pos_site_id
 _symmetry_equiv_pos_as_xyz
  1  'x, y, z'
loop_
 _atom_site_type_symbol
 _atom_site_label
 _atom_site_symmetry_multiplicity
 _atom_site_fract_x
 _atom_site_fract_y
 _atom_site_fract_z
 _atom_site_occupancy
 _atom_site_charge
  Eu  Eu1  1  0.578260  0.946230  0.554170  1.0  2.1189
  Eu  Eu2  1  0.179260  0.599080  0.536010  1.0  2.1492
  Eu  Eu3  1  0.078260  0.053770  0.945830  1.0  2.1189
  Eu  Eu4  1  0.679260  0.400910  0.963990  1.0  2.1497
  Eu  Eu5  1  0.421740  0.053770  0.445830  1.0  2.1187
  Eu  Eu6  1  0.820740  0.400910  0.463990  1.0  2.1501
  Eu  Eu7  1  0.921740  0.946230  0.054170  1.0  2.1188
  Eu  Eu8  1  0.320740  0.599080  0.036010  1.0  2.1497
  H  H9  1  0.870000  0.692400  0.570000  1.0  0.0849
  H  H10  1  0.704900  0.753100  0.615000  1.0  0.1042
  H  H11  1  0.526300  0.704600  0.582300  1.0  0.1
  H  H12  1  0.676500  0.534600  0.457500  1.0  0.1027
  H  H13  1  0.528000  0.836300  0.729700  1.0  0.0917
  H  H14  1  0.565300  0.815900  0.830200  1.0  0.1067
  H  H15  1  0.705400  0.878500  0.904600  1.0  0.0893
  H  H16  1  0.773600  0.979800  0.778200  1.0  0.1052
  H  H17  1  0.144000  0.673700  0.283200  1.0  0.1104
  H  H18  1  0.160500  0.766900  0.250600  1.0  0.0928
  H  H19  1  0.252800  0.863800  0.320100  1.0  0.0889
  H  H20  1  0.310900  0.773400  0.458000  1.0  0.0942
  H  H21  1  0.514500  0.780900  0.445800  1.0  0.0737
  H  H22  1  0.587900  0.675300  0.382600  1.0  0.1131
  H  H23  1  0.782200  0.656000  0.382600  1.0  0.1285
  H  H24  1  0.979200  0.698500  0.431200  1.0  0.1017
  H  H25  1  0.090600  0.783600  0.497300  1.0  0.0931
  H  H26  1  0.113400  0.907900  0.568500  1.0  0.1132
  H  H27  1  0.029100  0.012400  0.620900  1.0  0.0898
  H  H28  1  0.832000  0.023600  0.613600  1.0  0.0677
  H  H29  1  0.965600  0.556300  0.629800  1.0  0.0729
  H  H30  1  0.822300  0.595300  0.709700  1.0  0.1242
  H  H31  1  0.805100  0.710300  0.768000  1.0  0.1142
  H  H32  1  0.884900  0.828900  0.791900  1.0  0.0909
  H  H33  1  0.015000  0.897800  0.769400  1.0  0.1038
  H  H34  1  0.196300  0.911400  0.707300  1.0  0.0966
  H  H35  1  0.337100  0.862500  0.628000  1.0  0.1186
  H  H36  1  0.330500  0.747200  0.568100  1.0  0.0727
  H  H37  1  0.370000  0.307600  0.930000  1.0  0.085
  H  H38  1  0.204900  0.246900  0.885000  1.0  0.1044
  H  H39  1  0.026300  0.295400  0.917700  1.0  0.101
  H  H40  1  0.176500  0.465400  0.042500  1.0  0.1021
  H  H41  1  0.028000  0.163700  0.770300  1.0  0.092
  H  H42  1  0.065300  0.184100  0.669800  1.0  0.1067
  H  H43  1  0.205400  0.121500  0.595400  1.0  0.0894
  H  H44  1  0.273600  0.020200  0.721800  1.0  0.1059
  H  H45  1  0.644000  0.326300  0.216800  1.0  0.1113
  H  H46  1  0.660500  0.233100  0.249400  1.0  0.0926
  H  H47  1  0.752800  0.136200  0.179900  1.0  0.089
  H  H48  1  0.810900  0.226600  0.042000  1.0  0.0934
  H  H49  1  0.014500  0.219100  0.054200  1.0  0.0741
  H  H50  1  0.087900  0.324700  0.117400  1.0  0.1132
  H  H51  1  0.282200  0.344000  0.117400  1.0  0.1283
  H  H52  1  0.479200  0.301500  0.068800  1.0  0.1004
  H  H53  1  0.590600  0.216400  0.002700  1.0  0.0932
  H  H54  1  0.613400  0.092100  0.931500  1.0  0.113
  H  H55  1  0.529100  0.987600  0.879100  1.0  0.0897
  H  H56  1  0.332000  0.976400  0.886400  1.0  0.0676
  H  H57  1  0.465600  0.443700  0.870200  1.0  0.0718
  H  H58  1  0.322300  0.404700  0.790300  1.0  0.1246
  H  H59  1  0.305100  0.289700  0.732000  1.0  0.1144
  H  H60  1  0.384900  0.171100  0.708100  1.0  0.0909
  H  H61  1  0.515000  0.102200  0.730600  1.0  0.104
  H  H62  1  0.696300  0.088600  0.792700  1.0  0.0961
  H  H63  1  0.837100  0.137500  0.872000  1.0  0.1188
  H  H64  1  0.830500  0.252800  0.931900  1.0  0.0731
  H  H65  1  0.130000  0.307600  0.430000  1.0  0.0848
  H  H66  1  0.295100  0.246900  0.385000  1.0  0.1045
  H  H67  1  0.473700  0.295400  0.417700  1.0  0.1009
  H  H68  1  0.323500  0.465400  0.542500  1.0  0.1023
  H  H69  1  0.472000  0.163700  0.270300  1.0  0.0922
  H  H70  1  0.434700  0.184100  0.169800  1.0  0.1067
  H  H71  1  0.294600  0.121500  0.095400  1.0  0.0898
  H  H72  1  0.226400  0.020200  0.221800  1.0  0.1056
  H  H73  1  0.856000  0.326300  0.716800  1.0  0.1106
  H  H74  1  0.839500  0.233100  0.749400  1.0  0.0928
  H  H75  1  0.747200  0.136200  0.679900  1.0  0.0892
  H  H76  1  0.689100  0.226600  0.542000  1.0  0.0934
  H  H77  1  0.485500  0.219100  0.554200  1.0  0.0722
  H  H78  1  0.412100  0.324700  0.617400  1.0  0.1133
  H  H79  1  0.217800  0.344000  0.617400  1.0  0.1289
  H  H80  1  0.020800  0.301500  0.568800  1.0  0.1004
  H  H81  1  0.909400  0.216400  0.502700  1.0  0.0937
  H  H82  1  0.886600  0.092100  0.431500  1.0  0.1125
  H  H83  1  0.970900  0.987600  0.379100  1.0  0.0899
  H  H84  1  0.168000  0.976400  0.386400  1.0  0.0676
  H  H85  1  0.034400  0.443700  0.370200  1.0  0.0718
  H  H86  1  0.177700  0.404700  0.290300  1.0  0.1246
  H  H87  1  0.194900  0.289700  0.232000  1.0  0.1151
  H  H88  1  0.115100  0.171100  0.208100  1.0  0.0909
  H  H89  1  0.985000  0.102200  0.230600  1.0  0.1042
  H  H90  1  0.803700  0.088600  0.292700  1.0  0.0963
  H  H91  1  0.662900  0.137500  0.372000  1.0  0.1191
  H  H92  1  0.669500  0.252800  0.431900  1.0  0.0731
  H  H93  1  0.630000  0.692400  0.070000  1.0  0.085
  H  H94  1  0.795100  0.753100  0.115000  1.0  0.1039
  H  H95  1  0.973700  0.704600  0.082300  1.0  0.0999
  H  H96  1  0.823500  0.534600  0.957500  1.0  0.103
  H  H97  1  0.972000  0.836300  0.229700  1.0  0.0919
  H  H98  1  0.934700  0.815900  0.330200  1.0  0.1068
  H  H99  1  0.794600  0.878500  0.404600  1.0  0.0897
  H  H100  1  0.726400  0.979800  0.278200  1.0  0.1051
  H  H101  1  0.356000  0.673700  0.783200  1.0  0.1105
  H  H102  1  0.339500  0.766900  0.750600  1.0  0.0926
  H  H103  1  0.247200  0.863800  0.820100  1.0  0.089
  H  H104  1  0.189100  0.773400  0.958000  1.0  0.0942
  H  H105  1  0.985500  0.780900  0.945800  1.0  0.0723
  H  H106  1  0.912100  0.675300  0.882600  1.0  0.1134
  H  H107  1  0.717800  0.656000  0.882600  1.0  0.129
  H  H108  1  0.520800  0.698500  0.931200  1.0  0.1016
  H  H109  1  0.409400  0.783600  0.997300  1.0  0.0937
  H  H110  1  0.386600  0.907900  0.068500  1.0  0.1126
  H  H111  1  0.470900  0.012400  0.120900  1.0  0.0897
  H  H112  1  0.668000  0.023600  0.113600  1.0  0.0674
  H  H113  1  0.534400  0.556300  0.129800  1.0  0.0729
  H  H114  1  0.677700  0.595300  0.209700  1.0  0.1245
  H  H115  1  0.694900  0.710300  0.268000  1.0  0.115
  H  H116  1  0.615100  0.828900  0.291900  1.0  0.0909
  H  H117  1  0.485000  0.897800  0.269400  1.0  0.104
  H  H118  1  0.303700  0.911400  0.207300  1.0  0.0969
  H  H119  1  0.162900  0.862500  0.128000  1.0  0.1192
  H  H120  1  0.169500  0.747200  0.068100  1.0  0.0728
  C  C121  1  0.897200  0.565600  0.482200  1.0  0.71
  C  C122  1  0.790500  0.606900  0.509500  1.0  -0.1563
  C  C123  1  0.798000  0.672700  0.556500  1.0  -0.059
  C  C124  1  0.699300  0.709100  0.583500  1.0  -0.0977
  C  C125  1  0.592500  0.680100  0.563500  1.0  -0.0379
  C  C126  1  0.582600  0.614800  0.515700  1.0  -0.1738
  C  C127  1  0.682200  0.578500  0.489200  1.0  0.0023
  C  C128  1  0.466300  0.583500  0.492500  1.0  0.7326
  C  C129  1  0.621100  0.924500  0.678800  1.0  0.6937
  C  C130  1  0.646500  0.910200  0.743600  1.0  -0.1453
  C  C131  1  0.584700  0.861200  0.759500  1.0  -0.032
  C  C132  1  0.607000  0.848800  0.819600  1.0  -0.0916
  C  C133  1  0.691700  0.885900  0.863700  1.0  -0.069
  C  C134  1  0.755800  0.933400  0.847750  1.0  -0.1325
  C  C135  1  0.732100  0.946500  0.788290  1.0  -0.0325
  C  C136  1  0.855600  0.968800  0.893200  1.0  0.6716
  C  C137  1  0.203500  0.653800  0.397900  1.0  0.6865
  C  C138  1  0.223800  0.714300  0.375300  1.0  -0.1362
  C  C139  1  0.180400  0.712700  0.312100  1.0  -0.0489
  C  C140  1  0.191200  0.768200  0.292400  1.0  -0.0922
  C  C141  1  0.247100  0.826200  0.333800  1.0  -0.0656
  C  C142  1  0.294900  0.828500  0.395700  1.0  -0.1657
  C  C143  1  0.281000  0.772000  0.416100  1.0  -0.0464
  C  C144  1  0.362600  0.889800  0.437600  1.0  0.7006
  C  C145  1  0.593600  0.773900  0.446600  1.0  0.1656
  C  C146  1  0.637300  0.709700  0.408200  1.0  -0.1298
  C  C147  1  0.751900  0.698100  0.408700  1.0  -0.0411
  C  C148  1  0.823900  0.749700  0.448500  1.0  -0.0348
  C  C149  1  0.946100  0.740700  0.454600  1.0  -0.1326
  C  C150  1  0.012500  0.791500  0.493000  1.0  -0.1032
  C  C151  1  0.966800  0.857800  0.527800  1.0  0.0169
  C  C152  1  0.034300  0.913100  0.565100  1.0  0.0011
  C  C153  1  0.984400  0.975000  0.596500  1.0  -0.1058
  C  C154  1  0.865500  0.981300  0.591600  1.0  0.1879
  C  C155  1  0.846900  0.868000  0.524600  1.0  0.1504
  C  C156  1  0.774000  0.813400  0.485800  1.0  0.1409
  C  C157  1  0.960200  0.602900  0.653200  1.0  0.1809
  C  C158  1  0.873300  0.625700  0.701400  1.0  -0.1515
  C  C159  1  0.864200  0.693500  0.736300  1.0  -0.022
  C  C160  1  0.944400  0.738300  0.724300  1.0  -0.0431
  C  C161  1  0.941700  0.810200  0.759200  1.0  -0.0949
  C  C162  1  0.019100  0.851200  0.745900  1.0  -0.1171
  C  C163  1  0.108000  0.824700  0.696100  1.0  0.0182
  C  C164  1  0.195300  0.864800  0.683300  1.0  -0.038
  C  C165  1  0.278500  0.836200  0.636300  1.0  -0.1617
  C  C166  1  0.273900  0.766400  0.600700  1.0  0.1863
  C  C167  1  0.112300  0.754100  0.659100  1.0  0.1379
  C  C168  1  0.029900  0.710000  0.673700  1.0  0.1083
  C  C169  1  0.397200  0.434400  0.017800  1.0  0.7093
  C  C170  1  0.290500  0.393100  0.990500  1.0  -0.1558
  C  C171  1  0.298000  0.327300  0.943500  1.0  -0.0578
  C  C172  1  0.199300  0.290900  0.916500  1.0  -0.0988
  C  C173  1  0.092500  0.319900  0.936500  1.0  -0.0398
  C  C174  1  0.082600  0.385200  0.984300  1.0  -0.1731
  C  C175  1  0.182200  0.421500  0.010800  1.0  0.0025
  C  C176  1  0.966300  0.416500  0.007500  1.0  0.7329
  C  C177  1  0.121100  0.075500  0.821200  1.0  0.6932
  C  C178  1  0.146500  0.089800  0.756400  1.0  -0.1447
  C  C179  1  0.084700  0.138800  0.740500  1.0  -0.0313
  C  C180  1  0.107000  0.151200  0.680400  1.0  -0.0928
  C  C181  1  0.191700  0.114100  0.636300  1.0  -0.0685
  C  C182  1  0.255800  0.066600  0.652250  1.0  -0.1329
  C  C183  1  0.232100  0.053500  0.711710  1.0  -0.0321
  C  C184  1  0.355600  0.031200  0.606800  1.0  0.6713
  C  C185  1  0.703500  0.346200  0.102100  1.0  0.6871
  C  C186  1  0.723800  0.285700  0.124700  1.0  -0.1375
  C  C187  1  0.680400  0.287300  0.187900  1.0  -0.0487
  C  C188  1  0.691200  0.231800  0.207600  1.0  -0.0916
  C  C189  1  0.747100  0.173800  0.166200  1.0  -0.0661
  C  C190  1  0.794900  0.171500  0.104300  1.0  -0.1654
  C  C191  1  0.781000  0.228000  0.083900  1.0  -0.0468
  C  C192  1  0.862600  0.110200  0.062400  1.0  0.6993
  C  C193  1  0.093600  0.226100  0.053400  1.0  0.1656
  C  C194  1  0.137300  0.290300  0.091800  1.0  -0.1308
  C  C195  1  0.251900  0.301900  0.091300  1.0  -0.0404
  C  C196  1  0.323900  0.250300  0.051500  1.0  -0.0347
  C  C197  1  0.446100  0.259300  0.045400  1.0  -0.1325
  C  C198  1  0.512500  0.208500  0.007000  1.0  -0.1032
  C  C199  1  0.466800  0.142200  0.972200  1.0  0.0169
  C  C200  1  0.534300  0.086900  0.934900  1.0  0.0012
  C  C201  1  0.484400  0.025000  0.903500  1.0  -0.106
  C  C202  1  0.365500  0.018700  0.908400  1.0  0.1879
  C  C203  1  0.346900  0.132000  0.975400  1.0  0.1511
  C  C204  1  0.274000  0.186600  0.014200  1.0  0.1412
  C  C205  1  0.460200  0.397100  0.846800  1.0  0.1787
  C  C206  1  0.373300  0.374300  0.798600  1.0  -0.1524
  C  C207  1  0.364200  0.306500  0.763700  1.0  -0.0224
  C  C208  1  0.444400  0.261700  0.775700  1.0  -0.0439
  C  C209  1  0.441700  0.189800  0.740800  1.0  -0.0948
  C  C210  1  0.519100  0.148800  0.754100  1.0  -0.1164
  C  C211  1  0.608000  0.175300  0.803900  1.0  0.0175
  C  C212  1  0.695300  0.135200  0.816700  1.0  -0.0385
  C  C213  1  0.778500  0.163800  0.863700  1.0  -0.1614
  C  C214  1  0.773900  0.233600  0.899300  1.0  0.1865
  C  C215  1  0.612300  0.245900  0.840900  1.0  0.1379
  C  C216  1  0.529900  0.290000  0.826300  1.0  0.1083
  C  C217  1  0.102800  0.434400  0.517800  1.0  0.708
  C  C218  1  0.209500  0.393100  0.490500  1.0  -0.1564
  C  C219  1  0.202000  0.327300  0.443500  1.0  -0.0558
  C  C220  1  0.300700  0.290900  0.416500  1.0  -0.0984
  C  C221  1  0.407500  0.319900  0.436500  1.0  -0.0413
  C  C222  1  0.417400  0.385200  0.484300  1.0  -0.1736
  C  C223  1  0.317800  0.421500  0.510800  1.0  0.002
  C  C224  1  0.533700  0.416500  0.507500  1.0  0.7321
  C  C225  1  0.378900  0.075500  0.321200  1.0  0.6936
  C  C226  1  0.353500  0.089800  0.256400  1.0  -0.1454
  C  C227  1  0.415300  0.138800  0.240500  1.0  -0.0325
  C  C228  1  0.393000  0.151200  0.180400  1.0  -0.0925
  C  C229  1  0.308300  0.114100  0.136300  1.0  -0.0692
  C  C230  1  0.244200  0.066600  0.152250  1.0  -0.1332
  C  C231  1  0.267900  0.053500  0.211710  1.0  -0.0323
  C  C232  1  0.144400  0.031200  0.106800  1.0  0.6681
  C  C233  1  0.796500  0.346200  0.602100  1.0  0.6879
  C  C234  1  0.776200  0.285700  0.624700  1.0  -0.1376
  C  C235  1  0.819600  0.287300  0.687900  1.0  -0.0491
  C  C236  1  0.808800  0.231800  0.707600  1.0  -0.0929
  C  C237  1  0.752900  0.173800  0.666200  1.0  -0.0654
  C  C238  1  0.705100  0.171500  0.604300  1.0  -0.1653
  C  C239  1  0.719000  0.228000  0.583900  1.0  -0.047
  C  C240  1  0.637400  0.110200  0.562400  1.0  0.6996
  C  C241  1  0.406400  0.226100  0.553400  1.0  0.1668
  C  C242  1  0.362700  0.290300  0.591800  1.0  -0.1297
  C  C243  1  0.248100  0.301900  0.591300  1.0  -0.0421
  C  C244  1  0.176100  0.250300  0.551500  1.0  -0.0339
  C  C245  1  0.053900  0.259300  0.545400  1.0  -0.1316
  C  C246  1  0.987500  0.208500  0.507000  1.0  -0.1005
  C  C247  1  0.033200  0.142200  0.472200  1.0  0.0171
  C  C248  1  0.965700  0.086900  0.434900  1.0  -0.0026
  C  C249  1  0.015600  0.025000  0.403500  1.0  -0.1061
  C  C250  1  0.134500  0.018700  0.408400  1.0  0.189
  C  C251  1  0.153100  0.132000  0.475400  1.0  0.1509
  C  C252  1  0.226000  0.186600  0.514200  1.0  0.1413
  C  C253  1  0.039800  0.397100  0.346800  1.0  0.1785
  C  C254  1  0.126700  0.374300  0.298600  1.0  -0.1523
  C  C255  1  0.135800  0.306500  0.263700  1.0  -0.0212
  C  C256  1  0.055600  0.261700  0.275700  1.0  -0.0439
  C  C257  1  0.058300  0.189800  0.240800  1.0  -0.0967
  C  C258  1  0.980900  0.148800  0.254100  1.0  -0.1165
  C  C259  1  0.892000  0.175300  0.303900  1.0  0.0173
  C  C260  1  0.804700  0.135200  0.316700  1.0  -0.0372
  C  C261  1  0.721500  0.163800  0.363700  1.0  -0.1614
  C  C262  1  0.726100  0.233600  0.399300  1.0  0.1872
  C  C263  1  0.887700  0.245900  0.340900  1.0  0.1384
  C  C264  1  0.970100  0.290000  0.326300  1.0  0.1086
  C  C265  1  0.602800  0.565600  0.982200  1.0  0.7105
  C  C266  1  0.709500  0.606900  0.009500  1.0  -0.1575
  C  C267  1  0.702000  0.672700  0.056500  1.0  -0.0565
  C  C268  1  0.800700  0.709100  0.083500  1.0  -0.0977
  C  C269  1  0.907500  0.680100  0.063500  1.0  -0.0387
  C  C270  1  0.917400  0.614800  0.015700  1.0  -0.1734
  C  C271  1  0.817800  0.578500  0.989200  1.0  0.0015
  C  C272  1  0.033700  0.583500  0.992500  1.0  0.7313
  C  C273  1  0.878900  0.924500  0.178800  1.0  0.6938
  C  C274  1  0.853500  0.910200  0.243600  1.0  -0.1457
  C  C275  1  0.915300  0.861200  0.259500  1.0  -0.0333
  C  C276  1  0.893000  0.848800  0.319600  1.0  -0.0919
  C  C277  1  0.808300  0.885900  0.363700  1.0  -0.0693
  C  C278  1  0.744200  0.933400  0.347750  1.0  -0.1325
  C  C279  1  0.767900  0.946500  0.288290  1.0  -0.0325
  C  C280  1  0.644400  0.968800  0.393200  1.0  0.6675
  C  C281  1  0.296500  0.653800  0.897900  1.0  0.6866
  C  C282  1  0.276200  0.714300  0.875300  1.0  -0.1364
  C  C283  1  0.319600  0.712700  0.812100  1.0  -0.0506
  C  C284  1  0.308800  0.768200  0.792400  1.0  -0.0933
  C  C285  1  0.252900  0.826200  0.833800  1.0  -0.0651
  C  C286  1  0.205100  0.828500  0.895700  1.0  -0.1655
  C  C287  1  0.219000  0.772000  0.916100  1.0  -0.0468
  C  C288  1  0.137400  0.889800  0.937600  1.0  0.7012
  C  C289  1  0.906400  0.773900  0.946600  1.0  0.1669
  C  C290  1  0.862700  0.709700  0.908200  1.0  -0.1293
  C  C291  1  0.748100  0.698100  0.908700  1.0  -0.0417
  C  C292  1  0.676100  0.749700  0.948500  1.0  -0.0346
  C  C293  1  0.553900  0.740700  0.954600  1.0  -0.1312
  C  C294  1  0.487500  0.791500  0.993000  1.0  -0.1008
  C  C295  1  0.533200  0.857800  0.027800  1.0  0.0171
  C  C296  1  0.465700  0.913100  0.065100  1.0  -0.0026
  C  C297  1  0.515600  0.975000  0.096500  1.0  -0.1059
  C  C298  1  0.634500  0.981300  0.091600  1.0  0.1886
  C  C299  1  0.653100  0.868000  0.024600  1.0  0.1499
  C  C300  1  0.726000  0.813400  0.985800  1.0  0.1412
  C  C301  1  0.539800  0.602900  0.153200  1.0  0.1811
  C  C302  1  0.626700  0.625700  0.201400  1.0  -0.1521
  C  C303  1  0.635800  0.693500  0.236300  1.0  -0.0214
  C  C304  1  0.555600  0.738300  0.224300  1.0  -0.0431
  C  C305  1  0.558300  0.810200  0.259200  1.0  -0.0966
  C  C306  1  0.480900  0.851200  0.245900  1.0  -0.1172
  C  C307  1  0.392000  0.824700  0.196100  1.0  0.0176
  C  C308  1  0.304700  0.864800  0.183300  1.0  -0.0371
  C  C309  1  0.221500  0.836200  0.136300  1.0  -0.1618
  C  C310  1  0.226100  0.766400  0.100700  1.0  0.1872
  C  C311  1  0.387700  0.754100  0.159100  1.0  0.1384
  C  C312  1  0.470100  0.710000  0.173700  1.0  0.1083
  N  N313  1  0.658700  0.825010  0.483950  1.0  -0.4455
  N  N314  1  0.797800  0.930000  0.556900  1.0  -0.4074
  N  N315  1  0.194000  0.725740  0.610610  1.0  -0.436
  N  N316  1  0.035200  0.642080  0.638180  1.0  -0.3996
  N  N317  1  0.158700  0.174990  0.016050  1.0  -0.4445
  N  N318  1  0.297800  0.070000  0.943100  1.0  -0.4072
  N  N319  1  0.694000  0.274260  0.889390  1.0  -0.4362
  N  N320  1  0.535200  0.357920  0.861820  1.0  -0.4002
  N  N321  1  0.341300  0.174990  0.516050  1.0  -0.4442
  N  N322  1  0.202200  0.070000  0.443100  1.0  -0.4074
  N  N323  1  0.806000  0.274260  0.389390  1.0  -0.4368
  N  N324  1  0.964800  0.357920  0.361820  1.0  -0.4018
  N  N325  1  0.841300  0.825010  0.983950  1.0  -0.4448
  N  N326  1  0.702200  0.930000  0.056900  1.0  -0.408
  N  N327  1  0.306000  0.725740  0.110610  1.0  -0.4363
  N  N328  1  0.464800  0.642080  0.138180  1.0  -0.4027
  O  O329  1  0.993100  0.596460  0.489500  1.0  -0.7166
  O  O330  1  0.886600  0.502220  0.453500  1.0  -0.7086
  O  O331  1  0.458400  0.534230  0.437990  1.0  -0.5382
  O  O332  1  0.381300  0.609270  0.530760  1.0  -0.7487
  O  O333  1  0.572600  0.879040  0.629460  1.0  -0.6319
  O  O334  1  0.648800  0.981080  0.675440  1.0  -0.6314
  O  O335  1  0.914700  0.009440  0.874020  1.0  -0.6506
  O  O336  1  0.878800  0.955500  0.946080  1.0  -0.7721
  O  O337  1  0.209000  0.664920  0.461780  1.0  -0.7195
  O  O338  1  0.182000  0.597480  0.353370  1.0  -0.5489
  O  O339  1  0.418300  0.886470  0.488700  1.0  -0.7014
  O  O340  1  0.360800  0.940340  0.418630  1.0  -0.683
  O  O341  1  0.493100  0.403540  0.010500  1.0  -0.7167
  O  O342  1  0.386600  0.497780  0.046500  1.0  -0.7083
  O  O343  1  0.958400  0.465770  0.062010  1.0  -0.5385
  O  O344  1  0.881300  0.390730  0.969240  1.0  -0.7457
  O  O345  1  0.072600  0.120960  0.870540  1.0  -0.6324
  O  O346  1  0.148800  0.018920  0.824560  1.0  -0.6319
  O  O347  1  0.414700  0.990560  0.625980  1.0  -0.6514
  O  O348  1  0.378800  0.044500  0.553920  1.0  -0.7706
  O  O349  1  0.709000  0.335080  0.038220  1.0  -0.7202
  O  O350  1  0.682000  0.402520  0.146630  1.0  -0.5509
  O  O351  1  0.918300  0.113530  0.011300  1.0  -0.7027
  O  O352  1  0.860800  0.059660  0.081370  1.0  -0.6837
  O  O353  1  0.006900  0.403540  0.510500  1.0  -0.7165
  O  O354  1  0.113400  0.497780  0.546500  1.0  -0.7078
  O  O355  1  0.541600  0.465770  0.562010  1.0  -0.5397
  O  O356  1  0.618700  0.390730  0.469240  1.0  -0.7457
  O  O357  1  0.427400  0.120960  0.370540  1.0  -0.6335
  O  O358  1  0.351200  0.018920  0.324560  1.0  -0.6315
  O  O359  1  0.085300  0.990560  0.125980  1.0  -0.6513
  O  O360  1  0.121200  0.044500  0.053920  1.0  -0.7706
  O  O361  1  0.791000  0.335080  0.538220  1.0  -0.7214
  O  O362  1  0.818000  0.402520  0.646630  1.0  -0.5502
  O  O363  1  0.581700  0.113530  0.511300  1.0  -0.7018
  O  O364  1  0.639200  0.059660  0.581370  1.0  -0.6843
  O  O365  1  0.506900  0.596460  0.989500  1.0  -0.7162
  O  O366  1  0.613400  0.502220  0.953500  1.0  -0.7083
  O  O367  1  0.041600  0.534230  0.937990  1.0  -0.5397
  O  O368  1  0.118700  0.609270  0.030760  1.0  -0.7488
  O  O369  1  0.927400  0.879040  0.129460  1.0  -0.633
  O  O370  1  0.851200  0.981080  0.175440  1.0  -0.6312
  O  O371  1  0.585300  0.009440  0.374020  1.0  -0.6511
  O  O372  1  0.621200  0.955500  0.446080  1.0  -0.7721
  O  O373  1  0.291000  0.664920  0.961780  1.0  -0.72
  O  O374  1  0.318000  0.597480  0.853370  1.0  -0.5488
  O  O375  1  0.081700  0.886470  0.988700  1.0  -0.7009
  O  O376  1  0.139200  0.940340  0.918630  1.0  -0.6828
