# generated using pymatgen
data_CuH2C3O4
_symmetry_space_group_name_H-M   'P 1'
_cell_length_a   8.42210000
_cell_length_b   8.42210000
_cell_length_c   12.04900000
_cell_angle_alpha   90.00000000
_cell_angle_beta   90.00000000
_cell_angle_gamma   90.00000000
_symmetry_Int_Tables_number   1
_chemical_formula_structural   CuH2C3O4
_chemical_formula_sum   'Cu4 H8 C12 O16'
_cell_volume   854.65687757
_cell_formula_units_Z   4
loop_
 _symmetry_equiv_pos_site_id
 _symmetry_equiv_pos_as_xyz
  1  'x, y, z'
loop_
 _atom_site_type_symbol
 _atom_site_label
 _atom_site_symmetry_multiplicity
 _atom_site_fract_x
 _atom_site_fract_y
 _atom_site_fract_z
 _atom_site_occupancy
 _atom_site_charge
  Cu  Cu1  1  0.097450  0.694090  0.891070  1.0  0.9785
  Cu  Cu2  1  0.902550  0.305910  0.391070  1.0  0.9786
  Cu  Cu3  1  0.305910  0.097450  0.141070  1.0  0.9797
  Cu  Cu4  1  0.694090  0.902550  0.641070  1.0  0.9785
  H  H5  1  0.561400  0.823000  0.890000  1.0  0.1768
  H  H6  1  0.471500  0.669200  0.926400  1.0  0.1894
  H  H7  1  0.438600  0.177000  0.390000  1.0  0.1758
  H  H8  1  0.528500  0.330800  0.426400  1.0  0.1899
  H  H9  1  0.177000  0.561400  0.140000  1.0  0.1745
  H  H10  1  0.330800  0.471500  0.176400  1.0  0.1953
  H  H11  1  0.823000  0.438600  0.640000  1.0  0.1738
  H  H12  1  0.669200  0.528500  0.676400  1.0  0.195
  C  C13  1  0.388100  0.758900  0.779600  1.0  0.7888
  C  C14  1  0.457100  0.774900  0.896000  1.0  -0.5715
  C  C15  1  0.360400  0.871200  0.977800  1.0  0.7982
  C  C16  1  0.611900  0.241100  0.279600  1.0  0.789
  C  C17  1  0.542900  0.225100  0.396000  1.0  -0.5721
  C  C18  1  0.639600  0.128800  0.477800  1.0  0.7989
  C  C19  1  0.241100  0.388100  0.029600  1.0  0.7876
  C  C20  1  0.225100  0.457100  0.146000  1.0  -0.5723
  C  C21  1  0.128800  0.360400  0.227800  1.0  0.7986
  C  C22  1  0.758900  0.611900  0.529600  1.0  0.7872
  C  C23  1  0.774900  0.542900  0.646000  1.0  -0.5743
  C  C24  1  0.871200  0.639600  0.727800  1.0  0.7983
  O  O25  1  0.240600  0.732400  0.769560  1.0  -0.5455
  O  O26  1  0.210700  0.851800  0.982140  1.0  -0.6532
  O  O27  1  0.479100  0.767100  0.698250  1.0  -0.6095
  O  O28  1  0.432900  0.964500  0.040240  1.0  -0.5528
  O  O29  1  0.759400  0.267600  0.269560  1.0  -0.5464
  O  O30  1  0.789300  0.148200  0.482140  1.0  -0.651
  O  O31  1  0.520900  0.232900  0.198250  1.0  -0.6108
  O  O32  1  0.567100  0.035500  0.540240  1.0  -0.5525
  O  O33  1  0.267600  0.240600  0.019560  1.0  -0.546
  O  O34  1  0.148200  0.210700  0.232140  1.0  -0.653
  O  O35  1  0.232900  0.479100  0.948250  1.0  -0.6092
  O  O36  1  0.035500  0.432900  0.290240  1.0  -0.5526
  O  O37  1  0.732400  0.759400  0.519560  1.0  -0.5473
  O  O38  1  0.851800  0.789300  0.732140  1.0  -0.6524
  O  O39  1  0.767100  0.520900  0.448250  1.0  -0.607
  O  O40  1  0.964500  0.567100  0.790240  1.0  -0.5528
