# generated using pymatgen
data_CuH2C3O4
_symmetry_space_group_name_H-M   'P 1'
_cell_length_a   8.40150000
_cell_length_b   8.40150000
_cell_length_c   12.01500000
_cell_angle_alpha   90.00000000
_cell_angle_beta   90.00000000
_cell_angle_gamma   90.00000000
_symmetry_Int_Tables_number   1
_chemical_formula_structural   CuH2C3O4
_chemical_formula_sum   'Cu4 H8 C12 O16'
_cell_volume   848.08120503
_cell_formula_units_Z   4
loop_
 _symmetry_equiv_pos_site_id
 _symmetry_equiv_pos_as_xyz
  1  'x, y, z'
loop_
 _atom_site_type_symbol
 _atom_site_label
 _atom_site_symmetry_multiplicity
 _atom_site_fract_x
 _atom_site_fract_y
 _atom_site_fract_z
 _atom_site_occupancy
 _atom_site_charge
  Cu  Cu1  1  0.806640  0.402720  0.375120  1.0  0.9858
  Cu  Cu2  1  0.193360  0.597280  0.875120  1.0  0.9873
  Cu  Cu3  1  0.597280  0.806640  0.125120  1.0  0.9852
  Cu  Cu4  1  0.402720  0.193360  0.625120  1.0  0.9849
  H  H5  1  0.833200  0.028900  0.410300  1.0  0.1926
  H  H6  1  0.679200  0.937600  0.374600  1.0  0.1721
  H  H7  1  0.166800  0.971100  0.910300  1.0  0.1925
  H  H8  1  0.320800  0.062400  0.874600  1.0  0.1726
  H  H9  1  0.971100  0.833200  0.160300  1.0  0.187
  H  H10  1  0.062400  0.679200  0.124600  1.0  0.1747
  H  H11  1  0.028900  0.166800  0.660300  1.0  0.1871
  H  H12  1  0.937600  0.320800  0.624600  1.0  0.1743
  C  C13  1  0.741500  0.111900  0.262500  1.0  0.7826
  C  C14  1  0.727000  0.042400  0.380000  1.0  -0.5688
  C  C15  1  0.629800  0.141200  0.461500  1.0  0.8018
  C  C16  1  0.258500  0.888100  0.762500  1.0  0.7821
  C  C17  1  0.273000  0.957600  0.880000  1.0  -0.5713
  C  C18  1  0.370200  0.858800  0.961500  1.0  0.8019
  C  C19  1  0.888100  0.741500  0.012500  1.0  0.7833
  C  C20  1  0.957600  0.727000  0.130000  1.0  -0.5692
  C  C21  1  0.858800  0.629800  0.211500  1.0  0.8022
  C  C22  1  0.111900  0.258500  0.512500  1.0  0.7828
  C  C23  1  0.042400  0.273000  0.630000  1.0  -0.5701
  C  C24  1  0.141200  0.370200  0.711500  1.0  0.801
  O  O25  1  0.767900  0.259200  0.252900  1.0  -0.5466
  O  O26  1  0.732900  0.021600  0.182300  1.0  -0.6055
  O  O27  1  0.648100  0.288700  0.466200  1.0  -0.6434
  O  O28  1  0.535900  0.066300  0.523300  1.0  -0.5684
  O  O29  1  0.232100  0.740800  0.752900  1.0  -0.5455
  O  O30  1  0.267100  0.978400  0.682300  1.0  -0.6059
  O  O31  1  0.351900  0.711300  0.966200  1.0  -0.6425
  O  O32  1  0.464100  0.933700  0.023300  1.0  -0.569
  O  O33  1  0.740800  0.767900  0.002900  1.0  -0.5445
  O  O34  1  0.978400  0.732900  0.932300  1.0  -0.6069
  O  O35  1  0.711300  0.648100  0.216200  1.0  -0.643
  O  O36  1  0.933700  0.535900  0.273300  1.0  -0.5692
  O  O37  1  0.259200  0.232100  0.502900  1.0  -0.5456
  O  O38  1  0.021600  0.267100  0.432300  1.0  -0.6074
  O  O39  1  0.288700  0.351900  0.716200  1.0  -0.6432
  O  O40  1  0.066300  0.464100  0.773300  1.0  -0.5676
