# generated using pymatgen
data_NdH2C7(NO3)2
_symmetry_space_group_name_H-M   'P 1'
_cell_length_a   6.16450000
_cell_length_b   10.07400000
_cell_length_c   13.50300000
_cell_angle_alpha   68.95100000
_cell_angle_beta   80.87200000
_cell_angle_gamma   76.66700000
_symmetry_Int_Tables_number   1
_chemical_formula_structural   NdH2C7(NO3)2
_chemical_formula_sum   'Nd2 H4 C14 N4 O12'
_cell_volume   758.84627012
_cell_formula_units_Z   2
loop_
 _symmetry_equiv_pos_site_id
 _symmetry_equiv_pos_as_xyz
  1  'x, y, z'
loop_
 _atom_site_type_symbol
 _atom_site_label
 _atom_site_symmetry_multiplicity
 _atom_site_fract_x
 _atom_site_fract_y
 _atom_site_fract_z
 _atom_site_occupancy
 _atom_site_charge
  Nd  Nd1  1  0.828780  0.615410  0.196660  1.0  2.1944
  Nd  Nd2  1  0.171220  0.384590  0.803350  1.0  2.1961
  H  H3  1  0.323900  0.046900  0.026800  1.0  0.0838
  H  H4  1  0.701600  0.327100  0.629300  1.0  0.0798
  H  H5  1  0.676100  0.953100  0.973200  1.0  0.0837
  H  H6  1  0.298400  0.672900  0.370700  1.0  0.08
  C  C7  1  0.283800  0.769500  0.140500  1.0  0.6918
  C  C8  1  0.133600  0.895000  0.068200  1.0  0.0624
  C  C9  1  0.190600  0.029400  0.014500  1.0  0.1936
  C  C10  1  0.946900  0.384200  0.440900  1.0  0.6609
  C  C11  1  0.710200  0.445100  0.473000  1.0  0.1067
  C  C12  1  0.616400  0.398800  0.577500  1.0  0.2021
  C  C13  1  0.087300  0.440300  0.033800  1.0  0.5508
  C  C14  1  0.716200  0.230500  0.859500  1.0  0.6911
  C  C15  1  0.866400  0.105000  0.931800  1.0  0.0656
  C  C16  1  0.809400  0.970600  0.985500  1.0  0.188
  C  C17  1  0.053100  0.615800  0.559100  1.0  0.6578
  C  C18  1  0.289800  0.554900  0.527000  1.0  0.109
  C  C19  1  0.383600  0.601200  0.422500  1.0  0.1915
  C  C20  1  0.912700  0.559700  0.966200  1.0  0.5509
  N  N21  1  0.940200  0.865900  0.054400  1.0  -0.422
  N  N22  1  0.592400  0.545700  0.394600  1.0  -0.4882
  N  N23  1  0.059800  0.134100  0.945600  1.0  -0.4199
  N  N24  1  0.407600  0.454300  0.605400  1.0  -0.4858
  O  O25  1  0.212100  0.654300  0.184600  1.0  -0.6664
  O  O26  1  0.473800  0.787600  0.149600  1.0  -0.715
  O  O27  1  0.011800  0.430900  0.343800  1.0  -0.697
  O  O28  1  0.064700  0.292500  0.511400  1.0  -0.56
  O  O29  1  0.082900  0.430800  0.128900  1.0  -0.6192
  O  O30  1  0.220600  0.363100  0.987800  1.0  -0.6531
  O  O31  1  0.787900  0.345700  0.815400  1.0  -0.667
  O  O32  1  0.526200  0.212400  0.850400  1.0  -0.716
  O  O33  1  0.988200  0.569100  0.656200  1.0  -0.6993
  O  O34  1  0.935300  0.707500  0.488600  1.0  -0.5572
  O  O35  1  0.917100  0.569200  0.871100  1.0  -0.62
  O  O36  1  0.779400  0.636900  0.012200  1.0  -0.6538
