# generated using pymatgen
data_TbH2C7(NO3)2
_symmetry_space_group_name_H-M   'P 1'
_cell_length_a   6.07800000
_cell_length_b   9.95000000
_cell_length_c   13.33700000
_cell_angle_alpha   68.82300000
_cell_angle_beta   81.14200000
_cell_angle_gamma   76.81300000
_symmetry_Int_Tables_number   1
_chemical_formula_structural   TbH2C7(NO3)2
_chemical_formula_sum   'Tb2 H4 C14 N4 O12'
_cell_volume   729.98966257
_cell_formula_units_Z   2
loop_
 _symmetry_equiv_pos_site_id
 _symmetry_equiv_pos_as_xyz
  1  'x, y, z'
loop_
 _atom_site_type_symbol
 _atom_site_label
 _atom_site_symmetry_multiplicity
 _atom_site_fract_x
 _atom_site_fract_y
 _atom_site_fract_z
 _atom_site_occupancy
 _atom_site_charge
  Tb  Tb1  1  0.833630  0.613930  0.195460  1.0  2.1479
  Tb  Tb2  1  0.166370  0.386070  0.804540  1.0  2.1472
  H  H3  1  0.325100  0.046300  0.027900  1.0  0.067
  H  H4  1  0.708700  0.325100  0.629400  1.0  0.0825
  H  H5  1  0.674900  0.953700  0.972100  1.0  0.0674
  H  H6  1  0.291300  0.674900  0.370600  1.0  0.0825
  C  C7  1  0.289000  0.764900  0.140800  1.0  0.7022
  C  C8  1  0.134800  0.892800  0.069700  1.0  0.032
  C  C9  1  0.189000  0.029600  0.015000  1.0  0.206
  C  C10  1  0.950000  0.384000  0.439500  1.0  0.6767
  C  C11  1  0.713000  0.442600  0.473500  1.0  0.1152
  C  C12  1  0.621000  0.396800  0.577000  1.0  0.1851
  C  C13  1  0.089000  0.440500  0.033300  1.0  0.565
  C  C14  1  0.711000  0.235100  0.859200  1.0  0.7019
  C  C15  1  0.865200  0.107200  0.930300  1.0  0.0326
  C  C16  1  0.811000  0.970400  0.985000  1.0  0.2049
  C  C17  1  0.050000  0.616000  0.560500  1.0  0.6742
  C  C18  1  0.287000  0.557400  0.526500  1.0  0.1148
  C  C19  1  0.379000  0.603200  0.423000  1.0  0.1795
  C  C20  1  0.911000  0.559500  0.966700  1.0  0.5641
  N  N21  1  0.937800  0.862400  0.054100  1.0  -0.4396
  N  N22  1  0.595400  0.548100  0.393200  1.0  -0.47
  N  N23  1  0.062200  0.137600  0.945900  1.0  -0.4401
  N  N24  1  0.404600  0.451900  0.606800  1.0  -0.4723
  O  O25  1  0.215200  0.647500  0.183500  1.0  -0.6654
  O  O26  1  0.479700  0.782100  0.152700  1.0  -0.709
  O  O27  1  0.015600  0.432100  0.341000  1.0  -0.6837
  O  O28  1  0.070200  0.288200  0.510500  1.0  -0.5526
  O  O29  1  0.082800  0.430200  0.130100  1.0  -0.6312
  O  O30  1  0.223700  0.362000  0.987300  1.0  -0.6217
  O  O31  1  0.784800  0.352500  0.816500  1.0  -0.6665
  O  O32  1  0.520300  0.217900  0.847300  1.0  -0.7086
  O  O33  1  0.984400  0.567900  0.659000  1.0  -0.6856
  O  O34  1  0.929800  0.711800  0.489500  1.0  -0.5529
  O  O35  1  0.917200  0.569800  0.869900  1.0  -0.6306
  O  O36  1  0.776300  0.638000  0.012700  1.0  -0.6191
