# generated using pymatgen
data_Cu(C3O2)2
_symmetry_space_group_name_H-M   'P 1'
_cell_length_a   26.30820000
_cell_length_b   26.30820000
_cell_length_c   26.30820000
_cell_angle_alpha   90.00000000
_cell_angle_beta   90.00000000
_cell_angle_gamma   90.00000000
_symmetry_Int_Tables_number   1
_chemical_formula_structural   Cu(C3O2)2
_chemical_formula_sum   'Cu48 C288 O192'
_cell_volume   18208.46787979
_cell_formula_units_Z   48
loop_
 _symmetry_equiv_pos_site_id
 _symmetry_equiv_pos_as_xyz
  1  'x, y, z'
loop_
 _atom_site_type_symbol
 _atom_site_label
 _atom_site_symmetry_multiplicity
 _atom_site_fract_x
 _atom_site_fract_y
 _atom_site_fract_z
 _atom_site_occupancy
 _atom_site_charge
  Cu  Cu1  1  0.285200  0.000000  0.214800  1.0  0.9177
  Cu  Cu2  1  0.285200  0.500000  0.714800  1.0  0.9211
  Cu  Cu3  1  0.714800  0.000000  0.214800  1.0  0.9258
  Cu  Cu4  1  0.714800  0.500000  0.714800  1.0  0.9223
  Cu  Cu5  1  0.214800  0.500000  0.214800  1.0  0.9263
  Cu  Cu6  1  0.714800  0.000000  0.785210  1.0  0.9327
  Cu  Cu7  1  0.714800  0.500000  0.285200  1.0  0.9219
  Cu  Cu8  1  0.214800  0.000000  0.285200  1.0  0.9186
  Cu  Cu9  1  0.285200  0.000000  0.785210  1.0  0.9327
  Cu  Cu10  1  0.285200  0.500000  0.285200  1.0  0.9054
  Cu  Cu11  1  0.214800  0.285200  0.000000  1.0  0.9203
  Cu  Cu12  1  0.214800  0.785210  0.500000  1.0  0.9265
  Cu  Cu13  1  0.214800  0.714800  0.000000  1.0  0.926
  Cu  Cu14  1  0.214800  0.214800  0.500000  1.0  0.9252
  Cu  Cu15  1  0.785210  0.714800  0.000000  1.0  0.9331
  Cu  Cu16  1  0.785210  0.214800  0.500000  1.0  0.9251
  Cu  Cu17  1  0.285200  0.214800  0.000000  1.0  0.9185
  Cu  Cu18  1  0.785210  0.285200  0.000000  1.0  0.9349
  Cu  Cu19  1  0.785210  0.785210  0.500000  1.0  0.9085
  Cu  Cu20  1  0.285200  0.285200  0.500000  1.0  0.9089
  Cu  Cu21  1  0.000000  0.214800  0.285200  1.0  0.9171
  Cu  Cu22  1  0.500000  0.214800  0.785210  1.0  0.9236
  Cu  Cu23  1  0.000000  0.214800  0.714800  1.0  0.9246
  Cu  Cu24  1  0.500000  0.214800  0.214800  1.0  0.9246
  Cu  Cu25  1  0.000000  0.785210  0.714800  1.0  0.9323
  Cu  Cu26  1  0.000000  0.285200  0.214800  1.0  0.9183
  Cu  Cu27  1  0.500000  0.785210  0.214800  1.0  0.9248
  Cu  Cu28  1  0.000000  0.785210  0.285200  1.0  0.9328
  Cu  Cu29  1  0.500000  0.785210  0.785210  1.0  0.9063
  Cu  Cu30  1  0.500000  0.285200  0.285200  1.0  0.9074
  Cu  Cu31  1  0.000000  0.285200  0.785210  1.0  0.9328
  Cu  Cu32  1  0.000000  0.714800  0.785210  1.0  0.9316
  Cu  Cu33  1  0.500000  0.714800  0.285200  1.0  0.9211
  Cu  Cu34  1  0.000000  0.714800  0.214800  1.0  0.9246
  Cu  Cu35  1  0.500000  0.714800  0.714800  1.0  0.9208
  Cu  Cu36  1  0.500000  0.285200  0.714800  1.0  0.9216
  Cu  Cu37  1  0.285200  0.714800  0.500000  1.0  0.9219
  Cu  Cu38  1  0.714800  0.214800  0.000000  1.0  0.926
  Cu  Cu39  1  0.714800  0.714800  0.500000  1.0  0.9223
  Cu  Cu40  1  0.714800  0.785210  0.000000  1.0  0.9343
  Cu  Cu41  1  0.714800  0.285200  0.500000  1.0  0.9235
  Cu  Cu42  1  0.285200  0.785210  0.000000  1.0  0.9349
  Cu  Cu43  1  0.214800  0.000000  0.714800  1.0  0.9258
  Cu  Cu44  1  0.214800  0.500000  0.785210  1.0  0.9252
  Cu  Cu45  1  0.785210  0.000000  0.285200  1.0  0.9326
  Cu  Cu46  1  0.785210  0.500000  0.785210  1.0  0.9068
  Cu  Cu47  1  0.785210  0.000000  0.714800  1.0  0.9321
  Cu  Cu48  1  0.785210  0.500000  0.214800  1.0  0.9244
  C  C49  1  0.198600  0.133800  0.133800  1.0  0.0491
  C  C50  1  0.198600  0.633800  0.633800  1.0  0.0491
  C  C51  1  0.698600  0.133800  0.633800  1.0  0.0491
  C  C52  1  0.698600  0.633800  0.133800  1.0  0.0491
  C  C53  1  0.801400  0.866200  0.133800  1.0  0.0533
  C  C54  1  0.801400  0.366200  0.633800  1.0  0.0533
  C  C55  1  0.301400  0.866200  0.633800  1.0  0.0533
  C  C56  1  0.301400  0.366200  0.133800  1.0  0.0533
  C  C57  1  0.801400  0.133800  0.866200  1.0  0.0539
  C  C58  1  0.801400  0.633800  0.366200  1.0  0.0539
  C  C59  1  0.301400  0.133800  0.366200  1.0  0.0539
  C  C60  1  0.301400  0.633800  0.866200  1.0  0.0539
  C  C61  1  0.198600  0.866200  0.866200  1.0  0.0521
  C  C62  1  0.198600  0.366200  0.366200  1.0  0.0521
  C  C63  1  0.698600  0.866200  0.366200  1.0  0.0521
  C  C64  1  0.698600  0.366200  0.866200  1.0  0.0521
  C  C65  1  0.133800  0.198600  0.133800  1.0  0.0529
  C  C66  1  0.133800  0.698600  0.633800  1.0  0.0529
  C  C67  1  0.633800  0.198600  0.633800  1.0  0.0529
  C  C68  1  0.633800  0.698600  0.133800  1.0  0.0529
  C  C69  1  0.133800  0.801400  0.866200  1.0  0.0531
  C  C70  1  0.133800  0.301400  0.366200  1.0  0.0531
  C  C71  1  0.633800  0.801400  0.366200  1.0  0.0531
  C  C72  1  0.633800  0.301400  0.866200  1.0  0.0531
  C  C73  1  0.866200  0.801400  0.133800  1.0  0.051
  C  C74  1  0.866200  0.301400  0.633800  1.0  0.051
  C  C75  1  0.366200  0.801400  0.633800  1.0  0.051
  C  C76  1  0.366200  0.301400  0.133800  1.0  0.051
  C  C77  1  0.866200  0.198600  0.866200  1.0  0.0539
  C  C78  1  0.866200  0.698600  0.366200  1.0  0.0539
  C  C79  1  0.366200  0.198600  0.366200  1.0  0.0539
  C  C80  1  0.366200  0.698600  0.866200  1.0  0.0539
  C  C81  1  0.133800  0.133800  0.198600  1.0  0.0516
  C  C82  1  0.133800  0.633800  0.698600  1.0  0.0516
  C  C83  1  0.633800  0.133800  0.698600  1.0  0.0516
  C  C84  1  0.633800  0.633800  0.198600  1.0  0.0516
  C  C85  1  0.866200  0.133800  0.801400  1.0  0.0526
  C  C86  1  0.866200  0.633800  0.301400  1.0  0.0526
  C  C87  1  0.366200  0.133800  0.301400  1.0  0.0526
  C  C88  1  0.366200  0.633800  0.801400  1.0  0.0526
  C  C89  1  0.133800  0.866200  0.801400  1.0  0.0544
  C  C90  1  0.133800  0.366200  0.301400  1.0  0.0544
  C  C91  1  0.633800  0.866200  0.301400  1.0  0.0544
  C  C92  1  0.633800  0.366200  0.801400  1.0  0.0544
  C  C93  1  0.866200  0.866200  0.198600  1.0  0.0525
  C  C94  1  0.866200  0.366200  0.698600  1.0  0.0525
  C  C95  1  0.366200  0.866200  0.698600  1.0  0.0525
  C  C96  1  0.366200  0.366200  0.198600  1.0  0.0525
  C  C97  1  0.133800  0.198600  0.866200  1.0  0.0541
  C  C98  1  0.133800  0.698600  0.366200  1.0  0.0541
  C  C99  1  0.633800  0.198600  0.366200  1.0  0.0541
  C  C100  1  0.633800  0.698600  0.866200  1.0  0.0541
  C  C101  1  0.866200  0.801400  0.866200  1.0  0.0528
  C  C102  1  0.866200  0.301400  0.366200  1.0  0.0528
  C  C103  1  0.366200  0.801400  0.366200  1.0  0.0528
  C  C104  1  0.366200  0.301400  0.866200  1.0  0.0528
  C  C105  1  0.133800  0.801400  0.133800  1.0  0.0517
  C  C106  1  0.133800  0.301400  0.633800  1.0  0.0517
  C  C107  1  0.633800  0.801400  0.633800  1.0  0.0517
  C  C108  1  0.633800  0.301400  0.133800  1.0  0.0517
  C  C109  1  0.866200  0.198600  0.133800  1.0  0.0519
  C  C110  1  0.866200  0.698600  0.633800  1.0  0.0519
  C  C111  1  0.366200  0.198600  0.633800  1.0  0.0519
  C  C112  1  0.366200  0.698600  0.133800  1.0  0.0519
  C  C113  1  0.198600  0.133800  0.866200  1.0  0.0515
  C  C114  1  0.198600  0.633800  0.366200  1.0  0.0515
  C  C115  1  0.698600  0.133800  0.366200  1.0  0.0515
  C  C116  1  0.698600  0.633800  0.866200  1.0  0.0515
  C  C117  1  0.801400  0.133800  0.133800  1.0  0.0516
  C  C118  1  0.801400  0.633800  0.633800  1.0  0.0516
  C  C119  1  0.301400  0.133800  0.633800  1.0  0.0516
  C  C120  1  0.301400  0.633800  0.133800  1.0  0.0516
  C  C121  1  0.801400  0.866200  0.866200  1.0  0.0549
  C  C122  1  0.801400  0.366200  0.366200  1.0  0.0549
  C  C123  1  0.301400  0.866200  0.366200  1.0  0.0549
  C  C124  1  0.301400  0.366200  0.866200  1.0  0.0549
  C  C125  1  0.198600  0.866200  0.133800  1.0  0.0506
  C  C126  1  0.198600  0.366200  0.633800  1.0  0.0506
  C  C127  1  0.698600  0.866200  0.633800  1.0  0.0506
  C  C128  1  0.698600  0.366200  0.133800  1.0  0.0506
  C  C129  1  0.133800  0.133800  0.801400  1.0  0.0537
  C  C130  1  0.133800  0.633800  0.301400  1.0  0.0537
  C  C131  1  0.633800  0.133800  0.301400  1.0  0.0537
  C  C132  1  0.633800  0.633800  0.801400  1.0  0.0537
  C  C133  1  0.133800  0.866200  0.198600  1.0  0.0531
  C  C134  1  0.133800  0.366200  0.698600  1.0  0.0531
  C  C135  1  0.633800  0.866200  0.698600  1.0  0.0531
  C  C136  1  0.633800  0.366200  0.198600  1.0  0.0531
  C  C137  1  0.866200  0.133800  0.198600  1.0  0.0511
  C  C138  1  0.866200  0.633800  0.698600  1.0  0.0511
  C  C139  1  0.366200  0.133800  0.698600  1.0  0.0511
  C  C140  1  0.366200  0.633800  0.198600  1.0  0.0511
  C  C141  1  0.866200  0.866200  0.801400  1.0  0.0537
  C  C142  1  0.866200  0.366200  0.301400  1.0  0.0537
  C  C143  1  0.366200  0.866200  0.301400  1.0  0.0537
  C  C144  1  0.366200  0.366200  0.801400  1.0  0.0537
  C  C145  1  0.203800  0.068000  0.203800  1.0  0.703
  C  C146  1  0.176800  0.110900  0.176800  1.0  -0.0933
  C  C147  1  0.203800  0.568000  0.703800  1.0  0.703
  C  C148  1  0.176800  0.610900  0.676800  1.0  -0.0933
  C  C149  1  0.703800  0.068000  0.703800  1.0  0.703
  C  C150  1  0.676800  0.110900  0.676800  1.0  -0.0933
  C  C151  1  0.703800  0.568000  0.203800  1.0  0.703
  C  C152  1  0.676800  0.610900  0.176800  1.0  -0.0933
  C  C153  1  0.796200  0.932000  0.203800  1.0  0.7032
  C  C154  1  0.823200  0.889100  0.176800  1.0  -0.0918
  C  C155  1  0.796200  0.432000  0.703800  1.0  0.7032
  C  C156  1  0.823200  0.389100  0.676800  1.0  -0.0918
  C  C157  1  0.296200  0.932000  0.703800  1.0  0.7032
  C  C158  1  0.323200  0.889100  0.676800  1.0  -0.0918
  C  C159  1  0.296200  0.432000  0.203800  1.0  0.7032
  C  C160  1  0.323200  0.389100  0.176800  1.0  -0.0918
  C  C161  1  0.796200  0.068000  0.796200  1.0  0.7025
  C  C162  1  0.823200  0.110900  0.823200  1.0  -0.0931
  C  C163  1  0.796200  0.568000  0.296200  1.0  0.7025
  C  C164  1  0.823200  0.610900  0.323200  1.0  -0.0931
  C  C165  1  0.296200  0.068000  0.296200  1.0  0.7025
  C  C166  1  0.323200  0.110900  0.323200  1.0  -0.0931
  C  C167  1  0.296200  0.568000  0.796200  1.0  0.7025
  C  C168  1  0.323200  0.610900  0.823200  1.0  -0.0931
  C  C169  1  0.203800  0.932000  0.796200  1.0  0.7028
  C  C170  1  0.176800  0.889100  0.823200  1.0  -0.0925
  C  C171  1  0.203800  0.432000  0.296200  1.0  0.7028
  C  C172  1  0.176800  0.389100  0.323200  1.0  -0.0925
  C  C173  1  0.703800  0.932000  0.296200  1.0  0.7028
  C  C174  1  0.676800  0.889100  0.323200  1.0  -0.0925
  C  C175  1  0.703800  0.432000  0.796200  1.0  0.7028
  C  C176  1  0.676800  0.389100  0.823200  1.0  -0.0925
  C  C177  1  0.203800  0.203800  0.068000  1.0  0.7029
  C  C178  1  0.176800  0.176800  0.110900  1.0  -0.0932
  C  C179  1  0.203800  0.703800  0.568000  1.0  0.7029
  C  C180  1  0.176800  0.676800  0.610900  1.0  -0.0932
  C  C181  1  0.703800  0.203800  0.568000  1.0  0.7029
  C  C182  1  0.676800  0.176800  0.610900  1.0  -0.0932
  C  C183  1  0.703800  0.703800  0.068000  1.0  0.7029
  C  C184  1  0.676800  0.676800  0.110900  1.0  -0.0932
  C  C185  1  0.203800  0.796200  0.932000  1.0  0.7033
  C  C186  1  0.176800  0.823200  0.889100  1.0  -0.0931
  C  C187  1  0.203800  0.296200  0.432000  1.0  0.7033
  C  C188  1  0.176800  0.323200  0.389100  1.0  -0.0931
  C  C189  1  0.703800  0.796200  0.432000  1.0  0.7033
  C  C190  1  0.676800  0.823200  0.389100  1.0  -0.0931
  C  C191  1  0.703800  0.296200  0.932000  1.0  0.7033
  C  C192  1  0.676800  0.323200  0.889100  1.0  -0.0931
  C  C193  1  0.796200  0.796200  0.068000  1.0  0.703
  C  C194  1  0.823200  0.823200  0.110900  1.0  -0.093
  C  C195  1  0.796200  0.296200  0.568000  1.0  0.703
  C  C196  1  0.823200  0.323200  0.610900  1.0  -0.093
  C  C197  1  0.296200  0.796200  0.568000  1.0  0.703
  C  C198  1  0.323200  0.823200  0.610900  1.0  -0.093
  C  C199  1  0.296200  0.296200  0.068000  1.0  0.703
  C  C200  1  0.323200  0.323200  0.110900  1.0  -0.093
  C  C201  1  0.796200  0.203800  0.932000  1.0  0.7033
  C  C202  1  0.823200  0.176800  0.889100  1.0  -0.0923
  C  C203  1  0.796200  0.703800  0.432000  1.0  0.7033
  C  C204  1  0.823200  0.676800  0.389100  1.0  -0.0923
  C  C205  1  0.296200  0.203800  0.432000  1.0  0.7033
  C  C206  1  0.323200  0.176800  0.389100  1.0  -0.0923
  C  C207  1  0.296200  0.703800  0.932000  1.0  0.7033
  C  C208  1  0.323200  0.676800  0.889100  1.0  -0.0923
  C  C209  1  0.068000  0.203800  0.203800  1.0  0.7008
  C  C210  1  0.110900  0.176800  0.176800  1.0  -0.0934
  C  C211  1  0.068000  0.703800  0.703800  1.0  0.7008
  C  C212  1  0.110900  0.676800  0.676800  1.0  -0.0934
  C  C213  1  0.568000  0.203800  0.703800  1.0  0.7008
  C  C214  1  0.610900  0.176800  0.676800  1.0  -0.0934
  C  C215  1  0.568000  0.703800  0.203800  1.0  0.7008
  C  C216  1  0.610900  0.676800  0.176800  1.0  -0.0934
  C  C217  1  0.932000  0.203800  0.796200  1.0  0.7004
  C  C218  1  0.889100  0.176800  0.823200  1.0  -0.0935
  C  C219  1  0.932000  0.703800  0.296200  1.0  0.7004
  C  C220  1  0.889100  0.676800  0.323200  1.0  -0.0935
  C  C221  1  0.432000  0.203800  0.296200  1.0  0.7004
  C  C222  1  0.389100  0.176800  0.323200  1.0  -0.0935
  C  C223  1  0.432000  0.703800  0.796200  1.0  0.7004
  C  C224  1  0.389100  0.676800  0.823200  1.0  -0.0935
  C  C225  1  0.068000  0.796200  0.796200  1.0  0.7004
  C  C226  1  0.110900  0.823200  0.823200  1.0  -0.0938
  C  C227  1  0.068000  0.296200  0.296200  1.0  0.7004
  C  C228  1  0.110900  0.323200  0.323200  1.0  -0.0938
  C  C229  1  0.568000  0.796200  0.296200  1.0  0.7004
  C  C230  1  0.610900  0.823200  0.323200  1.0  -0.0938
  C  C231  1  0.568000  0.296200  0.796200  1.0  0.7004
  C  C232  1  0.610900  0.323200  0.823200  1.0  -0.0938
  C  C233  1  0.932000  0.796200  0.203800  1.0  0.7008
  C  C234  1  0.889100  0.823200  0.176800  1.0  -0.0932
  C  C235  1  0.932000  0.296200  0.703800  1.0  0.7008
  C  C236  1  0.889100  0.323200  0.676800  1.0  -0.0932
  C  C237  1  0.432000  0.796200  0.703800  1.0  0.7008
  C  C238  1  0.389100  0.823200  0.676800  1.0  -0.0932
  C  C239  1  0.432000  0.296200  0.203800  1.0  0.7008
  C  C240  1  0.389100  0.323200  0.176800  1.0  -0.0932
  C  C241  1  0.068000  0.203800  0.796200  1.0  0.7002
  C  C242  1  0.110900  0.176800  0.823200  1.0  -0.0935
  C  C243  1  0.068000  0.703800  0.296200  1.0  0.7002
  C  C244  1  0.110900  0.676800  0.323200  1.0  -0.0935
  C  C245  1  0.568000  0.203800  0.296200  1.0  0.7002
  C  C246  1  0.610900  0.176800  0.323200  1.0  -0.0935
  C  C247  1  0.568000  0.703800  0.796200  1.0  0.7002
  C  C248  1  0.610900  0.676800  0.823200  1.0  -0.0935
  C  C249  1  0.932000  0.796200  0.796200  1.0  0.7004
  C  C250  1  0.889100  0.823200  0.823200  1.0  -0.0936
  C  C251  1  0.932000  0.296200  0.296200  1.0  0.7004
  C  C252  1  0.889100  0.323200  0.323200  1.0  -0.0936
  C  C253  1  0.432000  0.796200  0.296200  1.0  0.7004
  C  C254  1  0.389100  0.823200  0.323200  1.0  -0.0936
  C  C255  1  0.432000  0.296200  0.796200  1.0  0.7004
  C  C256  1  0.389100  0.323200  0.823200  1.0  -0.0936
  C  C257  1  0.068000  0.796200  0.203800  1.0  0.7009
  C  C258  1  0.110900  0.823200  0.176800  1.0  -0.0937
  C  C259  1  0.068000  0.296200  0.703800  1.0  0.7009
  C  C260  1  0.110900  0.323200  0.676800  1.0  -0.0937
  C  C261  1  0.568000  0.796200  0.703800  1.0  0.7009
  C  C262  1  0.610900  0.823200  0.676800  1.0  -0.0937
  C  C263  1  0.568000  0.296200  0.203800  1.0  0.7009
  C  C264  1  0.610900  0.323200  0.176800  1.0  -0.0937
  C  C265  1  0.932000  0.203800  0.203800  1.0  0.7009
  C  C266  1  0.889100  0.176800  0.176800  1.0  -0.0932
  C  C267  1  0.932000  0.703800  0.703800  1.0  0.7009
  C  C268  1  0.889100  0.676800  0.676800  1.0  -0.0932
  C  C269  1  0.432000  0.203800  0.703800  1.0  0.7009
  C  C270  1  0.389100  0.176800  0.676800  1.0  -0.0932
  C  C271  1  0.432000  0.703800  0.203800  1.0  0.7009
  C  C272  1  0.389100  0.676800  0.176800  1.0  -0.0932
  C  C273  1  0.203800  0.203800  0.932000  1.0  0.7032
  C  C274  1  0.176800  0.176800  0.889100  1.0  -0.0928
  C  C275  1  0.203800  0.703800  0.432000  1.0  0.7032
  C  C276  1  0.176800  0.676800  0.389100  1.0  -0.0928
  C  C277  1  0.703800  0.203800  0.432000  1.0  0.7032
  C  C278  1  0.676800  0.176800  0.389100  1.0  -0.0928
  C  C279  1  0.703800  0.703800  0.932000  1.0  0.7032
  C  C280  1  0.676800  0.676800  0.889100  1.0  -0.0928
  C  C281  1  0.796200  0.203800  0.068000  1.0  0.7028
  C  C282  1  0.823200  0.176800  0.110900  1.0  -0.0927
  C  C283  1  0.796200  0.703800  0.568000  1.0  0.7028
  C  C284  1  0.823200  0.676800  0.610900  1.0  -0.0927
  C  C285  1  0.296200  0.203800  0.568000  1.0  0.7028
  C  C286  1  0.323200  0.176800  0.610900  1.0  -0.0927
  C  C287  1  0.296200  0.703800  0.068000  1.0  0.7028
  C  C288  1  0.323200  0.676800  0.110900  1.0  -0.0927
  C  C289  1  0.796200  0.796200  0.932000  1.0  0.7032
  C  C290  1  0.823200  0.823200  0.889100  1.0  -0.0925
  C  C291  1  0.796200  0.296200  0.432000  1.0  0.7032
  C  C292  1  0.823200  0.323200  0.389100  1.0  -0.0925
  C  C293  1  0.296200  0.796200  0.432000  1.0  0.7032
  C  C294  1  0.323200  0.823200  0.389100  1.0  -0.0925
  C  C295  1  0.296200  0.296200  0.932000  1.0  0.7032
  C  C296  1  0.323200  0.323200  0.889100  1.0  -0.0925
  C  C297  1  0.203800  0.796200  0.068000  1.0  0.7033
  C  C298  1  0.176800  0.823200  0.110900  1.0  -0.0936
  C  C299  1  0.203800  0.296200  0.568000  1.0  0.7033
  C  C300  1  0.176800  0.323200  0.610900  1.0  -0.0936
  C  C301  1  0.703800  0.796200  0.568000  1.0  0.7033
  C  C302  1  0.676800  0.823200  0.610900  1.0  -0.0936
  C  C303  1  0.703800  0.296200  0.068000  1.0  0.7033
  C  C304  1  0.676800  0.323200  0.110900  1.0  -0.0936
  C  C305  1  0.203800  0.068000  0.796200  1.0  0.7028
  C  C306  1  0.176800  0.110900  0.823200  1.0  -0.0936
  C  C307  1  0.203800  0.568000  0.296200  1.0  0.7028
  C  C308  1  0.176800  0.610900  0.323200  1.0  -0.0936
  C  C309  1  0.703800  0.068000  0.296200  1.0  0.7028
  C  C310  1  0.676800  0.110900  0.323200  1.0  -0.0936
  C  C311  1  0.703800  0.568000  0.796200  1.0  0.7028
  C  C312  1  0.676800  0.610900  0.823200  1.0  -0.0936
  C  C313  1  0.203800  0.932000  0.203800  1.0  0.7031
  C  C314  1  0.176800  0.889100  0.176800  1.0  -0.0922
  C  C315  1  0.203800  0.432000  0.703800  1.0  0.7031
  C  C316  1  0.176800  0.389100  0.676800  1.0  -0.0922
  C  C317  1  0.703800  0.932000  0.703800  1.0  0.7031
  C  C318  1  0.676800  0.889100  0.676800  1.0  -0.0922
  C  C319  1  0.703800  0.432000  0.203800  1.0  0.7031
  C  C320  1  0.676800  0.389100  0.176800  1.0  -0.0922
  C  C321  1  0.796200  0.068000  0.203800  1.0  0.703
  C  C322  1  0.823200  0.110900  0.176800  1.0  -0.0928
  C  C323  1  0.796200  0.568000  0.703800  1.0  0.703
  C  C324  1  0.823200  0.610900  0.676800  1.0  -0.0928
  C  C325  1  0.296200  0.068000  0.703800  1.0  0.703
  C  C326  1  0.323200  0.110900  0.676800  1.0  -0.0928
  C  C327  1  0.296200  0.568000  0.203800  1.0  0.703
  C  C328  1  0.323200  0.610900  0.176800  1.0  -0.0928
  C  C329  1  0.796200  0.932000  0.796200  1.0  0.7025
  C  C330  1  0.823200  0.889100  0.823200  1.0  -0.0921
  C  C331  1  0.796200  0.432000  0.296200  1.0  0.7025
  C  C332  1  0.823200  0.389100  0.323200  1.0  -0.0921
  C  C333  1  0.296200  0.932000  0.296200  1.0  0.7025
  C  C334  1  0.323200  0.889100  0.323200  1.0  -0.0921
  C  C335  1  0.296200  0.432000  0.796200  1.0  0.7025
  C  C336  1  0.323200  0.389100  0.823200  1.0  -0.0921
  O  O337  1  0.243800  0.051900  0.183700  1.0  -0.5565
  O  O338  1  0.243800  0.551900  0.683700  1.0  -0.5645
  O  O339  1  0.743800  0.051900  0.683700  1.0  -0.5574
  O  O340  1  0.743800  0.551900  0.183700  1.0  -0.5553
  O  O341  1  0.756200  0.948100  0.183700  1.0  -0.5603
  O  O342  1  0.756200  0.448100  0.683700  1.0  -0.5621
  O  O343  1  0.256200  0.948100  0.683700  1.0  -0.5612
  O  O344  1  0.256200  0.448100  0.183700  1.0  -0.5541
  O  O345  1  0.756200  0.051900  0.816300  1.0  -0.5632
  O  O346  1  0.756200  0.551900  0.316300  1.0  -0.5632
  O  O347  1  0.256200  0.051900  0.316300  1.0  -0.5571
  O  O348  1  0.256200  0.551900  0.816300  1.0  -0.5629
  O  O349  1  0.243800  0.948100  0.816300  1.0  -0.5554
  O  O350  1  0.243800  0.448100  0.316300  1.0  -0.5641
  O  O351  1  0.743800  0.948100  0.316300  1.0  -0.5617
  O  O352  1  0.743800  0.448100  0.816300  1.0  -0.5638
  O  O353  1  0.183700  0.243800  0.051900  1.0  -0.5586
  O  O354  1  0.183700  0.743800  0.551900  1.0  -0.5567
  O  O355  1  0.683700  0.243800  0.551900  1.0  -0.567
  O  O356  1  0.683700  0.743800  0.051900  1.0  -0.5585
  O  O357  1  0.183700  0.756200  0.948100  1.0  -0.5636
  O  O358  1  0.183700  0.256200  0.448100  1.0  -0.558
  O  O359  1  0.683700  0.756200  0.448100  1.0  -0.5659
  O  O360  1  0.683700  0.256200  0.948100  1.0  -0.5644
  O  O361  1  0.816300  0.756200  0.051900  1.0  -0.5666
  O  O362  1  0.816300  0.256200  0.551900  1.0  -0.5662
  O  O363  1  0.316300  0.756200  0.551900  1.0  -0.5666
  O  O364  1  0.316300  0.256200  0.051900  1.0  -0.5597
  O  O365  1  0.816300  0.243800  0.948100  1.0  -0.5577
  O  O366  1  0.816300  0.743800  0.448100  1.0  -0.565
  O  O367  1  0.316300  0.243800  0.448100  1.0  -0.5667
  O  O368  1  0.316300  0.743800  0.948100  1.0  -0.5632
  O  O369  1  0.051900  0.183700  0.243800  1.0  -0.5599
  O  O370  1  0.051900  0.683700  0.743800  1.0  -0.5599
  O  O371  1  0.551900  0.183700  0.743800  1.0  -0.558
  O  O372  1  0.551900  0.683700  0.243800  1.0  -0.5668
  O  O373  1  0.948100  0.183700  0.756200  1.0  -0.5642
  O  O374  1  0.948100  0.683700  0.256200  1.0  -0.5646
  O  O375  1  0.448100  0.183700  0.256200  1.0  -0.5602
  O  O376  1  0.448100  0.683700  0.756200  1.0  -0.5662
  O  O377  1  0.051900  0.816300  0.756200  1.0  -0.5661
  O  O378  1  0.051900  0.316300  0.256200  1.0  -0.5606
  O  O379  1  0.551900  0.816300  0.256200  1.0  -0.5654
  O  O380  1  0.551900  0.316300  0.756200  1.0  -0.5668
  O  O381  1  0.948100  0.816300  0.243800  1.0  -0.5568
  O  O382  1  0.948100  0.316300  0.743800  1.0  -0.562
  O  O383  1  0.448100  0.816300  0.743800  1.0  -0.563
  O  O384  1  0.448100  0.316300  0.243800  1.0  -0.5656
  O  O385  1  0.051900  0.243800  0.816300  1.0  -0.5627
  O  O386  1  0.051900  0.743800  0.316300  1.0  -0.5541
  O  O387  1  0.551900  0.243800  0.316300  1.0  -0.5639
  O  O388  1  0.551900  0.743800  0.816300  1.0  -0.5621
  O  O389  1  0.948100  0.756200  0.816300  1.0  -0.5541
  O  O390  1  0.948100  0.256200  0.316300  1.0  -0.5637
  O  O391  1  0.448100  0.756200  0.316300  1.0  -0.5657
  O  O392  1  0.448100  0.256200  0.816300  1.0  -0.5647
  O  O393  1  0.051900  0.756200  0.183700  1.0  -0.5571
  O  O394  1  0.051900  0.256200  0.683700  1.0  -0.5577
  O  O395  1  0.551900  0.756200  0.683700  1.0  -0.5638
  O  O396  1  0.551900  0.256200  0.183700  1.0  -0.5566
  O  O397  1  0.948100  0.243800  0.183700  1.0  -0.5628
  O  O398  1  0.948100  0.743800  0.683700  1.0  -0.5631
  O  O399  1  0.448100  0.243800  0.683700  1.0  -0.5661
  O  O400  1  0.448100  0.743800  0.183700  1.0  -0.5549
  O  O401  1  0.243800  0.183700  0.948100  1.0  -0.565
  O  O402  1  0.243800  0.683700  0.448100  1.0  -0.5671
  O  O403  1  0.743800  0.183700  0.448100  1.0  -0.5586
  O  O404  1  0.743800  0.683700  0.948100  1.0  -0.5652
  O  O405  1  0.756200  0.183700  0.051900  1.0  -0.5599
  O  O406  1  0.756200  0.683700  0.551900  1.0  -0.5668
  O  O407  1  0.256200  0.183700  0.551900  1.0  -0.5603
  O  O408  1  0.256200  0.683700  0.051900  1.0  -0.5605
  O  O409  1  0.756200  0.816300  0.948100  1.0  -0.555
  O  O410  1  0.756200  0.316300  0.448100  1.0  -0.5672
  O  O411  1  0.256200  0.816300  0.448100  1.0  -0.5645
  O  O412  1  0.256200  0.316300  0.948100  1.0  -0.5645
  O  O413  1  0.243800  0.816300  0.051900  1.0  -0.5655
  O  O414  1  0.243800  0.316300  0.551900  1.0  -0.5677
  O  O415  1  0.743800  0.816300  0.551900  1.0  -0.5655
  O  O416  1  0.743800  0.316300  0.051900  1.0  -0.5573
  O  O417  1  0.183700  0.051900  0.756200  1.0  -0.5578
  O  O418  1  0.183700  0.551900  0.256200  1.0  -0.5576
  O  O419  1  0.683700  0.051900  0.256200  1.0  -0.5582
  O  O420  1  0.683700  0.551900  0.756200  1.0  -0.5646
  O  O421  1  0.183700  0.948100  0.243800  1.0  -0.5614
  O  O422  1  0.183700  0.448100  0.743800  1.0  -0.5539
  O  O423  1  0.683700  0.948100  0.743800  1.0  -0.5617
  O  O424  1  0.683700  0.448100  0.243800  1.0  -0.5632
  O  O425  1  0.816300  0.051900  0.243800  1.0  -0.5639
  O  O426  1  0.816300  0.551900  0.743800  1.0  -0.5633
  O  O427  1  0.316300  0.051900  0.743800  1.0  -0.5548
  O  O428  1  0.316300  0.551900  0.243800  1.0  -0.564
  O  O429  1  0.816300  0.948100  0.756200  1.0  -0.5539
  O  O430  1  0.816300  0.448100  0.256200  1.0  -0.5649
  O  O431  1  0.316300  0.948100  0.256200  1.0  -0.5642
  O  O432  1  0.316300  0.448100  0.756200  1.0  -0.5643
  O  O433  1  0.756200  0.948100  0.816300  1.0  -0.5523
  O  O434  1  0.756200  0.448100  0.316300  1.0  -0.563
  O  O435  1  0.256200  0.948100  0.316300  1.0  -0.5622
  O  O436  1  0.256200  0.448100  0.816300  1.0  -0.5624
  O  O437  1  0.243800  0.051900  0.816300  1.0  -0.5644
  O  O438  1  0.243800  0.551900  0.316300  1.0  -0.5645
  O  O439  1  0.743800  0.051900  0.316300  1.0  -0.5535
  O  O440  1  0.743800  0.551900  0.816300  1.0  -0.5632
  O  O441  1  0.243800  0.948100  0.183700  1.0  -0.5619
  O  O442  1  0.243800  0.448100  0.683700  1.0  -0.5648
  O  O443  1  0.743800  0.948100  0.683700  1.0  -0.5618
  O  O444  1  0.743800  0.448100  0.183700  1.0  -0.5535
  O  O445  1  0.756200  0.051900  0.183700  1.0  -0.5553
  O  O446  1  0.756200  0.551900  0.683700  1.0  -0.5627
  O  O447  1  0.256200  0.051900  0.683700  1.0  -0.5557
  O  O448  1  0.256200  0.551900  0.183700  1.0  -0.5542
  O  O449  1  0.816300  0.756200  0.948100  1.0  -0.5566
  O  O450  1  0.816300  0.256200  0.448100  1.0  -0.5663
  O  O451  1  0.316300  0.756200  0.448100  1.0  -0.5675
  O  O452  1  0.316300  0.256200  0.948100  1.0  -0.5656
  O  O453  1  0.816300  0.243800  0.051900  1.0  -0.5652
  O  O454  1  0.816300  0.743800  0.551900  1.0  -0.5645
  O  O455  1  0.316300  0.243800  0.551900  1.0  -0.5668
  O  O456  1  0.316300  0.743800  0.051900  1.0  -0.5561
  O  O457  1  0.183700  0.243800  0.948100  1.0  -0.5636
  O  O458  1  0.183700  0.743800  0.448100  1.0  -0.5561
  O  O459  1  0.683700  0.243800  0.448100  1.0  -0.5669
  O  O460  1  0.683700  0.743800  0.948100  1.0  -0.5636
  O  O461  1  0.183700  0.756200  0.051900  1.0  -0.5582
  O  O462  1  0.183700  0.256200  0.551900  1.0  -0.5581
  O  O463  1  0.683700  0.756200  0.551900  1.0  -0.5669
  O  O464  1  0.683700  0.256200  0.051900  1.0  -0.5593
  O  O465  1  0.948100  0.816300  0.756200  1.0  -0.5553
  O  O466  1  0.948100  0.316300  0.256200  1.0  -0.5651
  O  O467  1  0.448100  0.816300  0.256200  1.0  -0.5656
  O  O468  1  0.448100  0.316300  0.756200  1.0  -0.5663
  O  O469  1  0.051900  0.816300  0.243800  1.0  -0.5631
  O  O470  1  0.051900  0.316300  0.743800  1.0  -0.5563
  O  O471  1  0.551900  0.816300  0.743800  1.0  -0.5628
  O  O472  1  0.551900  0.316300  0.243800  1.0  -0.5653
  O  O473  1  0.948100  0.183700  0.243800  1.0  -0.5644
  O  O474  1  0.948100  0.683700  0.743800  1.0  -0.5643
  O  O475  1  0.448100  0.183700  0.743800  1.0  -0.5587
  O  O476  1  0.448100  0.683700  0.243800  1.0  -0.567
  O  O477  1  0.051900  0.183700  0.756200  1.0  -0.5594
  O  O478  1  0.051900  0.683700  0.256200  1.0  -0.5596
  O  O479  1  0.551900  0.183700  0.256200  1.0  -0.5596
  O  O480  1  0.551900  0.683700  0.756200  1.0  -0.5651
  O  O481  1  0.948100  0.756200  0.183700  1.0  -0.5613
  O  O482  1  0.948100  0.256200  0.683700  1.0  -0.5613
  O  O483  1  0.448100  0.756200  0.683700  1.0  -0.5634
  O  O484  1  0.448100  0.256200  0.183700  1.0  -0.5557
  O  O485  1  0.051900  0.243800  0.183700  1.0  -0.557
  O  O486  1  0.051900  0.743800  0.683700  1.0  -0.5568
  O  O487  1  0.551900  0.243800  0.683700  1.0  -0.5656
  O  O488  1  0.551900  0.743800  0.183700  1.0  -0.5547
  O  O489  1  0.948100  0.243800  0.816300  1.0  -0.5559
  O  O490  1  0.948100  0.743800  0.316300  1.0  -0.5616
  O  O491  1  0.448100  0.243800  0.316300  1.0  -0.5649
  O  O492  1  0.448100  0.743800  0.816300  1.0  -0.5632
  O  O493  1  0.051900  0.756200  0.816300  1.0  -0.5656
  O  O494  1  0.051900  0.256200  0.316300  1.0  -0.5597
  O  O495  1  0.551900  0.756200  0.316300  1.0  -0.5647
  O  O496  1  0.551900  0.256200  0.816300  1.0  -0.5639
  O  O497  1  0.756200  0.816300  0.051900  1.0  -0.5666
  O  O498  1  0.756200  0.316300  0.551900  1.0  -0.5666
  O  O499  1  0.256200  0.816300  0.551900  1.0  -0.5638
  O  O500  1  0.256200  0.316300  0.051900  1.0  -0.5592
  O  O501  1  0.243800  0.816300  0.948100  1.0  -0.5587
  O  O502  1  0.243800  0.316300  0.448100  1.0  -0.5681
  O  O503  1  0.743800  0.816300  0.448100  1.0  -0.5657
  O  O504  1  0.743800  0.316300  0.948100  1.0  -0.5645
  O  O505  1  0.243800  0.183700  0.051900  1.0  -0.5606
  O  O506  1  0.243800  0.683700  0.551900  1.0  -0.5683
  O  O507  1  0.743800  0.183700  0.551900  1.0  -0.5585
  O  O508  1  0.743800  0.683700  0.051900  1.0  -0.5604
  O  O509  1  0.756200  0.183700  0.948100  1.0  -0.5639
  O  O510  1  0.756200  0.683700  0.448100  1.0  -0.5667
  O  O511  1  0.256200  0.183700  0.448100  1.0  -0.5592
  O  O512  1  0.256200  0.683700  0.948100  1.0  -0.5639
  O  O513  1  0.816300  0.948100  0.243800  1.0  -0.556
  O  O514  1  0.816300  0.448100  0.743800  1.0  -0.5631
  O  O515  1  0.316300  0.948100  0.743800  1.0  -0.5615
  O  O516  1  0.316300  0.448100  0.243800  1.0  -0.5634
  O  O517  1  0.816300  0.051900  0.756200  1.0  -0.5643
  O  O518  1  0.816300  0.551900  0.256200  1.0  -0.5645
  O  O519  1  0.316300  0.051900  0.256200  1.0  -0.5595
  O  O520  1  0.316300  0.551900  0.756200  1.0  -0.5645
  O  O521  1  0.183700  0.948100  0.756200  1.0  -0.5632
  O  O522  1  0.183700  0.448100  0.256200  1.0  -0.5568
  O  O523  1  0.683700  0.948100  0.256200  1.0  -0.5632
  O  O524  1  0.683700  0.448100  0.756200  1.0  -0.5644
  O  O525  1  0.183700  0.051900  0.243800  1.0  -0.5563
  O  O526  1  0.183700  0.551900  0.743800  1.0  -0.5549
  O  O527  1  0.683700  0.051900  0.743800  1.0  -0.5563
  O  O528  1  0.683700  0.551900  0.243800  1.0  -0.5636
