# generated using pymatgen
data_Cu(C3O2)2
_symmetry_space_group_name_H-M   'P 1'
_cell_length_a   26.35300000
_cell_length_b   26.35300000
_cell_length_c   26.35300000
_cell_angle_alpha   90.00000000
_cell_angle_beta   90.00000000
_cell_angle_gamma   90.00000000
_symmetry_Int_Tables_number   1
_chemical_formula_structural   Cu(C3O2)2
_chemical_formula_sum   'Cu48 C288 O192'
_cell_volume   18301.64748898
_cell_formula_units_Z   48
loop_
 _symmetry_equiv_pos_site_id
 _symmetry_equiv_pos_as_xyz
  1  'x, y, z'
loop_
 _atom_site_type_symbol
 _atom_site_label
 _atom_site_symmetry_multiplicity
 _atom_site_fract_x
 _atom_site_fract_y
 _atom_site_fract_z
 _atom_site_occupancy
 _atom_site_charge
  Cu  Cu1  1  0.285000  0.000000  0.215000  1.0  0.9264
  Cu  Cu2  1  0.285000  0.500000  0.715000  1.0  0.9264
  Cu  Cu3  1  0.715000  0.000000  0.215000  1.0  0.9279
  Cu  Cu4  1  0.715000  0.500000  0.715000  1.0  0.9279
  Cu  Cu5  1  0.215000  0.500000  0.215000  1.0  0.9279
  Cu  Cu6  1  0.715000  0.000000  0.785000  1.0  0.9269
  Cu  Cu7  1  0.715000  0.500000  0.285000  1.0  0.9269
  Cu  Cu8  1  0.215000  0.000000  0.285000  1.0  0.9269
  Cu  Cu9  1  0.285000  0.000000  0.785000  1.0  0.9259
  Cu  Cu10  1  0.285000  0.500000  0.285000  1.0  0.9259
  Cu  Cu11  1  0.215000  0.285000  0.000000  1.0  0.93
  Cu  Cu12  1  0.215000  0.785000  0.500000  1.0  0.93
  Cu  Cu13  1  0.215000  0.715000  0.000000  1.0  0.9284
  Cu  Cu14  1  0.215000  0.215000  0.500000  1.0  0.9284
  Cu  Cu15  1  0.785000  0.715000  0.000000  1.0  0.927
  Cu  Cu16  1  0.785000  0.215000  0.500000  1.0  0.927
  Cu  Cu17  1  0.285000  0.215000  0.000000  1.0  0.927
  Cu  Cu18  1  0.785000  0.285000  0.000000  1.0  0.9295
  Cu  Cu19  1  0.785000  0.785000  0.500000  1.0  0.9295
  Cu  Cu20  1  0.285000  0.285000  0.500000  1.0  0.9295
  Cu  Cu21  1  0.000000  0.215000  0.285000  1.0  0.9258
  Cu  Cu22  1  0.500000  0.215000  0.785000  1.0  0.9258
  Cu  Cu23  1  0.000000  0.215000  0.715000  1.0  0.9264
  Cu  Cu24  1  0.500000  0.215000  0.215000  1.0  0.9264
  Cu  Cu25  1  0.000000  0.785000  0.715000  1.0  0.9281
  Cu  Cu26  1  0.000000  0.285000  0.215000  1.0  0.9281
  Cu  Cu27  1  0.500000  0.785000  0.215000  1.0  0.9281
  Cu  Cu28  1  0.000000  0.785000  0.285000  1.0  0.9279
  Cu  Cu29  1  0.500000  0.785000  0.785000  1.0  0.9279
  Cu  Cu30  1  0.500000  0.285000  0.285000  1.0  0.9279
  Cu  Cu31  1  0.000000  0.285000  0.785000  1.0  0.9279
  Cu  Cu32  1  0.000000  0.715000  0.785000  1.0  0.9258
  Cu  Cu33  1  0.500000  0.715000  0.285000  1.0  0.9258
  Cu  Cu34  1  0.000000  0.715000  0.215000  1.0  0.9264
  Cu  Cu35  1  0.500000  0.715000  0.715000  1.0  0.9264
  Cu  Cu36  1  0.500000  0.285000  0.715000  1.0  0.9281
  Cu  Cu37  1  0.285000  0.715000  0.500000  1.0  0.927
  Cu  Cu38  1  0.715000  0.215000  0.000000  1.0  0.9284
  Cu  Cu39  1  0.715000  0.715000  0.500000  1.0  0.9284
  Cu  Cu40  1  0.715000  0.785000  0.000000  1.0  0.93
  Cu  Cu41  1  0.715000  0.285000  0.500000  1.0  0.93
  Cu  Cu42  1  0.285000  0.785000  0.000000  1.0  0.9295
  Cu  Cu43  1  0.215000  0.000000  0.715000  1.0  0.9279
  Cu  Cu44  1  0.215000  0.500000  0.785000  1.0  0.9269
  Cu  Cu45  1  0.785000  0.000000  0.285000  1.0  0.9259
  Cu  Cu46  1  0.785000  0.500000  0.785000  1.0  0.9259
  Cu  Cu47  1  0.785000  0.000000  0.715000  1.0  0.9264
  Cu  Cu48  1  0.785000  0.500000  0.215000  1.0  0.9264
  C  C49  1  0.198800  0.132900  0.132900  1.0  0.017
  C  C50  1  0.198800  0.632900  0.632900  1.0  0.017
  C  C51  1  0.698800  0.132900  0.632900  1.0  0.017
  C  C52  1  0.698800  0.632900  0.132900  1.0  0.017
  C  C53  1  0.801200  0.867100  0.132900  1.0  0.0181
  C  C54  1  0.801200  0.367100  0.632900  1.0  0.0181
  C  C55  1  0.301200  0.867100  0.632900  1.0  0.0181
  C  C56  1  0.301200  0.367100  0.132900  1.0  0.0181
  C  C57  1  0.801200  0.132900  0.867100  1.0  0.0185
  C  C58  1  0.801200  0.632900  0.367100  1.0  0.0185
  C  C59  1  0.301200  0.132900  0.367100  1.0  0.0185
  C  C60  1  0.301200  0.632900  0.867100  1.0  0.0185
  C  C61  1  0.198800  0.867100  0.867100  1.0  0.0189
  C  C62  1  0.198800  0.367100  0.367100  1.0  0.0189
  C  C63  1  0.698800  0.867100  0.367100  1.0  0.0189
  C  C64  1  0.698800  0.367100  0.867100  1.0  0.0189
  C  C65  1  0.132900  0.198800  0.132900  1.0  0.0178
  C  C66  1  0.132900  0.698800  0.632900  1.0  0.0178
  C  C67  1  0.632900  0.198800  0.632900  1.0  0.0178
  C  C68  1  0.632900  0.698800  0.132900  1.0  0.0178
  C  C69  1  0.132900  0.801200  0.867100  1.0  0.0174
  C  C70  1  0.132900  0.301200  0.367100  1.0  0.0174
  C  C71  1  0.632900  0.801200  0.367100  1.0  0.0174
  C  C72  1  0.632900  0.301200  0.867100  1.0  0.0174
  C  C73  1  0.867100  0.801200  0.132900  1.0  0.0165
  C  C74  1  0.867100  0.301200  0.632900  1.0  0.0165
  C  C75  1  0.367100  0.801200  0.632900  1.0  0.0165
  C  C76  1  0.367100  0.301200  0.132900  1.0  0.0165
  C  C77  1  0.867100  0.198800  0.867100  1.0  0.0185
  C  C78  1  0.867100  0.698800  0.367100  1.0  0.0185
  C  C79  1  0.367100  0.198800  0.367100  1.0  0.0185
  C  C80  1  0.367100  0.698800  0.867100  1.0  0.0185
  C  C81  1  0.132900  0.132900  0.198800  1.0  0.0136
  C  C82  1  0.132900  0.632900  0.698800  1.0  0.0136
  C  C83  1  0.632900  0.132900  0.698800  1.0  0.0136
  C  C84  1  0.632900  0.632900  0.198800  1.0  0.0136
  C  C85  1  0.867100  0.132900  0.801200  1.0  0.0152
  C  C86  1  0.867100  0.632900  0.301200  1.0  0.0152
  C  C87  1  0.367100  0.132900  0.301200  1.0  0.0152
  C  C88  1  0.367100  0.632900  0.801200  1.0  0.0152
  C  C89  1  0.132900  0.867100  0.801200  1.0  0.0166
  C  C90  1  0.132900  0.367100  0.301200  1.0  0.0166
  C  C91  1  0.632900  0.867100  0.301200  1.0  0.0166
  C  C92  1  0.632900  0.367100  0.801200  1.0  0.0166
  C  C93  1  0.867100  0.867100  0.198800  1.0  0.0142
  C  C94  1  0.867100  0.367100  0.698800  1.0  0.0142
  C  C95  1  0.367100  0.867100  0.698800  1.0  0.0142
  C  C96  1  0.367100  0.367100  0.198800  1.0  0.0142
  C  C97  1  0.132900  0.198800  0.867100  1.0  0.0185
  C  C98  1  0.132900  0.698800  0.367100  1.0  0.0185
  C  C99  1  0.632900  0.198800  0.367100  1.0  0.0185
  C  C100  1  0.632900  0.698800  0.867100  1.0  0.0185
  C  C101  1  0.867100  0.801200  0.867100  1.0  0.0179
  C  C102  1  0.867100  0.301200  0.367100  1.0  0.0179
  C  C103  1  0.367100  0.801200  0.367100  1.0  0.0179
  C  C104  1  0.367100  0.301200  0.867100  1.0  0.0179
  C  C105  1  0.132900  0.801200  0.132900  1.0  0.0164
  C  C106  1  0.132900  0.301200  0.632900  1.0  0.0164
  C  C107  1  0.632900  0.801200  0.632900  1.0  0.0164
  C  C108  1  0.632900  0.301200  0.132900  1.0  0.0164
  C  C109  1  0.867100  0.198800  0.132900  1.0  0.0169
  C  C110  1  0.867100  0.698800  0.632900  1.0  0.0169
  C  C111  1  0.367100  0.198800  0.632900  1.0  0.0169
  C  C112  1  0.367100  0.698800  0.132900  1.0  0.0169
  C  C113  1  0.198800  0.132900  0.867100  1.0  0.0191
  C  C114  1  0.198800  0.632900  0.367100  1.0  0.0191
  C  C115  1  0.698800  0.132900  0.367100  1.0  0.0191
  C  C116  1  0.698800  0.632900  0.867100  1.0  0.0191
  C  C117  1  0.801200  0.132900  0.132900  1.0  0.0168
  C  C118  1  0.801200  0.632900  0.632900  1.0  0.0168
  C  C119  1  0.301200  0.132900  0.632900  1.0  0.0168
  C  C120  1  0.301200  0.632900  0.132900  1.0  0.0168
  C  C121  1  0.801200  0.867100  0.867100  1.0  0.0193
  C  C122  1  0.801200  0.367100  0.367100  1.0  0.0193
  C  C123  1  0.301200  0.867100  0.367100  1.0  0.0193
  C  C124  1  0.301200  0.367100  0.867100  1.0  0.0193
  C  C125  1  0.198800  0.867100  0.132900  1.0  0.0177
  C  C126  1  0.198800  0.367100  0.632900  1.0  0.0177
  C  C127  1  0.698800  0.867100  0.632900  1.0  0.0177
  C  C128  1  0.698800  0.367100  0.132900  1.0  0.0177
  C  C129  1  0.132900  0.132900  0.801200  1.0  0.0157
  C  C130  1  0.132900  0.632900  0.301200  1.0  0.0157
  C  C131  1  0.632900  0.132900  0.301200  1.0  0.0157
  C  C132  1  0.632900  0.632900  0.801200  1.0  0.0157
  C  C133  1  0.132900  0.867100  0.198800  1.0  0.0142
  C  C134  1  0.132900  0.367100  0.698800  1.0  0.0142
  C  C135  1  0.632900  0.867100  0.698800  1.0  0.0142
  C  C136  1  0.632900  0.367100  0.198800  1.0  0.0142
  C  C137  1  0.867100  0.132900  0.198800  1.0  0.0142
  C  C138  1  0.867100  0.632900  0.698800  1.0  0.0142
  C  C139  1  0.367100  0.132900  0.698800  1.0  0.0142
  C  C140  1  0.367100  0.632900  0.198800  1.0  0.0142
  C  C141  1  0.867100  0.867100  0.801200  1.0  0.0161
  C  C142  1  0.867100  0.367100  0.301200  1.0  0.0161
  C  C143  1  0.367100  0.867100  0.301200  1.0  0.0161
  C  C144  1  0.367100  0.367100  0.801200  1.0  0.0161
  C  C145  1  0.202700  0.067700  0.202700  1.0  0.7017
  C  C146  1  0.175900  0.111900  0.175900  1.0  -0.0396
  C  C147  1  0.202700  0.567700  0.702700  1.0  0.7017
  C  C148  1  0.175900  0.611900  0.675900  1.0  -0.0396
  C  C149  1  0.702700  0.067700  0.702700  1.0  0.7017
  C  C150  1  0.675900  0.111900  0.675900  1.0  -0.0396
  C  C151  1  0.702700  0.567700  0.202700  1.0  0.7017
  C  C152  1  0.675900  0.611900  0.175900  1.0  -0.0396
  C  C153  1  0.797300  0.932300  0.202700  1.0  0.7021
  C  C154  1  0.824100  0.888100  0.175900  1.0  -0.0385
  C  C155  1  0.797300  0.432300  0.702700  1.0  0.7021
  C  C156  1  0.824100  0.388100  0.675900  1.0  -0.0385
  C  C157  1  0.297300  0.932300  0.702700  1.0  0.7021
  C  C158  1  0.324100  0.888100  0.675900  1.0  -0.0385
  C  C159  1  0.297300  0.432300  0.202700  1.0  0.7021
  C  C160  1  0.324100  0.388100  0.175900  1.0  -0.0385
  C  C161  1  0.797300  0.067700  0.797300  1.0  0.7011
  C  C162  1  0.824100  0.111900  0.824100  1.0  -0.0387
  C  C163  1  0.797300  0.567700  0.297300  1.0  0.7011
  C  C164  1  0.824100  0.611900  0.324100  1.0  -0.0387
  C  C165  1  0.297300  0.067700  0.297300  1.0  0.7011
  C  C166  1  0.324100  0.111900  0.324100  1.0  -0.0387
  C  C167  1  0.297300  0.567700  0.797300  1.0  0.7011
  C  C168  1  0.324100  0.611900  0.824100  1.0  -0.0387
  C  C169  1  0.202700  0.932300  0.797300  1.0  0.7014
  C  C170  1  0.175900  0.888100  0.824100  1.0  -0.04
  C  C171  1  0.202700  0.432300  0.297300  1.0  0.7014
  C  C172  1  0.175900  0.388100  0.324100  1.0  -0.04
  C  C173  1  0.702700  0.932300  0.297300  1.0  0.7014
  C  C174  1  0.675900  0.888100  0.324100  1.0  -0.04
  C  C175  1  0.702700  0.432300  0.797300  1.0  0.7014
  C  C176  1  0.675900  0.388100  0.824100  1.0  -0.04
  C  C177  1  0.202700  0.202700  0.067700  1.0  0.7013
  C  C178  1  0.175900  0.175900  0.111900  1.0  -0.0402
  C  C179  1  0.202700  0.702700  0.567700  1.0  0.7013
  C  C180  1  0.175900  0.675900  0.611900  1.0  -0.0402
  C  C181  1  0.702700  0.202700  0.567700  1.0  0.7013
  C  C182  1  0.675900  0.175900  0.611900  1.0  -0.0402
  C  C183  1  0.702700  0.702700  0.067700  1.0  0.7013
  C  C184  1  0.675900  0.675900  0.111900  1.0  -0.0402
  C  C185  1  0.202700  0.797300  0.932300  1.0  0.7021
  C  C186  1  0.175900  0.824100  0.888100  1.0  -0.0392
  C  C187  1  0.202700  0.297300  0.432300  1.0  0.7021
  C  C188  1  0.175900  0.324100  0.388100  1.0  -0.0392
  C  C189  1  0.702700  0.797300  0.432300  1.0  0.7021
  C  C190  1  0.675900  0.824100  0.388100  1.0  -0.0392
  C  C191  1  0.702700  0.297300  0.932300  1.0  0.7021
  C  C192  1  0.675900  0.324100  0.888100  1.0  -0.0392
  C  C193  1  0.797300  0.797300  0.067700  1.0  0.7017
  C  C194  1  0.824100  0.824100  0.111900  1.0  -0.0391
  C  C195  1  0.797300  0.297300  0.567700  1.0  0.7017
  C  C196  1  0.824100  0.324100  0.611900  1.0  -0.0391
  C  C197  1  0.297300  0.797300  0.567700  1.0  0.7017
  C  C198  1  0.324100  0.824100  0.611900  1.0  -0.0391
  C  C199  1  0.297300  0.297300  0.067700  1.0  0.7017
  C  C200  1  0.324100  0.324100  0.111900  1.0  -0.0391
  C  C201  1  0.797300  0.202700  0.932300  1.0  0.7019
  C  C202  1  0.824100  0.175900  0.888100  1.0  -0.0377
  C  C203  1  0.797300  0.702700  0.432300  1.0  0.7019
  C  C204  1  0.824100  0.675900  0.388100  1.0  -0.0377
  C  C205  1  0.297300  0.202700  0.432300  1.0  0.7019
  C  C206  1  0.324100  0.175900  0.388100  1.0  -0.0377
  C  C207  1  0.297300  0.702700  0.932300  1.0  0.7019
  C  C208  1  0.324100  0.675900  0.888100  1.0  -0.0377
  C  C209  1  0.067700  0.202700  0.202700  1.0  0.7002
  C  C210  1  0.111900  0.175900  0.175900  1.0  -0.0396
  C  C211  1  0.067700  0.702700  0.702700  1.0  0.7002
  C  C212  1  0.111900  0.675900  0.675900  1.0  -0.0396
  C  C213  1  0.567700  0.202700  0.702700  1.0  0.7002
  C  C214  1  0.611900  0.175900  0.675900  1.0  -0.0396
  C  C215  1  0.567700  0.702700  0.202700  1.0  0.7002
  C  C216  1  0.611900  0.675900  0.175900  1.0  -0.0396
  C  C217  1  0.932300  0.202700  0.797300  1.0  0.6984
  C  C218  1  0.888100  0.175900  0.824100  1.0  -0.0386
  C  C219  1  0.932300  0.702700  0.297300  1.0  0.6984
  C  C220  1  0.888100  0.675900  0.324100  1.0  -0.0386
  C  C221  1  0.432300  0.202700  0.297300  1.0  0.6984
  C  C222  1  0.388100  0.175900  0.324100  1.0  -0.0386
  C  C223  1  0.432300  0.702700  0.797300  1.0  0.6984
  C  C224  1  0.388100  0.675900  0.824100  1.0  -0.0386
  C  C225  1  0.067700  0.797300  0.797300  1.0  0.6994
  C  C226  1  0.111900  0.824100  0.824100  1.0  -0.0399
  C  C227  1  0.067700  0.297300  0.297300  1.0  0.6994
  C  C228  1  0.111900  0.324100  0.324100  1.0  -0.0399
  C  C229  1  0.567700  0.797300  0.297300  1.0  0.6994
  C  C230  1  0.611900  0.824100  0.324100  1.0  -0.0399
  C  C231  1  0.567700  0.297300  0.797300  1.0  0.6994
  C  C232  1  0.611900  0.324100  0.824100  1.0  -0.0399
  C  C233  1  0.932300  0.797300  0.202700  1.0  0.6994
  C  C234  1  0.888100  0.824100  0.175900  1.0  -0.0384
  C  C235  1  0.932300  0.297300  0.702700  1.0  0.6994
  C  C236  1  0.888100  0.324100  0.675900  1.0  -0.0384
  C  C237  1  0.432300  0.797300  0.702700  1.0  0.6994
  C  C238  1  0.388100  0.824100  0.675900  1.0  -0.0384
  C  C239  1  0.432300  0.297300  0.202700  1.0  0.6994
  C  C240  1  0.388100  0.324100  0.175900  1.0  -0.0384
  C  C241  1  0.067700  0.202700  0.797300  1.0  0.6993
  C  C242  1  0.111900  0.175900  0.824100  1.0  -0.0395
  C  C243  1  0.067700  0.702700  0.297300  1.0  0.6993
  C  C244  1  0.111900  0.675900  0.324100  1.0  -0.0395
  C  C245  1  0.567700  0.202700  0.297300  1.0  0.6993
  C  C246  1  0.611900  0.175900  0.324100  1.0  -0.0395
  C  C247  1  0.567700  0.702700  0.797300  1.0  0.6993
  C  C248  1  0.611900  0.675900  0.824100  1.0  -0.0395
  C  C249  1  0.932300  0.797300  0.797300  1.0  0.6987
  C  C250  1  0.888100  0.824100  0.824100  1.0  -0.0384
  C  C251  1  0.932300  0.297300  0.297300  1.0  0.6987
  C  C252  1  0.888100  0.324100  0.324100  1.0  -0.0384
  C  C253  1  0.432300  0.797300  0.297300  1.0  0.6987
  C  C254  1  0.388100  0.824100  0.324100  1.0  -0.0384
  C  C255  1  0.432300  0.297300  0.797300  1.0  0.6987
  C  C256  1  0.388100  0.324100  0.824100  1.0  -0.0384
  C  C257  1  0.067700  0.797300  0.202700  1.0  0.7004
  C  C258  1  0.111900  0.824100  0.175900  1.0  -0.0394
  C  C259  1  0.067700  0.297300  0.702700  1.0  0.7004
  C  C260  1  0.111900  0.324100  0.675900  1.0  -0.0394
  C  C261  1  0.567700  0.797300  0.702700  1.0  0.7004
  C  C262  1  0.611900  0.824100  0.675900  1.0  -0.0394
  C  C263  1  0.567700  0.297300  0.202700  1.0  0.7004
  C  C264  1  0.611900  0.324100  0.175900  1.0  -0.0394
  C  C265  1  0.932300  0.202700  0.202700  1.0  0.699
  C  C266  1  0.888100  0.175900  0.175900  1.0  -0.038
  C  C267  1  0.932300  0.702700  0.702700  1.0  0.699
  C  C268  1  0.888100  0.675900  0.675900  1.0  -0.038
  C  C269  1  0.432300  0.202700  0.702700  1.0  0.699
  C  C270  1  0.388100  0.175900  0.675900  1.0  -0.038
  C  C271  1  0.432300  0.702700  0.202700  1.0  0.699
  C  C272  1  0.388100  0.675900  0.175900  1.0  -0.038
  C  C273  1  0.202700  0.202700  0.932300  1.0  0.7016
  C  C274  1  0.175900  0.175900  0.888100  1.0  -0.039
  C  C275  1  0.202700  0.702700  0.432300  1.0  0.7016
  C  C276  1  0.175900  0.675900  0.388100  1.0  -0.039
  C  C277  1  0.702700  0.202700  0.432300  1.0  0.7016
  C  C278  1  0.675900  0.175900  0.388100  1.0  -0.039
  C  C279  1  0.702700  0.702700  0.932300  1.0  0.7016
  C  C280  1  0.675900  0.675900  0.888100  1.0  -0.039
  C  C281  1  0.797300  0.202700  0.067700  1.0  0.7015
  C  C282  1  0.824100  0.175900  0.111900  1.0  -0.0389
  C  C283  1  0.797300  0.702700  0.567700  1.0  0.7015
  C  C284  1  0.824100  0.675900  0.611900  1.0  -0.0389
  C  C285  1  0.297300  0.202700  0.567700  1.0  0.7015
  C  C286  1  0.324100  0.175900  0.611900  1.0  -0.0389
  C  C287  1  0.297300  0.702700  0.067700  1.0  0.7015
  C  C288  1  0.324100  0.675900  0.111900  1.0  -0.0389
  C  C289  1  0.797300  0.797300  0.932300  1.0  0.702
  C  C290  1  0.824100  0.824100  0.888100  1.0  -0.038
  C  C291  1  0.797300  0.297300  0.432300  1.0  0.702
  C  C292  1  0.824100  0.324100  0.388100  1.0  -0.038
  C  C293  1  0.297300  0.797300  0.432300  1.0  0.702
  C  C294  1  0.324100  0.824100  0.388100  1.0  -0.038
  C  C295  1  0.297300  0.297300  0.932300  1.0  0.702
  C  C296  1  0.324100  0.324100  0.888100  1.0  -0.038
  C  C297  1  0.202700  0.797300  0.067700  1.0  0.7018
  C  C298  1  0.175900  0.824100  0.111900  1.0  -0.0404
  C  C299  1  0.202700  0.297300  0.567700  1.0  0.7018
  C  C300  1  0.175900  0.324100  0.611900  1.0  -0.0404
  C  C301  1  0.702700  0.797300  0.567700  1.0  0.7018
  C  C302  1  0.675900  0.824100  0.611900  1.0  -0.0404
  C  C303  1  0.702700  0.297300  0.067700  1.0  0.7018
  C  C304  1  0.675900  0.324100  0.111900  1.0  -0.0404
  C  C305  1  0.202700  0.067700  0.797300  1.0  0.7012
  C  C306  1  0.175900  0.111900  0.824100  1.0  -0.0402
  C  C307  1  0.202700  0.567700  0.297300  1.0  0.7012
  C  C308  1  0.175900  0.611900  0.324100  1.0  -0.0402
  C  C309  1  0.702700  0.067700  0.297300  1.0  0.7012
  C  C310  1  0.675900  0.111900  0.324100  1.0  -0.0402
  C  C311  1  0.702700  0.567700  0.797300  1.0  0.7012
  C  C312  1  0.675900  0.611900  0.824100  1.0  -0.0402
  C  C313  1  0.202700  0.932300  0.202700  1.0  0.7018
  C  C314  1  0.175900  0.888100  0.175900  1.0  -0.0401
  C  C315  1  0.202700  0.432300  0.702700  1.0  0.7018
  C  C316  1  0.175900  0.388100  0.675900  1.0  -0.0401
  C  C317  1  0.702700  0.932300  0.702700  1.0  0.7018
  C  C318  1  0.675900  0.888100  0.675900  1.0  -0.0401
  C  C319  1  0.702700  0.432300  0.202700  1.0  0.7018
  C  C320  1  0.675900  0.388100  0.175900  1.0  -0.0401
  C  C321  1  0.797300  0.067700  0.202700  1.0  0.7019
  C  C322  1  0.824100  0.111900  0.175900  1.0  -0.0387
  C  C323  1  0.797300  0.567700  0.702700  1.0  0.7019
  C  C324  1  0.824100  0.611900  0.675900  1.0  -0.0387
  C  C325  1  0.297300  0.067700  0.702700  1.0  0.7019
  C  C326  1  0.324100  0.111900  0.675900  1.0  -0.0387
  C  C327  1  0.297300  0.567700  0.202700  1.0  0.7019
  C  C328  1  0.324100  0.611900  0.175900  1.0  -0.0387
  C  C329  1  0.797300  0.932300  0.797300  1.0  0.7012
  C  C330  1  0.824100  0.888100  0.824100  1.0  -0.0391
  C  C331  1  0.797300  0.432300  0.297300  1.0  0.7012
  C  C332  1  0.824100  0.388100  0.324100  1.0  -0.0391
  C  C333  1  0.297300  0.932300  0.297300  1.0  0.7012
  C  C334  1  0.324100  0.888100  0.324100  1.0  -0.0391
  C  C335  1  0.297300  0.432300  0.797300  1.0  0.7012
  C  C336  1  0.324100  0.388100  0.824100  1.0  -0.0391
  O  O337  1  0.243500  0.051300  0.183400  1.0  -0.5703
  O  O338  1  0.243500  0.551300  0.683400  1.0  -0.5703
  O  O339  1  0.743500  0.051300  0.683400  1.0  -0.5714
  O  O340  1  0.743500  0.551300  0.183400  1.0  -0.5714
  O  O341  1  0.756500  0.948700  0.183400  1.0  -0.5697
  O  O342  1  0.756500  0.448700  0.683400  1.0  -0.5685
  O  O343  1  0.256500  0.948700  0.683400  1.0  -0.5685
  O  O344  1  0.256500  0.448700  0.183400  1.0  -0.5688
  O  O345  1  0.756500  0.051300  0.816600  1.0  -0.569
  O  O346  1  0.756500  0.551300  0.316600  1.0  -0.5701
  O  O347  1  0.256500  0.051300  0.316600  1.0  -0.5701
  O  O348  1  0.256500  0.551300  0.816600  1.0  -0.569
  O  O349  1  0.243500  0.948700  0.816600  1.0  -0.5695
  O  O350  1  0.243500  0.448700  0.316600  1.0  -0.5703
  O  O351  1  0.743500  0.948700  0.316600  1.0  -0.5703
  O  O352  1  0.743500  0.448700  0.816600  1.0  -0.5703
  O  O353  1  0.183400  0.243500  0.051300  1.0  -0.5725
  O  O354  1  0.183400  0.743500  0.551300  1.0  -0.5733
  O  O355  1  0.683400  0.243500  0.551300  1.0  -0.5733
  O  O356  1  0.683400  0.743500  0.051300  1.0  -0.5726
  O  O357  1  0.183400  0.756500  0.948700  1.0  -0.5723
  O  O358  1  0.183400  0.256500  0.448700  1.0  -0.5711
  O  O359  1  0.683400  0.756500  0.448700  1.0  -0.5711
  O  O360  1  0.683400  0.256500  0.948700  1.0  -0.5711
  O  O361  1  0.816600  0.756500  0.051300  1.0  -0.5708
  O  O362  1  0.816600  0.256500  0.551300  1.0  -0.5708
  O  O363  1  0.316600  0.756500  0.551300  1.0  -0.572
  O  O364  1  0.316600  0.256500  0.051300  1.0  -0.5708
  O  O365  1  0.816600  0.243500  0.948700  1.0  -0.5717
  O  O366  1  0.816600  0.743500  0.448700  1.0  -0.5717
  O  O367  1  0.316600  0.243500  0.448700  1.0  -0.5725
  O  O368  1  0.316600  0.743500  0.948700  1.0  -0.5725
  O  O369  1  0.051300  0.183400  0.243500  1.0  -0.571
  O  O370  1  0.051300  0.683400  0.743500  1.0  -0.571
  O  O371  1  0.551300  0.183400  0.743500  1.0  -0.5711
  O  O372  1  0.551300  0.683400  0.243500  1.0  -0.5708
  O  O373  1  0.948700  0.183400  0.756500  1.0  -0.5723
  O  O374  1  0.948700  0.683400  0.256500  1.0  -0.5723
  O  O375  1  0.448700  0.183400  0.256500  1.0  -0.5723
  O  O376  1  0.448700  0.683400  0.756500  1.0  -0.5723
  O  O377  1  0.051300  0.816600  0.756500  1.0  -0.573
  O  O378  1  0.051300  0.316600  0.256500  1.0  -0.5738
  O  O379  1  0.551300  0.816600  0.256500  1.0  -0.573
  O  O380  1  0.551300  0.316600  0.756500  1.0  -0.5738
  O  O381  1  0.948700  0.816600  0.243500  1.0  -0.5717
  O  O382  1  0.948700  0.316600  0.743500  1.0  -0.5729
  O  O383  1  0.448700  0.816600  0.743500  1.0  -0.5717
  O  O384  1  0.448700  0.316600  0.243500  1.0  -0.5729
  O  O385  1  0.051300  0.243500  0.816600  1.0  -0.5695
  O  O386  1  0.051300  0.743500  0.316600  1.0  -0.5695
  O  O387  1  0.551300  0.243500  0.316600  1.0  -0.5693
  O  O388  1  0.551300  0.743500  0.816600  1.0  -0.5697
  O  O389  1  0.948700  0.756500  0.816600  1.0  -0.5704
  O  O390  1  0.948700  0.256500  0.316600  1.0  -0.5705
  O  O391  1  0.448700  0.756500  0.316600  1.0  -0.5712
  O  O392  1  0.448700  0.256500  0.816600  1.0  -0.57
  O  O393  1  0.051300  0.756500  0.183400  1.0  -0.5698
  O  O394  1  0.051300  0.256500  0.683400  1.0  -0.5685
  O  O395  1  0.551300  0.756500  0.683400  1.0  -0.5689
  O  O396  1  0.551300  0.256500  0.183400  1.0  -0.5689
  O  O397  1  0.948700  0.243500  0.183400  1.0  -0.572
  O  O398  1  0.948700  0.743500  0.683400  1.0  -0.5724
  O  O399  1  0.448700  0.243500  0.683400  1.0  -0.5732
  O  O400  1  0.448700  0.743500  0.183400  1.0  -0.572
  O  O401  1  0.243500  0.183400  0.948700  1.0  -0.5721
  O  O402  1  0.243500  0.683400  0.448700  1.0  -0.5721
  O  O403  1  0.743500  0.183400  0.448700  1.0  -0.5721
  O  O404  1  0.743500  0.683400  0.948700  1.0  -0.5725
  O  O405  1  0.756500  0.183400  0.051300  1.0  -0.5729
  O  O406  1  0.756500  0.683400  0.551300  1.0  -0.5722
  O  O407  1  0.256500  0.183400  0.551300  1.0  -0.5729
  O  O408  1  0.256500  0.683400  0.051300  1.0  -0.5717
  O  O409  1  0.756500  0.816600  0.948700  1.0  -0.5741
  O  O410  1  0.756500  0.316600  0.448700  1.0  -0.5748
  O  O411  1  0.256500  0.816600  0.448700  1.0  -0.5741
  O  O412  1  0.256500  0.316600  0.948700  1.0  -0.5739
  O  O413  1  0.243500  0.816600  0.051300  1.0  -0.5729
  O  O414  1  0.243500  0.316600  0.551300  1.0  -0.5729
  O  O415  1  0.743500  0.816600  0.551300  1.0  -0.5733
  O  O416  1  0.743500  0.316600  0.051300  1.0  -0.5729
  O  O417  1  0.183400  0.051300  0.756500  1.0  -0.5723
  O  O418  1  0.183400  0.551300  0.256500  1.0  -0.5715
  O  O419  1  0.683400  0.051300  0.256500  1.0  -0.5715
  O  O420  1  0.683400  0.551300  0.756500  1.0  -0.5715
  O  O421  1  0.183400  0.948700  0.243500  1.0  -0.5695
  O  O422  1  0.183400  0.448700  0.743500  1.0  -0.5695
  O  O423  1  0.683400  0.948700  0.743500  1.0  -0.5699
  O  O424  1  0.683400  0.448700  0.243500  1.0  -0.5699
  O  O425  1  0.816600  0.051300  0.243500  1.0  -0.5691
  O  O426  1  0.816600  0.551300  0.743500  1.0  -0.5689
  O  O427  1  0.316600  0.051300  0.743500  1.0  -0.5689
  O  O428  1  0.316600  0.551300  0.243500  1.0  -0.5692
  O  O429  1  0.816600  0.948700  0.756500  1.0  -0.5697
  O  O430  1  0.816600  0.448700  0.256500  1.0  -0.5697
  O  O431  1  0.316600  0.948700  0.256500  1.0  -0.5697
  O  O432  1  0.316600  0.448700  0.756500  1.0  -0.5698
  O  O433  1  0.756500  0.948700  0.816600  1.0  -0.5691
  O  O434  1  0.756500  0.448700  0.316600  1.0  -0.57
  O  O435  1  0.256500  0.948700  0.316600  1.0  -0.57
  O  O436  1  0.256500  0.448700  0.816600  1.0  -0.5692
  O  O437  1  0.243500  0.051300  0.816600  1.0  -0.5692
  O  O438  1  0.243500  0.551300  0.316600  1.0  -0.5694
  O  O439  1  0.743500  0.051300  0.316600  1.0  -0.5705
  O  O440  1  0.743500  0.551300  0.816600  1.0  -0.5692
  O  O441  1  0.243500  0.948700  0.183400  1.0  -0.5695
  O  O442  1  0.243500  0.448700  0.683400  1.0  -0.5695
  O  O443  1  0.743500  0.948700  0.683400  1.0  -0.5695
  O  O444  1  0.743500  0.448700  0.183400  1.0  -0.5708
  O  O445  1  0.756500  0.051300  0.183400  1.0  -0.5701
  O  O446  1  0.756500  0.551300  0.683400  1.0  -0.5693
  O  O447  1  0.256500  0.051300  0.683400  1.0  -0.5701
  O  O448  1  0.256500  0.551300  0.183400  1.0  -0.569
  O  O449  1  0.816600  0.756500  0.948700  1.0  -0.5716
  O  O450  1  0.816600  0.256500  0.448700  1.0  -0.5716
  O  O451  1  0.316600  0.756500  0.448700  1.0  -0.5725
  O  O452  1  0.316600  0.256500  0.948700  1.0  -0.5725
  O  O453  1  0.816600  0.243500  0.051300  1.0  -0.5709
  O  O454  1  0.816600  0.743500  0.551300  1.0  -0.5709
  O  O455  1  0.316600  0.243500  0.551300  1.0  -0.5709
  O  O456  1  0.316600  0.743500  0.051300  1.0  -0.5721
  O  O457  1  0.183400  0.243500  0.948700  1.0  -0.5724
  O  O458  1  0.183400  0.743500  0.448700  1.0  -0.5736
  O  O459  1  0.683400  0.243500  0.448700  1.0  -0.5724
  O  O460  1  0.683400  0.743500  0.948700  1.0  -0.5724
  O  O461  1  0.183400  0.756500  0.051300  1.0  -0.572
  O  O462  1  0.183400  0.256500  0.551300  1.0  -0.5709
  O  O463  1  0.683400  0.756500  0.551300  1.0  -0.572
  O  O464  1  0.683400  0.256500  0.051300  1.0  -0.572
  O  O465  1  0.948700  0.816600  0.756500  1.0  -0.573
  O  O466  1  0.948700  0.316600  0.256500  1.0  -0.573
  O  O467  1  0.448700  0.816600  0.256500  1.0  -0.573
  O  O468  1  0.448700  0.316600  0.756500  1.0  -0.5743
  O  O469  1  0.051300  0.816600  0.243500  1.0  -0.5715
  O  O470  1  0.051300  0.316600  0.743500  1.0  -0.5724
  O  O471  1  0.551300  0.816600  0.743500  1.0  -0.5716
  O  O472  1  0.551300  0.316600  0.243500  1.0  -0.5716
  O  O473  1  0.948700  0.183400  0.243500  1.0  -0.5716
  O  O474  1  0.948700  0.683400  0.743500  1.0  -0.5725
  O  O475  1  0.448700  0.183400  0.743500  1.0  -0.5725
  O  O476  1  0.448700  0.683400  0.243500  1.0  -0.5725
  O  O477  1  0.051300  0.183400  0.756500  1.0  -0.5707
  O  O478  1  0.051300  0.683400  0.256500  1.0  -0.5706
  O  O479  1  0.551300  0.183400  0.256500  1.0  -0.5707
  O  O480  1  0.551300  0.683400  0.756500  1.0  -0.5705
  O  O481  1  0.948700  0.756500  0.183400  1.0  -0.5689
  O  O482  1  0.948700  0.256500  0.683400  1.0  -0.5693
  O  O483  1  0.448700  0.756500  0.683400  1.0  -0.5689
  O  O484  1  0.448700  0.256500  0.183400  1.0  -0.5689
  O  O485  1  0.051300  0.243500  0.183400  1.0  -0.5711
  O  O486  1  0.051300  0.743500  0.683400  1.0  -0.571
  O  O487  1  0.551300  0.243500  0.683400  1.0  -0.5711
  O  O488  1  0.551300  0.743500  0.183400  1.0  -0.5711
  O  O489  1  0.948700  0.243500  0.816600  1.0  -0.5709
  O  O490  1  0.948700  0.743500  0.316600  1.0  -0.5708
  O  O491  1  0.448700  0.243500  0.316600  1.0  -0.5708
  O  O492  1  0.448700  0.743500  0.816600  1.0  -0.571
  O  O493  1  0.051300  0.756500  0.816600  1.0  -0.5705
  O  O494  1  0.051300  0.256500  0.316600  1.0  -0.5705
  O  O495  1  0.551300  0.756500  0.316600  1.0  -0.5693
  O  O496  1  0.551300  0.256500  0.816600  1.0  -0.5697
  O  O497  1  0.756500  0.816600  0.051300  1.0  -0.5731
  O  O498  1  0.756500  0.316600  0.551300  1.0  -0.5731
  O  O499  1  0.256500  0.816600  0.551300  1.0  -0.5736
  O  O500  1  0.256500  0.316600  0.051300  1.0  -0.5731
  O  O501  1  0.243500  0.816600  0.948700  1.0  -0.5737
  O  O502  1  0.243500  0.316600  0.448700  1.0  -0.5747
  O  O503  1  0.743500  0.816600  0.448700  1.0  -0.5738
  O  O504  1  0.743500  0.316600  0.948700  1.0  -0.574
  O  O505  1  0.243500  0.183400  0.051300  1.0  -0.5724
  O  O506  1  0.243500  0.683400  0.551300  1.0  -0.5725
  O  O507  1  0.743500  0.183400  0.551300  1.0  -0.5726
  O  O508  1  0.743500  0.683400  0.051300  1.0  -0.5723
  O  O509  1  0.756500  0.183400  0.948700  1.0  -0.572
  O  O510  1  0.756500  0.683400  0.448700  1.0  -0.572
  O  O511  1  0.256500  0.183400  0.448700  1.0  -0.572
  O  O512  1  0.256500  0.683400  0.948700  1.0  -0.5725
  O  O513  1  0.816600  0.948700  0.243500  1.0  -0.5689
  O  O514  1  0.816600  0.448700  0.743500  1.0  -0.5689
  O  O515  1  0.316600  0.948700  0.743500  1.0  -0.5689
  O  O516  1  0.316600  0.448700  0.243500  1.0  -0.5697
  O  O517  1  0.816600  0.051300  0.756500  1.0  -0.5694
  O  O518  1  0.816600  0.551300  0.256500  1.0  -0.5694
  O  O519  1  0.316600  0.051300  0.256500  1.0  -0.5706
  O  O520  1  0.316600  0.551300  0.756500  1.0  -0.5694
  O  O521  1  0.183400  0.948700  0.756500  1.0  -0.5709
  O  O522  1  0.183400  0.448700  0.256500  1.0  -0.5709
  O  O523  1  0.683400  0.948700  0.256500  1.0  -0.5713
  O  O524  1  0.683400  0.448700  0.756500  1.0  -0.5713
  O  O525  1  0.183400  0.051300  0.243500  1.0  -0.5705
  O  O526  1  0.183400  0.551300  0.743500  1.0  -0.5705
  O  O527  1  0.683400  0.051300  0.743500  1.0  -0.5706
  O  O528  1  0.683400  0.551300  0.243500  1.0  -0.5706
