# generated using pymatgen
data_EuH2C7(NO3)2
_symmetry_space_group_name_H-M   'P 1'
_cell_length_a   6.10090000
_cell_length_b   9.97580000
_cell_length_c   13.38250000
_cell_angle_alpha   68.87100000
_cell_angle_beta   81.03300000
_cell_angle_gamma   76.75000000
_symmetry_Int_Tables_number   1
_chemical_formula_structural   EuH2C7(NO3)2
_chemical_formula_sum   'Eu2 H4 C14 N4 O12'
_cell_volume   737.08620084
_cell_formula_units_Z   2
loop_
 _symmetry_equiv_pos_site_id
 _symmetry_equiv_pos_as_xyz
  1  'x, y, z'
loop_
 _atom_site_type_symbol
 _atom_site_label
 _atom_site_symmetry_multiplicity
 _atom_site_fract_x
 _atom_site_fract_y
 _atom_site_fract_z
 _atom_site_occupancy
 _atom_site_charge
  Eu  Eu1  1  0.831640  0.614370  0.196000  1.0  2.0597
  Eu  Eu2  1  0.168360  0.385630  0.804000  1.0  2.0595
  H  H3  1  0.324800  0.046400  0.028800  1.0  0.0797
  H  H4  1  0.706000  0.325300  0.628900  1.0  0.0842
  H  H5  1  0.675200  0.953600  0.971200  1.0  0.0795
  H  H6  1  0.294000  0.674700  0.371100  1.0  0.0842
  C  C7  1  0.286600  0.767800  0.141600  1.0  0.6943
  C  C8  1  0.132500  0.895000  0.068100  1.0  0.0955
  C  C9  1  0.190500  0.029400  0.015400  1.0  0.1917
  C  C10  1  0.950700  0.383600  0.439800  1.0  0.6781
  C  C11  1  0.709700  0.443800  0.473000  1.0  0.1381
  C  C12  1  0.618400  0.397500  0.577000  1.0  0.1935
  C  C13  1  0.087600  0.439300  0.034500  1.0  0.5435
  C  C14  1  0.713400  0.232200  0.858400  1.0  0.6936
  C  C15  1  0.867500  0.105000  0.931900  1.0  0.0967
  C  C16  1  0.809500  0.970600  0.984600  1.0  0.1912
  C  C17  1  0.049300  0.616400  0.560200  1.0  0.6747
  C  C18  1  0.290300  0.556200  0.527000  1.0  0.1382
  C  C19  1  0.381600  0.602500  0.423000  1.0  0.1857
  C  C20  1  0.912400  0.560700  0.965500  1.0  0.5436
  N  N21  1  0.939500  0.864400  0.054200  1.0  -0.4423
  N  N22  1  0.593900  0.547000  0.393600  1.0  -0.4728
  N  N23  1  0.060500  0.135600  0.945800  1.0  -0.4421
  N  N24  1  0.406100  0.453000  0.606400  1.0  -0.4675
  O  O25  1  0.214400  0.650200  0.184300  1.0  -0.6661
  O  O26  1  0.478500  0.784300  0.150900  1.0  -0.6959
  O  O27  1  0.014200  0.430300  0.342600  1.0  -0.6818
  O  O28  1  0.068200  0.290400  0.510200  1.0  -0.5589
  O  O29  1  0.084400  0.429300  0.130100  1.0  -0.5947
  O  O30  1  0.223500  0.362500  0.986700  1.0  -0.6416
  O  O31  1  0.785600  0.349800  0.815700  1.0  -0.6671
  O  O32  1  0.521500  0.215700  0.849100  1.0  -0.6957
  O  O33  1  0.985800  0.569700  0.657400  1.0  -0.6831
  O  O34  1  0.931800  0.709600  0.489800  1.0  -0.5608
  O  O35  1  0.915600  0.570700  0.869900  1.0  -0.5968
  O  O36  1  0.776500  0.637500  0.013300  1.0  -0.6382
