# generated using pymatgen
data_SmH2C7(NO3)2
_symmetry_space_group_name_H-M   'P 1'
_cell_length_a   6.11390000
_cell_length_b   9.98300000
_cell_length_c   13.41300000
_cell_angle_alpha   68.93100000
_cell_angle_beta   80.96000000
_cell_angle_gamma   76.68900000
_symmetry_Int_Tables_number   1
_chemical_formula_structural   SmH2C7(NO3)2
_chemical_formula_sum   'Sm2 H4 C14 N4 O12'
_cell_volume   740.91446298
_cell_formula_units_Z   2
loop_
 _symmetry_equiv_pos_site_id
 _symmetry_equiv_pos_as_xyz
  1  'x, y, z'
loop_
 _atom_site_type_symbol
 _atom_site_label
 _atom_site_symmetry_multiplicity
 _atom_site_fract_x
 _atom_site_fract_y
 _atom_site_fract_z
 _atom_site_occupancy
 _atom_site_charge
  Sm  Sm1  1  0.830820  0.614580  0.196410  1.0  2.1698
  Sm  Sm2  1  0.169180  0.385420  0.803590  1.0  2.1695
  H  H3  1  0.322500  0.049600  0.029000  1.0  0.0872
  H  H4  1  0.702000  0.325800  0.630600  1.0  0.0804
  H  H5  1  0.677500  0.950400  0.971000  1.0  0.087
  H  H6  1  0.298000  0.674200  0.369400  1.0  0.0806
  C  C7  1  0.286300  0.767200  0.140400  1.0  0.6948
  C  C8  1  0.132500  0.895300  0.068400  1.0  0.0694
  C  C9  1  0.189800  0.031400  0.015100  1.0  0.1954
  C  C10  1  0.948400  0.383500  0.439500  1.0  0.6674
  C  C11  1  0.711600  0.443900  0.472800  1.0  0.0862
  C  C12  1  0.616200  0.397800  0.578200  1.0  0.2048
  C  C13  1  0.089200  0.440700  0.033300  1.0  0.5476
  C  C14  1  0.713700  0.232800  0.859600  1.0  0.694
  C  C15  1  0.867500  0.104700  0.931600  1.0  0.0706
  C  C16  1  0.810200  0.968600  0.984900  1.0  0.1922
  C  C17  1  0.051600  0.616500  0.560500  1.0  0.6654
  C  C18  1  0.288400  0.556100  0.527200  1.0  0.0846
  C  C19  1  0.383800  0.602200  0.421800  1.0  0.1985
  C  C20  1  0.910800  0.559300  0.966700  1.0  0.5478
  N  N21  1  0.938900  0.864700  0.054600  1.0  -0.4024
  N  N22  1  0.593800  0.546200  0.394100  1.0  -0.4829
  N  N23  1  0.061100  0.135300  0.945400  1.0  -0.4026
  N  N24  1  0.406200  0.453800  0.605900  1.0  -0.4778
  O  O25  1  0.212900  0.651700  0.184300  1.0  -0.6604
  O  O26  1  0.477500  0.785000  0.150900  1.0  -0.7155
  O  O27  1  0.014300  0.431100  0.342300  1.0  -0.6995
  O  O28  1  0.066800  0.290700  0.509900  1.0  -0.5698
  O  O29  1  0.083500  0.430500  0.129600  1.0  -0.6189
  O  O30  1  0.223700  0.362400  0.986700  1.0  -0.6506
  O  O31  1  0.787100  0.348300  0.815700  1.0  -0.661
  O  O32  1  0.522500  0.215000  0.849100  1.0  -0.7145
  O  O33  1  0.985700  0.568900  0.657700  1.0  -0.7009
  O  O34  1  0.933200  0.709300  0.490100  1.0  -0.568
  O  O35  1  0.916500  0.569500  0.870400  1.0  -0.6205
  O  O36  1  0.776300  0.637600  0.013300  1.0  -0.648
