# generated using pymatgen
data_GdH2C7(NO3)2
_symmetry_space_group_name_H-M   'P 1'
_cell_length_a   6.09220000
_cell_length_b   9.96330000
_cell_length_c   13.35980000
_cell_angle_alpha   68.85300000
_cell_angle_beta   81.10400000
_cell_angle_gamma   76.84800000
_symmetry_Int_Tables_number   1
_chemical_formula_structural   GdH2C7(NO3)2
_chemical_formula_sum   'Gd2 H4 C14 N4 O12'
_cell_volume   734.11765908
_cell_formula_units_Z   2
loop_
 _symmetry_equiv_pos_site_id
 _symmetry_equiv_pos_as_xyz
  1  'x, y, z'
loop_
 _atom_site_type_symbol
 _atom_site_label
 _atom_site_symmetry_multiplicity
 _atom_site_fract_x
 _atom_site_fract_y
 _atom_site_fract_z
 _atom_site_occupancy
 _atom_site_charge
  Gd  Gd1  1  0.832140  0.614290  0.195720  1.0  2.0799
  Gd  Gd2  1  0.167860  0.385710  0.804290  1.0  2.0792
  H  H3  1  0.326900  0.047100  0.028100  1.0  0.0866
  H  H4  1  0.704000  0.324800  0.629700  1.0  0.0739
  H  H5  1  0.673100  0.952900  0.971900  1.0  0.0863
  H  H6  1  0.296000  0.675200  0.370300  1.0  0.0741
  C  C7  1  0.288300  0.766100  0.141000  1.0  0.6933
  C  C8  1  0.134000  0.893400  0.068700  1.0  0.0743
  C  C9  1  0.192100  0.029800  0.015200  1.0  0.1954
  C  C10  1  0.950700  0.382600  0.439500  1.0  0.6673
  C  C11  1  0.710100  0.444100  0.472800  1.0  0.1296
  C  C12  1  0.617200  0.397600  0.577600  1.0  0.2009
  C  C13  1  0.088800  0.439900  0.034500  1.0  0.5387
  C  C14  1  0.711700  0.233900  0.859000  1.0  0.6924
  C  C15  1  0.866000  0.106600  0.931300  1.0  0.0742
  C  C16  1  0.807900  0.970200  0.984800  1.0  0.1943
  C  C17  1  0.049300  0.617400  0.560500  1.0  0.6648
  C  C18  1  0.289900  0.555900  0.527200  1.0  0.129
  C  C19  1  0.382800  0.602400  0.422400  1.0  0.1928
  C  C20  1  0.911200  0.560100  0.965500  1.0  0.5415
  N  N21  1  0.940100  0.863700  0.054200  1.0  -0.4164
  N  N22  1  0.593400  0.546500  0.393300  1.0  -0.4822
  N  N23  1  0.059900  0.136300  0.945800  1.0  -0.4175
  N  N24  1  0.406600  0.453500  0.606700  1.0  -0.478
  O  O25  1  0.214200  0.649300  0.183700  1.0  -0.6602
  O  O26  1  0.479900  0.783400  0.151400  1.0  -0.6961
  O  O27  1  0.014200  0.431500  0.341800  1.0  -0.6827
  O  O28  1  0.069100  0.290600  0.510200  1.0  -0.5643
  O  O29  1  0.084700  0.429500  0.130300  1.0  -0.5876
  O  O30  1  0.223000  0.361200  0.987300  1.0  -0.6461
  O  O31  1  0.785800  0.350700  0.816300  1.0  -0.6615
  O  O32  1  0.520100  0.216600  0.848600  1.0  -0.696
  O  O33  1  0.985800  0.568500  0.658200  1.0  -0.6846
  O  O34  1  0.930900  0.709400  0.489800  1.0  -0.5647
  O  O35  1  0.915300  0.570500  0.869700  1.0  -0.5873
  O  O36  1  0.777000  0.638800  0.012700  1.0  -0.6432
