# generated using pymatgen
data_CuH2(C3O2)2
_symmetry_space_group_name_H-M   'P 1'
_cell_length_a   18.62380000
_cell_length_b   18.62380000
_cell_length_c   18.62380000
_cell_angle_alpha   60.00000000
_cell_angle_beta   60.00000000
_cell_angle_gamma   60.00000000
_symmetry_Int_Tables_number   1
_chemical_formula_structural   CuH2(C3O2)2
_chemical_formula_sum   'Cu12 H24 C72 O48'
_cell_volume   4567.61930213
_cell_formula_units_Z   12
loop_
 _symmetry_equiv_pos_site_id
 _symmetry_equiv_pos_as_xyz
  1  'x, y, z'
loop_
 _atom_site_type_symbol
 _atom_site_label
 _atom_site_symmetry_multiplicity
 _atom_site_fract_x
 _atom_site_fract_y
 _atom_site_fract_z
 _atom_site_occupancy
 _atom_site_charge
  Cu  Cu1  1  0.500000  0.070210  0.500000  1.0  0.9097
  Cu  Cu2  1  0.070210  0.500000  0.929790  1.0  0.911
  Cu  Cu3  1  0.500000  0.929790  0.500000  1.0  0.9102
  Cu  Cu4  1  0.929790  0.500000  0.070210  1.0  0.9115
  Cu  Cu5  1  0.500000  0.500000  0.929790  1.0  0.9078
  Cu  Cu6  1  0.070210  0.929790  0.500000  1.0  0.9086
  Cu  Cu7  1  0.500000  0.500000  0.070210  1.0  0.9078
  Cu  Cu8  1  0.929790  0.070210  0.500000  1.0  0.9096
  Cu  Cu9  1  0.500000  0.929790  0.070210  1.0  0.9104
  Cu  Cu10  1  0.070210  0.500000  0.500000  1.0  0.9109
  Cu  Cu11  1  0.500000  0.070210  0.929790  1.0  0.9105
  Cu  Cu12  1  0.929790  0.500000  0.500000  1.0  0.9117
  H  H13  1  0.534800  0.233490  0.235440  1.0  0.1389
  H  H14  1  0.233490  0.534800  0.996270  1.0  0.1382
  H  H15  1  0.235440  0.996270  0.534800  1.0  0.1401
  H  H16  1  0.996270  0.235440  0.233490  1.0  0.1381
  H  H17  1  0.534800  0.235440  0.996270  1.0  0.1375
  H  H18  1  0.233490  0.996270  0.235440  1.0  0.1396
  H  H19  1  0.235440  0.534800  0.233490  1.0  0.1377
  H  H20  1  0.996270  0.233490  0.534800  1.0  0.1379
  H  H21  1  0.534800  0.996270  0.235440  1.0  0.1407
  H  H22  1  0.235440  0.233490  0.534800  1.0  0.1383
  H  H23  1  0.233490  0.235440  0.996270  1.0  0.1379
  H  H24  1  0.996270  0.534800  0.233490  1.0  0.1385
  H  H25  1  0.766510  0.465200  0.764560  1.0  0.1388
  H  H26  1  0.465200  0.766510  0.003730  1.0  0.1389
  H  H27  1  0.003730  0.764560  0.465200  1.0  0.1387
  H  H28  1  0.764560  0.003730  0.766510  1.0  0.1407
  H  H29  1  0.764560  0.465200  0.003730  1.0  0.1379
  H  H30  1  0.003730  0.766510  0.764560  1.0  0.1381
  H  H31  1  0.465200  0.764560  0.766510  1.0  0.1378
  H  H32  1  0.766510  0.003730  0.465200  1.0  0.1402
  H  H33  1  0.003730  0.465200  0.764560  1.0  0.1393
  H  H34  1  0.766510  0.764560  0.465200  1.0  0.1385
  H  H35  1  0.764560  0.766510  0.003730  1.0  0.1386
  H  H36  1  0.465200  0.003730  0.766510  1.0  0.1414
  C  C37  1  0.533700  0.199500  0.199500  1.0  -0.0326
  C  C38  1  0.199500  0.533700  0.067300  1.0  -0.0368
  C  C39  1  0.199500  0.067300  0.533700  1.0  -0.0332
  C  C40  1  0.067300  0.199500  0.199500  1.0  -0.0363
  C  C41  1  0.533700  0.199500  0.067300  1.0  -0.0402
  C  C42  1  0.199500  0.067300  0.199500  1.0  -0.0366
  C  C43  1  0.199500  0.533700  0.199500  1.0  -0.0381
  C  C44  1  0.067300  0.199500  0.533700  1.0  -0.0406
  C  C45  1  0.533700  0.067300  0.199500  1.0  -0.0367
  C  C46  1  0.199500  0.199500  0.533700  1.0  -0.0388
  C  C47  1  0.199500  0.199500  0.067300  1.0  -0.0411
  C  C48  1  0.067300  0.533700  0.199500  1.0  -0.04
  C  C49  1  0.800500  0.466300  0.800500  1.0  -0.0385
  C  C50  1  0.466300  0.800500  0.932700  1.0  -0.0329
  C  C51  1  0.932700  0.800500  0.466300  1.0  -0.0348
  C  C52  1  0.800500  0.932700  0.800500  1.0  -0.0354
  C  C53  1  0.800500  0.466300  0.932700  1.0  -0.04
  C  C54  1  0.932700  0.800500  0.800500  1.0  -0.0396
  C  C55  1  0.466300  0.800500  0.800500  1.0  -0.0396
  C  C56  1  0.800500  0.932700  0.466300  1.0  -0.0403
  C  C57  1  0.932700  0.466300  0.800500  1.0  -0.0388
  C  C58  1  0.800500  0.800500  0.466300  1.0  -0.0426
  C  C59  1  0.800500  0.800500  0.932700  1.0  -0.0405
  C  C60  1  0.466300  0.932700  0.800500  1.0  -0.0403
  C  C61  1  0.524900  0.068900  0.337300  1.0  0.6746
  C  C62  1  0.533000  0.112400  0.242200  1.0  -0.0987
  C  C63  1  0.068900  0.524900  0.068900  1.0  0.674
  C  C64  1  0.112400  0.533000  0.112400  1.0  -0.0984
  C  C65  1  0.337300  0.068900  0.524900  1.0  0.6735
  C  C66  1  0.242200  0.112400  0.533000  1.0  -0.0988
  C  C67  1  0.068900  0.337300  0.068900  1.0  0.6745
  C  C68  1  0.112400  0.242200  0.112400  1.0  -0.0992
  C  C69  1  0.524900  0.337300  0.068900  1.0  0.6732
  C  C70  1  0.533000  0.242200  0.112400  1.0  -0.1075
  C  C71  1  0.068900  0.068900  0.337300  1.0  0.6731
  C  C72  1  0.112400  0.112400  0.242200  1.0  -0.1075
  C  C73  1  0.337300  0.524900  0.068900  1.0  0.6722
  C  C74  1  0.242200  0.533000  0.112400  1.0  -0.1064
  C  C75  1  0.068900  0.068900  0.524900  1.0  0.6732
  C  C76  1  0.112400  0.112400  0.533000  1.0  -0.1075
  C  C77  1  0.524900  0.068900  0.068900  1.0  0.6769
  C  C78  1  0.533000  0.112400  0.112400  1.0  -0.1098
  C  C79  1  0.068900  0.337300  0.524900  1.0  0.6772
  C  C80  1  0.112400  0.242200  0.533000  1.0  -0.1103
  C  C81  1  0.337300  0.068900  0.068900  1.0  0.676
  C  C82  1  0.242200  0.112400  0.112400  1.0  -0.1102
  C  C83  1  0.068900  0.524900  0.337300  1.0  0.677
  C  C84  1  0.112400  0.533000  0.242200  1.0  -0.1095
  C  C85  1  0.931100  0.475100  0.662700  1.0  0.6744
  C  C86  1  0.887600  0.467000  0.757800  1.0  -0.0984
  C  C87  1  0.475100  0.931100  0.931100  1.0  0.6747
  C  C88  1  0.467000  0.887600  0.887600  1.0  -0.099
  C  C89  1  0.931100  0.662700  0.475100  1.0  0.6744
  C  C90  1  0.887600  0.757800  0.467000  1.0  -0.0991
  C  C91  1  0.662700  0.931100  0.931100  1.0  0.6735
  C  C92  1  0.757800  0.887600  0.887600  1.0  -0.0993
  C  C93  1  0.662700  0.475100  0.931100  1.0  0.6724
  C  C94  1  0.757800  0.467000  0.887600  1.0  -0.1068
  C  C95  1  0.931100  0.931100  0.662700  1.0  0.6736
  C  C96  1  0.887600  0.887600  0.757800  1.0  -0.1076
  C  C97  1  0.475100  0.662700  0.931100  1.0  0.6733
  C  C98  1  0.467000  0.757800  0.887600  1.0  -0.1075
  C  C99  1  0.931100  0.931100  0.475100  1.0  0.6735
  C  C100  1  0.887600  0.887600  0.467000  1.0  -0.1077
  C  C101  1  0.931100  0.475100  0.931100  1.0  0.6774
  C  C102  1  0.887600  0.467000  0.887600  1.0  -0.1099
  C  C103  1  0.662700  0.931100  0.475100  1.0  0.6762
  C  C104  1  0.757800  0.887600  0.467000  1.0  -0.1107
  C  C105  1  0.931100  0.662700  0.931100  1.0  0.6773
  C  C106  1  0.887600  0.757800  0.887600  1.0  -0.1106
  C  C107  1  0.475100  0.931100  0.662700  1.0  0.6772
  C  C108  1  0.467000  0.887600  0.757800  1.0  -0.1102
  O  O109  1  0.521200  0.112800  0.374000  1.0  -0.5633
  O  O110  1  0.112800  0.521200  0.992000  1.0  -0.5622
  O  O111  1  0.374000  0.992000  0.521200  1.0  -0.5633
  O  O112  1  0.992000  0.374000  0.112800  1.0  -0.5627
  O  O113  1  0.521200  0.374000  0.992000  1.0  -0.562
  O  O114  1  0.112800  0.992000  0.374000  1.0  -0.5642
  O  O115  1  0.374000  0.521200  0.112800  1.0  -0.5626
  O  O116  1  0.992000  0.112800  0.521200  1.0  -0.5641
  O  O117  1  0.521200  0.992000  0.112800  1.0  -0.5615
  O  O118  1  0.112800  0.374000  0.521200  1.0  -0.562
  O  O119  1  0.374000  0.112800  0.992000  1.0  -0.5616
  O  O120  1  0.992000  0.521200  0.374000  1.0  -0.5618
  O  O121  1  0.887200  0.478800  0.626000  1.0  -0.5625
  O  O122  1  0.478800  0.887200  0.008000  1.0  -0.5632
  O  O123  1  0.008000  0.626000  0.478800  1.0  -0.5632
  O  O124  1  0.626000  0.008000  0.887200  1.0  -0.5632
  O  O125  1  0.626000  0.478800  0.008000  1.0  -0.5624
  O  O126  1  0.008000  0.887200  0.626000  1.0  -0.564
  O  O127  1  0.478800  0.626000  0.887200  1.0  -0.5621
  O  O128  1  0.887200  0.008000  0.478800  1.0  -0.5634
  O  O129  1  0.008000  0.478800  0.887200  1.0  -0.5622
  O  O130  1  0.626000  0.887200  0.478800  1.0  -0.5611
  O  O131  1  0.887200  0.626000  0.008000  1.0  -0.562
  O  O132  1  0.478800  0.008000  0.626000  1.0  -0.5615
  O  O133  1  0.478800  0.887200  0.626000  1.0  -0.5626
  O  O134  1  0.887200  0.478800  0.008000  1.0  -0.5614
  O  O135  1  0.626000  0.008000  0.478800  1.0  -0.5618
  O  O136  1  0.008000  0.626000  0.887200  1.0  -0.561
  O  O137  1  0.478800  0.626000  0.008000  1.0  -0.5625
  O  O138  1  0.887200  0.008000  0.626000  1.0  -0.5633
  O  O139  1  0.626000  0.478800  0.887200  1.0  -0.5631
  O  O140  1  0.008000  0.887200  0.478800  1.0  -0.5633
  O  O141  1  0.478800  0.008000  0.887200  1.0  -0.5623
  O  O142  1  0.887200  0.626000  0.478800  1.0  -0.5629
  O  O143  1  0.626000  0.887200  0.008000  1.0  -0.5627
  O  O144  1  0.008000  0.478800  0.626000  1.0  -0.5629
  O  O145  1  0.112800  0.521200  0.374000  1.0  -0.5612
  O  O146  1  0.521200  0.112800  0.992000  1.0  -0.5616
  O  O147  1  0.992000  0.374000  0.521200  1.0  -0.5617
  O  O148  1  0.374000  0.992000  0.112800  1.0  -0.5623
  O  O149  1  0.374000  0.521200  0.992000  1.0  -0.563
  O  O150  1  0.992000  0.112800  0.374000  1.0  -0.5637
  O  O151  1  0.521200  0.374000  0.112800  1.0  -0.5622
  O  O152  1  0.112800  0.992000  0.521200  1.0  -0.5626
  O  O153  1  0.992000  0.521200  0.112800  1.0  -0.5631
  O  O154  1  0.374000  0.112800  0.521200  1.0  -0.563
  O  O155  1  0.112800  0.374000  0.992000  1.0  -0.5623
  O  O156  1  0.521200  0.992000  0.374000  1.0  -0.5625
