# generated using pymatgen
data_DyH2C7(NO3)2
_symmetry_space_group_name_H-M   'P 1'
_cell_length_a   6.05350000
_cell_length_b   9.91590000
_cell_length_c   13.29030000
_cell_angle_alpha   68.83200000
_cell_angle_beta   81.27300000
_cell_angle_gamma   76.87500000
_symmetry_Int_Tables_number   1
_chemical_formula_structural   DyH2C7(NO3)2
_chemical_formula_sum   'Dy2 H4 C14 N4 O12'
_cell_volume   722.36126779
_cell_formula_units_Z   2
loop_
 _symmetry_equiv_pos_site_id
 _symmetry_equiv_pos_as_xyz
  1  'x, y, z'
loop_
 _atom_site_type_symbol
 _atom_site_label
 _atom_site_symmetry_multiplicity
 _atom_site_fract_x
 _atom_site_fract_y
 _atom_site_fract_z
 _atom_site_occupancy
 _atom_site_charge
  Dy  Dy1  1  0.834640  0.613820  0.195110  1.0  2.1689
  Dy  Dy2  1  0.165360  0.386180  0.804890  1.0  2.1678
  H  H3  1  0.326600  0.047600  0.029200  1.0  0.074
  H  H4  1  0.705500  0.321400  0.628600  1.0  0.0708
  H  H5  1  0.673400  0.952400  0.970800  1.0  0.0739
  H  H6  1  0.294500  0.678600  0.371400  1.0  0.0708
  C  C7  1  0.289400  0.764700  0.141700  1.0  0.7001
  C  C8  1  0.136600  0.892900  0.069600  1.0  0.0515
  C  C9  1  0.191600  0.029600  0.015800  1.0  0.2054
  C  C10  1  0.950800  0.381700  0.438700  1.0  0.6704
  C  C11  1  0.710800  0.444800  0.471900  1.0  0.1077
  C  C12  1  0.618200  0.396000  0.576900  1.0  0.1968
  C  C13  1  0.089200  0.439000  0.034300  1.0  0.5476
  C  C14  1  0.710600  0.235300  0.858300  1.0  0.6995
  C  C15  1  0.863400  0.107100  0.930400  1.0  0.0519
  C  C16  1  0.808400  0.970400  0.984200  1.0  0.2042
  C  C17  1  0.049200  0.618300  0.561300  1.0  0.6621
  C  C18  1  0.289200  0.555200  0.528100  1.0  0.1056
  C  C19  1  0.381800  0.604000  0.423100  1.0  0.1905
  C  C20  1  0.910800  0.561000  0.965700  1.0  0.5472
  N  N21  1  0.938900  0.863900  0.053900  1.0  -0.4238
  N  N22  1  0.593000  0.547900  0.393000  1.0  -0.4776
  N  N23  1  0.061100  0.136100  0.946100  1.0  -0.4235
  N  N24  1  0.407000  0.452100  0.607000  1.0  -0.4761
  O  O25  1  0.216200  0.646900  0.184000  1.0  -0.6641
  O  O26  1  0.483400  0.781100  0.152500  1.0  -0.7124
  O  O27  1  0.015600  0.432500  0.340600  1.0  -0.6985
  O  O28  1  0.071800  0.289400  0.509300  1.0  -0.5705
  O  O29  1  0.084300  0.429300  0.130800  1.0  -0.6066
  O  O30  1  0.225700  0.361200  0.986800  1.0  -0.6321
  O  O31  1  0.783800  0.353100  0.816000  1.0  -0.6647
  O  O32  1  0.516600  0.218900  0.847500  1.0  -0.7116
  O  O33  1  0.984400  0.567500  0.659400  1.0  -0.6996
  O  O34  1  0.928200  0.710600  0.490700  1.0  -0.5736
  O  O35  1  0.915700  0.570700  0.869200  1.0  -0.6065
  O  O36  1  0.774300  0.638800  0.013200  1.0  -0.6256
