# generated using pymatgen
data_NaZn2H3C10O9
_symmetry_space_group_name_H-M   'P 1'
_cell_length_a   10.40730000
_cell_length_b   17.81740000
_cell_length_c   7.52780000
_cell_angle_alpha   90.00000000
_cell_angle_beta   108.47400000
_cell_angle_gamma   90.00000000
_symmetry_Int_Tables_number   1
_chemical_formula_structural   NaZn2H3C10O9
_chemical_formula_sum   'Na4 Zn8 H12 C40 O36'
_cell_volume   1323.95416706
_cell_formula_units_Z   4
loop_
 _symmetry_equiv_pos_site_id
 _symmetry_equiv_pos_as_xyz
  1  'x, y, z'
loop_
 _atom_site_type_symbol
 _atom_site_label
 _atom_site_symmetry_multiplicity
 _atom_site_fract_x
 _atom_site_fract_y
 _atom_site_fract_z
 _atom_site_occupancy
 _atom_site_charge
  Na  Na1  1  0.000000  0.753220  0.500000  1.0  0.9648
  Na  Na2  1  0.500000  0.253220  0.500000  1.0  0.9648
  Na  Na3  1  0.000000  0.246780  0.500000  1.0  0.9663
  Na  Na4  1  0.500000  0.746780  0.500000  1.0  0.9663
  Zn  Zn5  1  0.159650  0.722690  0.150330  1.0  1.0547
  Zn  Zn6  1  0.659650  0.222690  0.150330  1.0  1.0547
  Zn  Zn7  1  0.840350  0.722690  0.849670  1.0  1.0529
  Zn  Zn8  1  0.340350  0.222690  0.849670  1.0  1.0529
  Zn  Zn9  1  0.840350  0.277310  0.849670  1.0  1.053
  Zn  Zn10  1  0.340350  0.777310  0.849670  1.0  1.053
  Zn  Zn11  1  0.159650  0.277310  0.150330  1.0  1.0548
  Zn  Zn12  1  0.659650  0.777310  0.150330  1.0  1.0548
  H  H13  1  0.000000  0.817600  0.000000  1.0  0.5199
  H  H14  1  0.500000  0.317600  0.000000  1.0  0.5199
  H  H15  1  0.000000  0.182400  0.000000  1.0  0.5189
  H  H16  1  0.500000  0.682400  0.000000  1.0  0.5189
  H  H17  1  0.161000  0.500000  0.939000  1.0  0.1058
  H  H18  1  0.216000  0.500000  0.356000  1.0  0.111
  H  H19  1  0.661000  0.000000  0.939000  1.0  0.1058
  H  H20  1  0.716000  0.000000  0.356000  1.0  0.111
  H  H21  1  0.839000  0.500000  0.061000  1.0  0.1055
  H  H22  1  0.784000  0.500000  0.644000  1.0  0.1116
  H  H23  1  0.339000  0.000000  0.061000  1.0  0.1055
  H  H24  1  0.284000  0.000000  0.644000  1.0  0.1116
  C  C25  1  0.182000  0.567900  0.737100  1.0  -0.132
  C  C26  1  0.198700  0.567800  0.560100  1.0  -0.0291
  C  C27  1  0.189200  0.639100  0.843800  1.0  0.6823
  C  C28  1  0.223300  0.636700  0.459700  1.0  0.6896
  C  C29  1  0.682000  0.067900  0.737100  1.0  -0.132
  C  C30  1  0.698700  0.067800  0.560100  1.0  -0.0291
  C  C31  1  0.689200  0.139100  0.843800  1.0  0.6823
  C  C32  1  0.723300  0.136700  0.459700  1.0  0.6896
  C  C33  1  0.818000  0.567900  0.262900  1.0  -0.1325
  C  C34  1  0.801300  0.567800  0.439900  1.0  -0.031
  C  C35  1  0.810800  0.639100  0.156200  1.0  0.6827
  C  C36  1  0.776700  0.636700  0.540300  1.0  0.6891
  C  C37  1  0.318000  0.067900  0.262900  1.0  -0.1325
  C  C38  1  0.301300  0.067800  0.439900  1.0  -0.031
  C  C39  1  0.310800  0.139100  0.156200  1.0  0.6827
  C  C40  1  0.276700  0.136700  0.540300  1.0  0.6891
  C  C41  1  0.818000  0.432100  0.262900  1.0  -0.1331
  C  C42  1  0.801300  0.432200  0.439900  1.0  -0.0314
  C  C43  1  0.810800  0.360900  0.156200  1.0  0.6828
  C  C44  1  0.776700  0.363300  0.540300  1.0  0.6892
  C  C45  1  0.318000  0.932100  0.262900  1.0  -0.1331
  C  C46  1  0.301300  0.932200  0.439900  1.0  -0.0314
  C  C47  1  0.310800  0.860900  0.156200  1.0  0.6828
  C  C48  1  0.276700  0.863300  0.540300  1.0  0.6892
  C  C49  1  0.182000  0.432100  0.737100  1.0  -0.1322
  C  C50  1  0.198700  0.432200  0.560100  1.0  -0.0292
  C  C51  1  0.189200  0.360900  0.843800  1.0  0.6829
  C  C52  1  0.223300  0.363300  0.459700  1.0  0.6889
  C  C53  1  0.682000  0.932100  0.737100  1.0  -0.1322
  C  C54  1  0.698700  0.932200  0.560100  1.0  -0.0292
  C  C55  1  0.689200  0.860900  0.843800  1.0  0.6829
  C  C56  1  0.723300  0.863300  0.459700  1.0  0.6889
  C  C57  1  0.170700  0.500000  0.820700  1.0  0.011
  C  C58  1  0.204400  0.500000  0.473800  1.0  -0.103
  C  C59  1  0.670700  0.000000  0.820700  1.0  0.011
  C  C60  1  0.704400  0.000000  0.473800  1.0  -0.103
  C  C61  1  0.829300  0.500000  0.179300  1.0  0.0126
  C  C62  1  0.795600  0.500000  0.526200  1.0  -0.1067
  C  C63  1  0.329300  0.000000  0.179300  1.0  0.0126
  C  C64  1  0.295600  0.000000  0.526200  1.0  -0.1067
  O  O65  1  0.190000  0.634500  0.010100  1.0  -0.5827
  O  O66  1  0.198200  0.700000  0.761900  1.0  -0.6446
  O  O67  1  0.339700  0.653200  0.470300  1.0  -0.6839
  O  O68  1  0.117600  0.669700  0.353300  1.0  -0.6575
  O  O69  1  0.690000  0.134500  0.010100  1.0  -0.5827
  O  O70  1  0.698200  0.200000  0.761900  1.0  -0.6446
  O  O71  1  0.839700  0.153200  0.470300  1.0  -0.6839
  O  O72  1  0.617600  0.169700  0.353300  1.0  -0.6575
  O  O73  1  0.810000  0.634500  0.989900  1.0  -0.585
  O  O74  1  0.801800  0.700000  0.238100  1.0  -0.6453
  O  O75  1  0.660300  0.653200  0.529700  1.0  -0.6834
  O  O76  1  0.882400  0.669700  0.646700  1.0  -0.6573
  O  O77  1  0.310000  0.134500  0.989900  1.0  -0.585
  O  O78  1  0.301800  0.200000  0.238100  1.0  -0.6453
  O  O79  1  0.160300  0.153200  0.529700  1.0  -0.6834
  O  O80  1  0.382400  0.169700  0.646700  1.0  -0.6573
  O  O81  1  0.810000  0.365500  0.989900  1.0  -0.5848
  O  O82  1  0.801800  0.300000  0.238100  1.0  -0.6445
  O  O83  1  0.660300  0.346800  0.529700  1.0  -0.6845
  O  O84  1  0.882400  0.330300  0.646700  1.0  -0.6574
  O  O85  1  0.310000  0.865500  0.989900  1.0  -0.5848
  O  O86  1  0.301800  0.800000  0.238100  1.0  -0.6445
  O  O87  1  0.160300  0.846800  0.529700  1.0  -0.6845
  O  O88  1  0.382400  0.830300  0.646700  1.0  -0.6574
  O  O89  1  0.190000  0.365500  0.010100  1.0  -0.5832
  O  O90  1  0.198200  0.300000  0.761900  1.0  -0.6437
  O  O91  1  0.339700  0.346800  0.470300  1.0  -0.6835
  O  O92  1  0.117600  0.330300  0.353300  1.0  -0.6579
  O  O93  1  0.690000  0.865500  0.010100  1.0  -0.5832
  O  O94  1  0.698200  0.800000  0.761900  1.0  -0.6437
  O  O95  1  0.839700  0.846800  0.470300  1.0  -0.6835
  O  O96  1  0.617600  0.830300  0.353300  1.0  -0.6579
  O  O97  1  0.000000  0.770300  0.000000  1.0  -0.9952
  O  O98  1  0.500000  0.270300  0.000000  1.0  -0.9952
  O  O99  1  0.000000  0.229700  0.000000  1.0  -0.9959
  O  O100  1  0.500000  0.729700  0.000000  1.0  -0.9959
