# generated using pymatgen
data_Al3P3O12F
_symmetry_space_group_name_H-M   'P 1'
_cell_length_a   9.22760000
_cell_length_b   9.28610000
_cell_length_c   9.37890000
_cell_angle_alpha   85.21280000
_cell_angle_beta   77.31190000
_cell_angle_gamma   89.34720000
_symmetry_Int_Tables_number   1
_chemical_formula_structural   Al3P3O12F
_chemical_formula_sum   'Al6 P6 O24 F2'
_cell_volume   781.28279810
_cell_formula_units_Z   2
loop_
 _symmetry_equiv_pos_site_id
 _symmetry_equiv_pos_as_xyz
  1  'x, y, z'
loop_
 _atom_site_type_symbol
 _atom_site_label
 _atom_site_symmetry_multiplicity
 _atom_site_fract_x
 _atom_site_fract_y
 _atom_site_fract_z
 _atom_site_occupancy
 _atom_site_charge
  Al  Al1  1  0.866400  0.065300  0.084100  1.0  1.8441
  Al  Al2  1  0.623200  0.658290  0.085600  1.0  2.0191
  Al  Al3  1  0.395600  0.119300  0.339500  1.0  2.0194
  Al  Al4  1  0.133600  0.934700  0.915900  1.0  1.8441
  Al  Al5  1  0.376800  0.341710  0.914400  1.0  2.0187
  Al  Al6  1  0.604400  0.880700  0.660500  1.0  2.0198
  P  P7  1  0.170000  0.139430  0.137000  1.0  1.8456
  P  P8  1  0.375500  0.120600  0.676110  1.0  2.0558
  P  P9  1  0.620900  0.315930  0.095280  1.0  1.8008
  P  P10  1  0.830000  0.860570  0.863000  1.0  1.8435
  P  P11  1  0.624500  0.879400  0.323890  1.0  2.0551
  P  P12  1  0.379100  0.684070  0.904720  1.0  1.8005
  O  O13  1  0.772800  0.233600  0.066800  1.0  -0.9546
  O  O14  1  0.527100  0.051000  0.669000  1.0  -0.9566
  O  O15  1  0.254000  0.012600  0.746000  1.0  -0.9253
  O  O16  1  0.999900  0.144700  0.185500  1.0  -0.7297
  O  O17  1  0.540200  0.312300  0.961900  1.0  -0.9861
  O  O18  1  0.232900  0.023600  0.036700  1.0  -0.8399
  O  O19  1  0.361100  0.167800  0.517200  1.0  -0.9608
  O  O20  1  0.649300  0.475100  0.124200  1.0  -0.9381
  O  O21  1  0.227800  0.119400  0.280300  1.0  -0.9516
  O  O22  1  0.231500  0.286300  0.059700  1.0  -0.8725
  O  O23  1  0.368200  0.255200  0.756600  1.0  -0.9984
  O  O24  1  0.511700  0.254600  0.233300  1.0  -0.9429
  O  O25  1  0.227200  0.766400  0.933200  1.0  -0.9503
  O  O26  1  0.472900  0.949000  0.331000  1.0  -0.9561
  O  O27  1  0.746000  0.987400  0.254000  1.0  -0.9267
  O  O28  1  0.000100  0.855300  0.814500  1.0  -0.7285
  O  O29  1  0.459800  0.687700  0.038100  1.0  -0.9857
  O  O30  1  0.767100  0.976400  0.963300  1.0  -0.838
  O  O31  1  0.638900  0.832200  0.482800  1.0  -0.9593
  O  O32  1  0.350700  0.524900  0.875800  1.0  -0.9402
  O  O33  1  0.772200  0.880600  0.719700  1.0  -0.9536
  O  O34  1  0.768500  0.713700  0.940300  1.0  -0.8739
  O  O35  1  0.631800  0.744800  0.243400  1.0  -0.9962
  O  O36  1  0.488300  0.745400  0.766700  1.0  -0.9411
  F  F37  1  0.015400  0.105000  0.919400  1.0  -0.5308
  F  F38  1  0.984600  0.895000  0.080600  1.0  -0.5296
