# generated using pymatgen
data_Cu3H12(C2O)16
_symmetry_space_group_name_H-M   'P 1'
_cell_length_a   27.31400000
_cell_length_b   13.12600000
_cell_length_c   14.00000000
_cell_angle_alpha   90.00000000
_cell_angle_beta   96.14300000
_cell_angle_gamma   90.00000000
_symmetry_Int_Tables_number   1
_chemical_formula_structural   Cu3H12(C2O)16
_chemical_formula_sum   'Cu12 H48 C128 O64'
_cell_volume   4990.50847120
_cell_formula_units_Z   4
loop_
 _symmetry_equiv_pos_site_id
 _symmetry_equiv_pos_as_xyz
  1  'x, y, z'
loop_
 _atom_site_type_symbol
 _atom_site_label
 _atom_site_symmetry_multiplicity
 _atom_site_fract_x
 _atom_site_fract_y
 _atom_site_fract_z
 _atom_site_occupancy
 _atom_site_charge
  Cu  Cu1  1  0.210950  0.690400  0.496790  1.0  0.9279
  Cu  Cu2  1  0.710950  0.190400  0.496790  1.0  0.9279
  Cu  Cu3  1  0.789050  0.690400  0.003210  1.0  0.9275
  Cu  Cu4  1  0.289050  0.190400  0.003210  1.0  0.9275
  Cu  Cu5  1  0.789050  0.309600  0.503210  1.0  0.9303
  Cu  Cu6  1  0.289050  0.809600  0.503210  1.0  0.9303
  Cu  Cu7  1  0.210950  0.309600  0.996790  1.0  0.9296
  Cu  Cu8  1  0.710950  0.809600  0.996790  1.0  0.9296
  Cu  Cu9  1  0.000000  0.323160  0.750000  1.0  0.9025
  Cu  Cu10  1  0.500000  0.823160  0.750000  1.0  0.9025
  Cu  Cu11  1  0.000000  0.676840  0.250000  1.0  0.9051
  Cu  Cu12  1  0.500000  0.176840  0.250000  1.0  0.9051
  H  H13  1  0.244500  0.009500  0.744400  1.0  0.1308
  H  H14  1  0.117000  0.155300  0.775300  1.0  0.1229
  H  H15  1  0.117700  0.921300  0.594100  1.0  0.1216
  H  H16  1  0.040100  0.902600  0.653200  1.0  0.1365
  H  H17  1  0.955600  0.914600  0.618800  1.0  0.1287
  H  H18  1  0.921200  0.061900  0.565000  1.0  0.1275
  H  H19  1  0.744500  0.509500  0.744400  1.0  0.1308
  H  H20  1  0.617000  0.655300  0.775300  1.0  0.1229
  H  H21  1  0.617700  0.421300  0.594100  1.0  0.1216
  H  H22  1  0.540100  0.402600  0.653200  1.0  0.1365
  H  H23  1  0.455600  0.414600  0.618800  1.0  0.1287
  H  H24  1  0.421200  0.561900  0.565000  1.0  0.1275
  H  H25  1  0.755500  0.009500  0.755600  1.0  0.1317
  H  H26  1  0.883000  0.155300  0.724700  1.0  0.1228
  H  H27  1  0.882300  0.921300  0.905900  1.0  0.1221
  H  H28  1  0.959900  0.902600  0.846800  1.0  0.1358
  H  H29  1  0.044400  0.914600  0.881200  1.0  0.1295
  H  H30  1  0.078800  0.061900  0.935000  1.0  0.1267
  H  H31  1  0.255500  0.509500  0.755600  1.0  0.1317
  H  H32  1  0.383000  0.655300  0.724700  1.0  0.1228
  H  H33  1  0.382300  0.421300  0.905900  1.0  0.1221
  H  H34  1  0.459900  0.402600  0.846800  1.0  0.1358
  H  H35  1  0.544400  0.414600  0.881200  1.0  0.1295
  H  H36  1  0.578800  0.561900  0.935000  1.0  0.1267
  H  H37  1  0.755500  0.990500  0.255600  1.0  0.1316
  H  H38  1  0.883000  0.844700  0.224700  1.0  0.1231
  H  H39  1  0.882300  0.078700  0.405900  1.0  0.1212
  H  H40  1  0.959900  0.097400  0.346800  1.0  0.1368
  H  H41  1  0.044400  0.085400  0.381200  1.0  0.1299
  H  H42  1  0.078800  0.938100  0.435000  1.0  0.1267
  H  H43  1  0.255500  0.490500  0.255600  1.0  0.1316
  H  H44  1  0.383000  0.344700  0.224700  1.0  0.1231
  H  H45  1  0.382300  0.578700  0.405900  1.0  0.1212
  H  H46  1  0.459900  0.597400  0.346800  1.0  0.1368
  H  H47  1  0.544400  0.585400  0.381200  1.0  0.1299
  H  H48  1  0.578800  0.438100  0.435000  1.0  0.1267
  H  H49  1  0.244500  0.990500  0.244400  1.0  0.1304
  H  H50  1  0.117000  0.844700  0.275300  1.0  0.123
  H  H51  1  0.117700  0.078700  0.094100  1.0  0.1216
  H  H52  1  0.040100  0.097400  0.153200  1.0  0.136
  H  H53  1  0.955600  0.085400  0.118800  1.0  0.1298
  H  H54  1  0.921200  0.938100  0.065000  1.0  0.1278
  H  H55  1  0.744500  0.490500  0.244400  1.0  0.1304
  H  H56  1  0.617000  0.344700  0.275300  1.0  0.123
  H  H57  1  0.617700  0.578700  0.094100  1.0  0.1216
  H  H58  1  0.540100  0.597400  0.153200  1.0  0.136
  H  H59  1  0.455600  0.585400  0.118800  1.0  0.1298
  H  H60  1  0.421200  0.438100  0.065000  1.0  0.1278
  C  C61  1  0.211900  0.878100  0.605400  1.0  0.7293
  C  C62  1  0.186000  0.955400  0.659300  1.0  -0.09
  C  C63  1  0.210800  0.017000  0.728600  1.0  0.015
  C  C64  1  0.184300  0.092200  0.775700  1.0  -0.134
  C  C65  1  0.134100  0.104100  0.747000  1.0  -0.0255
  C  C66  1  0.108400  0.041900  0.677200  1.0  0.0403
  C  C67  1  0.134500  0.966500  0.637100  1.0  -0.0617
  C  C68  1  0.210200  0.149700  0.856900  1.0  0.7187
  C  C69  1  0.054700  0.053500  0.648100  1.0  0.0131
  C  C70  1  0.025600  0.966100  0.641200  1.0  -0.0919
  C  C71  1  0.974900  0.972600  0.616500  1.0  -0.0815
  C  C72  1  0.954200  0.060300  0.589900  1.0  -0.0902
  C  C73  1  0.981300  0.151000  0.599000  1.0  -0.0461
  C  C74  1  0.032200  0.145500  0.625900  1.0  -0.0804
  C  C75  1  0.062600  0.237900  0.618400  1.0  0.6924
  C  C76  1  0.954000  0.246000  0.569000  1.0  0.6941
  C  C77  1  0.711900  0.378100  0.605400  1.0  0.7293
  C  C78  1  0.686000  0.455400  0.659300  1.0  -0.09
  C  C79  1  0.710800  0.517000  0.728600  1.0  0.015
  C  C80  1  0.684300  0.592200  0.775700  1.0  -0.134
  C  C81  1  0.634100  0.604100  0.747000  1.0  -0.0255
  C  C82  1  0.608400  0.541900  0.677200  1.0  0.0403
  C  C83  1  0.634500  0.466500  0.637100  1.0  -0.0617
  C  C84  1  0.710200  0.649700  0.856900  1.0  0.7187
  C  C85  1  0.554700  0.553500  0.648100  1.0  0.0131
  C  C86  1  0.525600  0.466100  0.641200  1.0  -0.0919
  C  C87  1  0.474900  0.472600  0.616500  1.0  -0.0815
  C  C88  1  0.454200  0.560300  0.589900  1.0  -0.0902
  C  C89  1  0.481300  0.651000  0.599000  1.0  -0.0461
  C  C90  1  0.532200  0.645500  0.625900  1.0  -0.0804
  C  C91  1  0.562600  0.737900  0.618400  1.0  0.6924
  C  C92  1  0.454000  0.746000  0.569000  1.0  0.6941
  C  C93  1  0.788100  0.878100  0.894600  1.0  0.7296
  C  C94  1  0.814000  0.955400  0.840700  1.0  -0.0902
  C  C95  1  0.789200  0.017000  0.771400  1.0  0.0096
  C  C96  1  0.815700  0.092200  0.724300  1.0  -0.1328
  C  C97  1  0.865900  0.104100  0.753000  1.0  -0.0266
  C  C98  1  0.891600  0.041900  0.822800  1.0  0.04
  C  C99  1  0.865500  0.966500  0.862900  1.0  -0.0618
  C  C100  1  0.789800  0.149700  0.643100  1.0  0.7183
  C  C101  1  0.945300  0.053500  0.851900  1.0  0.0121
  C  C102  1  0.974400  0.966100  0.858800  1.0  -0.0921
  C  C103  1  0.025100  0.972600  0.883500  1.0  -0.083
  C  C104  1  0.045800  0.060300  0.910100  1.0  -0.0899
  C  C105  1  0.018700  0.151000  0.901000  1.0  -0.0447
  C  C106  1  0.967800  0.145500  0.874100  1.0  -0.0815
  C  C107  1  0.937400  0.237900  0.881600  1.0  0.6918
  C  C108  1  0.046000  0.246000  0.931000  1.0  0.6917
  C  C109  1  0.288100  0.378100  0.894600  1.0  0.7296
  C  C110  1  0.314000  0.455400  0.840700  1.0  -0.0902
  C  C111  1  0.289200  0.517000  0.771400  1.0  0.0096
  C  C112  1  0.315700  0.592200  0.724300  1.0  -0.1328
  C  C113  1  0.365900  0.604100  0.753000  1.0  -0.0266
  C  C114  1  0.391600  0.541900  0.822800  1.0  0.04
  C  C115  1  0.365500  0.466500  0.862900  1.0  -0.0618
  C  C116  1  0.289800  0.649700  0.643100  1.0  0.7183
  C  C117  1  0.445300  0.553500  0.851900  1.0  0.0121
  C  C118  1  0.474400  0.466100  0.858800  1.0  -0.0921
  C  C119  1  0.525100  0.472600  0.883500  1.0  -0.083
  C  C120  1  0.545800  0.560300  0.910100  1.0  -0.0899
  C  C121  1  0.518700  0.651000  0.901000  1.0  -0.0447
  C  C122  1  0.467800  0.645500  0.874100  1.0  -0.0815
  C  C123  1  0.437400  0.737900  0.881600  1.0  0.6918
  C  C124  1  0.546000  0.746000  0.931000  1.0  0.6917
  C  C125  1  0.788100  0.121900  0.394600  1.0  0.73
  C  C126  1  0.814000  0.044600  0.340700  1.0  -0.0899
  C  C127  1  0.789200  0.983000  0.271400  1.0  0.0095
  C  C128  1  0.815700  0.907800  0.224300  1.0  -0.1333
  C  C129  1  0.865900  0.895900  0.253000  1.0  -0.026
  C  C130  1  0.891600  0.958100  0.322800  1.0  0.04
  C  C131  1  0.865500  0.033500  0.362900  1.0  -0.0625
  C  C132  1  0.789800  0.850300  0.143100  1.0  0.7179
  C  C133  1  0.945300  0.946500  0.351900  1.0  0.0119
  C  C134  1  0.974400  0.033900  0.358800  1.0  -0.0937
  C  C135  1  0.025100  0.027400  0.383500  1.0  -0.081
  C  C136  1  0.045800  0.939700  0.410100  1.0  -0.09
  C  C137  1  0.018700  0.849000  0.401000  1.0  -0.0457
  C  C138  1  0.967800  0.854500  0.374100  1.0  -0.0821
  C  C139  1  0.937400  0.762100  0.381600  1.0  0.6914
  C  C140  1  0.046000  0.754000  0.431000  1.0  0.6943
  C  C141  1  0.288100  0.621900  0.394600  1.0  0.73
  C  C142  1  0.314000  0.544600  0.340700  1.0  -0.0899
  C  C143  1  0.289200  0.483000  0.271400  1.0  0.0095
  C  C144  1  0.315700  0.407800  0.224300  1.0  -0.1333
  C  C145  1  0.365900  0.395900  0.253000  1.0  -0.026
  C  C146  1  0.391600  0.458100  0.322800  1.0  0.04
  C  C147  1  0.365500  0.533500  0.362900  1.0  -0.0625
  C  C148  1  0.289800  0.350300  0.143100  1.0  0.7179
  C  C149  1  0.445300  0.446500  0.351900  1.0  0.0119
  C  C150  1  0.474400  0.533900  0.358800  1.0  -0.0937
  C  C151  1  0.525100  0.527400  0.383500  1.0  -0.081
  C  C152  1  0.545800  0.439700  0.410100  1.0  -0.09
  C  C153  1  0.518700  0.349000  0.401000  1.0  -0.0457
  C  C154  1  0.467800  0.354500  0.374100  1.0  -0.0821
  C  C155  1  0.437400  0.262100  0.381600  1.0  0.6914
  C  C156  1  0.546000  0.254000  0.431000  1.0  0.6943
  C  C157  1  0.211900  0.121900  0.105400  1.0  0.7299
  C  C158  1  0.186000  0.044600  0.159300  1.0  -0.0904
  C  C159  1  0.210800  0.983000  0.228600  1.0  0.0143
  C  C160  1  0.184300  0.907800  0.275700  1.0  -0.1336
  C  C161  1  0.134100  0.895900  0.247000  1.0  -0.0246
  C  C162  1  0.108400  0.958100  0.177200  1.0  0.0401
  C  C163  1  0.134500  0.033500  0.137100  1.0  -0.0626
  C  C164  1  0.210200  0.850300  0.356900  1.0  0.7183
  C  C165  1  0.054700  0.946500  0.148100  1.0  0.0131
  C  C166  1  0.025600  0.033900  0.141200  1.0  -0.0916
  C  C167  1  0.974900  0.027400  0.116500  1.0  -0.0802
  C  C168  1  0.954200  0.939700  0.089900  1.0  -0.0903
  C  C169  1  0.981300  0.849000  0.099000  1.0  -0.0461
  C  C170  1  0.032200  0.854500  0.125900  1.0  -0.0811
  C  C171  1  0.062600  0.762100  0.118400  1.0  0.6937
  C  C172  1  0.954000  0.754000  0.069000  1.0  0.6949
  C  C173  1  0.711900  0.621900  0.105400  1.0  0.7299
  C  C174  1  0.686000  0.544600  0.159300  1.0  -0.0904
  C  C175  1  0.710800  0.483000  0.228600  1.0  0.0143
  C  C176  1  0.684300  0.407800  0.275700  1.0  -0.1336
  C  C177  1  0.634100  0.395900  0.247000  1.0  -0.0246
  C  C178  1  0.608400  0.458100  0.177200  1.0  0.0401
  C  C179  1  0.634500  0.533500  0.137100  1.0  -0.0626
  C  C180  1  0.710200  0.350300  0.356900  1.0  0.7183
  C  C181  1  0.554700  0.446500  0.148100  1.0  0.0131
  C  C182  1  0.525600  0.533900  0.141200  1.0  -0.0916
  C  C183  1  0.474900  0.527400  0.116500  1.0  -0.0802
  C  C184  1  0.454200  0.439700  0.089900  1.0  -0.0903
  C  C185  1  0.481300  0.349000  0.099000  1.0  -0.0461
  C  C186  1  0.532200  0.354500  0.125900  1.0  -0.0811
  C  C187  1  0.562600  0.262100  0.118400  1.0  0.6937
  C  C188  1  0.454000  0.254000  0.069000  1.0  0.6949
  O  O189  1  0.189060  0.795600  0.583900  1.0  -0.5537
  O  O190  1  0.255070  0.898600  0.590200  1.0  -0.5519
  O  O191  1  0.251470  0.123200  0.893000  1.0  -0.5459
  O  O192  1  0.186090  0.225400  0.886800  1.0  -0.5635
  O  O193  1  0.094800  0.244100  0.563600  1.0  -0.4591
  O  O194  1  0.057200  0.312000  0.678200  1.0  -0.5869
  O  O195  1  0.960500  0.323000  0.632500  1.0  -0.562
  O  O196  1  0.928700  0.255100  0.489900  1.0  -0.5255
  O  O197  1  0.689060  0.295600  0.583900  1.0  -0.5537
  O  O198  1  0.755070  0.398600  0.590200  1.0  -0.5519
  O  O199  1  0.751470  0.623200  0.893000  1.0  -0.5459
  O  O200  1  0.686090  0.725400  0.886800  1.0  -0.5635
  O  O201  1  0.594800  0.744100  0.563600  1.0  -0.4591
  O  O202  1  0.557200  0.812000  0.678200  1.0  -0.5869
  O  O203  1  0.460500  0.823000  0.632500  1.0  -0.562
  O  O204  1  0.428700  0.755100  0.489900  1.0  -0.5255
  O  O205  1  0.810940  0.795600  0.916100  1.0  -0.5552
  O  O206  1  0.744930  0.898600  0.909800  1.0  -0.5505
  O  O207  1  0.748530  0.123200  0.607000  1.0  -0.5446
  O  O208  1  0.813910  0.225400  0.613200  1.0  -0.5638
  O  O209  1  0.905200  0.244100  0.936400  1.0  -0.4583
  O  O210  1  0.942800  0.312000  0.821800  1.0  -0.5854
  O  O211  1  0.039500  0.323000  0.867500  1.0  -0.5631
  O  O212  1  0.071300  0.255100  0.010100  1.0  -0.5257
  O  O213  1  0.310940  0.295600  0.916100  1.0  -0.5552
  O  O214  1  0.244930  0.398600  0.909800  1.0  -0.5505
  O  O215  1  0.248530  0.623200  0.607000  1.0  -0.5446
  O  O216  1  0.313910  0.725400  0.613200  1.0  -0.5638
  O  O217  1  0.405200  0.744100  0.936400  1.0  -0.4583
  O  O218  1  0.442800  0.812000  0.821800  1.0  -0.5854
  O  O219  1  0.539500  0.823000  0.867500  1.0  -0.5631
  O  O220  1  0.571300  0.755100  0.010100  1.0  -0.5257
  O  O221  1  0.810940  0.204400  0.416100  1.0  -0.5544
  O  O222  1  0.744930  0.101400  0.409800  1.0  -0.5499
  O  O223  1  0.748530  0.876800  0.107000  1.0  -0.5444
  O  O224  1  0.813910  0.774600  0.113200  1.0  -0.5639
  O  O225  1  0.905200  0.755900  0.436400  1.0  -0.4572
  O  O226  1  0.942800  0.688000  0.321800  1.0  -0.5835
  O  O227  1  0.039500  0.677000  0.367500  1.0  -0.5625
  O  O228  1  0.071300  0.744900  0.510100  1.0  -0.5244
  O  O229  1  0.310940  0.704400  0.416100  1.0  -0.5544
  O  O230  1  0.244930  0.601400  0.409800  1.0  -0.5499
  O  O231  1  0.248530  0.376800  0.107000  1.0  -0.5444
  O  O232  1  0.313910  0.274600  0.113200  1.0  -0.5639
  O  O233  1  0.405200  0.255900  0.436400  1.0  -0.4572
  O  O234  1  0.442800  0.188000  0.321800  1.0  -0.5835
  O  O235  1  0.539500  0.177000  0.367500  1.0  -0.5625
  O  O236  1  0.571300  0.244900  0.510100  1.0  -0.5244
  O  O237  1  0.189060  0.204400  0.083900  1.0  -0.5535
  O  O238  1  0.255070  0.101400  0.090200  1.0  -0.5523
  O  O239  1  0.251470  0.876800  0.393000  1.0  -0.5457
  O  O240  1  0.186090  0.774600  0.386800  1.0  -0.5639
  O  O241  1  0.094800  0.755900  0.063600  1.0  -0.4579
  O  O242  1  0.057200  0.688000  0.178200  1.0  -0.5848
  O  O243  1  0.960500  0.677000  0.132500  1.0  -0.5645
  O  O244  1  0.928700  0.744900  0.989900  1.0  -0.5259
  O  O245  1  0.689060  0.704400  0.083900  1.0  -0.5535
  O  O246  1  0.755070  0.601400  0.090200  1.0  -0.5523
  O  O247  1  0.751470  0.376800  0.393000  1.0  -0.5457
  O  O248  1  0.686090  0.274600  0.386800  1.0  -0.5639
  O  O249  1  0.594800  0.255900  0.063600  1.0  -0.4579
  O  O250  1  0.557200  0.188000  0.178200  1.0  -0.5848
  O  O251  1  0.460500  0.177000  0.132500  1.0  -0.5645
  O  O252  1  0.428700  0.244900  0.989900  1.0  -0.5259
