# generated using pymatgen
data_Cu4H13C32O17
_symmetry_space_group_name_H-M   'P 1'
_cell_length_a   12.42900000
_cell_length_b   12.71200000
_cell_length_c   15.82100000
_cell_angle_alpha   98.15900000
_cell_angle_beta   92.87300000
_cell_angle_gamma   93.26700000
_symmetry_Int_Tables_number   1
_chemical_formula_structural   Cu4H13C32O17
_chemical_formula_sum   'Cu8 H26 C64 O34'
_cell_volume   2466.06566453
_cell_formula_units_Z   2
loop_
 _symmetry_equiv_pos_site_id
 _symmetry_equiv_pos_as_xyz
  1  'x, y, z'
loop_
 _atom_site_type_symbol
 _atom_site_label
 _atom_site_symmetry_multiplicity
 _atom_site_fract_x
 _atom_site_fract_y
 _atom_site_fract_z
 _atom_site_occupancy
 _atom_site_charge
  Cu  Cu1  1  0.926230  0.072480  0.506290  1.0  0.9182
  Cu  Cu2  1  0.849020  0.355860  0.071760  1.0  0.9519
  Cu  Cu3  1  0.066620  0.509100  0.079500  1.0  0.9922
  Cu  Cu4  1  0.464090  0.411770  0.067110  1.0  0.9207
  Cu  Cu5  1  0.073770  0.927520  0.493710  1.0  0.9168
  Cu  Cu6  1  0.150980  0.644140  0.928240  1.0  0.9522
  Cu  Cu7  1  0.933380  0.490900  0.920500  1.0  0.9963
  Cu  Cu8  1  0.535910  0.588230  0.932890  1.0  0.9218
  H  H9  1  0.003300  0.339500  0.982600  1.0  0.4549
  H  H10  1  0.284800  0.062200  0.312600  1.0  0.126
  H  H11  1  0.255700  0.268900  0.145000  1.0  0.1286
  H  H12  1  0.013900  0.222400  0.299100  1.0  0.1424
  H  H13  1  0.652500  0.099200  0.084200  1.0  0.1455
  H  H14  1  0.534600  0.959400  0.107700  1.0  0.1142
  H  H15  1  0.374400  0.988800  0.170800  1.0  0.1293
  H  H16  1  0.647300  0.626400  0.159000  1.0  0.1262
  H  H17  1  0.666667  0.894600  0.325100  1.0  0.1381
  H  H18  1  0.934100  0.743800  0.270300  1.0  0.1185
  H  H19  1  0.217900  0.774100  0.252800  1.0  0.1479
  H  H20  1  0.331600  0.842600  0.368500  1.0  0.1268
  H  H21  1  0.515700  0.846000  0.358800  1.0  0.1441
  H  H22  1  0.996700  0.660500  0.017400  1.0  0.4549
  H  H23  1  0.715200  0.937800  0.687400  1.0  0.1259
  H  H24  1  0.744300  0.731100  0.855000  1.0  0.1282
  H  H25  1  0.986100  0.777600  0.700900  1.0  0.1416
  H  H26  1  0.347500  0.900800  0.915800  1.0  0.1456
  H  H27  1  0.465400  0.040600  0.892300  1.0  0.1141
  H  H28  1  0.625600  0.011200  0.829200  1.0  0.1299
  H  H29  1  0.352700  0.373600  0.841000  1.0  0.1265
  H  H30  1  0.333333  0.105400  0.674900  1.0  0.1387
  H  H31  1  0.065900  0.256200  0.729700  1.0  0.1189
  H  H32  1  0.782100  0.225900  0.747200  1.0  0.1481
  H  H33  1  0.668400  0.157400  0.631500  1.0  0.1265
  H  H34  1  0.484300  0.154000  0.641200  1.0  0.1429
  C  C35  1  0.098800  0.085500  0.387800  1.0  0.7103
  C  C36  1  0.143100  0.132700  0.317000  1.0  -0.1336
  C  C37  1  0.245400  0.112200  0.289100  1.0  -0.0407
  C  C38  1  0.290700  0.166400  0.225300  1.0  0.0485
  C  C39  1  0.227700  0.233800  0.187600  1.0  -0.0805
  C  C40  1  0.121300  0.251700  0.211600  1.0  -0.1182
  C  C41  1  0.080800  0.205600  0.279100  1.0  -0.0564
  C  C42  1  0.057600  0.328500  0.166600  1.0  0.7239
  C  C43  1  0.397300  0.145000  0.191800  1.0  0.0693
  C  C44  1  0.469200  0.232400  0.184400  1.0  0.0126
  C  C45  1  0.567200  0.217100  0.145800  1.0  -0.1129
  C  C46  1  0.590300  0.112500  0.113300  1.0  -0.1161
  C  C47  1  0.517700  0.029100  0.125900  1.0  -0.0908
  C  C48  1  0.421600  0.046100  0.164300  1.0  -0.1535
  C  C49  1  0.442700  0.342200  0.228800  1.0  0.7189
  C  C50  1  0.641700  0.302800  0.126000  1.0  0.7127
  C  C51  1  0.857500  0.584300  0.153600  1.0  0.7673
  C  C52  1  0.801700  0.674800  0.202500  1.0  -0.125
  C  C53  1  0.688800  0.679500  0.194800  1.0  -0.0495
  C  C54  1  0.638700  0.762900  0.240300  1.0  -0.0111
  C  C55  1  0.700000  0.837600  0.296100  1.0  -0.093
  C  C56  1  0.812200  0.831000  0.310900  1.0  -0.0973
  C  C57  1  0.860100  0.749100  0.262400  1.0  0.0468
  C  C58  1  0.876900  0.903300  0.380600  1.0  0.6916
  C  C59  1  0.517700  0.768100  0.238600  1.0  -0.0221
  C  C60  1  0.447200  0.727100  0.166800  1.0  -0.0447
  C  C61  1  0.333500  0.725000  0.177700  1.0  -0.028
  C  C62  1  0.292200  0.771200  0.249600  1.0  -0.1179
  C  C63  1  0.360000  0.813700  0.317700  1.0  -0.0647
  C  C64  1  0.471000  0.814100  0.312100  1.0  -0.1426
  C  C65  1  0.252400  0.667100  0.107700  1.0  0.7065
  C  C66  1  0.490800  0.695200  0.081000  1.0  0.7154
  C  C67  1  0.901200  0.914500  0.612200  1.0  0.7106
  C  C68  1  0.856900  0.867300  0.683000  1.0  -0.1344
  C  C69  1  0.754600  0.887800  0.710900  1.0  -0.0417
  C  C70  1  0.709300  0.833600  0.774700  1.0  0.0495
  C  C71  1  0.772300  0.766200  0.812400  1.0  -0.0829
  C  C72  1  0.878700  0.748300  0.788400  1.0  -0.1187
  C  C73  1  0.919200  0.794400  0.720900  1.0  -0.0522
  C  C74  1  0.942400  0.671500  0.833400  1.0  0.7228
  C  C75  1  0.602700  0.855000  0.808200  1.0  0.0689
  C  C76  1  0.530800  0.767600  0.815600  1.0  0.0122
  C  C77  1  0.432800  0.782900  0.854200  1.0  -0.1132
  C  C78  1  0.409700  0.887500  0.886700  1.0  -0.1185
  C  C79  1  0.482300  0.970900  0.874100  1.0  -0.0912
  C  C80  1  0.578400  0.953900  0.835700  1.0  -0.1527
  C  C81  1  0.557300  0.657800  0.771200  1.0  0.7173
  C  C82  1  0.358300  0.697200  0.874000  1.0  0.7142
  C  C83  1  0.142500  0.415700  0.846400  1.0  0.7681
  C  C84  1  0.198300  0.325200  0.797500  1.0  -0.1245
  C  C85  1  0.311200  0.320500  0.805200  1.0  -0.0499
  C  C86  1  0.361300  0.237100  0.759700  1.0  -0.0119
  C  C87  1  0.300000  0.162400  0.703900  1.0  -0.0922
  C  C88  1  0.187800  0.169000  0.689100  1.0  -0.097
  C  C89  1  0.139900  0.250900  0.737600  1.0  0.0457
  C  C90  1  0.123100  0.096700  0.619400  1.0  0.6912
  C  C91  1  0.482300  0.231900  0.761400  1.0  -0.0224
  C  C92  1  0.552800  0.272900  0.833200  1.0  -0.044
  C  C93  1  0.666500  0.275000  0.822300  1.0  -0.0282
  C  C94  1  0.707800  0.228800  0.750400  1.0  -0.1149
  C  C95  1  0.640000  0.186300  0.682300  1.0  -0.0643
  C  C96  1  0.529000  0.185900  0.687900  1.0  -0.1414
  C  C97  1  0.747600  0.332900  0.892300  1.0  0.7088
  C  C98  1  0.509200  0.304800  0.919000  1.0  0.7148
  O  O99  1  0.016500  0.123800  0.420800  1.0  -0.5723
  O  O100  1  0.147700  0.007400  0.411800  1.0  -0.5626
  O  O101  1  0.960200  0.314400  0.158200  1.0  -0.5732
  O  O102  1  0.114600  0.401500  0.144000  1.0  -0.5619
  O  O103  1  0.742600  0.287300  0.136000  1.0  -0.5943
  O  O104  1  0.611700  0.391000  0.107100  1.0  -0.5703
  O  O105  1  0.437100  0.357900  0.308900  1.0  -0.5013
  O  O106  1  0.422500  0.418200  0.183200  1.0  -0.5885
  O  O107  1  0.805600  0.523700  0.094600  1.0  -0.5513
  O  O108  1  0.956800  0.580700  0.173600  1.0  -0.6157
  O  O109  1  0.966700  0.867000  0.401800  1.0  -0.5964
  O  O110  1  0.837200  0.986000  0.412800  1.0  -0.5431
  O  O111  1  0.195100  0.599600  0.132500  1.0  -0.5687
  O  O112  1  0.251700  0.695600  0.032100  1.0  -0.5828
  O  O113  1  0.487900  0.595100  0.050800  1.0  -0.6431
  O  O114  1  0.527500  0.765800  0.042300  1.0  -0.5488
  O  O115  1  0.964700  0.400800  0.006800  1.0  -0.8829
  O  O116  1  0.983500  0.876200  0.579200  1.0  -0.5723
  O  O117  1  0.852300  0.992600  0.588200  1.0  -0.5613
  O  O118  1  0.039800  0.685600  0.841800  1.0  -0.5756
  O  O119  1  0.885400  0.598500  0.856000  1.0  -0.5607
  O  O120  1  0.257400  0.712700  0.864000  1.0  -0.5945
  O  O121  1  0.388300  0.609000  0.892900  1.0  -0.5698
  O  O122  1  0.562900  0.642100  0.691100  1.0  -0.4971
  O  O123  1  0.577500  0.581800  0.816800  1.0  -0.5882
  O  O124  1  0.194400  0.476300  0.905400  1.0  -0.5501
  O  O125  1  0.043200  0.419300  0.826400  1.0  -0.6141
  O  O126  1  0.033300  0.133000  0.598200  1.0  -0.596
  O  O127  1  0.162800  0.014000  0.587200  1.0  -0.5428
  O  O128  1  0.804900  0.400400  0.867500  1.0  -0.5707
  O  O129  1  0.748300  0.304400  0.967900  1.0  -0.5826
  O  O130  1  0.512100  0.404900  0.949200  1.0  -0.6432
  O  O131  1  0.472500  0.234200  0.957700  1.0  -0.5486
  O  O132  1  0.035300  0.599200  0.993200  1.0  -0.8826
