# generated using pymatgen
data_AgH20(C2N)4
_symmetry_space_group_name_H-M   'P 1'
_cell_length_a   16.80480000
_cell_length_b   16.80480000
_cell_length_c   16.80480000
_cell_angle_alpha   90.00000000
_cell_angle_beta   90.00000000
_cell_angle_gamma   90.00000000
_symmetry_Int_Tables_number   1
_chemical_formula_structural   AgH20(C2N)4
_chemical_formula_sum   'Ag12 H240 C96 N48'
_cell_volume   4745.69741733
_cell_formula_units_Z   12
loop_
 _symmetry_equiv_pos_site_id
 _symmetry_equiv_pos_as_xyz
  1  'x, y, z'
loop_
 _atom_site_type_symbol
 _atom_site_label
 _atom_site_symmetry_multiplicity
 _atom_site_fract_x
 _atom_site_fract_y
 _atom_site_fract_z
 _atom_site_occupancy
 _atom_site_charge
  Ag  Ag1  1  0.250000  0.624900  0.500000  1.0  0.352
  Ag  Ag2  1  0.250000  0.375100  0.000000  1.0  0.3519
  Ag  Ag3  1  0.750000  0.875100  0.500000  1.0  0.3519
  Ag  Ag4  1  0.750000  0.124900  0.000000  1.0  0.352
  Ag  Ag5  1  0.500000  0.250000  0.624900  1.0  0.352
  Ag  Ag6  1  0.000000  0.250000  0.375100  1.0  0.352
  Ag  Ag7  1  0.500000  0.750000  0.875100  1.0  0.352
  Ag  Ag8  1  0.000000  0.750000  0.124900  1.0  0.352
  Ag  Ag9  1  0.624900  0.500000  0.250000  1.0  0.3521
  Ag  Ag10  1  0.375100  0.000000  0.250000  1.0  0.352
  Ag  Ag11  1  0.875100  0.500000  0.750000  1.0  0.352
  Ag  Ag12  1  0.124900  0.000000  0.750000  1.0  0.3521
  H  H13  1  0.968900  0.368000  0.705900  1.0  0.1665
  H  H14  1  0.895000  0.366100  0.650600  1.0  0.1779
  H  H15  1  0.953400  0.461400  0.572100  1.0  0.0795
  H  H16  1  0.085600  0.449400  0.671300  1.0  0.1217
  H  H17  1  0.031100  0.523700  0.666800  1.0  0.0785
  H  H18  1  0.100200  0.881500  0.146700  1.0  0.1867
  H  H19  1  0.044500  0.879500  0.220300  1.0  0.1651
  H  H20  1  0.213400  0.704300  0.323900  1.0  0.0949
  H  H21  1  0.197100  0.835000  0.422900  1.0  0.0773
  H  H22  1  0.272600  0.782000  0.419600  1.0  0.0826
  H  H23  1  0.468900  0.868000  0.205900  1.0  0.1665
  H  H24  1  0.395000  0.866100  0.150600  1.0  0.1779
  H  H25  1  0.453400  0.961400  0.072100  1.0  0.0795
  H  H26  1  0.585600  0.949400  0.171300  1.0  0.1217
  H  H27  1  0.531100  0.023700  0.166800  1.0  0.0785
  H  H28  1  0.600200  0.381500  0.646700  1.0  0.1867
  H  H29  1  0.544500  0.379500  0.720300  1.0  0.1651
  H  H30  1  0.713400  0.204300  0.823900  1.0  0.0949
  H  H31  1  0.697100  0.335000  0.922900  1.0  0.0773
  H  H32  1  0.772600  0.282000  0.919600  1.0  0.0826
  H  H33  1  0.531100  0.632000  0.205900  1.0  0.1645
  H  H34  1  0.605000  0.633900  0.150600  1.0  0.1774
  H  H35  1  0.546600  0.538600  0.072100  1.0  0.0781
  H  H36  1  0.414400  0.550600  0.171300  1.0  0.1216
  H  H37  1  0.468900  0.476300  0.166800  1.0  0.0802
  H  H38  1  0.399800  0.118500  0.646700  1.0  0.1864
  H  H39  1  0.455500  0.120500  0.720300  1.0  0.164
  H  H40  1  0.286600  0.295700  0.823900  1.0  0.0956
  H  H41  1  0.302900  0.165000  0.922900  1.0  0.0788
  H  H42  1  0.227400  0.218000  0.919600  1.0  0.0822
  H  H43  1  0.031100  0.132000  0.705900  1.0  0.1645
  H  H44  1  0.105000  0.133900  0.650600  1.0  0.1774
  H  H45  1  0.046600  0.038600  0.572100  1.0  0.0781
  H  H46  1  0.914400  0.050600  0.671300  1.0  0.1216
  H  H47  1  0.968900  0.976300  0.666800  1.0  0.0802
  H  H48  1  0.899800  0.618500  0.146700  1.0  0.1864
  H  H49  1  0.955500  0.620500  0.220300  1.0  0.164
  H  H50  1  0.786600  0.795700  0.323900  1.0  0.0956
  H  H51  1  0.802900  0.665000  0.422900  1.0  0.0788
  H  H52  1  0.727400  0.718000  0.419600  1.0  0.0822
  H  H53  1  0.031100  0.868000  0.794100  1.0  0.1647
  H  H54  1  0.105000  0.866100  0.849400  1.0  0.1779
  H  H55  1  0.046600  0.961400  0.927900  1.0  0.0785
  H  H56  1  0.914400  0.949400  0.828700  1.0  0.1204
  H  H57  1  0.968900  0.023700  0.833200  1.0  0.0784
  H  H58  1  0.899800  0.381500  0.353300  1.0  0.1866
  H  H59  1  0.955500  0.379500  0.279700  1.0  0.1638
  H  H60  1  0.786600  0.204300  0.176100  1.0  0.0951
  H  H61  1  0.802900  0.335000  0.077100  1.0  0.0786
  H  H62  1  0.727400  0.282000  0.080400  1.0  0.0818
  H  H63  1  0.531100  0.368000  0.294100  1.0  0.1647
  H  H64  1  0.605000  0.366100  0.349400  1.0  0.1779
  H  H65  1  0.546600  0.461400  0.427900  1.0  0.0785
  H  H66  1  0.414400  0.449400  0.328700  1.0  0.1204
  H  H67  1  0.468900  0.523700  0.333200  1.0  0.0784
  H  H68  1  0.399800  0.881500  0.853300  1.0  0.1866
  H  H69  1  0.455500  0.879500  0.779700  1.0  0.1638
  H  H70  1  0.286600  0.704300  0.676100  1.0  0.0951
  H  H71  1  0.302900  0.835000  0.577100  1.0  0.0786
  H  H72  1  0.227400  0.782000  0.580400  1.0  0.0818
  H  H73  1  0.468900  0.132000  0.294100  1.0  0.1655
  H  H74  1  0.395000  0.133900  0.349400  1.0  0.179
  H  H75  1  0.453400  0.038600  0.427900  1.0  0.0788
  H  H76  1  0.585600  0.050600  0.328700  1.0  0.1197
  H  H77  1  0.531100  0.976300  0.333200  1.0  0.079
  H  H78  1  0.600200  0.618500  0.853300  1.0  0.1868
  H  H79  1  0.544500  0.620500  0.779700  1.0  0.1648
  H  H80  1  0.713400  0.795700  0.676100  1.0  0.095
  H  H81  1  0.697100  0.665000  0.577100  1.0  0.0775
  H  H82  1  0.772600  0.718000  0.580400  1.0  0.0819
  H  H83  1  0.968900  0.632000  0.794100  1.0  0.1655
  H  H84  1  0.895000  0.633900  0.849400  1.0  0.179
  H  H85  1  0.953400  0.538600  0.927900  1.0  0.0788
  H  H86  1  0.085600  0.550600  0.828700  1.0  0.1197
  H  H87  1  0.031100  0.476300  0.833200  1.0  0.079
  H  H88  1  0.100200  0.118500  0.353300  1.0  0.1868
  H  H89  1  0.044500  0.120500  0.279700  1.0  0.1648
  H  H90  1  0.213400  0.295700  0.176100  1.0  0.095
  H  H91  1  0.197100  0.165000  0.077100  1.0  0.0775
  H  H92  1  0.272600  0.218000  0.080400  1.0  0.0819
  H  H93  1  0.705900  0.968900  0.368000  1.0  0.1639
  H  H94  1  0.650600  0.895000  0.366100  1.0  0.1774
  H  H95  1  0.572100  0.953400  0.461400  1.0  0.0767
  H  H96  1  0.671300  0.085600  0.449400  1.0  0.1208
  H  H97  1  0.666800  0.031100  0.523700  1.0  0.0806
  H  H98  1  0.146700  0.100200  0.881500  1.0  0.1872
  H  H99  1  0.220300  0.044500  0.879500  1.0  0.1653
  H  H100  1  0.323900  0.213400  0.704300  1.0  0.0962
  H  H101  1  0.422900  0.197100  0.835000  1.0  0.0789
  H  H102  1  0.419600  0.272600  0.782000  1.0  0.0798
  H  H103  1  0.205900  0.468900  0.868000  1.0  0.1639
  H  H104  1  0.150600  0.395000  0.866100  1.0  0.1774
  H  H105  1  0.072100  0.453400  0.961400  1.0  0.0767
  H  H106  1  0.171300  0.585600  0.949400  1.0  0.1208
  H  H107  1  0.166800  0.531100  0.023700  1.0  0.0806
  H  H108  1  0.646700  0.600200  0.381500  1.0  0.1872
  H  H109  1  0.720300  0.544500  0.379500  1.0  0.1653
  H  H110  1  0.823900  0.713400  0.204300  1.0  0.0962
  H  H111  1  0.922900  0.697100  0.335000  1.0  0.0789
  H  H112  1  0.919600  0.772600  0.282000  1.0  0.0798
  H  H113  1  0.205900  0.531100  0.632000  1.0  0.1655
  H  H114  1  0.150600  0.605000  0.633900  1.0  0.1766
  H  H115  1  0.072100  0.546600  0.538600  1.0  0.0769
  H  H116  1  0.171300  0.414400  0.550600  1.0  0.1197
  H  H117  1  0.166800  0.468900  0.476300  1.0  0.0815
  H  H118  1  0.646700  0.399800  0.118500  1.0  0.1873
  H  H119  1  0.720300  0.455500  0.120500  1.0  0.163
  H  H120  1  0.823900  0.286600  0.295700  1.0  0.0975
  H  H121  1  0.922900  0.302900  0.165000  1.0  0.079
  H  H122  1  0.919600  0.227400  0.218000  1.0  0.0822
  H  H123  1  0.705900  0.031100  0.132000  1.0  0.1655
  H  H124  1  0.650600  0.105000  0.133900  1.0  0.1766
  H  H125  1  0.572100  0.046600  0.038600  1.0  0.0769
  H  H126  1  0.671300  0.914400  0.050600  1.0  0.1197
  H  H127  1  0.666800  0.968900  0.976300  1.0  0.0815
  H  H128  1  0.146700  0.899800  0.618500  1.0  0.1873
  H  H129  1  0.220300  0.955500  0.620500  1.0  0.163
  H  H130  1  0.323900  0.786600  0.795700  1.0  0.0975
  H  H131  1  0.422900  0.802900  0.665000  1.0  0.079
  H  H132  1  0.419600  0.727400  0.718000  1.0  0.0822
  H  H133  1  0.794100  0.031100  0.868000  1.0  0.1647
  H  H134  1  0.849400  0.105000  0.866100  1.0  0.1768
  H  H135  1  0.927900  0.046600  0.961400  1.0  0.0757
  H  H136  1  0.828700  0.914400  0.949400  1.0  0.121
  H  H137  1  0.833200  0.968900  0.023700  1.0  0.0802
  H  H138  1  0.353300  0.899800  0.381500  1.0  0.1863
  H  H139  1  0.279700  0.955500  0.379500  1.0  0.1615
  H  H140  1  0.176100  0.786600  0.204300  1.0  0.096
  H  H141  1  0.077100  0.802900  0.335000  1.0  0.0791
  H  H142  1  0.080400  0.727400  0.282000  1.0  0.0815
  H  H143  1  0.294100  0.531100  0.368000  1.0  0.1647
  H  H144  1  0.349400  0.605000  0.366100  1.0  0.1768
  H  H145  1  0.427900  0.546600  0.461400  1.0  0.0757
  H  H146  1  0.328700  0.414400  0.449400  1.0  0.121
  H  H147  1  0.333200  0.468900  0.523700  1.0  0.0802
  H  H148  1  0.853300  0.399800  0.881500  1.0  0.1863
  H  H149  1  0.779700  0.455500  0.879500  1.0  0.1615
  H  H150  1  0.676100  0.286600  0.704300  1.0  0.096
  H  H151  1  0.577100  0.302900  0.835000  1.0  0.0791
  H  H152  1  0.580400  0.227400  0.782000  1.0  0.0815
  H  H153  1  0.294100  0.468900  0.132000  1.0  0.1641
  H  H154  1  0.349400  0.395000  0.133900  1.0  0.1772
  H  H155  1  0.427900  0.453400  0.038600  1.0  0.0755
  H  H156  1  0.328700  0.585600  0.050600  1.0  0.1211
  H  H157  1  0.333200  0.531100  0.976300  1.0  0.0811
  H  H158  1  0.853300  0.600200  0.618500  1.0  0.186
  H  H159  1  0.779700  0.544500  0.620500  1.0  0.163
  H  H160  1  0.676100  0.713400  0.795700  1.0  0.0968
  H  H161  1  0.577100  0.697100  0.665000  1.0  0.079
  H  H162  1  0.580400  0.772600  0.718000  1.0  0.0809
  H  H163  1  0.794100  0.968900  0.632000  1.0  0.1641
  H  H164  1  0.849400  0.895000  0.633900  1.0  0.1772
  H  H165  1  0.927900  0.953400  0.538600  1.0  0.0755
  H  H166  1  0.828700  0.085600  0.550600  1.0  0.1211
  H  H167  1  0.833200  0.031100  0.476300  1.0  0.0811
  H  H168  1  0.353300  0.100200  0.118500  1.0  0.186
  H  H169  1  0.279700  0.044500  0.120500  1.0  0.163
  H  H170  1  0.176100  0.213400  0.295700  1.0  0.0968
  H  H171  1  0.077100  0.197100  0.165000  1.0  0.079
  H  H172  1  0.080400  0.272600  0.218000  1.0  0.0809
  H  H173  1  0.368000  0.705900  0.968900  1.0  0.1644
  H  H174  1  0.366100  0.650600  0.895000  1.0  0.1779
  H  H175  1  0.461400  0.572100  0.953400  1.0  0.0748
  H  H176  1  0.449400  0.671300  0.085600  1.0  0.1199
  H  H177  1  0.523700  0.666800  0.031100  1.0  0.0805
  H  H178  1  0.881500  0.146700  0.100200  1.0  0.1866
  H  H179  1  0.879500  0.220300  0.044500  1.0  0.1648
  H  H180  1  0.704300  0.323900  0.213400  1.0  0.0973
  H  H181  1  0.835000  0.422900  0.197100  1.0  0.0764
  H  H182  1  0.782000  0.419600  0.272600  1.0  0.0831
  H  H183  1  0.868000  0.205900  0.468900  1.0  0.1644
  H  H184  1  0.866100  0.150600  0.395000  1.0  0.1779
  H  H185  1  0.961400  0.072100  0.453400  1.0  0.0748
  H  H186  1  0.949400  0.171300  0.585600  1.0  0.1199
  H  H187  1  0.023700  0.166800  0.531100  1.0  0.0805
  H  H188  1  0.381500  0.646700  0.600200  1.0  0.1866
  H  H189  1  0.379500  0.720300  0.544500  1.0  0.1648
  H  H190  1  0.204300  0.823900  0.713400  1.0  0.0973
  H  H191  1  0.335000  0.922900  0.697100  1.0  0.0764
  H  H192  1  0.282000  0.919600  0.772600  1.0  0.0831
  H  H193  1  0.632000  0.205900  0.531100  1.0  0.1645
  H  H194  1  0.633900  0.150600  0.605000  1.0  0.1779
  H  H195  1  0.538600  0.072100  0.546600  1.0  0.0757
  H  H196  1  0.550600  0.171300  0.414400  1.0  0.12
  H  H197  1  0.476300  0.166800  0.468900  1.0  0.0812
  H  H198  1  0.118500  0.646700  0.399800  1.0  0.1867
  H  H199  1  0.120500  0.720300  0.455500  1.0  0.166
  H  H200  1  0.295700  0.823900  0.286600  1.0  0.0973
  H  H201  1  0.165000  0.922900  0.302900  1.0  0.0768
  H  H202  1  0.218000  0.919600  0.227400  1.0  0.0838
  H  H203  1  0.132000  0.705900  0.031100  1.0  0.1645
  H  H204  1  0.133900  0.650600  0.105000  1.0  0.1779
  H  H205  1  0.038600  0.572100  0.046600  1.0  0.0757
  H  H206  1  0.050600  0.671300  0.914400  1.0  0.12
  H  H207  1  0.976300  0.666800  0.968900  1.0  0.0812
  H  H208  1  0.618500  0.146700  0.899800  1.0  0.1867
  H  H209  1  0.620500  0.220300  0.955500  1.0  0.166
  H  H210  1  0.795700  0.323900  0.786600  1.0  0.0973
  H  H211  1  0.665000  0.422900  0.802900  1.0  0.0768
  H  H212  1  0.718000  0.419600  0.727400  1.0  0.0838
  H  H213  1  0.868000  0.794100  0.031100  1.0  0.1652
  H  H214  1  0.866100  0.849400  0.105000  1.0  0.1779
  H  H215  1  0.961400  0.927900  0.046600  1.0  0.0746
  H  H216  1  0.949400  0.828700  0.914400  1.0  0.1203
  H  H217  1  0.023700  0.833200  0.968900  1.0  0.0814
  H  H218  1  0.381500  0.353300  0.899800  1.0  0.1868
  H  H219  1  0.379500  0.279700  0.955500  1.0  0.1659
  H  H220  1  0.204300  0.176100  0.786600  1.0  0.0976
  H  H221  1  0.335000  0.077100  0.802900  1.0  0.0778
  H  H222  1  0.282000  0.080400  0.727400  1.0  0.0835
  H  H223  1  0.368000  0.294100  0.531100  1.0  0.1652
  H  H224  1  0.366100  0.349400  0.605000  1.0  0.1779
  H  H225  1  0.461400  0.427900  0.546600  1.0  0.0746
  H  H226  1  0.449400  0.328700  0.414400  1.0  0.1203
  H  H227  1  0.523700  0.333200  0.468900  1.0  0.0814
  H  H228  1  0.881500  0.853300  0.399800  1.0  0.1868
  H  H229  1  0.879500  0.779700  0.455500  1.0  0.1659
  H  H230  1  0.704300  0.676100  0.286600  1.0  0.0976
  H  H231  1  0.835000  0.577100  0.302900  1.0  0.0778
  H  H232  1  0.782000  0.580400  0.227400  1.0  0.0835
  H  H233  1  0.132000  0.294100  0.468900  1.0  0.1669
  H  H234  1  0.133900  0.349400  0.395000  1.0  0.1768
  H  H235  1  0.038600  0.427900  0.453400  1.0  0.0752
  H  H236  1  0.050600  0.328700  0.585600  1.0  0.12
  H  H237  1  0.976300  0.333200  0.531100  1.0  0.081
  H  H238  1  0.618500  0.853300  0.600200  1.0  0.1875
  H  H239  1  0.620500  0.779700  0.544500  1.0  0.1665
  H  H240  1  0.795700  0.676100  0.713400  1.0  0.0974
  H  H241  1  0.665000  0.577100  0.697100  1.0  0.0776
  H  H242  1  0.718000  0.580400  0.772600  1.0  0.084
  H  H243  1  0.632000  0.794100  0.968900  1.0  0.1669
  H  H244  1  0.633900  0.849400  0.895000  1.0  0.1768
  H  H245  1  0.538600  0.927900  0.953400  1.0  0.0752
  H  H246  1  0.550600  0.828700  0.085600  1.0  0.12
  H  H247  1  0.476300  0.833200  0.031100  1.0  0.081
  H  H248  1  0.118500  0.353300  0.100200  1.0  0.1875
  H  H249  1  0.120500  0.279700  0.044500  1.0  0.1665
  H  H250  1  0.295700  0.176100  0.213400  1.0  0.0974
  H  H251  1  0.165000  0.077100  0.197100  1.0  0.0776
  H  H252  1  0.218000  0.080400  0.272600  1.0  0.084
  C  C253  1  0.427700  0.393600  0.513100  1.0  0.1559
  C  C254  1  0.361500  0.445700  0.480000  1.0  -0.1711
  C  C255  1  0.235200  0.855800  0.679700  1.0  0.0747
  C  C256  1  0.269300  0.802700  0.612400  1.0  -0.1734
  C  C257  1  0.927700  0.893600  0.013100  1.0  0.1559
  C  C258  1  0.861500  0.945700  0.980000  1.0  -0.1711
  C  C259  1  0.735200  0.355800  0.179700  1.0  0.0747
  C  C260  1  0.769300  0.302700  0.112400  1.0  -0.1734
  C  C261  1  0.072300  0.606400  0.013100  1.0  0.1548
  C  C262  1  0.138500  0.554300  0.980000  1.0  -0.1678
  C  C263  1  0.264800  0.144200  0.179700  1.0  0.0751
  C  C264  1  0.230700  0.197300  0.112400  1.0  -0.174
  C  C265  1  0.572300  0.106400  0.513100  1.0  0.1548
  C  C266  1  0.638500  0.054300  0.480000  1.0  -0.1678
  C  C267  1  0.764800  0.644200  0.679700  1.0  0.0751
  C  C268  1  0.730700  0.697300  0.612400  1.0  -0.174
  C  C269  1  0.572300  0.893600  0.986900  1.0  0.1555
  C  C270  1  0.638500  0.945700  0.020000  1.0  -0.1671
  C  C271  1  0.764800  0.355800  0.820300  1.0  0.0755
  C  C272  1  0.730700  0.302700  0.887600  1.0  -0.1737
  C  C273  1  0.072300  0.393600  0.486900  1.0  0.1555
  C  C274  1  0.138500  0.445700  0.520000  1.0  -0.1671
  C  C275  1  0.264800  0.855800  0.320300  1.0  0.0755
  C  C276  1  0.230700  0.802700  0.387600  1.0  -0.1737
  C  C277  1  0.927700  0.106400  0.486900  1.0  0.156
  C  C278  1  0.861500  0.054300  0.520000  1.0  -0.1701
  C  C279  1  0.735200  0.644200  0.320300  1.0  0.0742
  C  C280  1  0.769300  0.697300  0.387600  1.0  -0.1735
  C  C281  1  0.427700  0.606400  0.986900  1.0  0.156
  C  C282  1  0.361500  0.554300  0.020000  1.0  -0.1701
  C  C283  1  0.235200  0.144200  0.820300  1.0  0.0742
  C  C284  1  0.269300  0.197300  0.887600  1.0  -0.1735
  C  C285  1  0.513100  0.427700  0.393600  1.0  0.154
  C  C286  1  0.480000  0.361500  0.445700  1.0  -0.1643
  C  C287  1  0.679700  0.235200  0.855800  1.0  0.0756
  C  C288  1  0.612400  0.269300  0.802700  1.0  -0.1718
  C  C289  1  0.013100  0.927700  0.893600  1.0  0.154
  C  C290  1  0.980000  0.861500  0.945700  1.0  -0.1643
  C  C291  1  0.179700  0.735200  0.355800  1.0  0.0756
  C  C292  1  0.112400  0.769300  0.302700  1.0  -0.1718
  C  C293  1  0.013100  0.072300  0.606400  1.0  0.1531
  C  C294  1  0.980000  0.138500  0.554300  1.0  -0.1659
  C  C295  1  0.179700  0.264800  0.144200  1.0  0.0769
  C  C296  1  0.112400  0.230700  0.197300  1.0  -0.1717
  C  C297  1  0.513100  0.572300  0.106400  1.0  0.1531
  C  C298  1  0.480000  0.638500  0.054300  1.0  -0.1659
  C  C299  1  0.679700  0.764800  0.644200  1.0  0.0769
  C  C300  1  0.612400  0.730700  0.697300  1.0  -0.1717
  C  C301  1  0.986900  0.572300  0.893600  1.0  0.1528
  C  C302  1  0.020000  0.638500  0.945700  1.0  -0.1644
  C  C303  1  0.820300  0.764800  0.355800  1.0  0.0756
  C  C304  1  0.887600  0.730700  0.302700  1.0  -0.1708
  C  C305  1  0.486900  0.072300  0.393600  1.0  0.1528
  C  C306  1  0.520000  0.138500  0.445700  1.0  -0.1644
  C  C307  1  0.320300  0.264800  0.855800  1.0  0.0756
  C  C308  1  0.387600  0.230700  0.802700  1.0  -0.1708
  C  C309  1  0.486900  0.927700  0.106400  1.0  0.1532
  C  C310  1  0.520000  0.861500  0.054300  1.0  -0.1633
  C  C311  1  0.320300  0.735200  0.644200  1.0  0.0766
  C  C312  1  0.387600  0.769300  0.697300  1.0  -0.1721
  C  C313  1  0.986900  0.427700  0.606400  1.0  0.1532
  C  C314  1  0.020000  0.361500  0.554300  1.0  -0.1633
  C  C315  1  0.820300  0.235200  0.144200  1.0  0.0766
  C  C316  1  0.887600  0.269300  0.197300  1.0  -0.1721
  C  C317  1  0.393600  0.513100  0.427700  1.0  0.1557
  C  C318  1  0.445700  0.480000  0.361500  1.0  -0.1657
  C  C319  1  0.855800  0.679700  0.235200  1.0  0.0769
  C  C320  1  0.802700  0.612400  0.269300  1.0  -0.1681
  C  C321  1  0.893600  0.013100  0.927700  1.0  0.1557
  C  C322  1  0.945700  0.980000  0.861500  1.0  -0.1657
  C  C323  1  0.355800  0.179700  0.735200  1.0  0.0769
  C  C324  1  0.302700  0.112400  0.769300  1.0  -0.1681
  C  C325  1  0.606400  0.013100  0.072300  1.0  0.1552
  C  C326  1  0.554300  0.980000  0.138500  1.0  -0.1666
  C  C327  1  0.144200  0.179700  0.264800  1.0  0.0775
  C  C328  1  0.197300  0.112400  0.230700  1.0  -0.167
  C  C329  1  0.106400  0.513100  0.572300  1.0  0.1552
  C  C330  1  0.054300  0.480000  0.638500  1.0  -0.1666
  C  C331  1  0.644200  0.679700  0.764800  1.0  0.0775
  C  C332  1  0.697300  0.612400  0.730700  1.0  -0.167
  C  C333  1  0.893600  0.986900  0.572300  1.0  0.1544
  C  C334  1  0.945700  0.020000  0.638500  1.0  -0.1691
  C  C335  1  0.355800  0.820300  0.764800  1.0  0.0762
  C  C336  1  0.302700  0.887600  0.730700  1.0  -0.1676
  C  C337  1  0.393600  0.486900  0.072300  1.0  0.1544
  C  C338  1  0.445700  0.520000  0.138500  1.0  -0.1691
  C  C339  1  0.855800  0.320300  0.264800  1.0  0.0762
  C  C340  1  0.802700  0.387600  0.230700  1.0  -0.1676
  C  C341  1  0.106400  0.486900  0.927700  1.0  0.1541
  C  C342  1  0.054300  0.520000  0.861500  1.0  -0.1671
  C  C343  1  0.644200  0.320300  0.735200  1.0  0.0778
  C  C344  1  0.697300  0.387600  0.769300  1.0  -0.1667
  C  C345  1  0.606400  0.986900  0.427700  1.0  0.1541
  C  C346  1  0.554300  0.020000  0.361500  1.0  -0.1671
  C  C347  1  0.144200  0.820300  0.235200  1.0  0.0778
  C  C348  1  0.197300  0.887600  0.269300  1.0  -0.1667
  N  N349  1  0.399400  0.328500  0.563300  1.0  -0.6495
  N  N350  1  0.186100  0.921000  0.652000  1.0  -0.6443
  N  N351  1  0.899400  0.828500  0.063300  1.0  -0.6495
  N  N352  1  0.686100  0.421000  0.152000  1.0  -0.6443
  N  N353  1  0.100600  0.671500  0.063300  1.0  -0.6521
  N  N354  1  0.313900  0.079000  0.152000  1.0  -0.6449
  N  N355  1  0.600600  0.171500  0.563300  1.0  -0.6521
  N  N356  1  0.813900  0.579000  0.652000  1.0  -0.6449
  N  N357  1  0.600600  0.828500  0.936700  1.0  -0.6549
  N  N358  1  0.813900  0.421000  0.848000  1.0  -0.6479
  N  N359  1  0.100600  0.328500  0.436700  1.0  -0.6549
  N  N360  1  0.313900  0.921000  0.348000  1.0  -0.6479
  N  N361  1  0.899400  0.171500  0.436700  1.0  -0.6528
  N  N362  1  0.686100  0.579000  0.348000  1.0  -0.6484
  N  N363  1  0.399400  0.671500  0.936700  1.0  -0.6528
  N  N364  1  0.186100  0.079000  0.848000  1.0  -0.6484
  N  N365  1  0.563300  0.399400  0.328500  1.0  -0.6526
  N  N366  1  0.652000  0.186100  0.921000  1.0  -0.6395
  N  N367  1  0.063300  0.899400  0.828500  1.0  -0.6526
  N  N368  1  0.152000  0.686100  0.421000  1.0  -0.6395
  N  N369  1  0.063300  0.100600  0.671500  1.0  -0.6501
  N  N370  1  0.152000  0.313900  0.079000  1.0  -0.6428
  N  N371  1  0.563300  0.600600  0.171500  1.0  -0.6501
  N  N372  1  0.652000  0.813900  0.579000  1.0  -0.6428
  N  N373  1  0.936700  0.600600  0.828500  1.0  -0.6525
  N  N374  1  0.848000  0.813900  0.421000  1.0  -0.6423
  N  N375  1  0.436700  0.100600  0.328500  1.0  -0.6525
  N  N376  1  0.348000  0.313900  0.921000  1.0  -0.6423
  N  N377  1  0.436700  0.899400  0.171500  1.0  -0.6529
  N  N378  1  0.348000  0.686100  0.579000  1.0  -0.6446
  N  N379  1  0.936700  0.399400  0.671500  1.0  -0.6529
  N  N380  1  0.848000  0.186100  0.079000  1.0  -0.6446
  N  N381  1  0.328500  0.563300  0.399400  1.0  -0.6571
  N  N382  1  0.921000  0.652000  0.186100  1.0  -0.6405
  N  N383  1  0.828500  0.063300  0.899400  1.0  -0.6571
  N  N384  1  0.421000  0.152000  0.686100  1.0  -0.6405
  N  N385  1  0.671500  0.063300  0.100600  1.0  -0.6615
  N  N386  1  0.079000  0.152000  0.313900  1.0  -0.639
  N  N387  1  0.171500  0.563300  0.600600  1.0  -0.6615
  N  N388  1  0.579000  0.652000  0.813900  1.0  -0.639
  N  N389  1  0.828500  0.936700  0.600600  1.0  -0.6583
  N  N390  1  0.421000  0.848000  0.813900  1.0  -0.6367
  N  N391  1  0.328500  0.436700  0.100600  1.0  -0.6583
  N  N392  1  0.921000  0.348000  0.313900  1.0  -0.6367
  N  N393  1  0.171500  0.436700  0.899400  1.0  -0.6566
  N  N394  1  0.579000  0.348000  0.686100  1.0  -0.6405
  N  N395  1  0.671500  0.936700  0.399400  1.0  -0.6566
  N  N396  1  0.079000  0.848000  0.186100  1.0  -0.6405
