# generated using pymatgen
data_CuH24C29N5O11
_symmetry_space_group_name_H-M   'P 1'
_cell_length_a   10.81500000
_cell_length_b   16.41300000
_cell_length_c   22.78610000
_cell_angle_alpha   90.00000000
_cell_angle_beta   90.00000000
_cell_angle_gamma   90.00000000
_symmetry_Int_Tables_number   1
_chemical_formula_structural   CuH24C29N5O11
_chemical_formula_sum   'Cu4 H96 C116 N20 O44'
_cell_volume   4044.68302433
_cell_formula_units_Z   4
loop_
 _symmetry_equiv_pos_site_id
 _symmetry_equiv_pos_as_xyz
  1  'x, y, z'
loop_
 _atom_site_type_symbol
 _atom_site_label
 _atom_site_symmetry_multiplicity
 _atom_site_fract_x
 _atom_site_fract_y
 _atom_site_fract_z
 _atom_site_occupancy
 _atom_site_charge
  Cu  Cu1  1  0.500000  0.975760  0.250000  1.0  0.4131
  Cu  Cu2  1  0.500000  0.524240  0.750000  1.0  0.4126
  Cu  Cu3  1  0.500000  0.024240  0.750000  1.0  0.4126
  Cu  Cu4  1  0.500000  0.475760  0.250000  1.0  0.4131
  H  H5  1  0.835900  0.341800  0.016500  1.0  0.1316
  H  H6  1  0.952100  0.337700  0.070300  1.0  0.1247
  H  H7  1  0.767800  0.227900  0.243500  1.0  0.1282
  H  H8  1  0.658200  0.114100  0.289200  1.0  0.1377
  H  H9  1  0.563300  0.022000  0.124800  1.0  0.131
  H  H10  1  0.678800  0.130100  0.075400  1.0  0.1419
  H  H11  1  0.118400  0.341700  0.993800  1.0  0.1274
  H  H12  1  0.999500  0.352700  0.941900  1.0  0.1291
  H  H13  1  0.466700  0.278400  0.873700  1.0  0.1309
  H  H14  1  0.569800  0.174400  0.816100  1.0  0.1307
  H  H15  1  0.234200  0.060200  0.781100  1.0  0.1421
  H  H16  1  0.122200  0.158500  0.841900  1.0  0.1445
  H  H17  1  0.164100  0.341800  0.483500  1.0  0.1309
  H  H18  1  0.047900  0.337700  0.429700  1.0  0.1237
  H  H19  1  0.232200  0.227900  0.256500  1.0  0.1284
  H  H20  1  0.341800  0.114100  0.210800  1.0  0.1387
  H  H21  1  0.436700  0.022000  0.375200  1.0  0.1306
  H  H22  1  0.321200  0.130100  0.424600  1.0  0.1415
  H  H23  1  0.881600  0.341700  0.506200  1.0  0.1281
  H  H24  1  0.000500  0.352700  0.558100  1.0  0.1285
  H  H25  1  0.533300  0.278400  0.626300  1.0  0.1302
  H  H26  1  0.430200  0.174400  0.683900  1.0  0.1305
  H  H27  1  0.765800  0.060200  0.718900  1.0  0.143
  H  H28  1  0.877800  0.158500  0.658100  1.0  0.1448
  H  H29  1  0.835900  0.158200  0.983500  1.0  0.1314
  H  H30  1  0.952100  0.162300  0.929700  1.0  0.1241
  H  H31  1  0.767800  0.272100  0.756500  1.0  0.1284
  H  H32  1  0.658200  0.385900  0.710800  1.0  0.139
  H  H33  1  0.563300  0.478000  0.875200  1.0  0.1311
  H  H34  1  0.678800  0.369900  0.924600  1.0  0.1416
  H  H35  1  0.118400  0.158300  0.006200  1.0  0.1262
  H  H36  1  0.999500  0.147300  0.058100  1.0  0.1289
  H  H37  1  0.466700  0.221600  0.126300  1.0  0.1301
  H  H38  1  0.569800  0.325600  0.183900  1.0  0.1308
  H  H39  1  0.234200  0.439800  0.218900  1.0  0.1421
  H  H40  1  0.122200  0.341500  0.158100  1.0  0.1445
  H  H41  1  0.164100  0.158200  0.516500  1.0  0.1301
  H  H42  1  0.047900  0.162300  0.570300  1.0  0.1235
  H  H43  1  0.232200  0.272100  0.743500  1.0  0.1294
  H  H44  1  0.341800  0.385900  0.789200  1.0  0.1378
  H  H45  1  0.436700  0.478000  0.624800  1.0  0.1306
  H  H46  1  0.321200  0.369900  0.575400  1.0  0.1419
  H  H47  1  0.881600  0.158300  0.493800  1.0  0.1275
  H  H48  1  0.000500  0.147300  0.441900  1.0  0.1283
  H  H49  1  0.533300  0.221600  0.373700  1.0  0.1313
  H  H50  1  0.430200  0.325600  0.316100  1.0  0.1302
  H  H51  1  0.765800  0.439800  0.281100  1.0  0.1437
  H  H52  1  0.877800  0.341500  0.341900  1.0  0.145
  H  H53  1  0.164100  0.658200  0.983500  1.0  0.1306
  H  H54  1  0.047900  0.662300  0.929700  1.0  0.1234
  H  H55  1  0.232200  0.772100  0.756500  1.0  0.1288
  H  H56  1  0.341800  0.885900  0.710800  1.0  0.1393
  H  H57  1  0.436700  0.978000  0.875200  1.0  0.1305
  H  H58  1  0.321200  0.869900  0.924600  1.0  0.1416
  H  H59  1  0.881600  0.658300  0.006200  1.0  0.1266
  H  H60  1  0.000500  0.647300  0.058100  1.0  0.1291
  H  H61  1  0.533300  0.721600  0.126300  1.0  0.1304
  H  H62  1  0.430200  0.825600  0.183900  1.0  0.1307
  H  H63  1  0.765800  0.939800  0.218900  1.0  0.1427
  H  H64  1  0.877800  0.841500  0.158100  1.0  0.1448
  H  H65  1  0.835900  0.658200  0.516500  1.0  0.131
  H  H66  1  0.952100  0.662300  0.570300  1.0  0.1241
  H  H67  1  0.767800  0.772100  0.743500  1.0  0.1288
  H  H68  1  0.658200  0.885900  0.789200  1.0  0.1375
  H  H69  1  0.563300  0.978000  0.624800  1.0  0.1309
  H  H70  1  0.678800  0.869900  0.575400  1.0  0.1418
  H  H71  1  0.118400  0.658300  0.493800  1.0  0.1267
  H  H72  1  0.999500  0.647300  0.441900  1.0  0.1283
  H  H73  1  0.466700  0.721600  0.373700  1.0  0.131
  H  H74  1  0.569800  0.825600  0.316100  1.0  0.1303
  H  H75  1  0.234200  0.939800  0.281100  1.0  0.1423
  H  H76  1  0.122200  0.841500  0.341900  1.0  0.1445
  H  H77  1  0.164100  0.841800  0.016500  1.0  0.1305
  H  H78  1  0.047900  0.837700  0.070300  1.0  0.1244
  H  H79  1  0.232200  0.727900  0.243500  1.0  0.1286
  H  H80  1  0.341800  0.614100  0.289200  1.0  0.1381
  H  H81  1  0.436700  0.522000  0.124800  1.0  0.1306
  H  H82  1  0.321200  0.630100  0.075400  1.0  0.1419
  H  H83  1  0.881600  0.841700  0.993800  1.0  0.1281
  H  H84  1  0.000500  0.852700  0.941900  1.0  0.1288
  H  H85  1  0.533300  0.778400  0.873700  1.0  0.1311
  H  H86  1  0.430200  0.674400  0.816100  1.0  0.1303
  H  H87  1  0.765800  0.560200  0.781100  1.0  0.1432
  H  H88  1  0.877800  0.658500  0.841900  1.0  0.1449
  H  H89  1  0.835900  0.841800  0.483500  1.0  0.1319
  H  H90  1  0.952100  0.837700  0.429700  1.0  0.1244
  H  H91  1  0.767800  0.727900  0.256500  1.0  0.1281
  H  H92  1  0.658200  0.614100  0.210800  1.0  0.1385
  H  H93  1  0.563300  0.522000  0.375200  1.0  0.1314
  H  H94  1  0.678800  0.630100  0.424600  1.0  0.1415
  H  H95  1  0.118400  0.841700  0.506200  1.0  0.1271
  H  H96  1  0.999500  0.852700  0.558100  1.0  0.1286
  H  H97  1  0.466700  0.778400  0.626300  1.0  0.13
  H  H98  1  0.569800  0.674400  0.683900  1.0  0.1308
  H  H99  1  0.234200  0.560200  0.718900  1.0  0.1423
  H  H100  1  0.122200  0.658500  0.658100  1.0  0.1444
  C  C101  1  0.895200  0.301600  0.041300  1.0  0.0086
  C  C102  1  0.805000  0.253000  0.123300  1.0  0.6439
  C  C103  1  0.733300  0.186700  0.156300  1.0  -0.0758
  C  C104  1  0.724300  0.182200  0.216400  1.0  -0.0914
  C  C105  1  0.659900  0.119400  0.242000  1.0  0.1227
  C  C106  1  0.608500  0.068100  0.150900  1.0  0.1429
  C  C107  1  0.673900  0.128400  0.122700  1.0  -0.0986
  C  C108  1  0.056200  0.309200  0.965000  1.0  -0.0097
  C  C109  1  0.224300  0.287100  0.901000  1.0  0.6937
  C  C110  1  0.287300  0.224700  0.863800  1.0  -0.0681
  C  C111  1  0.413800  0.229200  0.854700  1.0  -0.1016
  C  C112  1  0.470700  0.171600  0.821700  1.0  0.0992
  C  C113  1  0.285000  0.108100  0.802900  1.0  0.1641
  C  C114  1  0.221200  0.163100  0.836700  1.0  -0.1093
  C  C115  1  0.104800  0.301600  0.458700  1.0  0.0085
  C  C116  1  0.195000  0.253000  0.376700  1.0  0.6478
  C  C117  1  0.266700  0.186700  0.343700  1.0  -0.0757
  C  C118  1  0.275700  0.182200  0.283600  1.0  -0.0916
  C  C119  1  0.340100  0.119400  0.258000  1.0  0.1214
  C  C120  1  0.391500  0.068100  0.349100  1.0  0.1438
  C  C121  1  0.326100  0.128400  0.377300  1.0  -0.0979
  C  C122  1  0.943800  0.309200  0.535000  1.0  -0.0103
  C  C123  1  0.775700  0.287100  0.599000  1.0  0.6941
  C  C124  1  0.712700  0.224700  0.636200  1.0  -0.0684
  C  C125  1  0.586200  0.229200  0.645300  1.0  -0.1057
  C  C126  1  0.529300  0.171600  0.678300  1.0  0.098
  C  C127  1  0.715000  0.108100  0.697100  1.0  0.166
  C  C128  1  0.778800  0.163100  0.663300  1.0  -0.1072
  C  C129  1  0.895200  0.198400  0.958700  1.0  0.009
  C  C130  1  0.805000  0.247000  0.876700  1.0  0.648
  C  C131  1  0.733300  0.313300  0.843700  1.0  -0.0754
  C  C132  1  0.724300  0.317800  0.783600  1.0  -0.0903
  C  C133  1  0.659900  0.380600  0.758000  1.0  0.1221
  C  C134  1  0.608500  0.431900  0.849100  1.0  0.1403
  C  C135  1  0.673900  0.371600  0.877300  1.0  -0.0978
  C  C136  1  0.056200  0.190800  0.035000  1.0  -0.0089
  C  C137  1  0.224300  0.212900  0.099000  1.0  0.6954
  C  C138  1  0.287300  0.275300  0.136200  1.0  -0.0693
  C  C139  1  0.413800  0.270800  0.145300  1.0  -0.1032
  C  C140  1  0.470700  0.328400  0.178300  1.0  0.0995
  C  C141  1  0.285000  0.391900  0.197100  1.0  0.1633
  C  C142  1  0.221200  0.336900  0.163300  1.0  -0.1125
  C  C143  1  0.104800  0.198400  0.541300  1.0  0.0096
  C  C144  1  0.195000  0.247000  0.623300  1.0  0.6446
  C  C145  1  0.266700  0.313300  0.656300  1.0  -0.0757
  C  C146  1  0.275700  0.317800  0.716400  1.0  -0.0911
  C  C147  1  0.340100  0.380600  0.742000  1.0  0.1227
  C  C148  1  0.391500  0.431900  0.650900  1.0  0.1428
  C  C149  1  0.326100  0.371600  0.622700  1.0  -0.0987
  C  C150  1  0.943800  0.190800  0.465000  1.0  -0.0095
  C  C151  1  0.775700  0.212900  0.401000  1.0  0.695
  C  C152  1  0.712700  0.275300  0.363800  1.0  -0.0681
  C  C153  1  0.586200  0.270800  0.354700  1.0  -0.105
  C  C154  1  0.529300  0.328400  0.321700  1.0  0.0982
  C  C155  1  0.715000  0.391900  0.302900  1.0  0.1641
  C  C156  1  0.778800  0.336900  0.336700  1.0  -0.1095
  C  C157  1  0.104800  0.698400  0.958700  1.0  0.0085
  C  C158  1  0.195000  0.747000  0.876700  1.0  0.648
  C  C159  1  0.266700  0.813300  0.843700  1.0  -0.0752
  C  C160  1  0.275700  0.817800  0.783600  1.0  -0.0909
  C  C161  1  0.340100  0.880600  0.758000  1.0  0.1221
  C  C162  1  0.391500  0.931900  0.849100  1.0  0.1424
  C  C163  1  0.326100  0.871600  0.877300  1.0  -0.0979
  C  C164  1  0.943800  0.690800  0.035000  1.0  -0.0103
  C  C165  1  0.775700  0.712900  0.099000  1.0  0.695
  C  C166  1  0.712700  0.775300  0.136200  1.0  -0.0692
  C  C167  1  0.586200  0.770800  0.145300  1.0  -0.1054
  C  C168  1  0.529300  0.828400  0.178300  1.0  0.0985
  C  C169  1  0.715000  0.891900  0.197100  1.0  0.1643
  C  C170  1  0.778800  0.836900  0.163300  1.0  -0.1096
  C  C171  1  0.895200  0.698400  0.541300  1.0  0.0083
  C  C172  1  0.805000  0.747000  0.623300  1.0  0.6448
  C  C173  1  0.733300  0.813300  0.656300  1.0  -0.0758
  C  C174  1  0.724300  0.817800  0.716400  1.0  -0.0904
  C  C175  1  0.659900  0.880600  0.742000  1.0  0.1229
  C  C176  1  0.608500  0.931900  0.650900  1.0  0.1425
  C  C177  1  0.673900  0.871600  0.622700  1.0  -0.0985
  C  C178  1  0.056200  0.690800  0.465000  1.0  -0.0099
  C  C179  1  0.224300  0.712900  0.401000  1.0  0.6953
  C  C180  1  0.287300  0.775300  0.363800  1.0  -0.0677
  C  C181  1  0.413800  0.770800  0.354700  1.0  -0.1011
  C  C182  1  0.470700  0.828400  0.321700  1.0  0.0998
  C  C183  1  0.285000  0.891900  0.302900  1.0  0.163
  C  C184  1  0.221200  0.836900  0.336700  1.0  -0.1123
  C  C185  1  0.104800  0.801600  0.041300  1.0  0.0096
  C  C186  1  0.195000  0.753000  0.123300  1.0  0.6443
  C  C187  1  0.266700  0.686700  0.156300  1.0  -0.076
  C  C188  1  0.275700  0.682200  0.216400  1.0  -0.0922
  C  C189  1  0.340100  0.619400  0.242000  1.0  0.1227
  C  C190  1  0.391500  0.568100  0.150900  1.0  0.1429
  C  C191  1  0.326100  0.628400  0.122700  1.0  -0.099
  C  C192  1  0.943800  0.809200  0.965000  1.0  -0.009
  C  C193  1  0.775700  0.787100  0.901000  1.0  0.694
  C  C194  1  0.712700  0.724700  0.863800  1.0  -0.0686
  C  C195  1  0.586200  0.729200  0.854700  1.0  -0.1058
  C  C196  1  0.529300  0.671600  0.821700  1.0  0.098
  C  C197  1  0.715000  0.608100  0.802900  1.0  0.1653
  C  C198  1  0.778800  0.663100  0.836700  1.0  -0.1069
  C  C199  1  0.895200  0.801600  0.458700  1.0  0.0093
  C  C200  1  0.805000  0.753000  0.376700  1.0  0.6474
  C  C201  1  0.733300  0.686700  0.343700  1.0  -0.0756
  C  C202  1  0.724300  0.682200  0.283600  1.0  -0.0912
  C  C203  1  0.659900  0.619400  0.258000  1.0  0.1213
  C  C204  1  0.608500  0.568100  0.349100  1.0  0.1425
  C  C205  1  0.673900  0.628400  0.377300  1.0  -0.0976
  C  C206  1  0.056200  0.809200  0.535000  1.0  -0.0088
  C  C207  1  0.224300  0.787100  0.599000  1.0  0.6938
  C  C208  1  0.287300  0.724700  0.636200  1.0  -0.0685
  C  C209  1  0.413800  0.729200  0.645300  1.0  -0.1035
  C  C210  1  0.470700  0.671600  0.678300  1.0  0.0985
  C  C211  1  0.285000  0.608100  0.697100  1.0  0.1648
  C  C212  1  0.221200  0.663100  0.663300  1.0  -0.1097
  C  C213  1  0.976000  0.250000  0.000000  1.0  0.0191
  C  C214  1  0.024000  0.250000  0.500000  1.0  0.0191
  C  C215  1  0.024000  0.750000  0.000000  1.0  0.0191
  C  C216  1  0.976000  0.750000  0.500000  1.0  0.0191
  N  N217  1  0.598700  0.064200  0.209000  1.0  -0.2908
  N  N218  1  0.408000  0.111500  0.796000  1.0  -0.2731
  N  N219  1  0.401300  0.064200  0.291000  1.0  -0.2897
  N  N220  1  0.592000  0.111500  0.704000  1.0  -0.2751
  N  N221  1  0.598700  0.435800  0.791000  1.0  -0.2911
  N  N222  1  0.408000  0.388500  0.204000  1.0  -0.2739
  N  N223  1  0.401300  0.435800  0.709000  1.0  -0.2909
  N  N224  1  0.592000  0.388500  0.296000  1.0  -0.2744
  N  N225  1  0.401300  0.935800  0.791000  1.0  -0.2909
  N  N226  1  0.592000  0.888500  0.204000  1.0  -0.275
  N  N227  1  0.598700  0.935800  0.709000  1.0  -0.2914
  N  N228  1  0.408000  0.888500  0.296000  1.0  -0.2736
  N  N229  1  0.401300  0.564200  0.209000  1.0  -0.2898
  N  N230  1  0.592000  0.611500  0.796000  1.0  -0.2743
  N  N231  1  0.598700  0.564200  0.291000  1.0  -0.2903
  N  N232  1  0.408000  0.611500  0.704000  1.0  -0.2737
  N  N233  1  0.000000  0.188000  0.250000  1.0  0.061
  N  N234  1  0.000000  0.312000  0.750000  1.0  0.0617
  N  N235  1  0.000000  0.812000  0.750000  1.0  0.0617
  N  N236  1  0.000000  0.688000  0.250000  1.0  0.061
  O  O237  1  0.798400  0.322300  0.149200  1.0  -0.5563
  O  O238  1  0.823300  0.243800  0.074040  1.0  -0.4232
  O  O239  1  0.124900  0.259100  0.924080  1.0  -0.3386
  O  O240  1  0.260600  0.356700  0.905200  1.0  -0.4667
  O  O241  1  0.201600  0.322300  0.350800  1.0  -0.5568
  O  O242  1  0.176700  0.243800  0.425960  1.0  -0.423
  O  O243  1  0.875100  0.259100  0.575920  1.0  -0.3355
  O  O244  1  0.739400  0.356700  0.594800  1.0  -0.4679
  O  O245  1  0.798400  0.177700  0.850800  1.0  -0.5578
  O  O246  1  0.823300  0.256200  0.925960  1.0  -0.4228
  O  O247  1  0.124900  0.240900  0.075920  1.0  -0.3381
  O  O248  1  0.260600  0.143300  0.094800  1.0  -0.4687
  O  O249  1  0.201600  0.177700  0.649200  1.0  -0.5565
  O  O250  1  0.176700  0.256200  0.574040  1.0  -0.4231
  O  O251  1  0.875100  0.240900  0.424080  1.0  -0.3359
  O  O252  1  0.739400  0.143300  0.405200  1.0  -0.4683
  O  O253  1  0.201600  0.677700  0.850800  1.0  -0.5578
  O  O254  1  0.176700  0.756200  0.925960  1.0  -0.4226
  O  O255  1  0.875100  0.740900  0.075920  1.0  -0.3358
  O  O256  1  0.739400  0.643300  0.094800  1.0  -0.4697
  O  O257  1  0.798400  0.677700  0.649200  1.0  -0.5569
  O  O258  1  0.823300  0.756200  0.574040  1.0  -0.4229
  O  O259  1  0.124900  0.740900  0.424080  1.0  -0.3383
  O  O260  1  0.260600  0.643300  0.405200  1.0  -0.468
  O  O261  1  0.201600  0.822300  0.149200  1.0  -0.5563
  O  O262  1  0.176700  0.743800  0.074040  1.0  -0.4238
  O  O263  1  0.875100  0.759100  0.924080  1.0  -0.3361
  O  O264  1  0.739400  0.856700  0.905200  1.0  -0.4674
  O  O265  1  0.798400  0.822300  0.350800  1.0  -0.5569
  O  O266  1  0.823300  0.743800  0.425960  1.0  -0.4229
  O  O267  1  0.124900  0.759100  0.575920  1.0  -0.3381
  O  O268  1  0.260600  0.856700  0.594800  1.0  -0.4672
  O  O269  1  0.020200  0.194400  0.191800  1.0  -0.5182
  O  O270  1  0.979800  0.194400  0.308200  1.0  -0.5169
  O  O271  1  0.000000  0.094000  0.250000  1.0  -0.5991
  O  O272  1  0.020200  0.305600  0.808200  1.0  -0.5178
  O  O273  1  0.979800  0.305600  0.691800  1.0  -0.5181
  O  O274  1  0.000000  0.406000  0.750000  1.0  -0.5957
  O  O275  1  0.979800  0.805600  0.808200  1.0  -0.5174
  O  O276  1  0.020200  0.805600  0.691800  1.0  -0.5182
  O  O277  1  0.000000  0.906000  0.750000  1.0  -0.5957
  O  O278  1  0.979800  0.694400  0.191800  1.0  -0.518
  O  O279  1  0.020200  0.694400  0.308200  1.0  -0.5173
  O  O280  1  0.000000  0.594000  0.250000  1.0  -0.5991
