# generated using pymatgen
data_CuH24C29(NO2)4
_symmetry_space_group_name_H-M   'P 1'
_cell_length_a   15.77800000
_cell_length_b   19.44600000
_cell_length_c   25.67700000
_cell_angle_alpha   90.00000000
_cell_angle_beta   90.00000000
_cell_angle_gamma   90.00000000
_symmetry_Int_Tables_number   1
_chemical_formula_structural   CuH24C29(NO2)4
_chemical_formula_sum   'Cu8 H192 C232 N32 O64'
_cell_volume   7878.19115488
_cell_formula_units_Z   8
loop_
 _symmetry_equiv_pos_site_id
 _symmetry_equiv_pos_as_xyz
  1  'x, y, z'
loop_
 _atom_site_type_symbol
 _atom_site_label
 _atom_site_symmetry_multiplicity
 _atom_site_fract_x
 _atom_site_fract_y
 _atom_site_fract_z
 _atom_site_occupancy
 _atom_site_charge
  Cu  Cu1  1  0.490640  0.755970  0.996370  1.0  0.3685
  Cu  Cu2  1  0.990640  0.744030  0.503630  1.0  0.3675
  Cu  Cu3  1  0.009360  0.244030  0.996370  1.0  0.368
  Cu  Cu4  1  0.509360  0.255970  0.503630  1.0  0.3686
  Cu  Cu5  1  0.509360  0.244030  0.003630  1.0  0.3678
  Cu  Cu6  1  0.009360  0.255970  0.496370  1.0  0.3687
  Cu  Cu7  1  0.990640  0.755970  0.003630  1.0  0.3684
  Cu  Cu8  1  0.490640  0.744030  0.496370  1.0  0.3676
  H  H9  1  0.817400  0.904500  0.247600  1.0  0.098
  H  H10  1  0.842300  0.967000  0.201000  1.0  0.0999
  H  H11  1  0.754900  0.894400  0.036000  1.0  0.1037
  H  H12  1  0.655700  0.828000  0.982700  1.0  0.1068
  H  H13  1  0.497500  0.796300  0.110900  1.0  0.0954
  H  H14  1  0.596400  0.856300  0.168000  1.0  0.1051
  H  H15  1  0.792900  0.077800  0.311300  1.0  0.0915
  H  H16  1  0.870700  0.050500  0.267100  1.0  0.0899
  H  H17  1  0.812000  0.900700  0.392900  1.0  0.1
  H  H18  1  0.842200  0.810600  0.456000  1.0  0.1029
  H  H19  1  0.101100  0.846000  0.445000  1.0  0.0928
  H  H20  1  0.078100  0.939200  0.384700  1.0  0.1074
  H  H21  1  0.641800  0.068100  0.773400  1.0  0.0907
  H  H22  1  0.717200  0.073200  0.823400  1.0  0.0977
  H  H23  1  0.476600  0.008000  0.941700  1.0  0.096
  H  H24  1  0.438000  0.908000  0.995400  1.0  0.1118
  H  H25  1  0.552700  0.774500  0.889700  1.0  0.0977
  H  H26  1  0.597800  0.870900  0.836000  1.0  0.1074
  H  H27  1  0.650500  0.971600  0.709900  1.0  0.0905
  H  H28  1  0.677800  0.907300  0.754800  1.0  0.079
  H  H29  1  0.898600  0.908300  0.648300  1.0  0.0979
  H  H30  1  0.994300  0.864600  0.582400  1.0  0.0979
  H  H31  1  0.815000  0.723100  0.534800  1.0  0.1004
  H  H32  1  0.716800  0.759500  0.602200  1.0  0.0935
  H  H33  1  0.317400  0.595500  0.252400  1.0  0.0995
  H  H34  1  0.342300  0.533000  0.299000  1.0  0.1006
  H  H35  1  0.254900  0.605600  0.464000  1.0  0.1034
  H  H36  1  0.155700  0.672000  0.517300  1.0  0.1074
  H  H37  1  0.997500  0.703700  0.389100  1.0  0.0948
  H  H38  1  0.096400  0.643700  0.332000  1.0  0.105
  H  H39  1  0.292900  0.422200  0.188700  1.0  0.0906
  H  H40  1  0.370700  0.449500  0.232900  1.0  0.0896
  H  H41  1  0.312000  0.599300  0.107100  1.0  0.1005
  H  H42  1  0.342200  0.689400  0.044000  1.0  0.1034
  H  H43  1  0.601100  0.654000  0.055000  1.0  0.0931
  H  H44  1  0.578100  0.560800  0.115300  1.0  0.108
  H  H45  1  0.141800  0.431900  0.726600  1.0  0.0895
  H  H46  1  0.217200  0.426800  0.676600  1.0  0.098
  H  H47  1  0.976600  0.492000  0.558300  1.0  0.0958
  H  H48  1  0.938000  0.592000  0.504600  1.0  0.1122
  H  H49  1  0.052700  0.725500  0.610300  1.0  0.0979
  H  H50  1  0.097800  0.629100  0.664000  1.0  0.1072
  H  H51  1  0.150500  0.528400  0.790100  1.0  0.0904
  H  H52  1  0.177800  0.592700  0.745200  1.0  0.0796
  H  H53  1  0.398600  0.591700  0.851700  1.0  0.0987
  H  H54  1  0.494300  0.635400  0.917600  1.0  0.0978
  H  H55  1  0.315000  0.776900  0.965200  1.0  0.1004
  H  H56  1  0.216800  0.740500  0.897800  1.0  0.0936
  H  H57  1  0.682600  0.095500  0.247600  1.0  0.0996
  H  H58  1  0.657700  0.033000  0.201000  1.0  0.0993
  H  H59  1  0.745100  0.105600  0.036000  1.0  0.1036
  H  H60  1  0.844300  0.172000  0.982700  1.0  0.1064
  H  H61  1  0.002500  0.203700  0.110900  1.0  0.0952
  H  H62  1  0.903600  0.143700  0.168000  1.0  0.1055
  H  H63  1  0.707100  0.922200  0.311300  1.0  0.0919
  H  H64  1  0.629300  0.949500  0.267100  1.0  0.0891
  H  H65  1  0.688000  0.099300  0.392900  1.0  0.1006
  H  H66  1  0.657800  0.189400  0.456000  1.0  0.1036
  H  H67  1  0.398900  0.154000  0.445000  1.0  0.0922
  H  H68  1  0.421900  0.060800  0.384700  1.0  0.1073
  H  H69  1  0.858200  0.931900  0.773400  1.0  0.0882
  H  H70  1  0.782800  0.926800  0.823400  1.0  0.0982
  H  H71  1  0.023400  0.992000  0.941700  1.0  0.0963
  H  H72  1  0.062000  0.092000  0.995400  1.0  0.1123
  H  H73  1  0.947300  0.225500  0.889700  1.0  0.0978
  H  H74  1  0.902200  0.129100  0.836000  1.0  0.1066
  H  H75  1  0.849500  0.028400  0.709900  1.0  0.0904
  H  H76  1  0.822200  0.092700  0.754800  1.0  0.0788
  H  H77  1  0.601400  0.091700  0.648300  1.0  0.0989
  H  H78  1  0.505700  0.135400  0.582400  1.0  0.0981
  H  H79  1  0.685000  0.276900  0.534800  1.0  0.1
  H  H80  1  0.783200  0.240500  0.602200  1.0  0.0937
  H  H81  1  0.182600  0.404500  0.252400  1.0  0.0982
  H  H82  1  0.157700  0.467000  0.299000  1.0  0.0984
  H  H83  1  0.245100  0.394400  0.464000  1.0  0.1035
  H  H84  1  0.344300  0.328000  0.517300  1.0  0.1077
  H  H85  1  0.502500  0.296300  0.389100  1.0  0.0953
  H  H86  1  0.403600  0.356300  0.332000  1.0  0.106
  H  H87  1  0.207100  0.577800  0.188700  1.0  0.0913
  H  H88  1  0.129300  0.550500  0.232900  1.0  0.0892
  H  H89  1  0.188000  0.400700  0.107100  1.0  0.1002
  H  H90  1  0.157800  0.310600  0.044000  1.0  0.1044
  H  H91  1  0.898900  0.346000  0.055000  1.0  0.0921
  H  H92  1  0.921900  0.439200  0.115300  1.0  0.1075
  H  H93  1  0.358200  0.568100  0.726600  1.0  0.0895
  H  H94  1  0.282800  0.573200  0.676600  1.0  0.0983
  H  H95  1  0.523400  0.508000  0.558300  1.0  0.0958
  H  H96  1  0.562000  0.408000  0.504600  1.0  0.1122
  H  H97  1  0.447300  0.274500  0.610300  1.0  0.0985
  H  H98  1  0.402200  0.370900  0.664000  1.0  0.1071
  H  H99  1  0.349500  0.471600  0.790100  1.0  0.0909
  H  H100  1  0.322200  0.407300  0.745200  1.0  0.078
  H  H101  1  0.101400  0.408300  0.851700  1.0  0.0977
  H  H102  1  0.005700  0.364600  0.917600  1.0  0.0981
  H  H103  1  0.185000  0.223100  0.965200  1.0  0.1011
  H  H104  1  0.283200  0.259500  0.897800  1.0  0.0941
  H  H105  1  0.182600  0.095500  0.752400  1.0  0.0998
  H  H106  1  0.157700  0.033000  0.799000  1.0  0.0991
  H  H107  1  0.245100  0.105600  0.964000  1.0  0.1037
  H  H108  1  0.344300  0.172000  0.017300  1.0  0.1075
  H  H109  1  0.502500  0.203700  0.889100  1.0  0.0955
  H  H110  1  0.403600  0.143700  0.832000  1.0  0.1061
  H  H111  1  0.207100  0.922200  0.688700  1.0  0.0913
  H  H112  1  0.129300  0.949500  0.732900  1.0  0.0894
  H  H113  1  0.188000  0.099300  0.607100  1.0  0.1006
  H  H114  1  0.157800  0.189400  0.544000  1.0  0.1041
  H  H115  1  0.898900  0.154000  0.555000  1.0  0.0926
  H  H116  1  0.921900  0.060800  0.615300  1.0  0.1076
  H  H117  1  0.358200  0.931900  0.226600  1.0  0.0879
  H  H118  1  0.282800  0.926800  0.176600  1.0  0.0979
  H  H119  1  0.523400  0.992000  0.058300  1.0  0.0958
  H  H120  1  0.562000  0.092000  0.004600  1.0  0.1102
  H  H121  1  0.447300  0.225500  0.110300  1.0  0.0983
  H  H122  1  0.402200  0.129100  0.164000  1.0  0.1073
  H  H123  1  0.349500  0.028400  0.290100  1.0  0.0905
  H  H124  1  0.322200  0.092700  0.245200  1.0  0.0788
  H  H125  1  0.101400  0.091700  0.351700  1.0  0.0993
  H  H126  1  0.005700  0.135400  0.417600  1.0  0.0983
  H  H127  1  0.185000  0.276900  0.465200  1.0  0.1008
  H  H128  1  0.283200  0.240500  0.397800  1.0  0.0938
  H  H129  1  0.682600  0.404500  0.747600  1.0  0.0985
  H  H130  1  0.657700  0.467000  0.701000  1.0  0.0984
  H  H131  1  0.745100  0.394400  0.536000  1.0  0.1039
  H  H132  1  0.844300  0.328000  0.482700  1.0  0.1067
  H  H133  1  0.002500  0.296300  0.610900  1.0  0.0954
  H  H134  1  0.903600  0.356300  0.668000  1.0  0.1059
  H  H135  1  0.707100  0.577800  0.811300  1.0  0.0912
  H  H136  1  0.629300  0.550500  0.767100  1.0  0.0892
  H  H137  1  0.688000  0.400700  0.892900  1.0  0.1002
  H  H138  1  0.657800  0.310600  0.956000  1.0  0.104
  H  H139  1  0.398900  0.346000  0.945000  1.0  0.0919
  H  H140  1  0.421900  0.439200  0.884700  1.0  0.1073
  H  H141  1  0.858200  0.568100  0.273400  1.0  0.089
  H  H142  1  0.782800  0.573200  0.323400  1.0  0.0977
  H  H143  1  0.023400  0.508000  0.441700  1.0  0.096
  H  H144  1  0.062000  0.408000  0.495400  1.0  0.1098
  H  H145  1  0.947300  0.274500  0.389700  1.0  0.0975
  H  H146  1  0.902200  0.370900  0.336000  1.0  0.1072
  H  H147  1  0.849500  0.471600  0.209900  1.0  0.0905
  H  H148  1  0.822200  0.407300  0.254800  1.0  0.0783
  H  H149  1  0.601400  0.408300  0.148300  1.0  0.0986
  H  H150  1  0.505700  0.364600  0.082400  1.0  0.098
  H  H151  1  0.685000  0.223100  0.034800  1.0  0.1005
  H  H152  1  0.783200  0.259500  0.102200  1.0  0.0937
  H  H153  1  0.317400  0.904500  0.752400  1.0  0.0982
  H  H154  1  0.342300  0.967000  0.799000  1.0  0.1001
  H  H155  1  0.254900  0.894400  0.964000  1.0  0.1031
  H  H156  1  0.155700  0.828000  0.017300  1.0  0.1077
  H  H157  1  0.997500  0.796300  0.889100  1.0  0.0947
  H  H158  1  0.096400  0.856300  0.832000  1.0  0.105
  H  H159  1  0.292900  0.077800  0.688700  1.0  0.0915
  H  H160  1  0.370700  0.050500  0.732900  1.0  0.0899
  H  H161  1  0.312000  0.900700  0.607100  1.0  0.1001
  H  H162  1  0.342200  0.810600  0.544000  1.0  0.1034
  H  H163  1  0.601100  0.846000  0.555000  1.0  0.0928
  H  H164  1  0.578100  0.939200  0.615300  1.0  0.1077
  H  H165  1  0.141800  0.068100  0.226600  1.0  0.0906
  H  H166  1  0.217200  0.073200  0.176600  1.0  0.0981
  H  H167  1  0.976600  0.008000  0.058300  1.0  0.0959
  H  H168  1  0.938000  0.908000  0.004600  1.0  0.1103
  H  H169  1  0.052700  0.774500  0.110300  1.0  0.098
  H  H170  1  0.097800  0.870900  0.164000  1.0  0.1075
  H  H171  1  0.150500  0.971600  0.290100  1.0  0.0906
  H  H172  1  0.177800  0.907300  0.245200  1.0  0.0786
  H  H173  1  0.398600  0.908300  0.351700  1.0  0.0983
  H  H174  1  0.494300  0.864600  0.417600  1.0  0.0977
  H  H175  1  0.315000  0.723100  0.465200  1.0  0.1008
  H  H176  1  0.216800  0.759500  0.397800  1.0  0.0938
  H  H177  1  0.817400  0.595500  0.747600  1.0  0.0993
  H  H178  1  0.842300  0.533000  0.701000  1.0  0.1007
  H  H179  1  0.754900  0.605600  0.536000  1.0  0.1037
  H  H180  1  0.655700  0.672000  0.482700  1.0  0.1069
  H  H181  1  0.497500  0.703700  0.610900  1.0  0.095
  H  H182  1  0.596400  0.643700  0.668000  1.0  0.1048
  H  H183  1  0.792900  0.422200  0.811300  1.0  0.0914
  H  H184  1  0.870700  0.449500  0.767100  1.0  0.0894
  H  H185  1  0.812000  0.599300  0.892900  1.0  0.1005
  H  H186  1  0.842200  0.689400  0.956000  1.0  0.1027
  H  H187  1  0.101100  0.654000  0.945000  1.0  0.0931
  H  H188  1  0.078100  0.560800  0.884700  1.0  0.1076
  H  H189  1  0.641800  0.431900  0.273400  1.0  0.0897
  H  H190  1  0.717200  0.426800  0.323400  1.0  0.0986
  H  H191  1  0.476600  0.492000  0.441700  1.0  0.0964
  H  H192  1  0.438000  0.592000  0.495400  1.0  0.1104
  H  H193  1  0.552700  0.725500  0.389700  1.0  0.0979
  H  H194  1  0.597800  0.629100  0.336000  1.0  0.1066
  H  H195  1  0.650500  0.528400  0.209900  1.0  0.0905
  H  H196  1  0.677800  0.592700  0.254800  1.0  0.0794
  H  H197  1  0.898600  0.591700  0.148300  1.0  0.0992
  H  H198  1  0.994300  0.635400  0.082400  1.0  0.0979
  H  H199  1  0.815000  0.776900  0.034800  1.0  0.0998
  H  H200  1  0.716800  0.740500  0.102200  1.0  0.0936
  C  C201  1  0.791300  0.944700  0.223300  1.0  -0.0719
  C  C202  1  0.750300  0.911900  0.138200  1.0  0.6042
  C  C203  1  0.683600  0.878000  0.107000  1.0  -0.0867
  C  C204  1  0.699500  0.871300  0.053400  1.0  -0.1558
  C  C205  1  0.643100  0.834800  0.023700  1.0  0.0839
  C  C206  1  0.555600  0.816400  0.094800  1.0  0.1209
  C  C207  1  0.610700  0.850800  0.127100  1.0  -0.1331
  C  C208  1  0.818500  0.033700  0.291100  1.0  -0.0535
  C  C209  1  0.927500  0.982300  0.343100  1.0  0.6285
  C  C210  1  0.943200  0.926100  0.382100  1.0  -0.1132
  C  C211  1  0.876700  0.889400  0.403800  1.0  -0.1181
  C  C212  1  0.894100  0.839000  0.438900  1.0  0.1289
  C  C213  1  0.037100  0.858400  0.433500  1.0  0.1534
  C  C214  1  0.024600  0.910200  0.399100  1.0  -0.1216
  C  C215  1  0.685000  0.038600  0.797100  1.0  -0.0223
  C  C216  1  0.580400  0.006200  0.857000  1.0  0.661
  C  C217  1  0.546200  0.946900  0.886900  1.0  -0.1107
  C  C218  1  0.497100  0.957000  0.930800  1.0  -0.1389
  C  C219  1  0.474800  0.900700  0.960300  1.0  0.1506
  C  C220  1  0.539000  0.826400  0.902000  1.0  0.0964
  C  C221  1  0.563900  0.880300  0.871900  1.0  -0.146
  C  C222  1  0.702700  0.947500  0.730100  1.0  -0.0132
  C  C223  1  0.734000  0.865900  0.666400  1.0  0.628
  C  C224  1  0.798700  0.839100  0.629000  1.0  -0.1556
  C  C225  1  0.878500  0.866700  0.623400  1.0  -0.1135
  C  C226  1  0.932300  0.841600  0.586400  1.0  0.1356
  C  C227  1  0.833800  0.763700  0.561000  1.0  0.1005
  C  C228  1  0.777200  0.785000  0.597800  1.0  -0.1355
  C  C229  1  0.291300  0.555300  0.276700  1.0  -0.0722
  C  C230  1  0.250300  0.588100  0.361800  1.0  0.6052
  C  C231  1  0.183600  0.622000  0.393000  1.0  -0.0866
  C  C232  1  0.199500  0.628700  0.446600  1.0  -0.1542
  C  C233  1  0.143100  0.665200  0.476300  1.0  0.0853
  C  C234  1  0.055600  0.683600  0.405200  1.0  0.12
  C  C235  1  0.110700  0.649200  0.372900  1.0  -0.1334
  C  C236  1  0.318500  0.466300  0.208900  1.0  -0.0558
  C  C237  1  0.427500  0.517700  0.156900  1.0  0.6292
  C  C238  1  0.443200  0.573900  0.117900  1.0  -0.1137
  C  C239  1  0.376700  0.610600  0.096200  1.0  -0.1181
  C  C240  1  0.394100  0.661000  0.061100  1.0  0.1282
  C  C241  1  0.537100  0.641600  0.066500  1.0  0.1529
  C  C242  1  0.524600  0.589800  0.100900  1.0  -0.122
  C  C243  1  0.185000  0.461400  0.702900  1.0  -0.0224
  C  C244  1  0.080400  0.493800  0.643000  1.0  0.6609
  C  C245  1  0.046200  0.553100  0.613100  1.0  -0.1107
  C  C246  1  0.997100  0.543000  0.569200  1.0  -0.1375
  C  C247  1  0.974800  0.599300  0.539700  1.0  0.1514
  C  C248  1  0.039000  0.673600  0.598000  1.0  0.0961
  C  C249  1  0.063900  0.619700  0.628100  1.0  -0.1465
  C  C250  1  0.202700  0.552500  0.769900  1.0  -0.0139
  C  C251  1  0.234000  0.634100  0.833600  1.0  0.6279
  C  C252  1  0.298700  0.660900  0.871000  1.0  -0.156
  C  C253  1  0.378500  0.633300  0.876600  1.0  -0.1139
  C  C254  1  0.432300  0.658400  0.913600  1.0  0.1356
  C  C255  1  0.333800  0.736300  0.939000  1.0  0.1003
  C  C256  1  0.277200  0.715000  0.902200  1.0  -0.1356
  C  C257  1  0.708700  0.055300  0.223300  1.0  -0.0713
  C  C258  1  0.749700  0.088100  0.138200  1.0  0.6023
  C  C259  1  0.816400  0.122000  0.107000  1.0  -0.0872
  C  C260  1  0.800500  0.128700  0.053400  1.0  -0.1564
  C  C261  1  0.856900  0.165200  0.023700  1.0  0.0848
  C  C262  1  0.944400  0.183600  0.094800  1.0  0.1237
  C  C263  1  0.889300  0.149200  0.127100  1.0  -0.1329
  C  C264  1  0.681500  0.966300  0.291100  1.0  -0.0531
  C  C265  1  0.572500  0.017700  0.343100  1.0  0.628
  C  C266  1  0.556800  0.073900  0.382100  1.0  -0.1127
  C  C267  1  0.623300  0.110600  0.403800  1.0  -0.1184
  C  C268  1  0.605900  0.161000  0.438900  1.0  0.1301
  C  C269  1  0.462900  0.141600  0.433500  1.0  0.1527
  C  C270  1  0.475400  0.089800  0.399100  1.0  -0.1228
  C  C271  1  0.815000  0.961400  0.797100  1.0  -0.0225
  C  C272  1  0.919600  0.993800  0.857000  1.0  0.6606
  C  C273  1  0.953800  0.053100  0.886900  1.0  -0.1116
  C  C274  1  0.002900  0.043000  0.930800  1.0  -0.1367
  C  C275  1  0.025200  0.099300  0.960300  1.0  0.1513
  C  C276  1  0.961000  0.173600  0.902000  1.0  0.0973
  C  C277  1  0.936100  0.119700  0.871900  1.0  -0.1479
  C  C278  1  0.797300  0.052500  0.730100  1.0  -0.0121
  C  C279  1  0.766000  0.134100  0.666400  1.0  0.6296
  C  C280  1  0.701300  0.160900  0.629000  1.0  -0.155
  C  C281  1  0.621500  0.133300  0.623400  1.0  -0.1127
  C  C282  1  0.567700  0.158400  0.586400  1.0  0.1348
  C  C283  1  0.666200  0.236300  0.561000  1.0  0.1007
  C  C284  1  0.722800  0.215000  0.597800  1.0  -0.1323
  C  C285  1  0.208700  0.444700  0.276700  1.0  -0.0718
  C  C286  1  0.249700  0.411900  0.361800  1.0  0.6029
  C  C287  1  0.316400  0.378000  0.393000  1.0  -0.0861
  C  C288  1  0.300500  0.371300  0.446600  1.0  -0.1571
  C  C289  1  0.356900  0.334800  0.476300  1.0  0.0843
  C  C290  1  0.444400  0.316400  0.405200  1.0  0.1231
  C  C291  1  0.389300  0.350800  0.372900  1.0  -0.134
  C  C292  1  0.181500  0.533700  0.208900  1.0  -0.054
  C  C293  1  0.072500  0.482300  0.156900  1.0  0.6284
  C  C294  1  0.056800  0.426100  0.117900  1.0  -0.1132
  C  C295  1  0.123300  0.389400  0.096200  1.0  -0.1183
  C  C296  1  0.105900  0.339000  0.061100  1.0  0.129
  C  C297  1  0.962900  0.358400  0.066500  1.0  0.1539
  C  C298  1  0.975400  0.410200  0.100900  1.0  -0.1232
  C  C299  1  0.315000  0.538600  0.702900  1.0  -0.0237
  C  C300  1  0.419600  0.506200  0.643000  1.0  0.6602
  C  C301  1  0.453800  0.446900  0.613100  1.0  -0.1108
  C  C302  1  0.502900  0.457000  0.569200  1.0  -0.138
  C  C303  1  0.525200  0.400700  0.539700  1.0  0.1514
  C  C304  1  0.461000  0.326400  0.598000  1.0  0.0959
  C  C305  1  0.436100  0.380300  0.628100  1.0  -0.1473
  C  C306  1  0.297300  0.447500  0.769900  1.0  -0.0119
  C  C307  1  0.266000  0.365900  0.833600  1.0  0.6293
  C  C308  1  0.201300  0.339100  0.871000  1.0  -0.1549
  C  C309  1  0.121500  0.366700  0.876600  1.0  -0.1138
  C  C310  1  0.067700  0.341600  0.913600  1.0  0.1359
  C  C311  1  0.166200  0.263700  0.939000  1.0  0.1016
  C  C312  1  0.222800  0.285000  0.902200  1.0  -0.1327
  C  C313  1  0.750000  0.000000  0.257600  1.0  -0.0372
  C  C314  1  0.750000  0.000000  0.762400  1.0  -0.0291
  C  C315  1  0.250000  0.500000  0.242400  1.0  -0.0373
  C  C316  1  0.250000  0.500000  0.737600  1.0  -0.0294
  C  C317  1  0.208700  0.055300  0.776700  1.0  -0.0729
  C  C318  1  0.249700  0.088100  0.861800  1.0  0.6032
  C  C319  1  0.316400  0.122000  0.893000  1.0  -0.0868
  C  C320  1  0.300500  0.128700  0.946600  1.0  -0.1554
  C  C321  1  0.356900  0.165200  0.976300  1.0  0.0848
  C  C322  1  0.444400  0.183600  0.905200  1.0  0.1229
  C  C323  1  0.389300  0.149200  0.872900  1.0  -0.1347
  C  C324  1  0.181500  0.966300  0.708900  1.0  -0.0553
  C  C325  1  0.072500  0.017700  0.656900  1.0  0.6283
  C  C326  1  0.056800  0.073900  0.617900  1.0  -0.1132
  C  C327  1  0.123300  0.110600  0.596200  1.0  -0.1182
  C  C328  1  0.105900  0.161000  0.561100  1.0  0.1293
  C  C329  1  0.962900  0.141600  0.566500  1.0  0.153
  C  C330  1  0.975400  0.089800  0.600900  1.0  -0.1231
  C  C331  1  0.315000  0.961400  0.202900  1.0  -0.0241
  C  C332  1  0.419600  0.993800  0.143000  1.0  0.6603
  C  C333  1  0.453800  0.053100  0.113100  1.0  -0.1113
  C  C334  1  0.502900  0.043000  0.069200  1.0  -0.137
  C  C335  1  0.525200  0.099300  0.039700  1.0  0.1512
  C  C336  1  0.461000  0.173600  0.098000  1.0  0.0947
  C  C337  1  0.436100  0.119700  0.128100  1.0  -0.1485
  C  C338  1  0.297300  0.052500  0.269900  1.0  -0.0151
  C  C339  1  0.266000  0.134100  0.333600  1.0  0.6296
  C  C340  1  0.201300  0.160900  0.371000  1.0  -0.1551
  C  C341  1  0.121500  0.133300  0.376600  1.0  -0.1136
  C  C342  1  0.067700  0.158400  0.413600  1.0  0.1351
  C  C343  1  0.166200  0.236300  0.439000  1.0  0.1012
  C  C344  1  0.222800  0.215000  0.402200  1.0  -0.1324
  C  C345  1  0.708700  0.444700  0.723300  1.0  -0.073
  C  C346  1  0.749700  0.411900  0.638200  1.0  0.6021
  C  C347  1  0.816400  0.378000  0.607000  1.0  -0.0866
  C  C348  1  0.800500  0.371300  0.553400  1.0  -0.1564
  C  C349  1  0.856900  0.334800  0.523700  1.0  0.0845
  C  C350  1  0.944400  0.316400  0.594800  1.0  0.124
  C  C351  1  0.889300  0.350800  0.627100  1.0  -0.1327
  C  C352  1  0.681500  0.533700  0.791100  1.0  -0.054
  C  C353  1  0.572500  0.482300  0.843100  1.0  0.6284
  C  C354  1  0.556800  0.426100  0.882100  1.0  -0.1125
  C  C355  1  0.623300  0.389400  0.903800  1.0  -0.1185
  C  C356  1  0.605900  0.339000  0.938900  1.0  0.1298
  C  C357  1  0.462900  0.358400  0.933500  1.0  0.1532
  C  C358  1  0.475400  0.410200  0.899100  1.0  -0.1228
  C  C359  1  0.815000  0.538600  0.297100  1.0  -0.0227
  C  C360  1  0.919600  0.506200  0.357000  1.0  0.6603
  C  C361  1  0.953800  0.446900  0.386900  1.0  -0.111
  C  C362  1  0.002900  0.457000  0.430800  1.0  -0.1383
  C  C363  1  0.025200  0.400700  0.460300  1.0  0.1515
  C  C364  1  0.961000  0.326400  0.402000  1.0  0.097
  C  C365  1  0.936100  0.380300  0.371900  1.0  -0.1473
  C  C366  1  0.797300  0.447500  0.230100  1.0  -0.0143
  C  C367  1  0.766000  0.365900  0.166400  1.0  0.6294
  C  C368  1  0.701300  0.339100  0.129000  1.0  -0.155
  C  C369  1  0.621500  0.366700  0.123400  1.0  -0.1136
  C  C370  1  0.567700  0.341600  0.086400  1.0  0.1355
  C  C371  1  0.666200  0.263700  0.061000  1.0  0.1011
  C  C372  1  0.722800  0.285000  0.097800  1.0  -0.1326
  C  C373  1  0.291300  0.944700  0.776700  1.0  -0.0702
  C  C374  1  0.250300  0.911900  0.861800  1.0  0.6049
  C  C375  1  0.183600  0.878000  0.893000  1.0  -0.0862
  C  C376  1  0.199500  0.871300  0.946600  1.0  -0.1551
  C  C377  1  0.143100  0.834800  0.976300  1.0  0.0849
  C  C378  1  0.055600  0.816400  0.905200  1.0  0.1202
  C  C379  1  0.110700  0.850800  0.872900  1.0  -0.1331
  C  C380  1  0.318500  0.033700  0.708900  1.0  -0.0541
  C  C381  1  0.427500  0.982300  0.656900  1.0  0.6291
  C  C382  1  0.443200  0.926100  0.617900  1.0  -0.1138
  C  C383  1  0.376700  0.889400  0.596200  1.0  -0.1181
  C  C384  1  0.394100  0.839000  0.561100  1.0  0.1282
  C  C385  1  0.537100  0.858400  0.566500  1.0  0.1539
  C  C386  1  0.524600  0.910200  0.600900  1.0  -0.1218
  C  C387  1  0.185000  0.038600  0.202900  1.0  -0.0226
  C  C388  1  0.080400  0.006200  0.143000  1.0  0.6609
  C  C389  1  0.046200  0.946900  0.113100  1.0  -0.1107
  C  C390  1  0.997100  0.957000  0.069200  1.0  -0.1386
  C  C391  1  0.974800  0.900700  0.039700  1.0  0.1514
  C  C392  1  0.039000  0.826400  0.098000  1.0  0.0963
  C  C393  1  0.063900  0.880300  0.128100  1.0  -0.1454
  C  C394  1  0.202700  0.947500  0.269900  1.0  -0.0109
  C  C395  1  0.234000  0.865900  0.333600  1.0  0.6279
  C  C396  1  0.298700  0.839100  0.371000  1.0  -0.1557
  C  C397  1  0.378500  0.866700  0.376600  1.0  -0.114
  C  C398  1  0.432300  0.841600  0.413600  1.0  0.136
  C  C399  1  0.333800  0.763700  0.439000  1.0  0.101
  C  C400  1  0.277200  0.785000  0.402200  1.0  -0.1357
  C  C401  1  0.791300  0.555300  0.723300  1.0  -0.071
  C  C402  1  0.750300  0.588100  0.638200  1.0  0.6045
  C  C403  1  0.683600  0.622000  0.607000  1.0  -0.0871
  C  C404  1  0.699500  0.628700  0.553400  1.0  -0.1561
  C  C405  1  0.643100  0.665200  0.523700  1.0  0.0842
  C  C406  1  0.555600  0.683600  0.594800  1.0  0.1204
  C  C407  1  0.610700  0.649200  0.627100  1.0  -0.1331
  C  C408  1  0.818500  0.466300  0.791100  1.0  -0.0533
  C  C409  1  0.927500  0.517700  0.843100  1.0  0.6284
  C  C410  1  0.943200  0.573900  0.882100  1.0  -0.1134
  C  C411  1  0.876700  0.610600  0.903800  1.0  -0.1181
  C  C412  1  0.894100  0.661000  0.938900  1.0  0.1288
  C  C413  1  0.037100  0.641600  0.933500  1.0  0.1526
  C  C414  1  0.024600  0.589800  0.899100  1.0  -0.1218
  C  C415  1  0.685000  0.461400  0.297100  1.0  -0.0212
  C  C416  1  0.580400  0.493800  0.357000  1.0  0.6613
  C  C417  1  0.546200  0.553100  0.386900  1.0  -0.1108
  C  C418  1  0.497100  0.543000  0.430800  1.0  -0.1372
  C  C419  1  0.474800  0.599300  0.460300  1.0  0.1505
  C  C420  1  0.539000  0.673600  0.402000  1.0  0.0972
  C  C421  1  0.563900  0.619700  0.371900  1.0  -0.1469
  C  C422  1  0.702700  0.552500  0.230100  1.0  -0.0107
  C  C423  1  0.734000  0.634100  0.166400  1.0  0.628
  C  C424  1  0.798700  0.660900  0.129000  1.0  -0.1557
  C  C425  1  0.878500  0.633300  0.123400  1.0  -0.1127
  C  C426  1  0.932300  0.658400  0.086400  1.0  0.1352
  C  C427  1  0.833800  0.736300  0.061000  1.0  0.1
  C  C428  1  0.777200  0.715000  0.097800  1.0  -0.1353
  C  C429  1  0.250000  0.000000  0.742400  1.0  -0.0373
  C  C430  1  0.250000  0.000000  0.237600  1.0  -0.0294
  C  C431  1  0.750000  0.500000  0.757600  1.0  -0.0372
  C  C432  1  0.750000  0.500000  0.262400  1.0  -0.0291
  N  N433  1  0.571200  0.806900  0.044600  1.0  -0.3454
  N  N434  1  0.975000  0.823200  0.453200  1.0  -0.3154
  N  N435  1  0.498100  0.837100  0.946400  1.0  -0.2986
  N  N436  1  0.911500  0.790600  0.555700  1.0  -0.3079
  N  N437  1  0.071200  0.693100  0.455400  1.0  -0.3452
  N  N438  1  0.475000  0.676800  0.046800  1.0  -0.3141
  N  N439  1  0.998100  0.662900  0.553600  1.0  -0.2987
  N  N440  1  0.411500  0.709400  0.944300  1.0  -0.3072
  N  N441  1  0.928800  0.193100  0.044600  1.0  -0.3438
  N  N442  1  0.525000  0.176800  0.453200  1.0  -0.3149
  N  N443  1  0.001900  0.162900  0.946400  1.0  -0.2987
  N  N444  1  0.588500  0.209400  0.555700  1.0  -0.3083
  N  N445  1  0.428800  0.306900  0.455400  1.0  -0.3436
  N  N446  1  0.025000  0.323200  0.046800  1.0  -0.3144
  N  N447  1  0.501900  0.337100  0.553600  1.0  -0.2983
  N  N448  1  0.088500  0.290600  0.944300  1.0  -0.3084
  N  N449  1  0.428800  0.193100  0.955400  1.0  -0.3439
  N  N450  1  0.025000  0.176800  0.546800  1.0  -0.3137
  N  N451  1  0.501900  0.162900  0.053600  1.0  -0.2983
  N  N452  1  0.088500  0.209400  0.444300  1.0  -0.3085
  N  N453  1  0.928800  0.306900  0.544600  1.0  -0.344
  N  N454  1  0.525000  0.323200  0.953200  1.0  -0.3149
  N  N455  1  0.001900  0.337100  0.446400  1.0  -0.2986
  N  N456  1  0.588500  0.290600  0.055700  1.0  -0.3085
  N  N457  1  0.071200  0.806900  0.955400  1.0  -0.3451
  N  N458  1  0.475000  0.823200  0.546800  1.0  -0.3151
  N  N459  1  0.998100  0.837100  0.053600  1.0  -0.2985
  N  N460  1  0.411500  0.790600  0.444300  1.0  -0.308
  N  N461  1  0.571200  0.693100  0.544600  1.0  -0.3449
  N  N462  1  0.975000  0.676800  0.953200  1.0  -0.3153
  N  N463  1  0.498100  0.662900  0.446400  1.0  -0.2987
  N  N464  1  0.911500  0.709400  0.055700  1.0  -0.3072
  O  O465  1  0.728600  0.916200  0.188800  1.0  -0.2864
  O  O466  1  0.815500  0.932700  0.122200  1.0  -0.4907
  O  O467  1  0.847000  0.982700  0.328100  1.0  -0.2793
  O  O468  1  0.981400  0.018900  0.326600  1.0  -0.4919
  O  O469  1  0.640000  0.987000  0.825700  1.0  -0.3506
  O  O470  1  0.558900  0.063900  0.863300  1.0  -0.5335
  O  O471  1  0.762400  0.919200  0.693100  1.0  -0.2828
  O  O472  1  0.665400  0.839700  0.670600  1.0  -0.5136
  O  O473  1  0.228600  0.583800  0.311200  1.0  -0.2846
  O  O474  1  0.315500  0.567300  0.377800  1.0  -0.4909
  O  O475  1  0.347000  0.517300  0.171900  1.0  -0.279
  O  O476  1  0.481400  0.481100  0.173400  1.0  -0.492
  O  O477  1  0.140000  0.513000  0.674300  1.0  -0.3507
  O  O478  1  0.058900  0.436100  0.636700  1.0  -0.5329
  O  O479  1  0.262400  0.580800  0.806900  1.0  -0.2842
  O  O480  1  0.165400  0.660300  0.829400  1.0  -0.5139
  O  O481  1  0.771400  0.083800  0.188800  1.0  -0.2834
  O  O482  1  0.684500  0.067300  0.122200  1.0  -0.4911
  O  O483  1  0.653000  0.017300  0.328100  1.0  -0.2797
  O  O484  1  0.518600  0.981100  0.326600  1.0  -0.492
  O  O485  1  0.860000  0.013000  0.825700  1.0  -0.3494
  O  O486  1  0.941100  0.936100  0.863300  1.0  -0.5344
  O  O487  1  0.737600  0.080800  0.693100  1.0  -0.2848
  O  O488  1  0.834600  0.160300  0.670600  1.0  -0.5125
  O  O489  1  0.271400  0.416200  0.311200  1.0  -0.2844
  O  O490  1  0.184500  0.432700  0.377800  1.0  -0.4912
  O  O491  1  0.153000  0.482700  0.171900  1.0  -0.2782
  O  O492  1  0.018600  0.518900  0.173400  1.0  -0.4915
  O  O493  1  0.360000  0.487000  0.674300  1.0  -0.3504
  O  O494  1  0.441100  0.563900  0.636700  1.0  -0.5345
  O  O495  1  0.237600  0.419200  0.806900  1.0  -0.2848
  O  O496  1  0.334600  0.339700  0.829400  1.0  -0.5129
  O  O497  1  0.271400  0.083800  0.811200  1.0  -0.2834
  O  O498  1  0.184500  0.067300  0.877800  1.0  -0.4913
  O  O499  1  0.153000  0.017300  0.671900  1.0  -0.278
  O  O500  1  0.018600  0.981100  0.673400  1.0  -0.4913
  O  O501  1  0.360000  0.013000  0.174300  1.0  -0.3499
  O  O502  1  0.441100  0.936100  0.136700  1.0  -0.5341
  O  O503  1  0.237600  0.080800  0.306900  1.0  -0.2854
  O  O504  1  0.334600  0.160300  0.329400  1.0  -0.5122
  O  O505  1  0.771400  0.416200  0.688800  1.0  -0.2843
  O  O506  1  0.684500  0.432700  0.622200  1.0  -0.491
  O  O507  1  0.653000  0.482700  0.828100  1.0  -0.2787
  O  O508  1  0.518600  0.518900  0.826600  1.0  -0.4915
  O  O509  1  0.860000  0.487000  0.325700  1.0  -0.3495
  O  O510  1  0.941100  0.563900  0.363300  1.0  -0.5349
  O  O511  1  0.737600  0.419200  0.193100  1.0  -0.2846
  O  O512  1  0.834600  0.339700  0.170600  1.0  -0.5127
  O  O513  1  0.228600  0.916200  0.811200  1.0  -0.2862
  O  O514  1  0.315500  0.932700  0.877800  1.0  -0.4908
  O  O515  1  0.347000  0.982700  0.671900  1.0  -0.279
  O  O516  1  0.481400  0.018900  0.673400  1.0  -0.492
  O  O517  1  0.140000  0.987000  0.174300  1.0  -0.3513
  O  O518  1  0.058900  0.063900  0.136700  1.0  -0.5332
  O  O519  1  0.262400  0.919200  0.306900  1.0  -0.2835
  O  O520  1  0.165400  0.839700  0.329400  1.0  -0.5139
  O  O521  1  0.728600  0.583800  0.688800  1.0  -0.2847
  O  O522  1  0.815500  0.567300  0.622200  1.0  -0.4908
  O  O523  1  0.847000  0.517300  0.828100  1.0  -0.2806
  O  O524  1  0.981400  0.481100  0.826600  1.0  -0.4923
  O  O525  1  0.640000  0.513000  0.325700  1.0  -0.3505
  O  O526  1  0.558900  0.436100  0.363300  1.0  -0.533
  O  O527  1  0.762400  0.580800  0.193100  1.0  -0.2832
  O  O528  1  0.665400  0.660300  0.170600  1.0  -0.5141
