# generated using pymatgen
data_KSmH6C14(SO5)2
_symmetry_space_group_name_H-M   'P 1'
_cell_length_a   48.83200000
_cell_length_b   48.83200000
_cell_length_c   8.48340000
_cell_angle_alpha   90.00000000
_cell_angle_beta   90.00000000
_cell_angle_gamma   120.00000000
_symmetry_Int_Tables_number   1
_chemical_formula_structural   KSmH6C14(SO5)2
_chemical_formula_sum   'K18 Sm18 H108 C252 S36 O180'
_cell_volume   17519.01160995
_cell_formula_units_Z   18
loop_
 _symmetry_equiv_pos_site_id
 _symmetry_equiv_pos_as_xyz
  1  'x, y, z'
loop_
 _atom_site_type_symbol
 _atom_site_label
 _atom_site_symmetry_multiplicity
 _atom_site_fract_x
 _atom_site_fract_y
 _atom_site_fract_z
 _atom_site_occupancy
 _atom_site_charge
  K  K1  1  0.408240  0.914040  0.237400  1.0  0.9261
  K  K2  1  0.074910  0.247370  0.570730  1.0  0.9261
  K  K3  1  0.741570  0.580710  0.904070  1.0  0.9262
  K  K4  1  0.085960  0.494200  0.237400  1.0  0.9272
  K  K5  1  0.752630  0.827530  0.570730  1.0  0.9272
  K  K6  1  0.419290  0.160870  0.904070  1.0  0.9272
  K  K7  1  0.505800  0.591760  0.237400  1.0  0.9246
  K  K8  1  0.172470  0.925090  0.570730  1.0  0.9246
  K  K9  1  0.839130  0.258430  0.904070  1.0  0.9246
  K  K10  1  0.085960  0.591760  0.737400  1.0  0.9249
  K  K11  1  0.752630  0.925090  0.070730  1.0  0.9249
  K  K12  1  0.419290  0.258430  0.404070  1.0  0.925
  K  K13  1  0.505800  0.914040  0.737400  1.0  0.9264
  K  K14  1  0.172470  0.247370  0.070730  1.0  0.9264
  K  K15  1  0.839130  0.580710  0.404070  1.0  0.9264
  K  K16  1  0.408240  0.494200  0.737400  1.0  0.9255
  K  K17  1  0.074910  0.827530  0.070730  1.0  0.9255
  K  K18  1  0.741570  0.160870  0.404070  1.0  0.9255
  Sm  Sm19  1  0.486130  0.991750  0.548660  1.0  2.2776
  Sm  Sm20  1  0.152800  0.325080  0.881990  1.0  2.2776
  Sm  Sm21  1  0.819460  0.658420  0.215330  1.0  2.2768
  Sm  Sm22  1  0.008250  0.494380  0.548660  1.0  2.2768
  Sm  Sm23  1  0.674920  0.827710  0.881990  1.0  2.2768
  Sm  Sm24  1  0.341580  0.161050  0.215330  1.0  2.2765
  Sm  Sm25  1  0.505620  0.513870  0.548660  1.0  2.2766
  Sm  Sm26  1  0.172290  0.847200  0.881990  1.0  2.2766
  Sm  Sm27  1  0.838950  0.180540  0.215330  1.0  2.2766
  Sm  Sm28  1  0.008250  0.513870  0.048660  1.0  2.277
  Sm  Sm29  1  0.674920  0.847200  0.381990  1.0  2.277
  Sm  Sm30  1  0.341580  0.180540  0.715330  1.0  2.2762
  Sm  Sm31  1  0.505620  0.991750  0.048660  1.0  2.2773
  Sm  Sm32  1  0.172290  0.325080  0.381990  1.0  2.2773
  Sm  Sm33  1  0.838950  0.658420  0.715330  1.0  2.2771
  Sm  Sm34  1  0.486130  0.494380  0.048660  1.0  2.2768
  Sm  Sm35  1  0.152800  0.827710  0.381990  1.0  2.2768
  Sm  Sm36  1  0.819460  0.161050  0.715330  1.0  2.2768
  H  H37  1  0.361600  0.894100  0.573000  1.0  0.1137
  H  H38  1  0.342500  0.932900  0.939600  1.0  0.123
  H  H39  1  0.394500  0.956500  0.016400  1.0  0.0951
  H  H40  1  0.309700  0.862200  0.562200  1.0  0.1219
  H  H41  1  0.260000  0.844600  0.464600  1.0  0.121
  H  H42  1  0.304900  0.930500  0.796100  1.0  0.121
  H  H43  1  0.028270  0.227430  0.906330  1.0  0.1137
  H  H44  1  0.009170  0.266230  0.272930  1.0  0.1231
  H  H45  1  0.061170  0.289830  0.349730  1.0  0.0951
  H  H46  1  0.976370  0.195530  0.895530  1.0  0.1219
  H  H47  1  0.926670  0.177930  0.797930  1.0  0.121
  H  H48  1  0.971570  0.263830  0.129430  1.0  0.121
  H  H49  1  0.694930  0.560770  0.239670  1.0  0.1137
  H  H50  1  0.675830  0.599570  0.606270  1.0  0.123
  H  H51  1  0.727830  0.623170  0.683070  1.0  0.0951
  H  H52  1  0.643030  0.528870  0.228870  1.0  0.1219
  H  H53  1  0.593330  0.511270  0.131270  1.0  0.121
  H  H54  1  0.638230  0.597170  0.462770  1.0  0.121
  H  H55  1  0.105900  0.467500  0.573000  1.0  0.1134
  H  H56  1  0.067100  0.409600  0.939600  1.0  0.1237
  H  H57  1  0.043500  0.438000  0.016400  1.0  0.0953
  H  H58  1  0.137800  0.447500  0.562200  1.0  0.1213
  H  H59  1  0.155400  0.415400  0.464600  1.0  0.1216
  H  H60  1  0.069500  0.374400  0.796100  1.0  0.1216
  H  H61  1  0.772570  0.800830  0.906330  1.0  0.1134
  H  H62  1  0.733770  0.742930  0.272930  1.0  0.1236
  H  H63  1  0.710170  0.771330  0.349730  1.0  0.0953
  H  H64  1  0.804470  0.780830  0.895530  1.0  0.1213
  H  H65  1  0.822070  0.748730  0.797930  1.0  0.1216
  H  H66  1  0.736170  0.707730  0.129430  1.0  0.1216
  H  H67  1  0.439230  0.134170  0.239670  1.0  0.1134
  H  H68  1  0.400430  0.076270  0.606270  1.0  0.1237
  H  H69  1  0.376830  0.104670  0.683070  1.0  0.0953
  H  H70  1  0.471130  0.114170  0.228870  1.0  0.1213
  H  H71  1  0.488730  0.082070  0.131270  1.0  0.1216
  H  H72  1  0.402830  0.041070  0.462770  1.0  0.1216
  H  H73  1  0.532500  0.638400  0.573000  1.0  0.1134
  H  H74  1  0.590400  0.657500  0.939600  1.0  0.1235
  H  H75  1  0.562000  0.605500  0.016400  1.0  0.0948
  H  H76  1  0.552500  0.690300  0.562200  1.0  0.1212
  H  H77  1  0.584600  0.740000  0.464600  1.0  0.1227
  H  H78  1  0.625600  0.695100  0.796100  1.0  0.1214
  H  H79  1  0.199170  0.971730  0.906330  1.0  0.1134
  H  H80  1  0.257070  0.990830  0.272930  1.0  0.1235
  H  H81  1  0.228670  0.938830  0.349730  1.0  0.0948
  H  H82  1  0.219170  0.023630  0.895530  1.0  0.1212
  H  H83  1  0.251270  0.073330  0.797930  1.0  0.1227
  H  H84  1  0.292270  0.028430  0.129430  1.0  0.1214
  H  H85  1  0.865830  0.305070  0.239670  1.0  0.1134
  H  H86  1  0.923730  0.324170  0.606270  1.0  0.1235
  H  H87  1  0.895330  0.272170  0.683070  1.0  0.0948
  H  H88  1  0.885830  0.356970  0.228870  1.0  0.1212
  H  H89  1  0.917930  0.406670  0.131270  1.0  0.1227
  H  H90  1  0.958930  0.361770  0.462770  1.0  0.1214
  H  H91  1  0.105900  0.638400  0.073000  1.0  0.1139
  H  H92  1  0.067100  0.657500  0.439600  1.0  0.1234
  H  H93  1  0.043500  0.605500  0.516400  1.0  0.0951
  H  H94  1  0.137800  0.690300  0.062200  1.0  0.1204
  H  H95  1  0.155400  0.740000  0.964600  1.0  0.1229
  H  H96  1  0.069500  0.695100  0.296100  1.0  0.1215
  H  H97  1  0.772570  0.971730  0.406330  1.0  0.1139
  H  H98  1  0.733770  0.990830  0.772930  1.0  0.1235
  H  H99  1  0.710170  0.938830  0.849730  1.0  0.0951
  H  H100  1  0.804470  0.023630  0.395530  1.0  0.1204
  H  H101  1  0.822070  0.073330  0.297930  1.0  0.1229
  H  H102  1  0.736170  0.028430  0.629430  1.0  0.1214
  H  H103  1  0.439230  0.305070  0.739670  1.0  0.1139
  H  H104  1  0.400430  0.324170  0.106270  1.0  0.1234
  H  H105  1  0.376830  0.272170  0.183070  1.0  0.0951
  H  H106  1  0.471130  0.356970  0.728870  1.0  0.1204
  H  H107  1  0.488730  0.406670  0.631270  1.0  0.1229
  H  H108  1  0.402830  0.361770  0.962770  1.0  0.1215
  H  H109  1  0.532500  0.894100  0.073000  1.0  0.114
  H  H110  1  0.590400  0.932900  0.439600  1.0  0.1234
  H  H111  1  0.562000  0.956500  0.516400  1.0  0.0947
  H  H112  1  0.552500  0.862200  0.062200  1.0  0.1218
  H  H113  1  0.584600  0.844600  0.964600  1.0  0.1207
  H  H114  1  0.625600  0.930500  0.296100  1.0  0.1207
  H  H115  1  0.199170  0.227430  0.406330  1.0  0.114
  H  H116  1  0.257070  0.266230  0.772930  1.0  0.1233
  H  H117  1  0.228670  0.289830  0.849730  1.0  0.0947
  H  H118  1  0.219170  0.195530  0.395530  1.0  0.1218
  H  H119  1  0.251270  0.177930  0.297930  1.0  0.1207
  H  H120  1  0.292270  0.263830  0.629430  1.0  0.1207
  H  H121  1  0.865830  0.560770  0.739670  1.0  0.114
  H  H122  1  0.923730  0.599570  0.106270  1.0  0.1234
  H  H123  1  0.895330  0.623170  0.183070  1.0  0.0947
  H  H124  1  0.885830  0.528870  0.728870  1.0  0.1218
  H  H125  1  0.917930  0.511270  0.631270  1.0  0.1207
  H  H126  1  0.958930  0.597170  0.962770  1.0  0.1207
  H  H127  1  0.361600  0.467500  0.073000  1.0  0.1132
  H  H128  1  0.342500  0.409600  0.439600  1.0  0.1237
  H  H129  1  0.394500  0.438000  0.516400  1.0  0.0954
  H  H130  1  0.309700  0.447500  0.062200  1.0  0.1214
  H  H131  1  0.260000  0.415400  0.964600  1.0  0.1214
  H  H132  1  0.304900  0.374400  0.296100  1.0  0.121
  H  H133  1  0.028270  0.800830  0.406330  1.0  0.1132
  H  H134  1  0.009170  0.742930  0.772930  1.0  0.1237
  H  H135  1  0.061170  0.771330  0.849730  1.0  0.0954
  H  H136  1  0.976370  0.780830  0.395530  1.0  0.1214
  H  H137  1  0.926670  0.748730  0.297930  1.0  0.1214
  H  H138  1  0.971570  0.707730  0.629430  1.0  0.121
  H  H139  1  0.694930  0.134170  0.739670  1.0  0.1132
  H  H140  1  0.675830  0.076270  0.106270  1.0  0.1237
  H  H141  1  0.727830  0.104670  0.183070  1.0  0.0954
  H  H142  1  0.643030  0.114170  0.728870  1.0  0.1214
  H  H143  1  0.593330  0.082070  0.631270  1.0  0.1214
  H  H144  1  0.638230  0.041070  0.962770  1.0  0.121
  C  C145  1  0.409650  0.939630  0.842700  1.0  -0.0938
  C  C146  1  0.399150  0.919600  0.713300  1.0  -0.151
  C  C147  1  0.368120  0.906540  0.663300  1.0  -0.0224
  C  C148  1  0.346260  0.911870  0.747100  1.0  0.0652
  C  C149  1  0.356650  0.929920  0.879400  1.0  -0.1319
  C  C150  1  0.387970  0.943920  0.926400  1.0  -0.1323
  C  C151  1  0.442870  0.956600  0.905100  1.0  0.7003
  C  C152  1  0.313220  0.898410  0.688700  1.0  0.0257
  C  C153  1  0.298680  0.872410  0.591800  1.0  -0.1235
  C  C154  1  0.268360  0.861070  0.537400  1.0  -0.0826
  C  C155  1  0.250190  0.873520  0.588500  1.0  -0.0252
  C  C156  1  0.263580  0.899110  0.689100  1.0  -0.2168
  C  C157  1  0.295550  0.912270  0.734600  1.0  -0.0489
  C  C158  1  0.216600  0.858630  0.527700  1.0  0.6988
  C  C159  1  0.076320  0.272960  0.176030  1.0  -0.0938
  C  C160  1  0.065820  0.252930  0.046630  1.0  -0.151
  C  C161  1  0.034790  0.239870  0.996630  1.0  -0.0224
  C  C162  1  0.012930  0.245200  0.080430  1.0  0.0652
  C  C163  1  0.023320  0.263250  0.212730  1.0  -0.1319
  C  C164  1  0.054640  0.277250  0.259730  1.0  -0.1323
  C  C165  1  0.109540  0.289930  0.238430  1.0  0.7003
  C  C166  1  0.979890  0.231740  0.022030  1.0  0.0257
  C  C167  1  0.965350  0.205740  0.925130  1.0  -0.1235
  C  C168  1  0.935030  0.194400  0.870730  1.0  -0.0826
  C  C169  1  0.916860  0.206850  0.921830  1.0  -0.0252
  C  C170  1  0.930250  0.232440  0.022430  1.0  -0.2171
  C  C171  1  0.962220  0.245600  0.067930  1.0  -0.0491
  C  C172  1  0.883270  0.191960  0.861030  1.0  0.6988
  C  C173  1  0.742980  0.606300  0.509370  1.0  -0.0937
  C  C174  1  0.732480  0.586270  0.379970  1.0  -0.151
  C  C175  1  0.701450  0.573210  0.329970  1.0  -0.0224
  C  C176  1  0.679590  0.578540  0.413770  1.0  0.0652
  C  C177  1  0.689980  0.596590  0.546070  1.0  -0.1319
  C  C178  1  0.721300  0.610590  0.593070  1.0  -0.1323
  C  C179  1  0.776200  0.623270  0.571770  1.0  0.7003
  C  C180  1  0.646550  0.565080  0.355370  1.0  0.0257
  C  C181  1  0.632010  0.539080  0.258470  1.0  -0.1235
  C  C182  1  0.601690  0.527740  0.204070  1.0  -0.0826
  C  C183  1  0.583520  0.540190  0.255170  1.0  -0.0252
  C  C184  1  0.596910  0.565780  0.355770  1.0  -0.2168
  C  C185  1  0.628880  0.578940  0.401270  1.0  -0.0489
  C  C186  1  0.549930  0.525300  0.194370  1.0  0.6988
  C  C187  1  0.060370  0.470020  0.842700  1.0  -0.0958
  C  C188  1  0.080400  0.479550  0.713300  1.0  -0.1506
  C  C189  1  0.093460  0.461580  0.663300  1.0  -0.0232
  C  C190  1  0.088130  0.434390  0.747100  1.0  0.0658
  C  C191  1  0.070080  0.426730  0.879400  1.0  -0.1322
  C  C192  1  0.056080  0.444050  0.926400  1.0  -0.1314
  C  C193  1  0.043400  0.486270  0.905100  1.0  0.6988
  C  C194  1  0.101590  0.414810  0.688700  1.0  0.0237
  C  C195  1  0.127590  0.426270  0.591800  1.0  -0.123
  C  C196  1  0.138930  0.407290  0.537400  1.0  -0.0814
  C  C197  1  0.126480  0.376670  0.588500  1.0  -0.026
  C  C198  1  0.100890  0.364470  0.689100  1.0  -0.2166
  C  C199  1  0.087730  0.383280  0.734600  1.0  -0.0509
  C  C200  1  0.141370  0.357970  0.527700  1.0  0.6993
  C  C201  1  0.727040  0.803350  0.176030  1.0  -0.0958
  C  C202  1  0.747070  0.812880  0.046630  1.0  -0.1506
  C  C203  1  0.760130  0.794910  0.996630  1.0  -0.0232
  C  C204  1  0.754800  0.767720  0.080430  1.0  0.0658
  C  C205  1  0.736750  0.760060  0.212730  1.0  -0.1322
  C  C206  1  0.722750  0.777380  0.259730  1.0  -0.1314
  C  C207  1  0.710070  0.819600  0.238430  1.0  0.6988
  C  C208  1  0.768260  0.748140  0.022030  1.0  0.0237
  C  C209  1  0.794260  0.759600  0.925130  1.0  -0.123
  C  C210  1  0.805600  0.740620  0.870730  1.0  -0.0814
  C  C211  1  0.793150  0.710000  0.921830  1.0  -0.0259
  C  C212  1  0.767560  0.697800  0.022430  1.0  -0.2161
  C  C213  1  0.754400  0.716610  0.067930  1.0  -0.0507
  C  C214  1  0.808040  0.691300  0.861030  1.0  0.6995
  C  C215  1  0.393700  0.136690  0.509370  1.0  -0.0957
  C  C216  1  0.413730  0.146220  0.379970  1.0  -0.1506
  C  C217  1  0.426790  0.128250  0.329970  1.0  -0.0232
  C  C218  1  0.421460  0.101060  0.413770  1.0  0.0658
  C  C219  1  0.403410  0.093400  0.546070  1.0  -0.1322
  C  C220  1  0.389410  0.110720  0.593070  1.0  -0.1314
  C  C221  1  0.376730  0.152940  0.571770  1.0  0.6988
  C  C222  1  0.434920  0.081480  0.355370  1.0  0.0241
  C  C223  1  0.460920  0.092940  0.258470  1.0  -0.1231
  C  C224  1  0.472260  0.073960  0.204070  1.0  -0.0814
  C  C225  1  0.459810  0.043340  0.255170  1.0  -0.026
  C  C226  1  0.434220  0.031140  0.355770  1.0  -0.2166
  C  C227  1  0.421060  0.049950  0.401270  1.0  -0.0509
  C  C228  1  0.474700  0.024640  0.194370  1.0  0.6993
  C  C229  1  0.529980  0.590350  0.842700  1.0  -0.0957
  C  C230  1  0.520450  0.600850  0.713300  1.0  -0.15
  C  C231  1  0.538420  0.631880  0.663300  1.0  -0.023
  C  C232  1  0.565610  0.653740  0.747100  1.0  0.0665
  C  C233  1  0.573270  0.643350  0.879400  1.0  -0.1325
  C  C234  1  0.555950  0.612030  0.926400  1.0  -0.1331
  C  C235  1  0.513730  0.557130  0.905100  1.0  0.7022
  C  C236  1  0.585190  0.686780  0.688700  1.0  0.0259
  C  C237  1  0.573730  0.701320  0.591800  1.0  -0.1182
  C  C238  1  0.592710  0.731640  0.537400  1.0  -0.0825
  C  C239  1  0.623330  0.749810  0.588500  1.0  -0.0243
  C  C240  1  0.635530  0.736420  0.689100  1.0  -0.2158
  C  C241  1  0.616720  0.704450  0.734600  1.0  -0.0518
  C  C242  1  0.642030  0.783400  0.527700  1.0  0.6985
  C  C243  1  0.196650  0.923680  0.176030  1.0  -0.0957
  C  C244  1  0.187120  0.934180  0.046630  1.0  -0.15
  C  C245  1  0.205090  0.965210  0.996630  1.0  -0.023
  C  C246  1  0.232280  0.987070  0.080430  1.0  0.0665
  C  C247  1  0.239940  0.976680  0.212730  1.0  -0.1325
  C  C248  1  0.222620  0.945360  0.259730  1.0  -0.1331
  C  C249  1  0.180400  0.890460  0.238430  1.0  0.7022
  C  C250  1  0.251860  0.020110  0.022030  1.0  0.0259
  C  C251  1  0.240400  0.034650  0.925130  1.0  -0.1182
  C  C252  1  0.259380  0.064970  0.870730  1.0  -0.0825
  C  C253  1  0.290000  0.083140  0.921830  1.0  -0.0243
  C  C254  1  0.302200  0.069750  0.022430  1.0  -0.2158
  C  C255  1  0.283390  0.037780  0.067930  1.0  -0.0518
  C  C256  1  0.308700  0.116730  0.861030  1.0  0.6986
  C  C257  1  0.863310  0.257020  0.509370  1.0  -0.0957
  C  C258  1  0.853780  0.267520  0.379970  1.0  -0.1501
  C  C259  1  0.871750  0.298550  0.329970  1.0  -0.023
  C  C260  1  0.898940  0.320410  0.413770  1.0  0.0665
  C  C261  1  0.906600  0.310020  0.546070  1.0  -0.1325
  C  C262  1  0.889280  0.278700  0.593070  1.0  -0.1331
  C  C263  1  0.847060  0.223800  0.571770  1.0  0.7023
  C  C264  1  0.918520  0.353450  0.355370  1.0  0.0257
  C  C265  1  0.907060  0.367990  0.258470  1.0  -0.1182
  C  C266  1  0.926040  0.398310  0.204070  1.0  -0.0825
  C  C267  1  0.956660  0.416480  0.255170  1.0  -0.0243
  C  C268  1  0.968860  0.403090  0.355770  1.0  -0.2158
  C  C269  1  0.950050  0.371120  0.401270  1.0  -0.0518
  C  C270  1  0.975360  0.450070  0.194370  1.0  0.6985
  C  C271  1  0.060370  0.590350  0.342700  1.0  -0.0964
  C  C272  1  0.080400  0.600850  0.213300  1.0  -0.1509
  C  C273  1  0.093460  0.631880  0.163300  1.0  -0.0235
  C  C274  1  0.088130  0.653740  0.247100  1.0  0.0662
  C  C275  1  0.070080  0.643350  0.379400  1.0  -0.1332
  C  C276  1  0.056080  0.612030  0.426400  1.0  -0.1325
  C  C277  1  0.043400  0.557130  0.405100  1.0  0.7022
  C  C278  1  0.101590  0.686780  0.188700  1.0  0.0256
  C  C279  1  0.127590  0.701320  0.091800  1.0  -0.1191
  C  C280  1  0.138930  0.731640  0.037400  1.0  -0.0818
  C  C281  1  0.126480  0.749810  0.088500  1.0  -0.0251
  C  C282  1  0.100890  0.736420  0.189100  1.0  -0.2168
  C  C283  1  0.087730  0.704450  0.234600  1.0  -0.0517
  C  C284  1  0.141370  0.783400  0.027700  1.0  0.6986
  C  C285  1  0.727040  0.923680  0.676030  1.0  -0.0964
  C  C286  1  0.747070  0.934180  0.546630  1.0  -0.1509
  C  C287  1  0.760130  0.965210  0.496630  1.0  -0.0235
  C  C288  1  0.754800  0.987070  0.580430  1.0  0.0662
  C  C289  1  0.736750  0.976680  0.712730  1.0  -0.1332
  C  C290  1  0.722750  0.945360  0.759730  1.0  -0.1325
  C  C291  1  0.710070  0.890460  0.738430  1.0  0.7022
  C  C292  1  0.768260  0.020110  0.522030  1.0  0.0256
  C  C293  1  0.794260  0.034650  0.425130  1.0  -0.1191
  C  C294  1  0.805600  0.064970  0.370730  1.0  -0.0818
  C  C295  1  0.793150  0.083140  0.421830  1.0  -0.0251
  C  C296  1  0.767560  0.069750  0.522430  1.0  -0.2172
  C  C297  1  0.754400  0.037780  0.567930  1.0  -0.0519
  C  C298  1  0.808040  0.116730  0.361030  1.0  0.6986
  C  C299  1  0.393700  0.257020  0.009370  1.0  -0.0963
  C  C300  1  0.413730  0.267520  0.879970  1.0  -0.1509
  C  C301  1  0.426790  0.298550  0.829970  1.0  -0.0235
  C  C302  1  0.421460  0.320410  0.913770  1.0  0.0662
  C  C303  1  0.403410  0.310020  0.046070  1.0  -0.1332
  C  C304  1  0.389410  0.278700  0.093070  1.0  -0.1325
  C  C305  1  0.376730  0.223800  0.071770  1.0  0.7022
  C  C306  1  0.434920  0.353450  0.855370  1.0  0.0256
  C  C307  1  0.460920  0.367990  0.758470  1.0  -0.1191
  C  C308  1  0.472260  0.398310  0.704070  1.0  -0.0818
  C  C309  1  0.459810  0.416480  0.755170  1.0  -0.0251
  C  C310  1  0.434220  0.403090  0.855770  1.0  -0.2168
  C  C311  1  0.421060  0.371120  0.901270  1.0  -0.0517
  C  C312  1  0.474700  0.450070  0.694370  1.0  0.6986
  C  C313  1  0.529980  0.939630  0.342700  1.0  -0.0966
  C  C314  1  0.520450  0.919600  0.213300  1.0  -0.1542
  C  C315  1  0.538420  0.906540  0.163300  1.0  -0.0227
  C  C316  1  0.565610  0.911870  0.247100  1.0  0.065
  C  C317  1  0.573270  0.929920  0.379400  1.0  -0.1316
  C  C318  1  0.555950  0.943920  0.426400  1.0  -0.1324
  C  C319  1  0.513730  0.956600  0.405100  1.0  0.6989
  C  C320  1  0.585190  0.898410  0.188700  1.0  0.0262
  C  C321  1  0.573730  0.872410  0.091800  1.0  -0.1219
  C  C322  1  0.592710  0.861070  0.037400  1.0  -0.0819
  C  C323  1  0.623330  0.873520  0.088500  1.0  -0.0224
  C  C324  1  0.635530  0.899110  0.189100  1.0  -0.214
  C  C325  1  0.616720  0.912270  0.234600  1.0  -0.05
  C  C326  1  0.642030  0.858630  0.027700  1.0  0.6984
  C  C327  1  0.196650  0.272960  0.676030  1.0  -0.0966
  C  C328  1  0.187120  0.252930  0.546630  1.0  -0.1542
  C  C329  1  0.205090  0.239870  0.496630  1.0  -0.0227
  C  C330  1  0.232280  0.245200  0.580430  1.0  0.065
  C  C331  1  0.239940  0.263250  0.712730  1.0  -0.1316
  C  C332  1  0.222620  0.277250  0.759730  1.0  -0.1324
  C  C333  1  0.180400  0.289930  0.738430  1.0  0.6989
  C  C334  1  0.251860  0.231740  0.522030  1.0  0.0263
  C  C335  1  0.240400  0.205740  0.425130  1.0  -0.1219
  C  C336  1  0.259380  0.194400  0.370730  1.0  -0.0819
  C  C337  1  0.290000  0.206850  0.421830  1.0  -0.0223
  C  C338  1  0.302200  0.232440  0.522430  1.0  -0.2135
  C  C339  1  0.283390  0.245600  0.567930  1.0  -0.0499
  C  C340  1  0.308700  0.191960  0.361030  1.0  0.6984
  C  C341  1  0.863310  0.606300  0.009370  1.0  -0.0966
  C  C342  1  0.853780  0.586270  0.879970  1.0  -0.1542
  C  C343  1  0.871750  0.573210  0.829970  1.0  -0.0227
  C  C344  1  0.898940  0.578540  0.913770  1.0  0.0649
  C  C345  1  0.906600  0.596590  0.046070  1.0  -0.1316
  C  C346  1  0.889280  0.610590  0.093070  1.0  -0.1324
  C  C347  1  0.847060  0.623270  0.071770  1.0  0.699
  C  C348  1  0.918520  0.565080  0.855370  1.0  0.0265
  C  C349  1  0.907060  0.539080  0.758470  1.0  -0.1218
  C  C350  1  0.926040  0.527740  0.704070  1.0  -0.0819
  C  C351  1  0.956660  0.540190  0.755170  1.0  -0.0224
  C  C352  1  0.968860  0.565780  0.855770  1.0  -0.214
  C  C353  1  0.950050  0.578940  0.901270  1.0  -0.05
  C  C354  1  0.975360  0.525300  0.694370  1.0  0.6984
  C  C355  1  0.409650  0.470020  0.342700  1.0  -0.0952
  C  C356  1  0.399150  0.479550  0.213300  1.0  -0.1509
  C  C357  1  0.368120  0.461580  0.163300  1.0  -0.023
  C  C358  1  0.346260  0.434390  0.247100  1.0  0.0655
  C  C359  1  0.356650  0.426730  0.379400  1.0  -0.1332
  C  C360  1  0.387970  0.444050  0.426400  1.0  -0.1319
  C  C361  1  0.442870  0.486270  0.405100  1.0  0.7
  C  C362  1  0.313220  0.414810  0.188700  1.0  0.0251
  C  C363  1  0.298680  0.426270  0.091800  1.0  -0.1217
  C  C364  1  0.268360  0.407290  0.037400  1.0  -0.0808
  C  C365  1  0.250190  0.376670  0.088500  1.0  -0.025
  C  C366  1  0.263580  0.364470  0.189100  1.0  -0.217
  C  C367  1  0.295550  0.383280  0.234600  1.0  -0.0509
  C  C368  1  0.216600  0.357970  0.027700  1.0  0.6994
  C  C369  1  0.076320  0.803350  0.676030  1.0  -0.0952
  C  C370  1  0.065820  0.812880  0.546630  1.0  -0.1509
  C  C371  1  0.034790  0.794910  0.496630  1.0  -0.023
  C  C372  1  0.012930  0.767720  0.580430  1.0  0.0655
  C  C373  1  0.023320  0.760060  0.712730  1.0  -0.1332
  C  C374  1  0.054640  0.777380  0.759730  1.0  -0.1319
  C  C375  1  0.109540  0.819600  0.738430  1.0  0.7
  C  C376  1  0.979890  0.748140  0.522030  1.0  0.0251
  C  C377  1  0.965350  0.759600  0.425130  1.0  -0.1217
  C  C378  1  0.935030  0.740620  0.370730  1.0  -0.0808
  C  C379  1  0.916860  0.710000  0.421830  1.0  -0.025
  C  C380  1  0.930250  0.697800  0.522430  1.0  -0.217
  C  C381  1  0.962220  0.716610  0.567930  1.0  -0.0509
  C  C382  1  0.883270  0.691300  0.361030  1.0  0.6994
  C  C383  1  0.742980  0.136690  0.009370  1.0  -0.0952
  C  C384  1  0.732480  0.146220  0.879970  1.0  -0.151
  C  C385  1  0.701450  0.128250  0.829970  1.0  -0.023
  C  C386  1  0.679590  0.101060  0.913770  1.0  0.0656
  C  C387  1  0.689980  0.093400  0.046070  1.0  -0.1332
  C  C388  1  0.721300  0.110720  0.093070  1.0  -0.1319
  C  C389  1  0.776200  0.152940  0.071770  1.0  0.7
  C  C390  1  0.646550  0.081480  0.855370  1.0  0.0249
  C  C391  1  0.632010  0.092940  0.758470  1.0  -0.1217
  C  C392  1  0.601690  0.073960  0.704070  1.0  -0.0808
  C  C393  1  0.583520  0.043340  0.755170  1.0  -0.025
  C  C394  1  0.596910  0.031140  0.855770  1.0  -0.217
  C  C395  1  0.628880  0.049950  0.901270  1.0  -0.0509
  C  C396  1  0.549930  0.024640  0.694370  1.0  0.6994
  S  S397  1  0.424630  0.909990  0.605250  1.0  1.3488
  S  S398  1  0.243650  0.918470  0.768220  1.0  1.3338
  S  S399  1  0.091300  0.243320  0.938580  1.0  1.3488
  S  S400  1  0.910320  0.251800  0.101550  1.0  1.3337
  S  S401  1  0.757960  0.576660  0.271920  1.0  1.3488
  S  S402  1  0.576980  0.585140  0.434890  1.0  1.3338
  S  S403  1  0.090010  0.514640  0.605250  1.0  1.3477
  S  S404  1  0.081530  0.325180  0.768220  1.0  1.3339
  S  S405  1  0.756680  0.847970  0.938580  1.0  1.3477
  S  S406  1  0.748200  0.658510  0.101550  1.0  1.334
  S  S407  1  0.423340  0.181310  0.271920  1.0  1.3477
  S  S408  1  0.414860  0.991850  0.434890  1.0  1.3339
  S  S409  1  0.485360  0.575370  0.605250  1.0  1.3444
  S  S410  1  0.674820  0.756350  0.768220  1.0  1.3333
  S  S411  1  0.152030  0.908700  0.938580  1.0  1.3444
  S  S412  1  0.341490  0.089680  0.101550  1.0  1.3333
  S  S413  1  0.818690  0.242040  0.271920  1.0  1.3444
  S  S414  1  0.008150  0.423020  0.434890  1.0  1.3333
  S  S415  1  0.090010  0.575370  0.105250  1.0  1.3444
  S  S416  1  0.081530  0.756350  0.268220  1.0  1.334
  S  S417  1  0.756680  0.908700  0.438580  1.0  1.3444
  S  S418  1  0.748200  0.089680  0.601550  1.0  1.3339
  S  S419  1  0.423340  0.242040  0.771920  1.0  1.3444
  S  S420  1  0.414860  0.423020  0.934890  1.0  1.334
  S  S421  1  0.485360  0.909990  0.105250  1.0  1.3492
  S  S422  1  0.674820  0.918470  0.268220  1.0  1.3333
  S  S423  1  0.152030  0.243320  0.438580  1.0  1.3492
  S  S424  1  0.341490  0.251800  0.601550  1.0  1.3335
  S  S425  1  0.818690  0.576660  0.771920  1.0  1.3492
  S  S426  1  0.008150  0.585140  0.934890  1.0  1.3333
  S  S427  1  0.424630  0.514640  0.105250  1.0  1.3475
  S  S428  1  0.243650  0.325180  0.268220  1.0  1.3334
  S  S429  1  0.091300  0.847970  0.438580  1.0  1.3475
  S  S430  1  0.910320  0.658510  0.601550  1.0  1.3334
  S  S431  1  0.757960  0.181310  0.771920  1.0  1.3475
  S  S432  1  0.576980  0.991850  0.934890  1.0  1.3334
  O  O433  1  0.466160  0.972070  0.810300  1.0  -0.8227
  O  O434  1  0.447500  0.956550  0.048500  1.0  -0.6571
  O  O435  1  0.444620  0.937760  0.506900  1.0  -0.8449
  O  O436  1  0.404000  0.883090  0.506300  1.0  -0.6638
  O  O437  1  0.442370  0.904000  0.720700  1.0  -0.6382
  O  O438  1  0.212210  0.852860  0.382300  1.0  -0.6223
  O  O439  1  0.193610  0.850850  0.620200  1.0  -0.8063
  O  O440  1  0.227890  0.923220  0.637100  1.0  -0.6482
  O  O441  1  0.221630  0.895500  0.882900  1.0  -0.7361
  O  O442  1  0.267550  0.947250  0.844100  1.0  -0.6033
  O  O443  1  0.132830  0.305400  0.143630  1.0  -0.8227
  O  O444  1  0.114170  0.289880  0.381830  1.0  -0.6571
  O  O445  1  0.111290  0.271090  0.840230  1.0  -0.8449
  O  O446  1  0.070670  0.216420  0.839630  1.0  -0.6627
  O  O447  1  0.109040  0.237330  0.054030  1.0  -0.6382
  O  O448  1  0.878880  0.186190  0.715630  1.0  -0.6419
  O  O449  1  0.860280  0.184180  0.953530  1.0  -0.8063
  O  O450  1  0.894560  0.256550  0.970430  1.0  -0.6486
  O  O451  1  0.888300  0.228830  0.216230  1.0  -0.7363
  O  O452  1  0.934220  0.280580  0.177430  1.0  -0.603
  O  O453  1  0.799490  0.638740  0.476970  1.0  -0.8227
  O  O454  1  0.780830  0.623220  0.715170  1.0  -0.657
  O  O455  1  0.777950  0.604430  0.173570  1.0  -0.8447
  O  O456  1  0.737330  0.549760  0.172970  1.0  -0.6638
  O  O457  1  0.775700  0.570670  0.387370  1.0  -0.6382
  O  O458  1  0.545540  0.519530  0.048970  1.0  -0.6223
  O  O459  1  0.526940  0.517520  0.286870  1.0  -0.8063
  O  O460  1  0.561220  0.589890  0.303770  1.0  -0.6482
  O  O461  1  0.554960  0.562170  0.549570  1.0  -0.7361
  O  O462  1  0.600880  0.613920  0.510770  1.0  -0.6033
  O  O463  1  0.027930  0.494090  0.810300  1.0  -0.8187
  O  O464  1  0.043450  0.490950  0.048500  1.0  -0.6574
  O  O465  1  0.062240  0.506860  0.506900  1.0  -0.8459
  O  O466  1  0.116910  0.520910  0.506300  1.0  -0.6612
  O  O467  1  0.096000  0.538370  0.720700  1.0  -0.6353
  O  O468  1  0.147140  0.359350  0.382300  1.0  -0.6402
  O  O469  1  0.149150  0.342760  0.620200  1.0  -0.8007
  O  O470  1  0.076780  0.304670  0.637100  1.0  -0.6524
  O  O471  1  0.104500  0.326130  0.882900  1.0  -0.7366
  O  O472  1  0.052750  0.320300  0.844100  1.0  -0.6018
  O  O473  1  0.694600  0.827420  0.143630  1.0  -0.8187
  O  O474  1  0.710120  0.824280  0.381830  1.0  -0.6574
  O  O475  1  0.728910  0.840190  0.840230  1.0  -0.8459
  O  O476  1  0.783580  0.854240  0.839630  1.0  -0.6614
  O  O477  1  0.762670  0.871700  0.054030  1.0  -0.6353
  O  O478  1  0.813810  0.692680  0.715630  1.0  -0.6202
  O  O479  1  0.815820  0.676090  0.953530  1.0  -0.8007
  O  O480  1  0.743450  0.638000  0.970430  1.0  -0.6525
  O  O481  1  0.771170  0.659460  0.216230  1.0  -0.7363
  O  O482  1  0.719420  0.653630  0.177430  1.0  -0.6017
  O  O483  1  0.361260  0.160760  0.476970  1.0  -0.8187
  O  O484  1  0.376780  0.157620  0.715170  1.0  -0.6572
  O  O485  1  0.395570  0.173530  0.173570  1.0  -0.846
  O  O486  1  0.450240  0.187580  0.172970  1.0  -0.6612
  O  O487  1  0.429330  0.205040  0.387370  1.0  -0.6355
  O  O488  1  0.480470  0.026020  0.048970  1.0  -0.6402
  O  O489  1  0.482480  0.009430  0.286870  1.0  -0.8007
  O  O490  1  0.410110  0.971340  0.303770  1.0  -0.6524
  O  O491  1  0.437830  0.992800  0.549570  1.0  -0.7366
  O  O492  1  0.386080  0.986970  0.510770  1.0  -0.6018
  O  O493  1  0.505910  0.533840  0.810300  1.0  -0.8206
  O  O494  1  0.509050  0.552500  0.048500  1.0  -0.656
  O  O495  1  0.493140  0.555380  0.506900  1.0  -0.8484
  O  O496  1  0.479090  0.596000  0.506300  1.0  -0.6578
  O  O497  1  0.461630  0.557630  0.720700  1.0  -0.628
  O  O498  1  0.640650  0.787790  0.382300  1.0  -0.6176
  O  O499  1  0.657240  0.806390  0.620200  1.0  -0.8066
  O  O500  1  0.695330  0.772110  0.637100  1.0  -0.6477
  O  O501  1  0.673870  0.778370  0.882900  1.0  -0.7361
  O  O502  1  0.679700  0.732450  0.844100  1.0  -0.6053
  O  O503  1  0.172580  0.867170  0.143630  1.0  -0.8206
  O  O504  1  0.175720  0.885830  0.381830  1.0  -0.656
  O  O505  1  0.159810  0.888710  0.840230  1.0  -0.8484
  O  O506  1  0.145760  0.929330  0.839630  1.0  -0.6553
  O  O507  1  0.128300  0.890960  0.054030  1.0  -0.628
  O  O508  1  0.307320  0.121120  0.715630  1.0  -0.6375
  O  O509  1  0.323910  0.139720  0.953530  1.0  -0.8066
  O  O510  1  0.362000  0.105440  0.970430  1.0  -0.6476
  O  O511  1  0.340540  0.111700  0.216230  1.0  -0.7362
  O  O512  1  0.346370  0.065780  0.177430  1.0  -0.6053
  O  O513  1  0.839240  0.200510  0.476970  1.0  -0.8206
  O  O514  1  0.842380  0.219170  0.715170  1.0  -0.6561
  O  O515  1  0.826470  0.222050  0.173570  1.0  -0.8482
  O  O516  1  0.812420  0.262670  0.172970  1.0  -0.6578
  O  O517  1  0.794960  0.224300  0.387370  1.0  -0.628
  O  O518  1  0.973980  0.454460  0.048970  1.0  -0.6176
  O  O519  1  0.990570  0.473060  0.286870  1.0  -0.8066
  O  O520  1  0.028660  0.438780  0.303770  1.0  -0.6477
  O  O521  1  0.007200  0.445040  0.549570  1.0  -0.7361
  O  O522  1  0.013030  0.399120  0.510770  1.0  -0.6053
  O  O523  1  0.027930  0.533840  0.310300  1.0  -0.8207
  O  O524  1  0.043450  0.552500  0.548500  1.0  -0.656
  O  O525  1  0.062240  0.555380  0.006900  1.0  -0.8473
  O  O526  1  0.116910  0.596000  0.006300  1.0  -0.661
  O  O527  1  0.096000  0.557630  0.220700  1.0  -0.625
  O  O528  1  0.147140  0.787790  0.882300  1.0  -0.6198
  O  O529  1  0.149150  0.806390  0.120200  1.0  -0.8068
  O  O530  1  0.076780  0.772110  0.137100  1.0  -0.6473
  O  O531  1  0.104500  0.778370  0.382900  1.0  -0.7351
  O  O532  1  0.052750  0.732450  0.344100  1.0  -0.6044
  O  O533  1  0.694600  0.867170  0.643630  1.0  -0.8207
  O  O534  1  0.710120  0.885830  0.881830  1.0  -0.656
  O  O535  1  0.728910  0.888710  0.340230  1.0  -0.8473
  O  O536  1  0.783580  0.929330  0.339630  1.0  -0.6568
  O  O537  1  0.762670  0.890960  0.554030  1.0  -0.625
  O  O538  1  0.813810  0.121120  0.215630  1.0  -0.6392
  O  O539  1  0.815820  0.139720  0.453530  1.0  -0.8068
  O  O540  1  0.743450  0.105440  0.470430  1.0  -0.6477
  O  O541  1  0.771170  0.111700  0.716230  1.0  -0.7353
  O  O542  1  0.719420  0.065780  0.677430  1.0  -0.6041
  O  O543  1  0.361260  0.200510  0.976970  1.0  -0.8206
  O  O544  1  0.376780  0.219170  0.215170  1.0  -0.6558
  O  O545  1  0.395570  0.222050  0.673570  1.0  -0.8472
  O  O546  1  0.450240  0.262670  0.672970  1.0  -0.661
  O  O547  1  0.429330  0.224300  0.887370  1.0  -0.625
  O  O548  1  0.480470  0.454460  0.548970  1.0  -0.6198
  O  O549  1  0.482480  0.473060  0.786870  1.0  -0.8068
  O  O550  1  0.410110  0.438780  0.803770  1.0  -0.6473
  O  O551  1  0.437830  0.445040  0.049570  1.0  -0.7351
  O  O552  1  0.386080  0.399120  0.010770  1.0  -0.6044
  O  O553  1  0.505910  0.972070  0.310300  1.0  -0.823
  O  O554  1  0.509050  0.956550  0.548500  1.0  -0.6569
  O  O555  1  0.493140  0.937760  0.006900  1.0  -0.8454
  O  O556  1  0.479090  0.883090  0.006300  1.0  -0.6636
  O  O557  1  0.461630  0.904000  0.220700  1.0  -0.6384
  O  O558  1  0.640650  0.852860  0.882300  1.0  -0.6418
  O  O559  1  0.657240  0.850850  0.120200  1.0  -0.8051
  O  O560  1  0.695330  0.923220  0.137100  1.0  -0.648
  O  O561  1  0.673870  0.895500  0.382900  1.0  -0.7378
  O  O562  1  0.679700  0.947250  0.344100  1.0  -0.6043
  O  O563  1  0.172580  0.305400  0.643630  1.0  -0.823
  O  O564  1  0.175720  0.289880  0.881830  1.0  -0.6569
  O  O565  1  0.159810  0.271090  0.340230  1.0  -0.8454
  O  O566  1  0.145760  0.216420  0.339630  1.0  -0.6631
  O  O567  1  0.128300  0.237330  0.554030  1.0  -0.6384
  O  O568  1  0.307320  0.186190  0.215630  1.0  -0.6223
  O  O569  1  0.323910  0.184180  0.453530  1.0  -0.8051
  O  O570  1  0.362000  0.256550  0.470430  1.0  -0.6481
  O  O571  1  0.340540  0.228830  0.716230  1.0  -0.7375
  O  O572  1  0.346370  0.280580  0.677430  1.0  -0.6042
  O  O573  1  0.839240  0.638740  0.976970  1.0  -0.823
  O  O574  1  0.842380  0.623220  0.215170  1.0  -0.6567
  O  O575  1  0.826470  0.604430  0.673570  1.0  -0.8455
  O  O576  1  0.812420  0.549760  0.672970  1.0  -0.6636
  O  O577  1  0.794960  0.570670  0.887370  1.0  -0.6384
  O  O578  1  0.973980  0.519530  0.548970  1.0  -0.6418
  O  O579  1  0.990570  0.517520  0.786870  1.0  -0.8051
  O  O580  1  0.028660  0.589890  0.803770  1.0  -0.648
  O  O581  1  0.007200  0.562170  0.049570  1.0  -0.7378
  O  O582  1  0.013030  0.613920  0.010770  1.0  -0.6043
  O  O583  1  0.466160  0.494090  0.310300  1.0  -0.8184
  O  O584  1  0.447500  0.490950  0.548500  1.0  -0.6567
  O  O585  1  0.444620  0.506860  0.006900  1.0  -0.8473
  O  O586  1  0.404000  0.520910  0.006300  1.0  -0.6592
  O  O587  1  0.442370  0.538370  0.220700  1.0  -0.6339
  O  O588  1  0.212210  0.359350  0.882300  1.0  -0.6198
  O  O589  1  0.193610  0.342760  0.120200  1.0  -0.8024
  O  O590  1  0.227890  0.304670  0.137100  1.0  -0.6519
  O  O591  1  0.221630  0.326130  0.382900  1.0  -0.7372
  O  O592  1  0.267550  0.320300  0.344100  1.0  -0.6042
  O  O593  1  0.132830  0.827420  0.643630  1.0  -0.8184
  O  O594  1  0.114170  0.824280  0.881830  1.0  -0.6567
  O  O595  1  0.111290  0.840190  0.340230  1.0  -0.8473
  O  O596  1  0.070670  0.854240  0.339630  1.0  -0.6574
  O  O597  1  0.109040  0.871700  0.554030  1.0  -0.6339
  O  O598  1  0.878880  0.692680  0.215630  1.0  -0.6403
  O  O599  1  0.860280  0.676090  0.453530  1.0  -0.8024
  O  O600  1  0.894560  0.638000  0.470430  1.0  -0.6518
  O  O601  1  0.888300  0.659460  0.716230  1.0  -0.7373
  O  O602  1  0.934220  0.653630  0.677430  1.0  -0.6042
  O  O603  1  0.799490  0.160760  0.976970  1.0  -0.8184
  O  O604  1  0.780830  0.157620  0.215170  1.0  -0.6569
  O  O605  1  0.777950  0.173530  0.673570  1.0  -0.8471
  O  O606  1  0.737330  0.187580  0.672970  1.0  -0.6592
  O  O607  1  0.775700  0.205040  0.887370  1.0  -0.634
  O  O608  1  0.545540  0.026020  0.548970  1.0  -0.6198
  O  O609  1  0.526940  0.009430  0.786870  1.0  -0.8024
  O  O610  1  0.561220  0.971340  0.803770  1.0  -0.6519
  O  O611  1  0.554960  0.992800  0.049570  1.0  -0.7372
  O  O612  1  0.600880  0.986970  0.010770  1.0  -0.6042
