# generated using pymatgen
data_KPrH6C14(SO5)2
_symmetry_space_group_name_H-M   'P 1'
_cell_length_a   48.88400000
_cell_length_b   48.88400000
_cell_length_c   8.56320000
_cell_angle_alpha   90.00000000
_cell_angle_beta   90.00000000
_cell_angle_gamma   120.00000000
_symmetry_Int_Tables_number   1
_chemical_formula_structural   KPrH6C14(SO5)2
_chemical_formula_sum   'K18 Pr18 H108 C252 S36 O180'
_cell_volume   17721.48820294
_cell_formula_units_Z   18
loop_
 _symmetry_equiv_pos_site_id
 _symmetry_equiv_pos_as_xyz
  1  'x, y, z'
loop_
 _atom_site_type_symbol
 _atom_site_label
 _atom_site_symmetry_multiplicity
 _atom_site_fract_x
 _atom_site_fract_y
 _atom_site_fract_z
 _atom_site_occupancy
 _atom_site_charge
  K  K1  1  0.592190  0.087550  0.759000  1.0  0.9452
  K  K2  1  0.258860  0.420880  0.092330  1.0  0.9452
  K  K3  1  0.925520  0.754220  0.425670  1.0  0.9452
  K  K4  1  0.912450  0.504640  0.759000  1.0  0.9481
  K  K5  1  0.579120  0.837970  0.092330  1.0  0.9481
  K  K6  1  0.245780  0.171310  0.425670  1.0  0.9481
  K  K7  1  0.495360  0.407810  0.759000  1.0  0.9472
  K  K8  1  0.162030  0.741140  0.092330  1.0  0.9472
  K  K9  1  0.828690  0.074480  0.425670  1.0  0.9472
  K  K10  1  0.912450  0.407810  0.259000  1.0  0.9494
  K  K11  1  0.579120  0.741140  0.592330  1.0  0.9494
  K  K12  1  0.245780  0.074480  0.925670  1.0  0.9494
  K  K13  1  0.495360  0.087550  0.259000  1.0  0.9464
  K  K14  1  0.162030  0.420880  0.592330  1.0  0.9464
  K  K15  1  0.828690  0.754220  0.925670  1.0  0.9464
  K  K16  1  0.592190  0.504640  0.259000  1.0  0.9469
  K  K17  1  0.258860  0.837970  0.592330  1.0  0.9469
  K  K18  1  0.925520  0.171310  0.925670  1.0  0.9469
  Pr  Pr19  1  0.514780  0.009560  0.450950  1.0  2.1974
  Pr  Pr20  1  0.181450  0.342890  0.784280  1.0  2.1971
  Pr  Pr21  1  0.848110  0.676230  0.117620  1.0  2.1974
  Pr  Pr22  1  0.990440  0.505220  0.450950  1.0  2.1963
  Pr  Pr23  1  0.657110  0.838550  0.784280  1.0  2.1965
  Pr  Pr24  1  0.323770  0.171890  0.117620  1.0  2.1963
  Pr  Pr25  1  0.494780  0.485220  0.450950  1.0  2.1981
  Pr  Pr26  1  0.161450  0.818550  0.784280  1.0  2.1974
  Pr  Pr27  1  0.828110  0.151890  0.117620  1.0  2.1981
  Pr  Pr28  1  0.990440  0.485220  0.950950  1.0  2.1965
  Pr  Pr29  1  0.657110  0.818550  0.284280  1.0  2.1962
  Pr  Pr30  1  0.323770  0.151890  0.617620  1.0  2.1965
  Pr  Pr31  1  0.494780  0.009560  0.950950  1.0  2.1975
  Pr  Pr32  1  0.161450  0.342890  0.284280  1.0  2.1978
  Pr  Pr33  1  0.828110  0.676230  0.617620  1.0  2.1975
  Pr  Pr34  1  0.514780  0.505220  0.950950  1.0  2.1972
  Pr  Pr35  1  0.181450  0.838550  0.284280  1.0  2.1965
  Pr  Pr36  1  0.848110  0.171890  0.617620  1.0  2.1972
  H  H37  1  0.639200  0.107400  0.426500  1.0  0.1164
  H  H38  1  0.658900  0.068300  0.064700  1.0  0.1257
  H  H39  1  0.607100  0.046300  0.979500  1.0  0.1063
  H  H40  1  0.690800  0.138000  0.445000  1.0  0.1339
  H  H41  1  0.741500  0.156000  0.533300  1.0  0.1175
  H  H42  1  0.695600  0.070200  0.204400  1.0  0.1225
  H  H43  1  0.305870  0.440730  0.759830  1.0  0.1164
  H  H44  1  0.325570  0.401630  0.398030  1.0  0.1257
  H  H45  1  0.273770  0.379630  0.312830  1.0  0.1063
  H  H46  1  0.357470  0.471330  0.778330  1.0  0.1339
  H  H47  1  0.408170  0.489330  0.866630  1.0  0.1175
  H  H48  1  0.362270  0.403530  0.537730  1.0  0.1225
  H  H49  1  0.972530  0.774070  0.093170  1.0  0.1164
  H  H50  1  0.992230  0.734970  0.731370  1.0  0.1257
  H  H51  1  0.940430  0.712970  0.646170  1.0  0.1063
  H  H52  1  0.024130  0.804670  0.111670  1.0  0.1339
  H  H53  1  0.074830  0.822670  0.199970  1.0  0.1174
  H  H54  1  0.028930  0.736870  0.871070  1.0  0.1225
  H  H55  1  0.892600  0.531800  0.426500  1.0  0.1168
  H  H56  1  0.931700  0.590600  0.064700  1.0  0.1261
  H  H57  1  0.953700  0.560800  0.979500  1.0  0.1066
  H  H58  1  0.862000  0.552800  0.445000  1.0  0.133
  H  H59  1  0.844000  0.585500  0.533300  1.0  0.118
  H  H60  1  0.929800  0.625400  0.204400  1.0  0.1227
  H  H61  1  0.559270  0.865130  0.759830  1.0  0.1168
  H  H62  1  0.598370  0.923930  0.398030  1.0  0.1261
  H  H63  1  0.620370  0.894130  0.312830  1.0  0.1066
  H  H64  1  0.528670  0.886130  0.778330  1.0  0.133
  H  H65  1  0.510670  0.918830  0.866630  1.0  0.118
  H  H66  1  0.596470  0.958730  0.537730  1.0  0.1227
  H  H67  1  0.225930  0.198470  0.093170  1.0  0.1168
  H  H68  1  0.265030  0.257270  0.731370  1.0  0.1261
  H  H69  1  0.287030  0.227470  0.646170  1.0  0.1066
  H  H70  1  0.195330  0.219470  0.111670  1.0  0.133
  H  H71  1  0.177330  0.252170  0.199970  1.0  0.118
  H  H72  1  0.263130  0.292070  0.871070  1.0  0.1227
  H  H73  1  0.468200  0.360800  0.426500  1.0  0.1161
  H  H74  1  0.409400  0.341100  0.064700  1.0  0.126
  H  H75  1  0.439200  0.392900  0.979500  1.0  0.107
  H  H76  1  0.447200  0.309200  0.445000  1.0  0.1331
  H  H77  1  0.414500  0.258500  0.533300  1.0  0.1188
  H  H78  1  0.374600  0.304400  0.204400  1.0  0.1231
  H  H79  1  0.134870  0.694130  0.759830  1.0  0.1161
  H  H80  1  0.076070  0.674430  0.398030  1.0  0.126
  H  H81  1  0.105870  0.726230  0.312830  1.0  0.107
  H  H82  1  0.113870  0.642530  0.778330  1.0  0.1331
  H  H83  1  0.081170  0.591830  0.866630  1.0  0.1188
  H  H84  1  0.041270  0.637730  0.537730  1.0  0.1231
  H  H85  1  0.801530  0.027470  0.093170  1.0  0.1161
  H  H86  1  0.742730  0.007770  0.731370  1.0  0.126
  H  H87  1  0.772530  0.059570  0.646170  1.0  0.107
  H  H88  1  0.780530  0.975870  0.111670  1.0  0.1331
  H  H89  1  0.747830  0.925170  0.199970  1.0  0.1188
  H  H90  1  0.707930  0.971070  0.871070  1.0  0.1231
  H  H91  1  0.892600  0.360800  0.926500  1.0  0.1168
  H  H92  1  0.931700  0.341100  0.564700  1.0  0.126
  H  H93  1  0.953700  0.392900  0.479500  1.0  0.1071
  H  H94  1  0.862000  0.309200  0.945000  1.0  0.1332
  H  H95  1  0.844000  0.258500  0.033300  1.0  0.1189
  H  H96  1  0.929800  0.304400  0.704400  1.0  0.1236
  H  H97  1  0.559270  0.694130  0.259830  1.0  0.1168
  H  H98  1  0.598370  0.674430  0.898030  1.0  0.126
  H  H99  1  0.620370  0.726230  0.812830  1.0  0.1071
  H  H100  1  0.528670  0.642530  0.278330  1.0  0.1332
  H  H101  1  0.510670  0.591830  0.366630  1.0  0.1189
  H  H102  1  0.596470  0.637730  0.037730  1.0  0.1236
  H  H103  1  0.225930  0.027470  0.593170  1.0  0.1168
  H  H104  1  0.265030  0.007770  0.231370  1.0  0.126
  H  H105  1  0.287030  0.059570  0.146170  1.0  0.107
  H  H106  1  0.195330  0.975870  0.611670  1.0  0.1332
  H  H107  1  0.177330  0.925170  0.699970  1.0  0.1188
  H  H108  1  0.263130  0.971070  0.371070  1.0  0.1236
  H  H109  1  0.468200  0.107400  0.926500  1.0  0.1164
  H  H110  1  0.409400  0.068300  0.564700  1.0  0.1259
  H  H111  1  0.439200  0.046300  0.479500  1.0  0.1067
  H  H112  1  0.447200  0.138000  0.945000  1.0  0.1339
  H  H113  1  0.414500  0.156000  0.033300  1.0  0.1173
  H  H114  1  0.374600  0.070200  0.704400  1.0  0.1224
  H  H115  1  0.134870  0.440730  0.259830  1.0  0.1164
  H  H116  1  0.076070  0.401630  0.898030  1.0  0.1259
  H  H117  1  0.105870  0.379630  0.812830  1.0  0.1067
  H  H118  1  0.113870  0.471330  0.278330  1.0  0.1339
  H  H119  1  0.081170  0.489330  0.366630  1.0  0.1173
  H  H120  1  0.041270  0.403530  0.037730  1.0  0.1224
  H  H121  1  0.801530  0.774070  0.593170  1.0  0.1164
  H  H122  1  0.742730  0.734970  0.231370  1.0  0.1259
  H  H123  1  0.772530  0.712970  0.146170  1.0  0.1067
  H  H124  1  0.780530  0.804670  0.611670  1.0  0.1339
  H  H125  1  0.747830  0.822670  0.699970  1.0  0.1173
  H  H126  1  0.707930  0.736870  0.371070  1.0  0.1224
  H  H127  1  0.639200  0.531800  0.926500  1.0  0.116
  H  H128  1  0.658900  0.590600  0.564700  1.0  0.1258
  H  H129  1  0.607100  0.560800  0.479500  1.0  0.107
  H  H130  1  0.690800  0.552800  0.945000  1.0  0.1333
  H  H131  1  0.741500  0.585500  0.033300  1.0  0.1178
  H  H132  1  0.695600  0.625400  0.704400  1.0  0.1224
  H  H133  1  0.305870  0.865130  0.259830  1.0  0.116
  H  H134  1  0.325570  0.923930  0.898030  1.0  0.1258
  H  H135  1  0.273770  0.894130  0.812830  1.0  0.107
  H  H136  1  0.357470  0.886130  0.278330  1.0  0.1333
  H  H137  1  0.408170  0.918830  0.366630  1.0  0.1178
  H  H138  1  0.362270  0.958730  0.037730  1.0  0.1224
  H  H139  1  0.972530  0.198470  0.593170  1.0  0.116
  H  H140  1  0.992230  0.257270  0.231370  1.0  0.1258
  H  H141  1  0.940430  0.227470  0.146170  1.0  0.107
  H  H142  1  0.024130  0.219470  0.611670  1.0  0.1333
  H  H143  1  0.074830  0.252170  0.699970  1.0  0.1178
  H  H144  1  0.028930  0.292070  0.371070  1.0  0.1224
  C  C145  1  0.591470  0.062000  0.157400  1.0  -0.0549
  C  C146  1  0.601640  0.081040  0.289800  1.0  -0.1445
  C  C147  1  0.632740  0.094560  0.338500  1.0  -0.0304
  C  C148  1  0.654830  0.089290  0.257500  1.0  0.0128
  C  C149  1  0.644610  0.071400  0.122800  1.0  -0.134
  C  C150  1  0.613310  0.057980  0.071500  1.0  -0.1163
  C  C151  1  0.558090  0.045020  0.099300  1.0  0.712
  C  C152  1  0.687700  0.102280  0.312500  1.0  0.055
  C  C153  1  0.701850  0.128100  0.412500  1.0  -0.1385
  C  C154  1  0.732590  0.139140  0.463900  1.0  -0.0673
  C  C155  1  0.750070  0.126180  0.416400  1.0  0.0112
  C  C156  1  0.735950  0.099830  0.312600  1.0  -0.2504
  C  C157  1  0.705170  0.088140  0.267300  1.0  -0.0329
  C  C158  1  0.783210  0.140830  0.478200  1.0  0.7157
  C  C159  1  0.258140  0.395330  0.490730  1.0  -0.0548
  C  C160  1  0.268310  0.414370  0.623130  1.0  -0.1444
  C  C161  1  0.299410  0.427890  0.671830  1.0  -0.0315
  C  C162  1  0.321500  0.422620  0.590830  1.0  0.0128
  C  C163  1  0.311280  0.404730  0.456130  1.0  -0.134
  C  C164  1  0.279980  0.391310  0.404830  1.0  -0.1163
  C  C165  1  0.224760  0.378350  0.432630  1.0  0.712
  C  C166  1  0.354370  0.435610  0.645830  1.0  0.055
  C  C167  1  0.368520  0.461430  0.745830  1.0  -0.1385
  C  C168  1  0.399260  0.472470  0.797230  1.0  -0.0673
  C  C169  1  0.416740  0.459510  0.749730  1.0  0.0113
  C  C170  1  0.402620  0.433160  0.645930  1.0  -0.2504
  C  C171  1  0.371840  0.421470  0.600630  1.0  -0.0329
  C  C172  1  0.449880  0.474160  0.811530  1.0  0.7157
  C  C173  1  0.924800  0.728670  0.824070  1.0  -0.0549
  C  C174  1  0.934970  0.747710  0.956470  1.0  -0.1445
  C  C175  1  0.966070  0.761230  0.005170  1.0  -0.0304
  C  C176  1  0.988160  0.755960  0.924170  1.0  0.0128
  C  C177  1  0.977940  0.738070  0.789470  1.0  -0.134
  C  C178  1  0.946640  0.724650  0.738170  1.0  -0.1163
  C  C179  1  0.891420  0.711690  0.765970  1.0  0.712
  C  C180  1  0.021030  0.768950  0.979170  1.0  0.055
  C  C181  1  0.035180  0.794770  0.079170  1.0  -0.1385
  C  C182  1  0.065920  0.805810  0.130570  1.0  -0.0673
  C  C183  1  0.083400  0.792850  0.083070  1.0  0.0112
  C  C184  1  0.069280  0.766500  0.979270  1.0  -0.2502
  C  C185  1  0.038500  0.754810  0.933970  1.0  -0.0329
  C  C186  1  0.116540  0.807500  0.144870  1.0  0.7155
  C  C187  1  0.938000  0.529470  0.157400  1.0  -0.0578
  C  C188  1  0.918960  0.520600  0.289800  1.0  -0.1438
  C  C189  1  0.905440  0.538180  0.338500  1.0  -0.0321
  C  C190  1  0.910710  0.565540  0.257500  1.0  0.0131
  C  C191  1  0.928600  0.573210  0.122800  1.0  -0.1327
  C  C192  1  0.942020  0.555330  0.071500  1.0  -0.1165
  C  C193  1  0.954980  0.513070  0.099300  1.0  0.7115
  C  C194  1  0.897720  0.585420  0.312500  1.0  0.0525
  C  C195  1  0.871900  0.573750  0.412500  1.0  -0.1369
  C  C196  1  0.860860  0.593450  0.463900  1.0  -0.0665
  C  C197  1  0.873820  0.623890  0.416400  1.0  0.0106
  C  C198  1  0.900170  0.636120  0.312600  1.0  -0.2508
  C  C199  1  0.911860  0.617030  0.267300  1.0  -0.0356
  C  C200  1  0.859170  0.642380  0.478200  1.0  0.717
  C  C201  1  0.604670  0.862800  0.490730  1.0  -0.0578
  C  C202  1  0.585630  0.853930  0.623130  1.0  -0.1438
  C  C203  1  0.572110  0.871510  0.671830  1.0  -0.0319
  C  C204  1  0.577380  0.898870  0.590830  1.0  0.0131
  C  C205  1  0.595270  0.906540  0.456130  1.0  -0.1327
  C  C206  1  0.608690  0.888660  0.404830  1.0  -0.1165
  C  C207  1  0.621650  0.846400  0.432630  1.0  0.7115
  C  C208  1  0.564390  0.918750  0.645830  1.0  0.0525
  C  C209  1  0.538570  0.907080  0.745830  1.0  -0.1369
  C  C210  1  0.527530  0.926780  0.797230  1.0  -0.0665
  C  C211  1  0.540490  0.957220  0.749730  1.0  0.0105
  C  C212  1  0.566840  0.969450  0.645930  1.0  -0.2511
  C  C213  1  0.578530  0.950360  0.600630  1.0  -0.0356
  C  C214  1  0.525840  0.975710  0.811530  1.0  0.717
  C  C215  1  0.271330  0.196140  0.824070  1.0  -0.0578
  C  C216  1  0.252290  0.187270  0.956470  1.0  -0.1438
  C  C217  1  0.238770  0.204850  0.005170  1.0  -0.0321
  C  C218  1  0.244040  0.232210  0.924170  1.0  0.0131
  C  C219  1  0.261930  0.239880  0.789470  1.0  -0.1327
  C  C220  1  0.275350  0.222000  0.738170  1.0  -0.1165
  C  C221  1  0.288310  0.179740  0.765970  1.0  0.7115
  C  C222  1  0.231050  0.252090  0.979170  1.0  0.0525
  C  C223  1  0.205230  0.240420  0.079170  1.0  -0.1369
  C  C224  1  0.194190  0.260120  0.130570  1.0  -0.0665
  C  C225  1  0.207150  0.290560  0.083070  1.0  0.0106
  C  C226  1  0.233500  0.302790  0.979270  1.0  -0.2511
  C  C227  1  0.245190  0.283700  0.933970  1.0  -0.0355
  C  C228  1  0.192500  0.309050  0.144870  1.0  0.717
  C  C229  1  0.470530  0.408530  0.157400  1.0  -0.0581
  C  C230  1  0.479400  0.398360  0.289800  1.0  -0.1448
  C  C231  1  0.461820  0.367260  0.338500  1.0  -0.0324
  C  C232  1  0.434460  0.345170  0.257500  1.0  0.0124
  C  C233  1  0.426790  0.355390  0.122800  1.0  -0.1318
  C  C234  1  0.444670  0.386690  0.071500  1.0  -0.1167
  C  C235  1  0.486930  0.441910  0.099300  1.0  0.7131
  C  C236  1  0.414580  0.312300  0.312500  1.0  0.054
  C  C237  1  0.426250  0.298150  0.412500  1.0  -0.1357
  C  C238  1  0.406550  0.267410  0.463900  1.0  -0.0659
  C  C239  1  0.376110  0.249930  0.416400  1.0  0.0109
  C  C240  1  0.363880  0.264050  0.312600  1.0  -0.2515
  C  C241  1  0.382970  0.294830  0.267300  1.0  -0.0361
  C  C242  1  0.357620  0.216790  0.478200  1.0  0.7187
  C  C243  1  0.137200  0.741860  0.490730  1.0  -0.0581
  C  C244  1  0.146070  0.731690  0.623130  1.0  -0.1448
  C  C245  1  0.128490  0.700590  0.671830  1.0  -0.0327
  C  C246  1  0.101130  0.678500  0.590830  1.0  0.0124
  C  C247  1  0.093460  0.688720  0.456130  1.0  -0.1318
  C  C248  1  0.111340  0.720020  0.404830  1.0  -0.1167
  C  C249  1  0.153600  0.775240  0.432630  1.0  0.7132
  C  C250  1  0.081250  0.645630  0.645830  1.0  0.054
  C  C251  1  0.092920  0.631480  0.745830  1.0  -0.1357
  C  C252  1  0.073220  0.600740  0.797230  1.0  -0.0659
  C  C253  1  0.042780  0.583260  0.749730  1.0  0.0109
  C  C254  1  0.030550  0.597380  0.645930  1.0  -0.2515
  C  C255  1  0.049640  0.628160  0.600630  1.0  -0.0361
  C  C256  1  0.024290  0.550120  0.811530  1.0  0.7187
  C  C257  1  0.803860  0.075200  0.824070  1.0  -0.0581
  C  C258  1  0.812730  0.065030  0.956470  1.0  -0.1448
  C  C259  1  0.795150  0.033930  0.005170  1.0  -0.0324
  C  C260  1  0.767790  0.011840  0.924170  1.0  0.0124
  C  C261  1  0.760120  0.022060  0.789470  1.0  -0.1318
  C  C262  1  0.778000  0.053360  0.738170  1.0  -0.1167
  C  C263  1  0.820260  0.108580  0.765970  1.0  0.7131
  C  C264  1  0.747910  0.978970  0.979170  1.0  0.054
  C  C265  1  0.759580  0.964820  0.079170  1.0  -0.1357
  C  C266  1  0.739880  0.934080  0.130570  1.0  -0.0659
  C  C267  1  0.709440  0.916600  0.083070  1.0  0.0109
  C  C268  1  0.697210  0.930720  0.979270  1.0  -0.2515
  C  C269  1  0.716300  0.961500  0.933970  1.0  -0.0361
  C  C270  1  0.690950  0.883460  0.144870  1.0  0.7187
  C  C271  1  0.938000  0.408530  0.657400  1.0  -0.0578
  C  C272  1  0.918960  0.398360  0.789800  1.0  -0.1436
  C  C273  1  0.905440  0.367260  0.838500  1.0  -0.0318
  C  C274  1  0.910710  0.345170  0.757500  1.0  0.0126
  C  C275  1  0.928600  0.355390  0.622800  1.0  -0.1332
  C  C276  1  0.942020  0.386690  0.571500  1.0  -0.1166
  C  C277  1  0.954980  0.441910  0.599300  1.0  0.713
  C  C278  1  0.897720  0.312300  0.812500  1.0  0.0535
  C  C279  1  0.871900  0.298150  0.912500  1.0  -0.1362
  C  C280  1  0.860860  0.267410  0.963900  1.0  -0.0673
  C  C281  1  0.873820  0.249930  0.916400  1.0  0.0104
  C  C282  1  0.900170  0.264050  0.812600  1.0  -0.2512
  C  C283  1  0.911860  0.294830  0.767300  1.0  -0.0357
  C  C284  1  0.859170  0.216790  0.978200  1.0  0.7182
  C  C285  1  0.604670  0.741860  0.990730  1.0  -0.0578
  C  C286  1  0.585630  0.731690  0.123130  1.0  -0.1437
  C  C287  1  0.572110  0.700590  0.171830  1.0  -0.0328
  C  C288  1  0.577380  0.678500  0.090830  1.0  0.0126
  C  C289  1  0.595270  0.688720  0.956130  1.0  -0.1332
  C  C290  1  0.608690  0.720020  0.904830  1.0  -0.1166
  C  C291  1  0.621650  0.775240  0.932630  1.0  0.7129
  C  C292  1  0.564390  0.645630  0.145830  1.0  0.0535
  C  C293  1  0.538570  0.631480  0.245830  1.0  -0.1362
  C  C294  1  0.527530  0.600740  0.297230  1.0  -0.0673
  C  C295  1  0.540490  0.583260  0.249730  1.0  0.0105
  C  C296  1  0.566840  0.597380  0.145930  1.0  -0.2512
  C  C297  1  0.578530  0.628160  0.100630  1.0  -0.0357
  C  C298  1  0.525840  0.550120  0.311530  1.0  0.7182
  C  C299  1  0.271330  0.075200  0.324070  1.0  -0.0578
  C  C300  1  0.252290  0.065030  0.456470  1.0  -0.1436
  C  C301  1  0.238770  0.033930  0.505170  1.0  -0.0318
  C  C302  1  0.244040  0.011840  0.424170  1.0  0.0126
  C  C303  1  0.261930  0.022060  0.289470  1.0  -0.1332
  C  C304  1  0.275350  0.053360  0.238170  1.0  -0.1166
  C  C305  1  0.288310  0.108580  0.265970  1.0  0.7129
  C  C306  1  0.231050  0.978970  0.479170  1.0  0.0535
  C  C307  1  0.205230  0.964820  0.579170  1.0  -0.1362
  C  C308  1  0.194190  0.934080  0.630570  1.0  -0.0673
  C  C309  1  0.207150  0.916600  0.583070  1.0  0.0104
  C  C310  1  0.233500  0.930720  0.479270  1.0  -0.2509
  C  C311  1  0.245190  0.961500  0.433970  1.0  -0.0357
  C  C312  1  0.192500  0.883460  0.644870  1.0  0.7181
  C  C313  1  0.470530  0.062000  0.657400  1.0  -0.0552
  C  C314  1  0.479400  0.081040  0.789800  1.0  -0.1428
  C  C315  1  0.461820  0.094560  0.838500  1.0  -0.0308
  C  C316  1  0.434460  0.089290  0.757500  1.0  0.0131
  C  C317  1  0.426790  0.071400  0.622800  1.0  -0.1327
  C  C318  1  0.444670  0.057980  0.571500  1.0  -0.1159
  C  C319  1  0.486930  0.045020  0.599300  1.0  0.712
  C  C320  1  0.414580  0.102280  0.812500  1.0  0.0549
  C  C321  1  0.426250  0.128100  0.912500  1.0  -0.1375
  C  C322  1  0.406550  0.139140  0.963900  1.0  -0.0658
  C  C323  1  0.376110  0.126180  0.916400  1.0  0.0113
  C  C324  1  0.363880  0.099830  0.812600  1.0  -0.2519
  C  C325  1  0.382970  0.088140  0.767300  1.0  -0.0325
  C  C326  1  0.357620  0.140830  0.978200  1.0  0.7146
  C  C327  1  0.137200  0.395330  0.990730  1.0  -0.0552
  C  C328  1  0.146070  0.414370  0.123130  1.0  -0.1428
  C  C329  1  0.128490  0.427890  0.171830  1.0  -0.0305
  C  C330  1  0.101130  0.422620  0.090830  1.0  0.0131
  C  C331  1  0.093460  0.404730  0.956130  1.0  -0.1327
  C  C332  1  0.111340  0.391310  0.904830  1.0  -0.1159
  C  C333  1  0.153600  0.378350  0.932630  1.0  0.7119
  C  C334  1  0.081250  0.435610  0.145830  1.0  0.0549
  C  C335  1  0.092920  0.461430  0.245830  1.0  -0.1375
  C  C336  1  0.073220  0.472470  0.297230  1.0  -0.0658
  C  C337  1  0.042780  0.459510  0.249730  1.0  0.0112
  C  C338  1  0.030550  0.433160  0.145930  1.0  -0.2521
  C  C339  1  0.049640  0.421470  0.100630  1.0  -0.0326
  C  C340  1  0.024290  0.474160  0.311530  1.0  0.7146
  C  C341  1  0.803860  0.728670  0.324070  1.0  -0.0552
  C  C342  1  0.812730  0.747710  0.456470  1.0  -0.1428
  C  C343  1  0.795150  0.761230  0.505170  1.0  -0.0308
  C  C344  1  0.767790  0.755960  0.424170  1.0  0.0131
  C  C345  1  0.760120  0.738070  0.289470  1.0  -0.1327
  C  C346  1  0.778000  0.724650  0.238170  1.0  -0.1159
  C  C347  1  0.820260  0.711690  0.265970  1.0  0.712
  C  C348  1  0.747910  0.768950  0.479170  1.0  0.0549
  C  C349  1  0.759580  0.794770  0.579170  1.0  -0.1375
  C  C350  1  0.739880  0.805810  0.630570  1.0  -0.0658
  C  C351  1  0.709440  0.792850  0.583070  1.0  0.0113
  C  C352  1  0.697210  0.766500  0.479270  1.0  -0.2521
  C  C353  1  0.716300  0.754810  0.433970  1.0  -0.0325
  C  C354  1  0.690950  0.807500  0.644870  1.0  0.7146
  C  C355  1  0.591470  0.529470  0.657400  1.0  -0.0581
  C  C356  1  0.601640  0.520600  0.789800  1.0  -0.1436
  C  C357  1  0.632740  0.538180  0.838500  1.0  -0.0313
  C  C358  1  0.654830  0.565540  0.757500  1.0  0.0117
  C  C359  1  0.644610  0.573210  0.622800  1.0  -0.1328
  C  C360  1  0.613310  0.555330  0.571500  1.0  -0.1164
  C  C361  1  0.558090  0.513070  0.599300  1.0  0.7121
  C  C362  1  0.687700  0.585420  0.812500  1.0  0.0532
  C  C363  1  0.701850  0.573750  0.912500  1.0  -0.1373
  C  C364  1  0.732590  0.593450  0.963900  1.0  -0.0667
  C  C365  1  0.750070  0.623890  0.916400  1.0  0.0096
  C  C366  1  0.735950  0.636120  0.812600  1.0  -0.2509
  C  C367  1  0.705170  0.617030  0.767300  1.0  -0.0362
  C  C368  1  0.783210  0.642380  0.978200  1.0  0.7175
  C  C369  1  0.258140  0.862800  0.990730  1.0  -0.0581
  C  C370  1  0.268310  0.853930  0.123130  1.0  -0.1436
  C  C371  1  0.299410  0.871510  0.171830  1.0  -0.0316
  C  C372  1  0.321500  0.898870  0.090830  1.0  0.0117
  C  C373  1  0.311280  0.906540  0.956130  1.0  -0.1328
  C  C374  1  0.279980  0.888660  0.904830  1.0  -0.1164
  C  C375  1  0.224760  0.846400  0.932630  1.0  0.7122
  C  C376  1  0.354370  0.918750  0.145830  1.0  0.0533
  C  C377  1  0.368520  0.907080  0.245830  1.0  -0.1373
  C  C378  1  0.399260  0.926780  0.297230  1.0  -0.0667
  C  C379  1  0.416740  0.957220  0.249730  1.0  0.0097
  C  C380  1  0.402620  0.969450  0.145930  1.0  -0.2509
  C  C381  1  0.371840  0.950360  0.100630  1.0  -0.0362
  C  C382  1  0.449880  0.975710  0.311530  1.0  0.7175
  C  C383  1  0.924800  0.196140  0.324070  1.0  -0.0581
  C  C384  1  0.934970  0.187270  0.456470  1.0  -0.1436
  C  C385  1  0.966070  0.204850  0.505170  1.0  -0.0313
  C  C386  1  0.988160  0.232210  0.424170  1.0  0.0117
  C  C387  1  0.977940  0.239880  0.289470  1.0  -0.1328
  C  C388  1  0.946640  0.222000  0.238170  1.0  -0.1164
  C  C389  1  0.891420  0.179740  0.265970  1.0  0.7121
  C  C390  1  0.021030  0.252090  0.479170  1.0  0.0532
  C  C391  1  0.035180  0.240420  0.579170  1.0  -0.1373
  C  C392  1  0.065920  0.260120  0.630570  1.0  -0.0667
  C  C393  1  0.083400  0.290560  0.583070  1.0  0.0096
  C  C394  1  0.069280  0.302790  0.479270  1.0  -0.2509
  C  C395  1  0.038500  0.283700  0.433970  1.0  -0.0362
  C  C396  1  0.116540  0.309050  0.644870  1.0  0.7175
  S  S397  1  0.576900  0.091940  0.392340  1.0  1.3444
  S  S398  1  0.756010  0.080470  0.237010  1.0  1.3736
  S  S399  1  0.243570  0.425270  0.725670  1.0  1.3444
  S  S400  1  0.422680  0.413800  0.570340  1.0  1.3736
  S  S401  1  0.910230  0.758610  0.059010  1.0  1.3444
  S  S402  1  0.089340  0.747140  0.903680  1.0  1.3737
  S  S403  1  0.908060  0.484960  0.392340  1.0  1.3433
  S  S404  1  0.919530  0.675540  0.237010  1.0  1.3717
  S  S405  1  0.574730  0.818290  0.725670  1.0  1.3433
  S  S406  1  0.586200  0.008870  0.570340  1.0  1.3717
  S  S407  1  0.241390  0.151630  0.059010  1.0  1.3433
  S  S408  1  0.252860  0.342210  0.903680  1.0  1.3717
  S  S409  1  0.515040  0.423100  0.392340  1.0  1.3396
  S  S410  1  0.324460  0.243990  0.237010  1.0  1.3737
  S  S411  1  0.181710  0.756430  0.725670  1.0  1.3396
  S  S412  1  0.991130  0.577320  0.570340  1.0  1.3737
  S  S413  1  0.848370  0.089770  0.059010  1.0  1.3396
  S  S414  1  0.657790  0.910660  0.903680  1.0  1.3737
  S  S415  1  0.908060  0.423100  0.892340  1.0  1.3392
  S  S416  1  0.919530  0.243990  0.737010  1.0  1.3729
  S  S417  1  0.574730  0.756430  0.225670  1.0  1.3392
  S  S418  1  0.586200  0.577320  0.070340  1.0  1.3733
  S  S419  1  0.241390  0.089770  0.559010  1.0  1.3392
  S  S420  1  0.252860  0.910660  0.403680  1.0  1.3734
  S  S421  1  0.515040  0.091940  0.892340  1.0  1.3431
  S  S422  1  0.324460  0.080470  0.737010  1.0  1.3733
  S  S423  1  0.181710  0.425270  0.225670  1.0  1.3431
  S  S424  1  0.991130  0.413800  0.070340  1.0  1.3737
  S  S425  1  0.848370  0.758610  0.559010  1.0  1.3431
  S  S426  1  0.657790  0.747140  0.403680  1.0  1.3737
  S  S427  1  0.576900  0.484960  0.892340  1.0  1.3446
  S  S428  1  0.756010  0.675540  0.737010  1.0  1.3719
  S  S429  1  0.243570  0.818290  0.225670  1.0  1.3446
  S  S430  1  0.422680  0.008870  0.070340  1.0  1.3724
  S  S431  1  0.910230  0.151630  0.559010  1.0  1.3446
  S  S432  1  0.089340  0.342210  0.403680  1.0  1.3724
  O  O433  1  0.535090  0.029760  0.190600  1.0  -0.8024
  O  O434  1  0.553900  0.045540  0.954200  1.0  -0.7142
  O  O435  1  0.557230  0.064590  0.492600  1.0  -0.843
  O  O436  1  0.597920  0.119280  0.491600  1.0  -0.7016
  O  O437  1  0.558900  0.097650  0.278500  1.0  -0.6261
  O  O438  1  0.787790  0.146020  0.621000  1.0  -0.6161
  O  O439  1  0.806360  0.148480  0.383800  1.0  -0.8348
  O  O440  1  0.772020  0.075900  0.368100  1.0  -0.7456
  O  O441  1  0.777610  0.102650  0.122100  1.0  -0.7226
  O  O442  1  0.732480  0.051920  0.166700  1.0  -0.5197
  O  O443  1  0.201760  0.363090  0.523930  1.0  -0.8024
  O  O444  1  0.220570  0.378870  0.287530  1.0  -0.7142
  O  O445  1  0.223900  0.397920  0.825930  1.0  -0.8431
  O  O446  1  0.264590  0.452610  0.824930  1.0  -0.7016
  O  O447  1  0.225570  0.430980  0.611830  1.0  -0.6261
  O  O448  1  0.454460  0.479350  0.954330  1.0  -0.6161
  O  O449  1  0.473030  0.481810  0.717130  1.0  -0.8348
  O  O450  1  0.438690  0.409230  0.701430  1.0  -0.7456
  O  O451  1  0.444280  0.435980  0.455430  1.0  -0.7226
  O  O452  1  0.399150  0.385250  0.500030  1.0  -0.5197
  O  O453  1  0.868420  0.696430  0.857270  1.0  -0.8024
  O  O454  1  0.887230  0.712210  0.620870  1.0  -0.7142
  O  O455  1  0.890560  0.731260  0.159270  1.0  -0.843
  O  O456  1  0.931250  0.785950  0.158270  1.0  -0.7046
  O  O457  1  0.892230  0.764320  0.945170  1.0  -0.6261
  O  O458  1  0.121120  0.812690  0.287670  1.0  -0.6158
  O  O459  1  0.139690  0.815150  0.050470  1.0  -0.835
  O  O460  1  0.105350  0.742570  0.034770  1.0  -0.7458
  O  O461  1  0.110940  0.769320  0.788770  1.0  -0.7223
  O  O462  1  0.065810  0.718590  0.833370  1.0  -0.5197
  O  O463  1  0.970240  0.505330  0.190600  1.0  -0.7997
  O  O464  1  0.954460  0.508360  0.954200  1.0  -0.7157
  O  O465  1  0.935410  0.492640  0.492600  1.0  -0.8431
  O  O466  1  0.880720  0.478640  0.491600  1.0  -0.6978
  O  O467  1  0.902350  0.461250  0.278500  1.0  -0.6269
  O  O468  1  0.853980  0.641770  0.621000  1.0  -0.6112
  O  O469  1  0.851520  0.657880  0.383800  1.0  -0.831
  O  O470  1  0.924100  0.696120  0.368100  1.0  -0.7468
  O  O471  1  0.897350  0.674960  0.122100  1.0  -0.7215
  O  O472  1  0.948080  0.680560  0.166700  1.0  -0.5198
  O  O473  1  0.636910  0.838660  0.523930  1.0  -0.7993
  O  O474  1  0.621130  0.841690  0.287530  1.0  -0.7156
  O  O475  1  0.602080  0.825970  0.825930  1.0  -0.843
  O  O476  1  0.547390  0.811970  0.824930  1.0  -0.6978
  O  O477  1  0.569020  0.794580  0.611830  1.0  -0.6269
  O  O478  1  0.520650  0.975100  0.954330  1.0  -0.6112
  O  O479  1  0.518190  0.991210  0.717130  1.0  -0.831
  O  O480  1  0.590770  0.029450  0.701430  1.0  -0.7468
  O  O481  1  0.564020  0.008290  0.455430  1.0  -0.7215
  O  O482  1  0.614750  0.013890  0.500030  1.0  -0.5198
  O  O483  1  0.303570  0.172000  0.857270  1.0  -0.7997
  O  O484  1  0.287790  0.175030  0.620870  1.0  -0.7157
  O  O485  1  0.268740  0.159310  0.159270  1.0  -0.8431
  O  O486  1  0.214050  0.145310  0.158270  1.0  -0.6958
  O  O487  1  0.235680  0.127920  0.945170  1.0  -0.6269
  O  O488  1  0.187310  0.308440  0.287670  1.0  -0.6116
  O  O489  1  0.184850  0.324550  0.050470  1.0  -0.8309
  O  O490  1  0.257430  0.362790  0.034770  1.0  -0.7469
  O  O491  1  0.230680  0.341630  0.788770  1.0  -0.7217
  O  O492  1  0.281410  0.347230  0.833370  1.0  -0.5197
  O  O493  1  0.494670  0.464910  0.190600  1.0  -0.804
  O  O494  1  0.491640  0.446100  0.954200  1.0  -0.7136
  O  O495  1  0.507360  0.442770  0.492600  1.0  -0.8434
  O  O496  1  0.521360  0.402080  0.491600  1.0  -0.6988
  O  O497  1  0.538750  0.441100  0.278500  1.0  -0.6192
  O  O498  1  0.358230  0.212210  0.621000  1.0  -0.6158
  O  O499  1  0.342120  0.193640  0.383800  1.0  -0.8377
  O  O500  1  0.303880  0.227980  0.368100  1.0  -0.743
  O  O501  1  0.325040  0.222390  0.122100  1.0  -0.722
  O  O502  1  0.319440  0.267520  0.166700  1.0  -0.5187
  O  O503  1  0.161340  0.798240  0.523930  1.0  -0.8042
  O  O504  1  0.158310  0.779430  0.287530  1.0  -0.7132
  O  O505  1  0.174030  0.776100  0.825930  1.0  -0.8436
  O  O506  1  0.188030  0.735410  0.824930  1.0  -0.6988
  O  O507  1  0.205420  0.774430  0.611830  1.0  -0.6192
  O  O508  1  0.024900  0.545540  0.954330  1.0  -0.6158
  O  O509  1  0.008790  0.526970  0.717130  1.0  -0.8377
  O  O510  1  0.970550  0.561310  0.701430  1.0  -0.743
  O  O511  1  0.991710  0.555720  0.455430  1.0  -0.722
  O  O512  1  0.986110  0.600850  0.500030  1.0  -0.5188
  O  O513  1  0.828000  0.131580  0.857270  1.0  -0.804
  O  O514  1  0.824970  0.112770  0.620870  1.0  -0.7136
  O  O515  1  0.840690  0.109440  0.159270  1.0  -0.8434
  O  O516  1  0.854690  0.068750  0.158270  1.0  -0.7017
  O  O517  1  0.872080  0.107770  0.945170  1.0  -0.6192
  O  O518  1  0.691560  0.878880  0.287670  1.0  -0.6158
  O  O519  1  0.675450  0.860310  0.050470  1.0  -0.8377
  O  O520  1  0.637210  0.894650  0.034770  1.0  -0.7428
  O  O521  1  0.658370  0.889060  0.788770  1.0  -0.722
  O  O522  1  0.652770  0.934190  0.833370  1.0  -0.5187
  O  O523  1  0.970240  0.464910  0.690600  1.0  -0.8037
  O  O524  1  0.954460  0.446100  0.454200  1.0  -0.7139
  O  O525  1  0.935410  0.442770  0.992600  1.0  -0.8445
  O  O526  1  0.880720  0.402080  0.991600  1.0  -0.6961
  O  O527  1  0.902350  0.441100  0.778500  1.0  -0.6196
  O  O528  1  0.853980  0.212210  0.121000  1.0  -0.6146
  O  O529  1  0.851520  0.193640  0.883800  1.0  -0.8385
  O  O530  1  0.924100  0.227980  0.868100  1.0  -0.7429
  O  O531  1  0.897350  0.222390  0.622100  1.0  -0.7219
  O  O532  1  0.948080  0.267520  0.666667  1.0  -0.518
  O  O533  1  0.636910  0.798240  0.023930  1.0  -0.8037
  O  O534  1  0.621130  0.779430  0.787530  1.0  -0.7138
  O  O535  1  0.602080  0.776100  0.325930  1.0  -0.8446
  O  O536  1  0.547390  0.735410  0.324930  1.0  -0.6961
  O  O537  1  0.569020  0.774430  0.111830  1.0  -0.6196
  O  O538  1  0.520650  0.545540  0.454330  1.0  -0.6146
  O  O539  1  0.518190  0.526970  0.217130  1.0  -0.8385
  O  O540  1  0.590770  0.561310  0.201430  1.0  -0.7429
  O  O541  1  0.564020  0.555720  0.955430  1.0  -0.722
  O  O542  1  0.614750  0.600850  0.000030  1.0  -0.518
  O  O543  1  0.303570  0.131580  0.357270  1.0  -0.8037
  O  O544  1  0.287790  0.112770  0.120870  1.0  -0.7139
  O  O545  1  0.268740  0.109440  0.659270  1.0  -0.8445
  O  O546  1  0.214050  0.068750  0.658270  1.0  -0.6976
  O  O547  1  0.235680  0.107770  0.445170  1.0  -0.6196
  O  O548  1  0.187310  0.878880  0.787670  1.0  -0.6144
  O  O549  1  0.184850  0.860310  0.550470  1.0  -0.8388
  O  O550  1  0.257430  0.894650  0.534770  1.0  -0.7431
  O  O551  1  0.230680  0.889060  0.288770  1.0  -0.7217
  O  O552  1  0.281410  0.934190  0.333370  1.0  -0.5179
  O  O553  1  0.494670  0.029760  0.690600  1.0  -0.8028
  O  O554  1  0.491640  0.045540  0.454200  1.0  -0.714
  O  O555  1  0.507360  0.064590  0.992600  1.0  -0.843
  O  O556  1  0.521360  0.119280  0.991600  1.0  -0.7012
  O  O557  1  0.538750  0.097650  0.778500  1.0  -0.6257
  O  O558  1  0.358230  0.146020  0.121000  1.0  -0.6157
  O  O559  1  0.342120  0.148480  0.883800  1.0  -0.834
  O  O560  1  0.303880  0.075900  0.868100  1.0  -0.7455
  O  O561  1  0.325040  0.102650  0.622100  1.0  -0.723
  O  O562  1  0.319440  0.051920  0.666667  1.0  -0.5179
  O  O563  1  0.161340  0.363090  0.023930  1.0  -0.8024
  O  O564  1  0.158310  0.378870  0.787530  1.0  -0.7139
  O  O565  1  0.174030  0.397920  0.325930  1.0  -0.8429
  O  O566  1  0.188030  0.452610  0.324930  1.0  -0.7012
  O  O567  1  0.205420  0.430980  0.111830  1.0  -0.6257
  O  O568  1  0.024900  0.479350  0.454330  1.0  -0.6157
  O  O569  1  0.008790  0.481810  0.217130  1.0  -0.834
  O  O570  1  0.970550  0.409230  0.201430  1.0  -0.7455
  O  O571  1  0.991710  0.435980  0.955430  1.0  -0.723
  O  O572  1  0.986110  0.385250  0.000030  1.0  -0.5179
  O  O573  1  0.828000  0.696430  0.357270  1.0  -0.8028
  O  O574  1  0.824970  0.712210  0.120870  1.0  -0.714
  O  O575  1  0.840690  0.731260  0.659270  1.0  -0.843
  O  O576  1  0.854690  0.785950  0.658270  1.0  -0.6991
  O  O577  1  0.872080  0.764320  0.445170  1.0  -0.6257
  O  O578  1  0.691560  0.812690  0.787670  1.0  -0.6159
  O  O579  1  0.675450  0.815150  0.550470  1.0  -0.8338
  O  O580  1  0.637210  0.742570  0.534770  1.0  -0.7456
  O  O581  1  0.658370  0.769320  0.288770  1.0  -0.7231
  O  O582  1  0.652770  0.718590  0.333370  1.0  -0.5179
  O  O583  1  0.535090  0.505330  0.690600  1.0  -0.799
  O  O584  1  0.553900  0.508360  0.454200  1.0  -0.715
  O  O585  1  0.557230  0.492640  0.992600  1.0  -0.8425
  O  O586  1  0.597920  0.478640  0.991600  1.0  -0.7002
  O  O587  1  0.558900  0.461250  0.778500  1.0  -0.6278
  O  O588  1  0.787790  0.641770  0.121000  1.0  -0.6111
  O  O589  1  0.806360  0.657880  0.883800  1.0  -0.8306
  O  O590  1  0.772020  0.696120  0.868100  1.0  -0.7465
  O  O591  1  0.777610  0.674960  0.622100  1.0  -0.7215
  O  O592  1  0.732480  0.680560  0.666667  1.0  -0.5197
  O  O593  1  0.201760  0.838660  0.023930  1.0  -0.7992
  O  O594  1  0.220570  0.841690  0.787530  1.0  -0.7145
  O  O595  1  0.223900  0.825970  0.325930  1.0  -0.8426
  O  O596  1  0.264590  0.811970  0.324930  1.0  -0.7002
  O  O597  1  0.225570  0.794580  0.111830  1.0  -0.6278
  O  O598  1  0.454460  0.975100  0.454330  1.0  -0.6111
  O  O599  1  0.473030  0.991210  0.217130  1.0  -0.8306
  O  O600  1  0.438690  0.029450  0.201430  1.0  -0.7465
  O  O601  1  0.444280  0.008290  0.955430  1.0  -0.7214
  O  O602  1  0.399150  0.013890  0.000030  1.0  -0.5198
  O  O603  1  0.868420  0.172000  0.357270  1.0  -0.799
  O  O604  1  0.887230  0.175030  0.120870  1.0  -0.715
  O  O605  1  0.890560  0.159310  0.659270  1.0  -0.8425
  O  O606  1  0.931250  0.145310  0.658270  1.0  -0.7038
  O  O607  1  0.892230  0.127920  0.445170  1.0  -0.6278
  O  O608  1  0.121120  0.308440  0.787670  1.0  -0.6111
  O  O609  1  0.139690  0.324550  0.550470  1.0  -0.8305
  O  O610  1  0.105350  0.362790  0.534770  1.0  -0.7464
  O  O611  1  0.110940  0.341630  0.288770  1.0  -0.7214
  O  O612  1  0.065810  0.347230  0.333370  1.0  -0.5197
