# generated using pymatgen
data_KEuH6C14(SO5)2
_symmetry_space_group_name_H-M   'P 1'
_cell_length_a   48.79990000
_cell_length_b   48.79990000
_cell_length_c   8.45290000
_cell_angle_alpha   90.00000000
_cell_angle_beta   90.00000000
_cell_angle_gamma   120.00000000
_symmetry_Int_Tables_number   1
_chemical_formula_structural   KEuH6C14(SO5)2
_chemical_formula_sum   'K18 Eu18 H108 C252 S36 O180'
_cell_volume   17433.08416920
_cell_formula_units_Z   18
loop_
 _symmetry_equiv_pos_site_id
 _symmetry_equiv_pos_as_xyz
  1  'x, y, z'
loop_
 _atom_site_type_symbol
 _atom_site_label
 _atom_site_symmetry_multiplicity
 _atom_site_fract_x
 _atom_site_fract_y
 _atom_site_fract_z
 _atom_site_occupancy
 _atom_site_charge
  K  K1  1  0.827060  0.074450  0.431580  1.0  0.9385
  K  K2  1  0.493730  0.407780  0.764910  1.0  0.9394
  K  K3  1  0.160390  0.741120  0.098250  1.0  0.9385
  K  K4  1  0.925550  0.752610  0.431580  1.0  0.9385
  K  K5  1  0.592220  0.085940  0.764910  1.0  0.9376
  K  K6  1  0.258880  0.419280  0.098250  1.0  0.9385
  K  K7  1  0.247390  0.172940  0.431580  1.0  0.9369
  K  K8  1  0.914060  0.506270  0.764910  1.0  0.9369
  K  K9  1  0.580720  0.839610  0.098250  1.0  0.9369
  K  K10  1  0.925550  0.172940  0.931580  1.0  0.9393
  K  K11  1  0.592220  0.506270  0.264910  1.0  0.9403
  K  K12  1  0.258880  0.839610  0.598250  1.0  0.9393
  K  K13  1  0.247390  0.074450  0.931580  1.0  0.9387
  K  K14  1  0.914060  0.407780  0.264910  1.0  0.9378
  K  K15  1  0.580720  0.741120  0.598250  1.0  0.9387
  K  K16  1  0.827060  0.752610  0.931580  1.0  0.9363
  K  K17  1  0.493730  0.085940  0.264910  1.0  0.9363
  K  K18  1  0.160390  0.419280  0.598250  1.0  0.9363
  Eu  Eu19  1  0.827650  0.152980  0.118090  1.0  2.149
  Eu  Eu20  1  0.494320  0.486310  0.451420  1.0  2.149
  Eu  Eu21  1  0.160980  0.819650  0.784760  1.0  2.149
  Eu  Eu22  1  0.847020  0.674670  0.118090  1.0  2.1502
  Eu  Eu23  1  0.513690  0.008000  0.451420  1.0  2.1505
  Eu  Eu24  1  0.180350  0.341340  0.784760  1.0  2.1502
  Eu  Eu25  1  0.325330  0.172350  0.118090  1.0  2.1489
  Eu  Eu26  1  0.992000  0.505680  0.451420  1.0  2.149
  Eu  Eu27  1  0.658660  0.839020  0.784760  1.0  2.1489
  Eu  Eu28  1  0.847020  0.172350  0.618090  1.0  2.1488
  Eu  Eu29  1  0.513690  0.505680  0.951420  1.0  2.1488
  Eu  Eu30  1  0.180350  0.839020  0.284760  1.0  2.1488
  Eu  Eu31  1  0.325330  0.152980  0.618090  1.0  2.1492
  Eu  Eu32  1  0.992000  0.486310  0.951420  1.0  2.1495
  Eu  Eu33  1  0.658660  0.819650  0.284760  1.0  2.1492
  Eu  Eu34  1  0.827650  0.674670  0.618090  1.0  2.1504
  Eu  Eu35  1  0.494320  0.008000  0.951420  1.0  2.1506
  Eu  Eu36  1  0.160980  0.341340  0.284760  1.0  2.1504
  H  H37  1  0.801300  0.028300  0.093800  1.0  0.1162
  H  H38  1  0.743400  0.008800  0.731100  1.0  0.1252
  H  H39  1  0.770800  0.061400  0.651500  1.0  0.1121
  H  H40  1  0.781800  0.976500  0.105400  1.0  0.1274
  H  H41  1  0.749300  0.927000  0.203900  1.0  0.1228
  H  H42  1  0.708100  0.971400  0.870900  1.0  0.1201
  H  H43  1  0.467970  0.361630  0.427130  1.0  0.1162
  H  H44  1  0.410070  0.342130  0.064430  1.0  0.1252
  H  H45  1  0.437470  0.394730  0.984830  1.0  0.1122
  H  H46  1  0.448470  0.309830  0.438730  1.0  0.1274
  H  H47  1  0.415970  0.260330  0.537230  1.0  0.1228
  H  H48  1  0.374770  0.304730  0.204230  1.0  0.1201
  H  H49  1  0.134630  0.694970  0.760470  1.0  0.1162
  H  H50  1  0.076730  0.675470  0.397770  1.0  0.1252
  H  H51  1  0.104130  0.728070  0.318170  1.0  0.1121
  H  H52  1  0.115130  0.643170  0.772070  1.0  0.1274
  H  H53  1  0.082630  0.593670  0.870570  1.0  0.1228
  H  H54  1  0.041430  0.638070  0.537570  1.0  0.1202
  H  H55  1  0.971700  0.773000  0.093800  1.0  0.1169
  H  H56  1  0.991200  0.734600  0.731100  1.0  0.1249
  H  H57  1  0.938600  0.709400  0.651500  1.0  0.112
  H  H58  1  0.023500  0.805300  0.105400  1.0  0.1277
  H  H59  1  0.073000  0.822300  0.203900  1.0  0.1216
  H  H60  1  0.028600  0.736700  0.870900  1.0  0.1198
  H  H61  1  0.638370  0.106330  0.427130  1.0  0.1169
  H  H62  1  0.657870  0.067930  0.064430  1.0  0.1249
  H  H63  1  0.605270  0.042730  0.984830  1.0  0.1119
  H  H64  1  0.690170  0.138630  0.438730  1.0  0.1277
  H  H65  1  0.739670  0.155630  0.537230  1.0  0.1216
  H  H66  1  0.695270  0.070030  0.204230  1.0  0.1198
  H  H67  1  0.305030  0.439670  0.760470  1.0  0.1169
  H  H68  1  0.324530  0.401270  0.397770  1.0  0.125
  H  H69  1  0.271930  0.376070  0.318170  1.0  0.112
  H  H70  1  0.356830  0.471970  0.772070  1.0  0.1277
  H  H71  1  0.406330  0.488970  0.870570  1.0  0.1216
  H  H72  1  0.361930  0.403370  0.537570  1.0  0.1196
  H  H73  1  0.227000  0.198700  0.093800  1.0  0.117
  H  H74  1  0.265400  0.256600  0.731100  1.0  0.1252
  H  H75  1  0.290600  0.229200  0.651500  1.0  0.1124
  H  H76  1  0.194700  0.218200  0.105400  1.0  0.1272
  H  H77  1  0.177700  0.250700  0.203900  1.0  0.1218
  H  H78  1  0.263300  0.291900  0.870900  1.0  0.1189
  H  H79  1  0.893670  0.532030  0.427130  1.0  0.117
  H  H80  1  0.932070  0.589930  0.064430  1.0  0.1252
  H  H81  1  0.957270  0.562530  0.984830  1.0  0.1123
  H  H82  1  0.861370  0.551530  0.438730  1.0  0.1272
  H  H83  1  0.844370  0.584030  0.537230  1.0  0.1218
  H  H84  1  0.929970  0.625230  0.204230  1.0  0.1189
  H  H85  1  0.560330  0.865370  0.760470  1.0  0.117
  H  H86  1  0.598730  0.923270  0.397770  1.0  0.1251
  H  H87  1  0.623930  0.895870  0.318170  1.0  0.1124
  H  H88  1  0.528030  0.884870  0.772070  1.0  0.1272
  H  H89  1  0.511030  0.917370  0.870570  1.0  0.1218
  H  H90  1  0.596630  0.958570  0.537570  1.0  0.119
  H  H91  1  0.971700  0.198700  0.593800  1.0  0.1159
  H  H92  1  0.991200  0.256600  0.231100  1.0  0.1253
  H  H93  1  0.938600  0.229200  0.151500  1.0  0.1125
  H  H94  1  0.023500  0.218200  0.605400  1.0  0.1273
  H  H95  1  0.073000  0.250700  0.703900  1.0  0.1217
  H  H96  1  0.028600  0.291900  0.370900  1.0  0.1197
  H  H97  1  0.638370  0.532030  0.927130  1.0  0.1159
  H  H98  1  0.657870  0.589930  0.564430  1.0  0.1253
  H  H99  1  0.605270  0.562530  0.484830  1.0  0.1126
  H  H100  1  0.690170  0.551530  0.938730  1.0  0.1273
  H  H101  1  0.739670  0.584030  0.037230  1.0  0.1217
  H  H102  1  0.695270  0.625230  0.704230  1.0  0.1197
  H  H103  1  0.305030  0.865370  0.260470  1.0  0.1159
  H  H104  1  0.324530  0.923270  0.897770  1.0  0.1253
  H  H105  1  0.271930  0.895870  0.818170  1.0  0.1125
  H  H106  1  0.356830  0.884870  0.272070  1.0  0.1273
  H  H107  1  0.406330  0.917370  0.370570  1.0  0.1217
  H  H108  1  0.361930  0.958570  0.037570  1.0  0.1198
  H  H109  1  0.227000  0.028300  0.593800  1.0  0.1175
  H  H110  1  0.265400  0.008800  0.231100  1.0  0.1251
  H  H111  1  0.290600  0.061400  0.151500  1.0  0.1127
  H  H112  1  0.194700  0.976500  0.605400  1.0  0.1274
  H  H113  1  0.177700  0.927000  0.703900  1.0  0.1226
  H  H114  1  0.263300  0.971400  0.370900  1.0  0.1197
  H  H115  1  0.893670  0.361630  0.927130  1.0  0.1175
  H  H116  1  0.932070  0.342130  0.564430  1.0  0.1251
  H  H117  1  0.957270  0.394730  0.484830  1.0  0.1126
  H  H118  1  0.861370  0.309830  0.938730  1.0  0.1274
  H  H119  1  0.844370  0.260330  0.037230  1.0  0.1226
  H  H120  1  0.929970  0.304730  0.704230  1.0  0.1197
  H  H121  1  0.560330  0.694970  0.260470  1.0  0.1175
  H  H122  1  0.598730  0.675470  0.897770  1.0  0.1251
  H  H123  1  0.623930  0.728070  0.818170  1.0  0.1127
  H  H124  1  0.528030  0.643170  0.272070  1.0  0.1274
  H  H125  1  0.511030  0.593670  0.370570  1.0  0.1226
  H  H126  1  0.596630  0.638070  0.037570  1.0  0.1194
  H  H127  1  0.801300  0.773000  0.593800  1.0  0.1166
  H  H128  1  0.743400  0.734600  0.231100  1.0  0.125
  H  H129  1  0.770800  0.709400  0.151500  1.0  0.1117
  H  H130  1  0.781800  0.805300  0.605400  1.0  0.1278
  H  H131  1  0.749300  0.822300  0.703900  1.0  0.1217
  H  H132  1  0.708100  0.736700  0.370900  1.0  0.1202
  H  H133  1  0.467970  0.106330  0.927130  1.0  0.1166
  H  H134  1  0.410070  0.067930  0.564430  1.0  0.125
  H  H135  1  0.437470  0.042730  0.484830  1.0  0.1116
  H  H136  1  0.448470  0.138630  0.938730  1.0  0.1278
  H  H137  1  0.415970  0.155630  0.037230  1.0  0.1217
  H  H138  1  0.374770  0.070030  0.704230  1.0  0.1202
  H  H139  1  0.134630  0.439670  0.260470  1.0  0.1166
  H  H140  1  0.076730  0.401270  0.897770  1.0  0.125
  H  H141  1  0.104130  0.376070  0.818170  1.0  0.1117
  H  H142  1  0.115130  0.471970  0.272070  1.0  0.1278
  H  H143  1  0.082630  0.488970  0.370570  1.0  0.1217
  H  H144  1  0.041430  0.403370  0.037570  1.0  0.1202
  C  C145  1  0.803210  0.076940  0.826700  1.0  -0.0711
  C  C146  1  0.812530  0.066260  0.956900  1.0  -0.1863
  C  C147  1  0.794870  0.034900  0.005200  1.0  -0.0094
  C  C148  1  0.768180  0.013470  0.925100  1.0  0.0272
  C  C149  1  0.760370  0.023430  0.791400  1.0  -0.147
  C  C150  1  0.777180  0.055110  0.741600  1.0  -0.1363
  C  C151  1  0.819490  0.110270  0.764800  1.0  0.7089
  C  C152  1  0.748420  0.980500  0.980400  1.0  0.0713
  C  C153  1  0.760540  0.965670  0.077300  1.0  -0.1338
  C  C154  1  0.741360  0.935460  0.130900  1.0  -0.0586
  C  C155  1  0.710390  0.917210  0.079100  1.0  -0.0469
  C  C156  1  0.698220  0.930200  0.979500  1.0  -0.161
  C  C157  1  0.717060  0.962250  0.933900  1.0  -0.0555
  C  C158  1  0.691840  0.883280  0.140000  1.0  0.7035
  C  C159  1  0.469880  0.410270  0.160030  1.0  -0.071
  C  C160  1  0.479200  0.399590  0.290230  1.0  -0.1863
  C  C161  1  0.461540  0.368230  0.338530  1.0  -0.0091
  C  C162  1  0.434850  0.346800  0.258430  1.0  0.0273
  C  C163  1  0.427040  0.356760  0.124730  1.0  -0.147
  C  C164  1  0.443850  0.388440  0.074930  1.0  -0.1361
  C  C165  1  0.486160  0.443600  0.098130  1.0  0.7089
  C  C166  1  0.415090  0.313830  0.313730  1.0  0.0713
  C  C167  1  0.427210  0.299000  0.410630  1.0  -0.1339
  C  C168  1  0.408030  0.268790  0.464230  1.0  -0.0586
  C  C169  1  0.377060  0.250540  0.412430  1.0  -0.0469
  C  C170  1  0.364890  0.263530  0.312830  1.0  -0.161
  C  C171  1  0.383730  0.295580  0.267230  1.0  -0.0555
  C  C172  1  0.358510  0.216610  0.473330  1.0  0.7035
  C  C173  1  0.136540  0.743610  0.493370  1.0  -0.0711
  C  C174  1  0.145860  0.732930  0.623570  1.0  -0.1863
  C  C175  1  0.128200  0.701570  0.671870  1.0  -0.0094
  C  C176  1  0.101510  0.680140  0.591770  1.0  0.0272
  C  C177  1  0.093700  0.690100  0.458070  1.0  -0.147
  C  C178  1  0.110510  0.721780  0.408270  1.0  -0.1363
  C  C179  1  0.152820  0.776940  0.431470  1.0  0.7089
  C  C180  1  0.081750  0.647170  0.647070  1.0  0.0713
  C  C181  1  0.093870  0.632340  0.743970  1.0  -0.1338
  C  C182  1  0.074690  0.602130  0.797570  1.0  -0.0586
  C  C183  1  0.043720  0.583880  0.745770  1.0  -0.0469
  C  C184  1  0.031550  0.596870  0.646170  1.0  -0.161
  C  C185  1  0.050390  0.628920  0.600570  1.0  -0.0555
  C  C186  1  0.025170  0.549950  0.806670  1.0  0.7034
  C  C187  1  0.923060  0.726270  0.826700  1.0  -0.0697
  C  C188  1  0.933740  0.746270  0.956900  1.0  -0.1869
  C  C189  1  0.965100  0.759970  0.005200  1.0  -0.0073
  C  C190  1  0.986530  0.754710  0.925100  1.0  0.0276
  C  C191  1  0.976570  0.736940  0.791400  1.0  -0.1483
  C  C192  1  0.944890  0.722070  0.741600  1.0  -0.1355
  C  C193  1  0.889730  0.709220  0.764800  1.0  0.7064
  C  C194  1  0.019500  0.767920  0.980400  1.0  0.0729
  C  C195  1  0.034330  0.794870  0.077300  1.0  -0.1369
  C  C196  1  0.064540  0.805900  0.130900  1.0  -0.0597
  C  C197  1  0.082790  0.793180  0.079100  1.0  -0.0467
  C  C198  1  0.069800  0.768020  0.979500  1.0  -0.1581
  C  C199  1  0.037750  0.754810  0.933900  1.0  -0.0536
  C  C200  1  0.116720  0.808560  0.140000  1.0  0.702
  C  C201  1  0.589730  0.059600  0.160030  1.0  -0.0697
  C  C202  1  0.600410  0.079600  0.290230  1.0  -0.1869
  C  C203  1  0.631770  0.093300  0.338530  1.0  -0.0076
  C  C204  1  0.653200  0.088040  0.258430  1.0  0.0276
  C  C205  1  0.643240  0.070270  0.124730  1.0  -0.1483
  C  C206  1  0.611560  0.055400  0.074930  1.0  -0.1355
  C  C207  1  0.556400  0.042550  0.098130  1.0  0.7064
  C  C208  1  0.686170  0.101250  0.313730  1.0  0.0729
  C  C209  1  0.701000  0.128200  0.410630  1.0  -0.1369
  C  C210  1  0.731210  0.139230  0.464230  1.0  -0.0597
  C  C211  1  0.749460  0.126510  0.412430  1.0  -0.0467
  C  C212  1  0.736470  0.101350  0.312830  1.0  -0.1581
  C  C213  1  0.704420  0.088140  0.267230  1.0  -0.0536
  C  C214  1  0.783390  0.141890  0.473330  1.0  0.702
  C  C215  1  0.256390  0.392940  0.493370  1.0  -0.0697
  C  C216  1  0.267070  0.412940  0.623570  1.0  -0.1869
  C  C217  1  0.298430  0.426640  0.671870  1.0  -0.0073
  C  C218  1  0.319860  0.421380  0.591770  1.0  0.0276
  C  C219  1  0.309900  0.403610  0.458070  1.0  -0.1483
  C  C220  1  0.278220  0.388740  0.408270  1.0  -0.1355
  C  C221  1  0.223060  0.375890  0.431470  1.0  0.7064
  C  C222  1  0.352830  0.434590  0.647070  1.0  0.0729
  C  C223  1  0.367660  0.461540  0.743970  1.0  -0.1369
  C  C224  1  0.397870  0.472570  0.797570  1.0  -0.0597
  C  C225  1  0.416120  0.459850  0.745770  1.0  -0.0465
  C  C226  1  0.403130  0.434690  0.646170  1.0  -0.1582
  C  C227  1  0.371080  0.421480  0.600570  1.0  -0.0536
  C  C228  1  0.450050  0.475230  0.806670  1.0  0.7021
  C  C229  1  0.273730  0.196790  0.826700  1.0  -0.0716
  C  C230  1  0.253730  0.187470  0.956900  1.0  -0.1864
  C  C231  1  0.240030  0.205130  0.005200  1.0  -0.009
  C  C232  1  0.245290  0.231820  0.925100  1.0  0.0268
  C  C233  1  0.263060  0.239630  0.791400  1.0  -0.1475
  C  C234  1  0.277930  0.222820  0.741600  1.0  -0.1362
  C  C235  1  0.290780  0.180510  0.764800  1.0  0.7074
  C  C236  1  0.232080  0.251580  0.980400  1.0  0.0706
  C  C237  1  0.205130  0.239460  0.077300  1.0  -0.1359
  C  C238  1  0.194100  0.258640  0.130900  1.0  -0.0599
  C  C239  1  0.206820  0.289610  0.079100  1.0  -0.0469
  C  C240  1  0.231980  0.301780  0.979500  1.0  -0.1599
  C  C241  1  0.245190  0.282940  0.933900  1.0  -0.0557
  C  C242  1  0.191440  0.308160  0.140000  1.0  0.7029
  C  C243  1  0.940400  0.530120  0.160030  1.0  -0.0716
  C  C244  1  0.920400  0.520800  0.290230  1.0  -0.1864
  C  C245  1  0.906700  0.538460  0.338530  1.0  -0.0092
  C  C246  1  0.911960  0.565150  0.258430  1.0  0.0267
  C  C247  1  0.929730  0.572960  0.124730  1.0  -0.1475
  C  C248  1  0.944600  0.556150  0.074930  1.0  -0.1363
  C  C249  1  0.957450  0.513840  0.098130  1.0  0.7074
  C  C250  1  0.898750  0.584910  0.313730  1.0  0.0706
  C  C251  1  0.871800  0.572790  0.410630  1.0  -0.1358
  C  C252  1  0.860770  0.591970  0.464230  1.0  -0.0599
  C  C253  1  0.873490  0.622940  0.412430  1.0  -0.0469
  C  C254  1  0.898650  0.635110  0.312830  1.0  -0.1599
  C  C255  1  0.911860  0.616270  0.267230  1.0  -0.0558
  C  C256  1  0.858110  0.641490  0.473330  1.0  0.7029
  C  C257  1  0.607060  0.863460  0.493370  1.0  -0.0716
  C  C258  1  0.587060  0.854140  0.623570  1.0  -0.1864
  C  C259  1  0.573360  0.871800  0.671870  1.0  -0.009
  C  C260  1  0.578620  0.898490  0.591770  1.0  0.0268
  C  C261  1  0.596390  0.906300  0.458070  1.0  -0.1475
  C  C262  1  0.611260  0.889490  0.408270  1.0  -0.1362
  C  C263  1  0.624110  0.847180  0.431470  1.0  0.7074
  C  C264  1  0.565410  0.918250  0.647070  1.0  0.0706
  C  C265  1  0.538460  0.906130  0.743970  1.0  -0.1359
  C  C266  1  0.527430  0.925310  0.797570  1.0  -0.0599
  C  C267  1  0.540150  0.956280  0.745770  1.0  -0.0469
  C  C268  1  0.565310  0.968450  0.646170  1.0  -0.1599
  C  C269  1  0.578520  0.949610  0.600570  1.0  -0.0558
  C  C270  1  0.524770  0.974830  0.806670  1.0  0.7029
  C  C271  1  0.923060  0.196790  0.326700  1.0  -0.0718
  C  C272  1  0.933740  0.187470  0.456900  1.0  -0.1868
  C  C273  1  0.965100  0.205130  0.505200  1.0  -0.0094
  C  C274  1  0.986530  0.231820  0.425100  1.0  0.0268
  C  C275  1  0.976570  0.239630  0.291400  1.0  -0.1484
  C  C276  1  0.944890  0.222820  0.241600  1.0  -0.1356
  C  C277  1  0.889730  0.180510  0.264800  1.0  0.7064
  C  C278  1  0.019500  0.251580  0.480400  1.0  0.0709
  C  C279  1  0.034330  0.239460  0.577300  1.0  -0.1365
  C  C280  1  0.064540  0.258640  0.630900  1.0  -0.0598
  C  C281  1  0.082790  0.289610  0.579100  1.0  -0.0477
  C  C282  1  0.069800  0.301780  0.479500  1.0  -0.1598
  C  C283  1  0.037750  0.282940  0.433900  1.0  -0.056
  C  C284  1  0.116720  0.308160  0.640000  1.0  0.7027
  C  C285  1  0.589730  0.530120  0.660030  1.0  -0.0718
  C  C286  1  0.600410  0.520800  0.790230  1.0  -0.1868
  C  C287  1  0.631770  0.538460  0.838530  1.0  -0.0092
  C  C288  1  0.653200  0.565150  0.758430  1.0  0.027
  C  C289  1  0.643240  0.572960  0.624730  1.0  -0.1484
  C  C290  1  0.611560  0.556150  0.574930  1.0  -0.1354
  C  C291  1  0.556400  0.513840  0.598130  1.0  0.7064
  C  C292  1  0.686170  0.584910  0.813730  1.0  0.0709
  C  C293  1  0.701000  0.572790  0.910630  1.0  -0.1366
  C  C294  1  0.731210  0.591970  0.964230  1.0  -0.0598
  C  C295  1  0.749460  0.622940  0.912430  1.0  -0.0477
  C  C296  1  0.736470  0.635110  0.812830  1.0  -0.1598
  C  C297  1  0.704420  0.616270  0.767230  1.0  -0.056
  C  C298  1  0.783390  0.641490  0.973330  1.0  0.7027
  C  C299  1  0.256390  0.863460  0.993370  1.0  -0.0718
  C  C300  1  0.267070  0.854140  0.123570  1.0  -0.1868
  C  C301  1  0.298430  0.871800  0.171870  1.0  -0.0094
  C  C302  1  0.319860  0.898490  0.091770  1.0  0.0268
  C  C303  1  0.309900  0.906300  0.958070  1.0  -0.1484
  C  C304  1  0.278220  0.889490  0.908270  1.0  -0.1356
  C  C305  1  0.223060  0.847180  0.931470  1.0  0.7064
  C  C306  1  0.352830  0.918250  0.147070  1.0  0.0709
  C  C307  1  0.367660  0.906130  0.243970  1.0  -0.1365
  C  C308  1  0.397870  0.925310  0.297570  1.0  -0.0598
  C  C309  1  0.416120  0.956280  0.245770  1.0  -0.0477
  C  C310  1  0.403130  0.968450  0.146170  1.0  -0.1598
  C  C311  1  0.371080  0.949610  0.100570  1.0  -0.056
  C  C312  1  0.450050  0.974830  0.306670  1.0  0.7026
  C  C313  1  0.273730  0.076940  0.326700  1.0  -0.0706
  C  C314  1  0.253730  0.066260  0.456900  1.0  -0.1844
  C  C315  1  0.240030  0.034900  0.505200  1.0  -0.0087
  C  C316  1  0.245290  0.013470  0.425100  1.0  0.026
  C  C317  1  0.263060  0.023430  0.291400  1.0  -0.1487
  C  C318  1  0.277930  0.055110  0.241600  1.0  -0.1373
  C  C319  1  0.290780  0.110270  0.264800  1.0  0.7089
  C  C320  1  0.232080  0.980500  0.480400  1.0  0.0713
  C  C321  1  0.205130  0.965670  0.577300  1.0  -0.1341
  C  C322  1  0.194100  0.935460  0.630900  1.0  -0.0599
  C  C323  1  0.206820  0.917210  0.579100  1.0  -0.0473
  C  C324  1  0.231980  0.930200  0.479500  1.0  -0.1604
  C  C325  1  0.245190  0.962250  0.433900  1.0  -0.0554
  C  C326  1  0.191440  0.883280  0.640000  1.0  0.7042
  C  C327  1  0.940400  0.410270  0.660030  1.0  -0.0706
  C  C328  1  0.920400  0.399590  0.790230  1.0  -0.1844
  C  C329  1  0.906700  0.368230  0.838530  1.0  -0.009
  C  C330  1  0.911960  0.346800  0.758430  1.0  0.026
  C  C331  1  0.929730  0.356760  0.624730  1.0  -0.1487
  C  C332  1  0.944600  0.388440  0.574930  1.0  -0.1373
  C  C333  1  0.957450  0.443600  0.598130  1.0  0.7089
  C  C334  1  0.898750  0.313830  0.813730  1.0  0.0713
  C  C335  1  0.871800  0.299000  0.910630  1.0  -0.1341
  C  C336  1  0.860770  0.268790  0.964230  1.0  -0.0599
  C  C337  1  0.873490  0.250540  0.912430  1.0  -0.0473
  C  C338  1  0.898650  0.263530  0.812830  1.0  -0.1604
  C  C339  1  0.911860  0.295580  0.767230  1.0  -0.0554
  C  C340  1  0.858110  0.216610  0.973330  1.0  0.7042
  C  C341  1  0.607060  0.743610  0.993370  1.0  -0.0706
  C  C342  1  0.587060  0.732930  0.123570  1.0  -0.1844
  C  C343  1  0.573360  0.701570  0.171870  1.0  -0.0087
  C  C344  1  0.578620  0.680140  0.091770  1.0  0.026
  C  C345  1  0.596390  0.690100  0.958070  1.0  -0.1487
  C  C346  1  0.611260  0.721780  0.908270  1.0  -0.1373
  C  C347  1  0.624110  0.776940  0.931470  1.0  0.7089
  C  C348  1  0.565410  0.647170  0.147070  1.0  0.0713
  C  C349  1  0.538460  0.632340  0.243970  1.0  -0.1341
  C  C350  1  0.527430  0.602130  0.297570  1.0  -0.0599
  C  C351  1  0.540150  0.583880  0.245770  1.0  -0.0472
  C  C352  1  0.565310  0.596870  0.146170  1.0  -0.1605
  C  C353  1  0.578520  0.628920  0.100570  1.0  -0.0554
  C  C354  1  0.524770  0.549950  0.306670  1.0  0.7043
  C  C355  1  0.803210  0.726270  0.326700  1.0  -0.0689
  C  C356  1  0.812530  0.746270  0.456900  1.0  -0.186
  C  C357  1  0.794870  0.759970  0.505200  1.0  -0.0075
  C  C358  1  0.768180  0.754710  0.425100  1.0  0.0271
  C  C359  1  0.760370  0.736940  0.291400  1.0  -0.1464
  C  C360  1  0.777180  0.722070  0.241600  1.0  -0.1355
  C  C361  1  0.819490  0.709220  0.264800  1.0  0.707
  C  C362  1  0.748420  0.767920  0.480400  1.0  0.0725
  C  C363  1  0.760540  0.794870  0.577300  1.0  -0.1363
  C  C364  1  0.741360  0.805900  0.630900  1.0  -0.0579
  C  C365  1  0.710390  0.793180  0.579100  1.0  -0.0453
  C  C366  1  0.698220  0.768020  0.479500  1.0  -0.1613
  C  C367  1  0.717060  0.754810  0.433900  1.0  -0.0532
  C  C368  1  0.691840  0.808560  0.640000  1.0  0.7001
  C  C369  1  0.469880  0.059600  0.660030  1.0  -0.0689
  C  C370  1  0.479200  0.079600  0.790230  1.0  -0.186
  C  C371  1  0.461540  0.093300  0.838530  1.0  -0.0077
  C  C372  1  0.434850  0.088040  0.758430  1.0  0.0269
  C  C373  1  0.427040  0.070270  0.624730  1.0  -0.1464
  C  C374  1  0.443850  0.055400  0.574930  1.0  -0.1357
  C  C375  1  0.486160  0.042550  0.598130  1.0  0.707
  C  C376  1  0.415090  0.101250  0.813730  1.0  0.0725
  C  C377  1  0.427210  0.128200  0.910630  1.0  -0.1362
  C  C378  1  0.408030  0.139230  0.964230  1.0  -0.0579
  C  C379  1  0.377060  0.126510  0.912430  1.0  -0.0453
  C  C380  1  0.364890  0.101350  0.812830  1.0  -0.1613
  C  C381  1  0.383730  0.088140  0.767230  1.0  -0.0532
  C  C382  1  0.358510  0.141890  0.973330  1.0  0.7001
  C  C383  1  0.136540  0.392940  0.993370  1.0  -0.0689
  C  C384  1  0.145860  0.412940  0.123570  1.0  -0.186
  C  C385  1  0.128200  0.426640  0.171870  1.0  -0.0075
  C  C386  1  0.101510  0.421380  0.091770  1.0  0.0271
  C  C387  1  0.093700  0.403610  0.958070  1.0  -0.1464
  C  C388  1  0.110510  0.388740  0.908270  1.0  -0.1355
  C  C389  1  0.152820  0.375890  0.931470  1.0  0.707
  C  C390  1  0.081750  0.434590  0.147070  1.0  0.0725
  C  C391  1  0.093870  0.461540  0.243970  1.0  -0.1362
  C  C392  1  0.074690  0.472570  0.297570  1.0  -0.058
  C  C393  1  0.043720  0.459850  0.245770  1.0  -0.0454
  C  C394  1  0.031550  0.434690  0.146170  1.0  -0.1612
  C  C395  1  0.050390  0.421480  0.100570  1.0  -0.0532
  C  C396  1  0.025170  0.475230  0.306670  1.0  0.7002
  S  S397  1  0.847920  0.091780  0.064180  1.0  1.3481
  S  S398  1  0.658910  0.910320  0.898800  1.0  1.3394
  S  S399  1  0.514590  0.425110  0.397510  1.0  1.3481
  S  S400  1  0.325580  0.243650  0.232130  1.0  1.3394
  S  S401  1  0.181250  0.758450  0.730850  1.0  1.3481
  S  S402  1  0.992240  0.576990  0.565470  1.0  1.3394
  S  S403  1  0.908220  0.756140  0.064180  1.0  1.3531
  S  S404  1  0.089680  0.748590  0.898800  1.0  1.339
  S  S405  1  0.574890  0.089470  0.397510  1.0  1.3531
  S  S406  1  0.756350  0.081920  0.232130  1.0  1.339
  S  S407  1  0.241550  0.422810  0.730850  1.0  1.3531
  S  S408  1  0.423010  0.415260  0.565470  1.0  1.339
  S  S409  1  0.243860  0.152080  0.064180  1.0  1.3518
  S  S410  1  0.251410  0.341090  0.898800  1.0  1.3368
  S  S411  1  0.910530  0.485410  0.397510  1.0  1.3518
  S  S412  1  0.918080  0.674420  0.232130  1.0  1.3368
  S  S413  1  0.577190  0.818750  0.730850  1.0  1.3518
  S  S414  1  0.584740  0.007760  0.565470  1.0  1.3369
  S  S415  1  0.908220  0.152080  0.564180  1.0  1.3518
  S  S416  1  0.089680  0.341090  0.398800  1.0  1.3363
  S  S417  1  0.574890  0.485410  0.897510  1.0  1.3518
  S  S418  1  0.756350  0.674420  0.732130  1.0  1.3363
  S  S419  1  0.241550  0.818750  0.230850  1.0  1.3518
  S  S420  1  0.423010  0.007760  0.065470  1.0  1.3363
  S  S421  1  0.243860  0.091780  0.564180  1.0  1.3481
  S  S422  1  0.251410  0.910320  0.398800  1.0  1.3386
  S  S423  1  0.910530  0.425110  0.897510  1.0  1.3481
  S  S424  1  0.918080  0.243650  0.732130  1.0  1.3386
  S  S425  1  0.577190  0.758450  0.230850  1.0  1.3481
  S  S426  1  0.584740  0.576990  0.065470  1.0  1.3386
  S  S427  1  0.847920  0.756140  0.564180  1.0  1.3507
  S  S428  1  0.658910  0.748590  0.398800  1.0  1.3389
  S  S429  1  0.514590  0.089470  0.897510  1.0  1.3507
  S  S430  1  0.325580  0.081920  0.732130  1.0  1.3389
  S  S431  1  0.181250  0.422810  0.230850  1.0  1.3507
  S  S432  1  0.992240  0.415260  0.065470  1.0  1.339
  O  O433  1  0.827280  0.133200  0.859600  1.0  -0.8363
  O  O434  1  0.823860  0.114440  0.621800  1.0  -0.648
  O  O435  1  0.840060  0.111590  0.163000  1.0  -0.7984
  O  O436  1  0.854100  0.071220  0.164700  1.0  -0.6786
  O  O437  1  0.871880  0.109600  0.949600  1.0  -0.6341
  O  O438  1  0.693020  0.878770  0.286000  1.0  -0.6473
  O  O439  1  0.676630  0.860580  0.048400  1.0  -0.756
  O  O440  1  0.638360  0.894520  0.031200  1.0  -0.6757
  O  O441  1  0.659930  0.888400  0.784200  1.0  -0.7287
  O  O442  1  0.654190  0.934220  0.821900  1.0  -0.5989
  O  O443  1  0.493950  0.466530  0.192930  1.0  -0.8365
  O  O444  1  0.490530  0.447770  0.955130  1.0  -0.6477
  O  O445  1  0.506730  0.444920  0.496330  1.0  -0.7984
  O  O446  1  0.520770  0.404550  0.498030  1.0  -0.6775
  O  O447  1  0.538550  0.442930  0.282930  1.0  -0.6341
  O  O448  1  0.359690  0.212100  0.619330  1.0  -0.6473
  O  O449  1  0.343300  0.193910  0.381730  1.0  -0.756
  O  O450  1  0.305030  0.227850  0.364530  1.0  -0.6757
  O  O451  1  0.326600  0.221730  0.117530  1.0  -0.7287
  O  O452  1  0.320860  0.267550  0.155230  1.0  -0.5989
  O  O453  1  0.160610  0.799870  0.526270  1.0  -0.8363
  O  O454  1  0.157190  0.781110  0.288470  1.0  -0.648
  O  O455  1  0.173390  0.778260  0.829670  1.0  -0.7984
  O  O456  1  0.187430  0.737890  0.831370  1.0  -0.6774
  O  O457  1  0.205210  0.776270  0.616270  1.0  -0.6341
  O  O458  1  0.026350  0.545440  0.952670  1.0  -0.6473
  O  O459  1  0.009960  0.527250  0.715070  1.0  -0.7558
  O  O460  1  0.971690  0.561190  0.697870  1.0  -0.6758
  O  O461  1  0.993260  0.555070  0.450870  1.0  -0.7296
  O  O462  1  0.987520  0.600890  0.488570  1.0  -0.599
  O  O463  1  0.866800  0.694080  0.859600  1.0  -0.8348
  O  O464  1  0.885560  0.709420  0.621800  1.0  -0.6479
  O  O465  1  0.888410  0.728470  0.163000  1.0  -0.7989
  O  O466  1  0.928780  0.782880  0.164700  1.0  -0.6836
  O  O467  1  0.890400  0.762280  0.949600  1.0  -0.6417
  O  O468  1  0.121230  0.814250  0.286000  1.0  -0.6471
  O  O469  1  0.139420  0.816050  0.048400  1.0  -0.7515
  O  O470  1  0.105480  0.743840  0.031200  1.0  -0.6774
  O  O471  1  0.111600  0.771530  0.784200  1.0  -0.7299
  O  O472  1  0.065780  0.719970  0.821900  1.0  -0.5997
  O  O473  1  0.533470  0.027410  0.192930  1.0  -0.8346
  O  O474  1  0.552230  0.042750  0.955130  1.0  -0.648
  O  O475  1  0.555080  0.061800  0.496330  1.0  -0.7989
  O  O476  1  0.595450  0.116210  0.498030  1.0  -0.6782
  O  O477  1  0.557070  0.095610  0.282930  1.0  -0.6417
  O  O478  1  0.787900  0.147580  0.619330  1.0  -0.6471
  O  O479  1  0.806090  0.149380  0.381730  1.0  -0.7515
  O  O480  1  0.772150  0.077170  0.364530  1.0  -0.6774
  O  O481  1  0.778270  0.104860  0.117530  1.0  -0.7299
  O  O482  1  0.732450  0.053300  0.155230  1.0  -0.5997
  O  O483  1  0.200130  0.360750  0.526270  1.0  -0.8348
  O  O484  1  0.218890  0.376090  0.288470  1.0  -0.6479
  O  O485  1  0.221740  0.395140  0.829670  1.0  -0.7989
  O  O486  1  0.262110  0.449550  0.831370  1.0  -0.6783
  O  O487  1  0.223730  0.428950  0.616270  1.0  -0.6417
  O  O488  1  0.454560  0.480920  0.952670  1.0  -0.6471
  O  O489  1  0.472750  0.482720  0.715070  1.0  -0.7526
  O  O490  1  0.438810  0.410510  0.697870  1.0  -0.6784
  O  O491  1  0.444930  0.438200  0.450870  1.0  -0.7299
  O  O492  1  0.399110  0.386640  0.488570  1.0  -0.5996
  O  O493  1  0.305920  0.172720  0.859600  1.0  -0.8305
  O  O494  1  0.290580  0.176140  0.621800  1.0  -0.6483
  O  O495  1  0.271530  0.159940  0.163000  1.0  -0.7992
  O  O496  1  0.217120  0.145900  0.164700  1.0  -0.6772
  O  O497  1  0.237720  0.128120  0.949600  1.0  -0.6415
  O  O498  1  0.185750  0.306980  0.286000  1.0  -0.6444
  O  O499  1  0.183950  0.323370  0.048400  1.0  -0.7502
  O  O500  1  0.256160  0.361640  0.031200  1.0  -0.6786
  O  O501  1  0.228470  0.340070  0.784200  1.0  -0.73
  O  O502  1  0.280030  0.345810  0.821900  1.0  -0.6002
  O  O503  1  0.972590  0.506050  0.192930  1.0  -0.83
  O  O504  1  0.957250  0.509470  0.955130  1.0  -0.6484
  O  O505  1  0.938200  0.493270  0.496330  1.0  -0.7992
  O  O506  1  0.883790  0.479230  0.498030  1.0  -0.6772
  O  O507  1  0.904390  0.461450  0.282930  1.0  -0.6415
  O  O508  1  0.852420  0.640310  0.619330  1.0  -0.6444
  O  O509  1  0.850620  0.656700  0.381730  1.0  -0.7502
  O  O510  1  0.922830  0.694970  0.364530  1.0  -0.6786
  O  O511  1  0.895140  0.673400  0.117530  1.0  -0.73
  O  O512  1  0.946700  0.679140  0.155230  1.0  -0.6002
  O  O513  1  0.639250  0.839390  0.526270  1.0  -0.8305
  O  O514  1  0.623910  0.842810  0.288470  1.0  -0.6483
  O  O515  1  0.604860  0.826610  0.829670  1.0  -0.7992
  O  O516  1  0.550450  0.812570  0.831370  1.0  -0.6772
  O  O517  1  0.571050  0.794790  0.616270  1.0  -0.6415
  O  O518  1  0.519080  0.973650  0.952670  1.0  -0.6445
  O  O519  1  0.517280  0.990040  0.715070  1.0  -0.7486
  O  O520  1  0.589490  0.028310  0.697870  1.0  -0.6784
  O  O521  1  0.561800  0.006740  0.450870  1.0  -0.7297
  O  O522  1  0.613360  0.012480  0.488570  1.0  -0.6002
  O  O523  1  0.866800  0.172720  0.359600  1.0  -0.8308
  O  O524  1  0.885560  0.176140  0.121800  1.0  -0.6487
  O  O525  1  0.888410  0.159940  0.663000  1.0  -0.7974
  O  O526  1  0.928780  0.145900  0.664700  1.0  -0.6748
  O  O527  1  0.890400  0.128120  0.449600  1.0  -0.6436
  O  O528  1  0.121230  0.306980  0.786000  1.0  -0.6455
  O  O529  1  0.139420  0.323370  0.548400  1.0  -0.7489
  O  O530  1  0.105480  0.361640  0.531200  1.0  -0.6795
  O  O531  1  0.111600  0.340070  0.284200  1.0  -0.73
  O  O532  1  0.065780  0.345810  0.321900  1.0  -0.5972
  O  O533  1  0.533470  0.506050  0.692930  1.0  -0.831
  O  O534  1  0.552230  0.509470  0.455130  1.0  -0.6486
  O  O535  1  0.555080  0.493270  0.996330  1.0  -0.7974
  O  O536  1  0.595450  0.479230  0.998030  1.0  -0.6766
  O  O537  1  0.557070  0.461450  0.782930  1.0  -0.6437
  O  O538  1  0.787900  0.640310  0.119330  1.0  -0.6455
  O  O539  1  0.806090  0.656700  0.881730  1.0  -0.7489
  O  O540  1  0.772150  0.694970  0.864530  1.0  -0.6795
  O  O541  1  0.778270  0.673400  0.617530  1.0  -0.73
  O  O542  1  0.732450  0.679140  0.655230  1.0  -0.5972
  O  O543  1  0.200130  0.839390  0.026270  1.0  -0.8308
  O  O544  1  0.218890  0.842810  0.788470  1.0  -0.6487
  O  O545  1  0.221740  0.826610  0.329670  1.0  -0.7974
  O  O546  1  0.262110  0.812570  0.331370  1.0  -0.6765
  O  O547  1  0.223730  0.794790  0.116270  1.0  -0.6436
  O  O548  1  0.454560  0.973650  0.452670  1.0  -0.6455
  O  O549  1  0.472750  0.990040  0.215070  1.0  -0.7487
  O  O550  1  0.438810  0.028310  0.197870  1.0  -0.6794
  O  O551  1  0.444930  0.006740  0.950870  1.0  -0.7309
  O  O552  1  0.399110  0.012480  0.988570  1.0  -0.5974
  O  O553  1  0.305920  0.133200  0.359600  1.0  -0.8368
  O  O554  1  0.290580  0.114440  0.121800  1.0  -0.6479
  O  O555  1  0.271530  0.111590  0.663000  1.0  -0.7997
  O  O556  1  0.217120  0.071220  0.664700  1.0  -0.6793
  O  O557  1  0.237720  0.109600  0.449600  1.0  -0.6352
  O  O558  1  0.185750  0.878770  0.786000  1.0  -0.6436
  O  O559  1  0.183950  0.860580  0.548400  1.0  -0.755
  O  O560  1  0.256160  0.894520  0.531200  1.0  -0.6751
  O  O561  1  0.228470  0.888400  0.284200  1.0  -0.7288
  O  O562  1  0.280030  0.934220  0.321900  1.0  -0.6004
  O  O563  1  0.972590  0.466530  0.692930  1.0  -0.8366
  O  O564  1  0.957250  0.447770  0.455130  1.0  -0.648
  O  O565  1  0.938200  0.444920  0.996330  1.0  -0.7997
  O  O566  1  0.883790  0.404550  0.998030  1.0  -0.6753
  O  O567  1  0.904390  0.442930  0.782930  1.0  -0.6352
  O  O568  1  0.852420  0.212100  0.119330  1.0  -0.6436
  O  O569  1  0.850620  0.193910  0.881730  1.0  -0.755
  O  O570  1  0.922830  0.227850  0.864530  1.0  -0.6751
  O  O571  1  0.895140  0.221730  0.617530  1.0  -0.7288
  O  O572  1  0.946700  0.267550  0.655230  1.0  -0.6004
  O  O573  1  0.639250  0.799870  0.026270  1.0  -0.8368
  O  O574  1  0.623910  0.781110  0.788470  1.0  -0.6479
  O  O575  1  0.604860  0.778260  0.329670  1.0  -0.7997
  O  O576  1  0.550450  0.737890  0.331370  1.0  -0.6754
  O  O577  1  0.571050  0.776270  0.116270  1.0  -0.6352
  O  O578  1  0.519080  0.545440  0.452670  1.0  -0.6436
  O  O579  1  0.517280  0.527250  0.215070  1.0  -0.7561
  O  O580  1  0.589490  0.561190  0.197870  1.0  -0.676
  O  O581  1  0.561800  0.555070  0.950870  1.0  -0.7287
  O  O582  1  0.613360  0.600890  0.988570  1.0  -0.6002
  O  O583  1  0.827280  0.694080  0.359600  1.0  -0.8348
  O  O584  1  0.823860  0.709420  0.121800  1.0  -0.6478
  O  O585  1  0.840060  0.728470  0.663000  1.0  -0.7989
  O  O586  1  0.854100  0.782880  0.664700  1.0  -0.6779
  O  O587  1  0.871880  0.762280  0.449600  1.0  -0.6413
  O  O588  1  0.693020  0.814250  0.786000  1.0  -0.6473
  O  O589  1  0.676630  0.816050  0.548400  1.0  -0.7528
  O  O590  1  0.638360  0.743840  0.531200  1.0  -0.6777
  O  O591  1  0.659930  0.771530  0.284200  1.0  -0.7298
  O  O592  1  0.654190  0.719970  0.321900  1.0  -0.5984
  O  O593  1  0.493950  0.027410  0.692930  1.0  -0.8343
  O  O594  1  0.490530  0.042750  0.455130  1.0  -0.6479
  O  O595  1  0.506730  0.061800  0.996330  1.0  -0.7989
  O  O596  1  0.520770  0.116210  0.998030  1.0  -0.6779
  O  O597  1  0.538550  0.095610  0.782930  1.0  -0.6413
  O  O598  1  0.359690  0.147580  0.119330  1.0  -0.6473
  O  O599  1  0.343300  0.149380  0.881730  1.0  -0.7528
  O  O600  1  0.305030  0.077170  0.864530  1.0  -0.6777
  O  O601  1  0.326600  0.104860  0.617530  1.0  -0.7298
  O  O602  1  0.320860  0.053300  0.655230  1.0  -0.5984
  O  O603  1  0.160610  0.360750  0.026270  1.0  -0.8348
  O  O604  1  0.157190  0.376090  0.788470  1.0  -0.6478
  O  O605  1  0.173390  0.395140  0.329670  1.0  -0.7989
  O  O606  1  0.187430  0.449550  0.331370  1.0  -0.6779
  O  O607  1  0.205210  0.428950  0.116270  1.0  -0.6413
  O  O608  1  0.026350  0.480920  0.452670  1.0  -0.6474
  O  O609  1  0.009960  0.482720  0.215070  1.0  -0.7512
  O  O610  1  0.971690  0.410510  0.197870  1.0  -0.6775
  O  O611  1  0.993260  0.438200  0.950870  1.0  -0.7295
  O  O612  1  0.987520  0.386640  0.988570  1.0  -0.5984
