# generated using pymatgen
data_Zn3P4(HO3)4
_symmetry_space_group_name_H-M   'P 1'
_cell_length_a   8.76270000
_cell_length_b   13.81170000
_cell_length_c   16.61870000
_cell_angle_alpha   90.00000000
_cell_angle_beta   92.68000000
_cell_angle_gamma   90.00000000
_symmetry_Int_Tables_number   1
_chemical_formula_structural   Zn3P4(HO3)4
_chemical_formula_sum   'Zn12 P16 H16 O48'
_cell_volume   2009.12455586
_cell_formula_units_Z   4
loop_
 _symmetry_equiv_pos_site_id
 _symmetry_equiv_pos_as_xyz
  1  'x, y, z'
loop_
 _atom_site_type_symbol
 _atom_site_label
 _atom_site_symmetry_multiplicity
 _atom_site_fract_x
 _atom_site_fract_y
 _atom_site_fract_z
 _atom_site_occupancy
 _atom_site_charge
  Zn  Zn1  1  0.437290  0.399100  0.075220  1.0  1.1693
  Zn  Zn2  1  0.548370  0.109930  0.077480  1.0  1.1503
  Zn  Zn3  1  0.521210  0.249360  0.749270  1.0  1.112
  Zn  Zn4  1  0.062710  0.899100  0.424780  1.0  1.167
  Zn  Zn5  1  0.951630  0.609930  0.422520  1.0  1.1486
  Zn  Zn6  1  0.978790  0.749360  0.750730  1.0  1.112
  Zn  Zn7  1  0.562710  0.600900  0.924780  1.0  1.1675
  Zn  Zn8  1  0.451630  0.890070  0.922520  1.0  1.1484
  Zn  Zn9  1  0.478790  0.750640  0.250730  1.0  1.112
  Zn  Zn10  1  0.937290  0.100900  0.575220  1.0  1.1698
  Zn  Zn11  1  0.048370  0.390070  0.577480  1.0  1.1501
  Zn  Zn12  1  0.021210  0.250640  0.249270  1.0  1.112
  P  P13  1  0.515000  0.383280  0.894730  1.0  1.564
  P  P14  1  0.509800  0.106730  0.889550  1.0  1.5726
  P  P15  1  0.755200  0.286580  0.120360  1.0  1.627
  P  P16  1  0.234800  0.225130  0.113890  1.0  1.5322
  P  P17  1  0.985000  0.883280  0.605270  1.0  1.5633
  P  P18  1  0.990200  0.606730  0.610450  1.0  1.5745
  P  P19  1  0.744800  0.786580  0.379640  1.0  1.6247
  P  P20  1  0.265200  0.725130  0.386110  1.0  1.5388
  P  P21  1  0.485000  0.616720  0.105270  1.0  1.5603
  P  P22  1  0.490200  0.893270  0.110450  1.0  1.5744
  P  P23  1  0.244800  0.713420  0.879640  1.0  1.6214
  P  P24  1  0.765200  0.774870  0.886110  1.0  1.5391
  P  P25  1  0.015000  0.116720  0.394730  1.0  1.5617
  P  P26  1  0.009800  0.393270  0.389550  1.0  1.5734
  P  P27  1  0.255200  0.213420  0.620360  1.0  1.6235
  P  P28  1  0.734800  0.274870  0.613890  1.0  1.5323
  H  H29  1  0.611400  0.314600  0.918900  1.0  -0.0838
  H  H30  1  0.401600  0.170400  0.903000  1.0  -0.0781
  H  H31  1  0.827100  0.269800  0.053700  1.0  -0.1
  H  H32  1  0.120800  0.241400  0.060900  1.0  -0.0844
  H  H33  1  0.888600  0.814600  0.581100  1.0  -0.0866
  H  H34  1  0.098400  0.670400  0.597000  1.0  -0.077
  H  H35  1  0.672900  0.769800  0.446300  1.0  -0.1032
  H  H36  1  0.379200  0.741400  0.439100  1.0  -0.0853
  H  H37  1  0.388600  0.685400  0.081100  1.0  -0.0855
  H  H38  1  0.598400  0.829600  0.097000  1.0  -0.0781
  H  H39  1  0.172900  0.730200  0.946300  1.0  -0.1031
  H  H40  1  0.879200  0.758600  0.939100  1.0  -0.0854
  H  H41  1  0.111400  0.185400  0.418900  1.0  -0.0831
  H  H42  1  0.901600  0.329600  0.403000  1.0  -0.0791
  H  H43  1  0.327100  0.230200  0.553700  1.0  -0.0999
  H  H44  1  0.620800  0.258600  0.560900  1.0  -0.0844
  O  O45  1  0.401900  0.396300  0.960100  1.0  -0.7754
  O  O46  1  0.432000  0.347900  0.817800  1.0  -0.7492
  O  O47  1  0.608700  0.473900  0.879300  1.0  -0.7724
  O  O48  1  0.603300  0.147200  0.821600  1.0  -0.7434
  O  O49  1  0.607500  0.097300  0.966700  1.0  -0.7459
  O  O50  1  0.430500  0.012100  0.864300  1.0  -0.7777
  O  O51  1  0.682100  0.191800  0.143700  1.0  -0.7626
  O  O52  1  0.646800  0.370600  0.102200  1.0  -0.8835
  O  O53  1  0.875500  0.320400  0.183100  1.0  -0.7851
  O  O54  1  0.299800  0.323200  0.137100  1.0  -0.7759
  O  O55  1  0.164400  0.177500  0.187200  1.0  -0.7445
  O  O56  1  0.342800  0.155800  0.073800  1.0  -0.8604
  O  O57  1  0.098100  0.896300  0.539900  1.0  -0.7755
  O  O58  1  0.068000  0.847900  0.682200  1.0  -0.7494
  O  O59  1  0.891300  0.973900  0.620700  1.0  -0.7723
  O  O60  1  0.896700  0.647200  0.678400  1.0  -0.7434
  O  O61  1  0.892500  0.597300  0.533300  1.0  -0.7439
  O  O62  1  0.069500  0.512100  0.635700  1.0  -0.775
  O  O63  1  0.817900  0.691800  0.356300  1.0  -0.7629
  O  O64  1  0.853200  0.870600  0.397800  1.0  -0.8843
  O  O65  1  0.624500  0.820400  0.316900  1.0  -0.7871
  O  O66  1  0.200200  0.823200  0.362900  1.0  -0.7755
  O  O67  1  0.335600  0.677500  0.312800  1.0  -0.7444
  O  O68  1  0.157200  0.655800  0.426200  1.0  -0.8609
  O  O69  1  0.598100  0.603700  0.039900  1.0  -0.7755
  O  O70  1  0.568000  0.652100  0.182200  1.0  -0.7495
  O  O71  1  0.391300  0.526100  0.120700  1.0  -0.7727
  O  O72  1  0.396700  0.852800  0.178400  1.0  -0.7437
  O  O73  1  0.392500  0.902700  0.033300  1.0  -0.7441
  O  O74  1  0.569500  0.987900  0.135700  1.0  -0.7745
  O  O75  1  0.317900  0.808200  0.856300  1.0  -0.7637
  O  O76  1  0.353200  0.629400  0.897800  1.0  -0.8854
  O  O77  1  0.124500  0.679600  0.816900  1.0  -0.7862
  O  O78  1  0.700200  0.676800  0.862900  1.0  -0.7749
  O  O79  1  0.835600  0.822500  0.812800  1.0  -0.7452
  O  O80  1  0.657200  0.844200  0.926200  1.0  -0.8614
  O  O81  1  0.901900  0.103700  0.460100  1.0  -0.7755
  O  O82  1  0.932000  0.152100  0.317800  1.0  -0.7492
  O  O83  1  0.108700  0.026100  0.379300  1.0  -0.7733
  O  O84  1  0.103300  0.352800  0.321600  1.0  -0.7441
  O  O85  1  0.107500  0.402700  0.466700  1.0  -0.7459
  O  O86  1  0.930500  0.487900  0.364300  1.0  -0.7769
  O  O87  1  0.182100  0.308200  0.643700  1.0  -0.7625
  O  O88  1  0.146800  0.129400  0.602200  1.0  -0.8844
  O  O89  1  0.375500  0.179600  0.683100  1.0  -0.7848
  O  O90  1  0.799800  0.176800  0.637100  1.0  -0.7755
  O  O91  1  0.664400  0.322500  0.687200  1.0  -0.7443
  O  O92  1  0.842800  0.344200  0.573800  1.0  -0.8614
