# generated using pymatgen
data_Zn3P4(HO3)4
_symmetry_space_group_name_H-M   'P 1'
_cell_length_a   8.87540000
_cell_length_b   16.66700000
_cell_length_c   13.86400000
_cell_angle_alpha   90.00000000
_cell_angle_beta   90.00000000
_cell_angle_gamma   90.00000000
_symmetry_Int_Tables_number   1
_chemical_formula_structural   Zn3P4(HO3)4
_chemical_formula_sum   'Zn12 P16 H16 O48'
_cell_volume   2050.85010952
_cell_formula_units_Z   4
loop_
 _symmetry_equiv_pos_site_id
 _symmetry_equiv_pos_as_xyz
  1  'x, y, z'
loop_
 _atom_site_type_symbol
 _atom_site_label
 _atom_site_symmetry_multiplicity
 _atom_site_fract_x
 _atom_site_fract_y
 _atom_site_fract_z
 _atom_site_occupancy
 _atom_site_charge
  Zn  Zn1  1  0.446890  0.923090  0.106180  1.0  1.148
  Zn  Zn2  1  0.053110  0.576910  0.606180  1.0  1.1482
  Zn  Zn3  1  0.553110  0.923090  0.393820  1.0  1.1486
  Zn  Zn4  1  0.946890  0.576910  0.893820  1.0  1.1482
  Zn  Zn5  1  0.553110  0.076910  0.893820  1.0  1.1485
  Zn  Zn6  1  0.946890  0.423090  0.393820  1.0  1.1484
  Zn  Zn7  1  0.446890  0.076910  0.606180  1.0  1.1478
  Zn  Zn8  1  0.053110  0.423090  0.106180  1.0  1.1482
  Zn  Zn9  1  0.500000  0.250690  0.250000  1.0  1.1203
  Zn  Zn10  1  0.000000  0.249310  0.750000  1.0  1.1202
  Zn  Zn11  1  0.500000  0.749310  0.750000  1.0  1.1202
  Zn  Zn12  1  0.000000  0.750690  0.250000  1.0  1.1203
  P  P13  1  0.505440  0.108280  0.111390  1.0  1.5563
  P  P14  1  0.741700  0.381580  0.220090  1.0  1.5484
  P  P15  1  0.994560  0.391720  0.611390  1.0  1.5567
  P  P16  1  0.758300  0.118420  0.720090  1.0  1.5484
  P  P17  1  0.494560  0.108280  0.388610  1.0  1.5559
  P  P18  1  0.258300  0.381580  0.279910  1.0  1.5484
  P  P19  1  0.005440  0.391720  0.888610  1.0  1.5569
  P  P20  1  0.241700  0.118420  0.779910  1.0  1.5502
  P  P21  1  0.494560  0.891720  0.888610  1.0  1.5568
  P  P22  1  0.258300  0.618420  0.779910  1.0  1.5488
  P  P23  1  0.005440  0.608280  0.388610  1.0  1.5561
  P  P24  1  0.241700  0.881580  0.279910  1.0  1.5489
  P  P25  1  0.505440  0.891720  0.611390  1.0  1.5573
  P  P26  1  0.741700  0.618420  0.720090  1.0  1.5498
  P  P27  1  0.994560  0.608280  0.111390  1.0  1.5567
  P  P28  1  0.758300  0.881580  0.220090  1.0  1.548
  H  H29  1  0.615000  0.090100  0.174000  1.0  -0.0748
  H  H30  1  0.647000  0.448000  0.239000  1.0  -0.0608
  H  H31  1  0.885000  0.409900  0.674000  1.0  -0.075
  H  H32  1  0.853000  0.052000  0.739000  1.0  -0.0597
  H  H33  1  0.385000  0.090100  0.326000  1.0  -0.0751
  H  H34  1  0.353000  0.448000  0.261000  1.0  -0.0593
  H  H35  1  0.115000  0.409900  0.826000  1.0  -0.0738
  H  H36  1  0.147000  0.052000  0.761000  1.0  -0.0598
  H  H37  1  0.385000  0.909900  0.826000  1.0  -0.0753
  H  H38  1  0.353000  0.552000  0.761000  1.0  -0.0591
  H  H39  1  0.115000  0.590100  0.326000  1.0  -0.074
  H  H40  1  0.147000  0.948000  0.261000  1.0  -0.0603
  H  H41  1  0.615000  0.909900  0.674000  1.0  -0.0746
  H  H42  1  0.647000  0.552000  0.739000  1.0  -0.0602
  H  H43  1  0.885000  0.590100  0.174000  1.0  -0.0748
  H  H44  1  0.853000  0.948000  0.239000  1.0  -0.06
  O  O45  1  0.403200  0.036360  0.102200  1.0  -0.7863
  O  O46  1  0.811600  0.359760  0.315490  1.0  -0.7717
  O  O47  1  0.588100  0.128420  0.018510  1.0  -0.7676
  O  O48  1  0.847900  0.409000  0.143800  1.0  -0.8617
  O  O49  1  0.417700  0.180830  0.149000  1.0  -0.75
  O  O50  1  0.645900  0.314100  0.180730  1.0  -0.7419
  O  O51  1  0.096800  0.463640  0.602200  1.0  -0.7878
  O  O52  1  0.688400  0.140240  0.815490  1.0  -0.7721
  O  O53  1  0.911900  0.371580  0.518510  1.0  -0.7675
  O  O54  1  0.652100  0.091000  0.643800  1.0  -0.861
  O  O55  1  0.082300  0.319170  0.649000  1.0  -0.7492
  O  O56  1  0.854100  0.185900  0.680730  1.0  -0.7413
  O  O57  1  0.596800  0.036360  0.397800  1.0  -0.7883
  O  O58  1  0.188400  0.359760  0.184510  1.0  -0.7707
  O  O59  1  0.411900  0.128420  0.481490  1.0  -0.7679
  O  O60  1  0.152100  0.409000  0.356200  1.0  -0.8611
  O  O61  1  0.582300  0.180830  0.351000  1.0  -0.7497
  O  O62  1  0.354100  0.314100  0.319270  1.0  -0.743
  O  O63  1  0.903200  0.463640  0.897800  1.0  -0.7866
  O  O64  1  0.311600  0.140240  0.684510  1.0  -0.7709
  O  O65  1  0.088100  0.371580  0.981490  1.0  -0.7677
  O  O66  1  0.347900  0.091000  0.856200  1.0  -0.8617
  O  O67  1  0.917700  0.319170  0.851000  1.0  -0.7485
  O  O68  1  0.145900  0.185900  0.819270  1.0  -0.7424
  O  O69  1  0.596800  0.963640  0.897800  1.0  -0.7882
  O  O70  1  0.188400  0.640240  0.684510  1.0  -0.7723
  O  O71  1  0.411900  0.871580  0.981490  1.0  -0.7679
  O  O72  1  0.152100  0.591000  0.856200  1.0  -0.8611
  O  O73  1  0.582300  0.819170  0.851000  1.0  -0.7488
  O  O74  1  0.354100  0.685900  0.819270  1.0  -0.7426
  O  O75  1  0.903200  0.536360  0.397800  1.0  -0.7864
  O  O76  1  0.311600  0.859760  0.184510  1.0  -0.7709
  O  O77  1  0.088100  0.628420  0.481490  1.0  -0.7674
  O  O78  1  0.347900  0.909000  0.356200  1.0  -0.8615
  O  O79  1  0.917700  0.680830  0.351000  1.0  -0.7501
  O  O80  1  0.145900  0.814100  0.319270  1.0  -0.7425
  O  O81  1  0.403200  0.963640  0.602200  1.0  -0.7862
  O  O82  1  0.811600  0.640240  0.815490  1.0  -0.7709
  O  O83  1  0.588100  0.871580  0.518510  1.0  -0.7676
  O  O84  1  0.847900  0.591000  0.643800  1.0  -0.8621
  O  O85  1  0.417700  0.819170  0.649000  1.0  -0.749
  O  O86  1  0.645900  0.685900  0.680730  1.0  -0.7412
  O  O87  1  0.096800  0.536360  0.102200  1.0  -0.7882
  O  O88  1  0.688400  0.859760  0.315490  1.0  -0.7714
  O  O89  1  0.911900  0.628420  0.018510  1.0  -0.7682
  O  O90  1  0.652100  0.909000  0.143800  1.0  -0.8609
  O  O91  1  0.082300  0.680830  0.149000  1.0  -0.7499
  O  O92  1  0.854100  0.814100  0.180730  1.0  -0.7422
