# generated using pymatgen
data_CdH22C21(N4O)2
_symmetry_space_group_name_H-M   'P 1'
_cell_length_a   11.13450000
_cell_length_b   11.16590000
_cell_length_c   12.69160000
_cell_angle_alpha   88.06700000
_cell_angle_beta   88.90700000
_cell_angle_gamma   65.22600000
_symmetry_Int_Tables_number   1
_chemical_formula_structural   CdH22C21(N4O)2
_chemical_formula_sum   'Cd2 H44 C42 N16 O4'
_cell_volume   1431.85025284
_cell_formula_units_Z   2
loop_
 _symmetry_equiv_pos_site_id
 _symmetry_equiv_pos_as_xyz
  1  'x, y, z'
loop_
 _atom_site_type_symbol
 _atom_site_label
 _atom_site_symmetry_multiplicity
 _atom_site_fract_x
 _atom_site_fract_y
 _atom_site_fract_z
 _atom_site_occupancy
 _atom_site_charge
  Cd  Cd1  1  0.292680  0.761060  0.824590  1.0  0.9196
  Cd  Cd2  1  0.707320  0.238940  0.175410  1.0  0.9189
  H  H3  1  0.130500  0.691300  0.610900  1.0  0.0929
  H  H4  1  0.295300  0.940700  0.609200  1.0  0.0939
  H  H5  1  0.186000  0.968200  0.439600  1.0  0.1229
  H  H6  1  0.001600  0.881900  0.376800  1.0  0.0677
  H  H7  1  0.005300  0.755300  0.436200  1.0  0.0869
  H  H8  1  0.287300  0.584400  0.423700  1.0  0.0782
  H  H9  1  0.169600  0.545200  0.408500  1.0  0.0813
  H  H10  1  0.186700  0.411200  0.219100  1.0  0.1179
  H  H11  1  0.107000  0.667000  0.170100  1.0  0.0652
  H  H12  1  0.033000  0.645000  0.259000  1.0  0.1373
  H  H13  1  0.791000  0.743600  0.242900  1.0  0.1173
  H  H14  1  0.180700  0.872700  0.267100  1.0  0.0767
  H  H15  1  0.302200  0.768400  0.327700  1.0  0.091
  H  H16  1  0.166100  0.825000  0.063600  1.0  0.0843
  H  H17  1  0.545100  0.612200  0.023800  1.0  0.0831
  H  H18  1  0.501400  0.623400  0.213500  1.0  0.1173
  H  H19  1  0.984300  0.961700  0.166300  1.0  0.0889
  H  H20  1  0.631800  0.963300  0.186300  1.0  0.0839
  H  H21  1  0.387800  0.248000  0.137400  1.0  0.0831
  H  H22  1  0.498600  0.442400  0.337300  1.0  0.0817
  H  H23  1  0.893300  0.725700  0.971800  1.0  0.0842
  H  H24  1  0.212400  0.383600  0.935700  1.0  0.0792
  H  H25  1  0.869500  0.308700  0.389100  1.0  0.0929
  H  H26  1  0.704700  0.059300  0.390800  1.0  0.0939
  H  H27  1  0.814000  0.031800  0.560400  1.0  0.1222
  H  H28  1  0.998400  0.118100  0.623200  1.0  0.0674
  H  H29  1  0.994700  0.244700  0.563800  1.0  0.0859
  H  H30  1  0.712700  0.415600  0.576300  1.0  0.0783
  H  H31  1  0.830400  0.454800  0.591500  1.0  0.0805
  H  H32  1  0.813300  0.588800  0.780900  1.0  0.1167
  H  H33  1  0.893000  0.333000  0.829900  1.0  0.0641
  H  H34  1  0.967000  0.355000  0.741000  1.0  0.1356
  H  H35  1  0.209000  0.256400  0.757100  1.0  0.1178
  H  H36  1  0.819300  0.127300  0.732900  1.0  0.0755
  H  H37  1  0.697800  0.231600  0.672300  1.0  0.0919
  H  H38  1  0.833900  0.175000  0.936400  1.0  0.0838
  H  H39  1  0.454900  0.387800  0.976200  1.0  0.0838
  H  H40  1  0.498600  0.376600  0.786500  1.0  0.1171
  H  H41  1  0.015700  0.038300  0.833700  1.0  0.0892
  H  H42  1  0.368200  0.036700  0.813700  1.0  0.0839
  H  H43  1  0.612200  0.752000  0.862600  1.0  0.0835
  H  H44  1  0.501400  0.557600  0.662700  1.0  0.0809
  H  H45  1  0.106700  0.274300  0.028200  1.0  0.0847
  H  H46  1  0.787600  0.616400  0.064300  1.0  0.0797
  C  C47  1  0.158500  0.756000  0.589700  1.0  0.1373
  C  C48  1  0.248200  0.893900  0.588100  1.0  0.0143
  C  C49  1  0.188900  0.909100  0.494000  1.0  -0.1286
  C  C50  1  0.060000  0.797000  0.407500  1.0  -0.0827
  C  C51  1  0.149000  0.710000  0.318400  1.0  0.0677
  C  C52  1  0.230300  0.573800  0.371400  1.0  -0.157
  C  C53  1  0.273200  0.398600  0.232200  1.0  -0.1639
  C  C54  1  0.057200  0.695000  0.235200  1.0  -0.0737
  C  C55  1  0.810500  0.813600  0.220100  1.0  -0.1749
  C  C56  1  0.236500  0.779000  0.274900  1.0  -0.1813
  C  C57  1  0.254900  0.772200  0.076700  1.0  0.1388
  C  C58  1  0.462800  0.656200  0.055400  1.0  0.0296
  C  C59  1  0.439200  0.661600  0.160500  1.0  -0.1715
  C  C60  1  0.916200  0.935200  0.177500  1.0  0.1255
  C  C61  1  0.723000  0.935400  0.189200  1.0  0.0015
  C  C62  1  0.384900  0.308000  0.187600  1.0  -0.0048
  C  C63  1  0.446400  0.415000  0.297000  1.0  0.1299
  C  C64  1  0.134400  0.638000  0.884900  1.0  0.6566
  C  C65  1  0.063700  0.565700  0.942900  1.0  -0.159
  C  C66  1  0.936100  0.634800  0.982900  1.0  -0.0572
  C  C67  1  0.127000  0.430500  0.961200  1.0  -0.0382
  C  C68  1  0.841500  0.244000  0.410300  1.0  0.1366
  C  C69  1  0.751800  0.106100  0.411900  1.0  0.0127
  C  C70  1  0.811100  0.090900  0.506000  1.0  -0.1309
  C  C71  1  0.940000  0.203000  0.592500  1.0  -0.0788
  C  C72  1  0.851000  0.290000  0.681600  1.0  0.0664
  C  C73  1  0.769700  0.426200  0.628600  1.0  -0.161
  C  C74  1  0.726800  0.601400  0.767800  1.0  -0.1657
  C  C75  1  0.942800  0.305000  0.764800  1.0  -0.0745
  C  C76  1  0.189500  0.186400  0.779900  1.0  -0.173
  C  C77  1  0.763500  0.221000  0.725100  1.0  -0.1803
  C  C78  1  0.745100  0.227800  0.923300  1.0  0.1388
  C  C79  1  0.537200  0.343800  0.944600  1.0  0.0287
  C  C80  1  0.560800  0.338400  0.839500  1.0  -0.1725
  C  C81  1  0.083800  0.064800  0.822500  1.0  0.1258
  C  C82  1  0.277000  0.064600  0.810800  1.0  0.0032
  C  C83  1  0.615100  0.692000  0.812400  1.0  -0.0052
  C  C84  1  0.553600  0.585000  0.703000  1.0  0.1311
  C  C85  1  0.865600  0.362000  0.115100  1.0  0.6583
  C  C86  1  0.936300  0.434300  0.057100  1.0  -0.1596
  C  C87  1  0.063900  0.365200  0.017100  1.0  -0.0558
  C  C88  1  0.873000  0.569500  0.038800  1.0  -0.0322
  N  N89  1  0.228600  0.798500  0.648600  1.0  -0.366
  N  N90  1  0.133100  0.819400  0.494200  1.0  -0.0171
  N  N91  1  0.306100  0.734000  0.173900  1.0  -0.0022
  N  N92  1  0.934100  0.813000  0.211500  1.0  0.0144
  N  N93  1  0.313100  0.468200  0.300700  1.0  -1e-04
  N  N94  1  0.493400  0.319200  0.228900  1.0  -0.3972
  N  N95  1  0.789500  0.012300  0.162300  1.0  -0.4106
  N  N96  1  0.346000  0.725900  0.002300  1.0  -0.4123
  N  N97  1  0.771400  0.201500  0.351400  1.0  -0.3661
  N  N98  1  0.866900  0.180600  0.505800  1.0  -0.0179
  N  N99  1  0.693900  0.266000  0.826100  1.0  -0.0026
  N  N100  1  0.065900  0.187000  0.788500  1.0  0.0137
  N  N101  1  0.686900  0.531800  0.699300  1.0  0.0007
  N  N102  1  0.506600  0.680800  0.771100  1.0  -0.3982
  N  N103  1  0.210500  0.987700  0.837700  1.0  -0.4136
  N  N104  1  0.654000  0.274100  0.997700  1.0  -0.411
  O  O105  1  0.081700  0.763100  0.882600  1.0  -0.6174
  O  O106  1  0.245500  0.571600  0.844400  1.0  -0.6286
  O  O107  1  0.918300  0.236900  0.117400  1.0  -0.6199
  O  O108  1  0.754500  0.428400  0.155600  1.0  -0.6313
