# generated using pymatgen
data_DyH11C20NO6
_symmetry_space_group_name_H-M   'P 1'
_cell_length_a   10.76730000
_cell_length_b   11.02090000
_cell_length_c   13.09180000
_cell_angle_alpha   105.06400000
_cell_angle_beta   94.85400000
_cell_angle_gamma   93.84700000
_symmetry_Int_Tables_number   1
_chemical_formula_structural   DyH11C20NO6
_chemical_formula_sum   'Dy2 H22 C40 N2 O12'
_cell_volume   1488.35627155
_cell_formula_units_Z   2
loop_
 _symmetry_equiv_pos_site_id
 _symmetry_equiv_pos_as_xyz
  1  'x, y, z'
loop_
 _atom_site_type_symbol
 _atom_site_label
 _atom_site_symmetry_multiplicity
 _atom_site_fract_x
 _atom_site_fract_y
 _atom_site_fract_z
 _atom_site_occupancy
 _atom_site_charge
  Dy  Dy1  1  0.030200  0.551280  0.175410  1.0  2.2839
  Dy  Dy2  1  0.969800  0.448720  0.824590  1.0  2.282
  H  H3  1  0.224100  0.796300  0.984100  1.0  0.0886
  H  H4  1  0.099200  0.934700  0.250300  1.0  0.0902
  H  H5  1  0.411600  0.625300  0.137000  1.0  0.1031
  H  H6  1  0.396600  0.893900  0.944200  1.0  0.0952
  H  H7  1  0.175900  0.125400  0.229700  1.0  0.0915
  H  H8  1  0.397800  0.099100  0.927300  1.0  0.1097
  H  H9  1  0.178400  0.310800  0.366300  1.0  0.109
  H  H10  1  0.220300  0.198800  0.941300  1.0  0.0869
  H  H11  1  0.091800  0.305700  0.519600  1.0  0.0927
  H  H12  1  0.385400  0.310000  0.764700  1.0  0.3572
  H  H13  1  0.271400  0.365400  0.806600  1.0  0.3199
  H  H14  1  0.775900  0.203700  0.015900  1.0  0.0889
  H  H15  1  0.900800  0.065300  0.749700  1.0  0.09
  H  H16  1  0.588400  0.374700  0.863000  1.0  0.1026
  H  H17  1  0.603400  0.106100  0.055800  1.0  0.0952
  H  H18  1  0.824100  0.874600  0.770300  1.0  0.0904
  H  H19  1  0.602200  0.900900  0.072700  1.0  0.1105
  H  H20  1  0.821600  0.689200  0.633700  1.0  0.1087
  H  H21  1  0.779700  0.801200  0.058700  1.0  0.0862
  H  H22  1  0.908200  0.694300  0.480400  1.0  0.0947
  H  H23  1  0.614600  0.690000  0.235300  1.0  0.3583
  H  H24  1  0.728600  0.634600  0.193400  1.0  0.3211
  C  C25  1  0.995400  0.738800  0.009200  1.0  0.6858
  C  C26  1  0.011800  0.767100  0.335200  1.0  0.6855
  C  C27  1  0.232800  0.519200  0.985700  1.0  0.6982
  C  C28  1  0.998300  0.875000  0.007100  1.0  -0.1192
  C  C29  1  0.004200  0.887600  0.420200  1.0  -0.0861
  C  C30  1  0.371500  0.510000  0.991100  1.0  -0.1447
  C  C31  1  0.108000  0.934900  0.985200  1.0  0.027
  C  C32  1  0.050900  0.000700  0.405200  1.0  -0.1252
  C  C33  1  0.425400  0.434600  0.907300  1.0  0.2125
  C  C34  1  0.221100  0.877000  0.975000  1.0  -0.1251
  C  C35  1  0.099200  0.007600  0.305400  1.0  -0.1455
  C  C36  1  0.447600  0.574000  0.081200  1.0  -0.1093
  C  C37  1  0.324300  0.935600  0.952500  1.0  -0.102
  C  C38  1  0.144700  0.122000  0.293100  1.0  -0.0862
  C  C39  1  0.325100  0.058800  0.941400  1.0  -0.1467
  C  C40  1  0.144900  0.234500  0.375000  1.0  -0.1026
  C  C41  1  0.219800  0.118300  0.951500  1.0  -0.1141
  C  C42  1  0.095200  0.230700  0.467500  1.0  -0.1428
  C  C43  1  0.892700  0.938000  0.022700  1.0  -0.0249
  C  C44  1  0.951400  0.885500  0.514100  1.0  0.0408
  C  C45  1  0.004600  0.261200  0.990800  1.0  0.6858
  C  C46  1  0.988200  0.232900  0.664800  1.0  0.6866
  C  C47  1  0.767200  0.480800  0.014300  1.0  0.6991
  C  C48  1  0.001700  0.125000  0.992900  1.0  -0.1188
  C  C49  1  0.995800  0.112400  0.579800  1.0  -0.0854
  C  C50  1  0.628500  0.490000  0.008900  1.0  -0.1443
  C  C51  1  0.892000  0.065100  0.014800  1.0  0.0271
  C  C52  1  0.949100  0.999300  0.594800  1.0  -0.1246
  C  C53  1  0.574600  0.565400  0.092700  1.0  0.2143
  C  C54  1  0.778900  0.123000  0.025000  1.0  -0.1217
  C  C55  1  0.900800  0.992400  0.694600  1.0  -0.1469
  C  C56  1  0.552400  0.426000  0.918800  1.0  -0.108
  C  C57  1  0.675700  0.064400  0.047500  1.0  -0.1019
  C  C58  1  0.855300  0.878000  0.706900  1.0  -0.0862
  C  C59  1  0.674900  0.941200  0.058600  1.0  -0.1469
  C  C60  1  0.855100  0.765500  0.625000  1.0  -0.0996
  C  C61  1  0.780200  0.881700  0.048500  1.0  -0.1141
  C  C62  1  0.904800  0.769300  0.532500  1.0  -0.142
  C  C63  1  0.107300  0.062000  0.977300  1.0  -0.0243
  C  C64  1  0.048600  0.114500  0.485900  1.0  0.0405
  N  N65  1  0.351000  0.360000  0.813800  1.0  -0.7229
  N  N66  1  0.649000  0.640000  0.186200  1.0  -0.7263
  O  O67  1  0.009200  0.717300  0.096500  1.0  -0.6278
  O  O68  1  0.911400  0.707200  0.287900  1.0  -0.6562
  O  O69  1  0.188700  0.558100  0.072100  1.0  -0.6796
  O  O70  1  0.977500  0.658700  0.922000  1.0  -0.6987
  O  O71  1  0.116200  0.728800  0.317200  1.0  -0.6055
  O  O72  1  0.172400  0.492500  0.898400  1.0  -0.6174
  O  O73  1  0.990800  0.282700  0.903500  1.0  -0.629
  O  O74  1  0.088600  0.292800  0.712100  1.0  -0.6552
  O  O75  1  0.811300  0.441900  0.927900  1.0  -0.6797
  O  O76  1  0.022500  0.341300  0.078000  1.0  -0.6981
  O  O77  1  0.883800  0.271200  0.682800  1.0  -0.6091
  O  O78  1  0.827600  0.507500  0.101600  1.0  -0.6149
