# generated using pymatgen
data_Dy2H9C27(NO4)3
_symmetry_space_group_name_H-M   'P 1'
_cell_length_a   24.59070000
_cell_length_b   17.88110000
_cell_length_c   25.07650000
_cell_angle_alpha   90.00000000
_cell_angle_beta   104.33500000
_cell_angle_gamma   90.00000000
_symmetry_Int_Tables_number   1
_chemical_formula_structural   Dy2H9C27(NO4)3
_chemical_formula_sum   'Dy16 H72 C216 N24 O96'
_cell_volume   10683.04757767
_cell_formula_units_Z   8
loop_
 _symmetry_equiv_pos_site_id
 _symmetry_equiv_pos_as_xyz
  1  'x, y, z'
loop_
 _atom_site_type_symbol
 _atom_site_label
 _atom_site_symmetry_multiplicity
 _atom_site_fract_x
 _atom_site_fract_y
 _atom_site_fract_z
 _atom_site_occupancy
 _atom_site_charge
  Dy  Dy1  1  0.408380  0.423560  0.741790  1.0  2.2028
  Dy  Dy2  1  0.715560  0.809030  0.056280  1.0  2.2233
  Dy  Dy3  1  0.908380  0.923560  0.741790  1.0  2.2028
  Dy  Dy4  1  0.215560  0.309030  0.056280  1.0  2.2233
  Dy  Dy5  1  0.591620  0.423560  0.758210  1.0  2.2022
  Dy  Dy6  1  0.284440  0.809030  0.443720  1.0  2.2214
  Dy  Dy7  1  0.091620  0.923560  0.758210  1.0  2.2022
  Dy  Dy8  1  0.784440  0.309030  0.443720  1.0  2.2214
  Dy  Dy9  1  0.591620  0.576440  0.258210  1.0  2.2019
  Dy  Dy10  1  0.284440  0.190970  0.943720  1.0  2.2216
  Dy  Dy11  1  0.091620  0.076440  0.258210  1.0  2.2019
  Dy  Dy12  1  0.784440  0.690970  0.943720  1.0  2.2216
  Dy  Dy13  1  0.408380  0.576440  0.241790  1.0  2.2057
  Dy  Dy14  1  0.715560  0.190970  0.556280  1.0  2.2228
  Dy  Dy15  1  0.908380  0.076440  0.241790  1.0  2.2057
  Dy  Dy16  1  0.215560  0.690970  0.556280  1.0  2.2228
  H  H17  1  0.606200  0.595900  0.872100  1.0  0.1141
  H  H18  1  0.428200  0.291800  0.864200  1.0  0.1089
  H  H19  1  0.694100  0.625100  0.117000  1.0  0.1142
  H  H20  1  0.552900  0.746900  0.966800  1.0  0.1017
  H  H21  1  0.487800  0.117200  0.962600  1.0  0.1211
  H  H22  1  0.720800  0.419300  0.182900  1.0  0.1244
  H  H23  1  0.442300  0.608500  0.868800  1.0  0.1296
  H  H24  1  0.589800  0.232500  0.888400  1.0  0.1262
  H  H25  1  0.799700  0.484800  0.068000  1.0  0.1174
  H  H26  1  0.106200  0.095900  0.872100  1.0  0.1141
  H  H27  1  0.928200  0.791800  0.864200  1.0  0.1089
  H  H28  1  0.194100  0.125100  0.117000  1.0  0.1142
  H  H29  1  0.052900  0.246900  0.966800  1.0  0.1017
  H  H30  1  0.987800  0.617200  0.962600  1.0  0.1211
  H  H31  1  0.220800  0.919300  0.182900  1.0  0.1244
  H  H32  1  0.942300  0.108500  0.868800  1.0  0.1296
  H  H33  1  0.089800  0.732500  0.888400  1.0  0.1262
  H  H34  1  0.299700  0.984800  0.068000  1.0  0.1174
  H  H35  1  0.393800  0.595900  0.627900  1.0  0.1144
  H  H36  1  0.571800  0.291800  0.635800  1.0  0.1088
  H  H37  1  0.305900  0.625100  0.383000  1.0  0.1145
  H  H38  1  0.447100  0.746900  0.533200  1.0  0.1018
  H  H39  1  0.512200  0.117200  0.537400  1.0  0.1213
  H  H40  1  0.279200  0.419300  0.317100  1.0  0.1247
  H  H41  1  0.557700  0.608500  0.631200  1.0  0.1294
  H  H42  1  0.410200  0.232500  0.611600  1.0  0.126
  H  H43  1  0.200300  0.484800  0.432000  1.0  0.1171
  H  H44  1  0.893800  0.095900  0.627900  1.0  0.1144
  H  H45  1  0.071800  0.791800  0.635800  1.0  0.1088
  H  H46  1  0.805900  0.125100  0.383000  1.0  0.1145
  H  H47  1  0.947100  0.246900  0.533200  1.0  0.1018
  H  H48  1  0.012200  0.617200  0.537400  1.0  0.1213
  H  H49  1  0.779200  0.919300  0.317100  1.0  0.1247
  H  H50  1  0.057700  0.108500  0.631200  1.0  0.1294
  H  H51  1  0.910200  0.732500  0.611600  1.0  0.126
  H  H52  1  0.700300  0.984800  0.432000  1.0  0.1171
  H  H53  1  0.393800  0.404100  0.127900  1.0  0.1142
  H  H54  1  0.571800  0.708200  0.135800  1.0  0.1093
  H  H55  1  0.305900  0.374900  0.883000  1.0  0.1155
  H  H56  1  0.447100  0.253100  0.033200  1.0  0.1016
  H  H57  1  0.512200  0.882800  0.037400  1.0  0.1219
  H  H58  1  0.279200  0.580700  0.817100  1.0  0.1248
  H  H59  1  0.557700  0.391500  0.131200  1.0  0.1294
  H  H60  1  0.410200  0.767500  0.111600  1.0  0.1261
  H  H61  1  0.200300  0.515200  0.932000  1.0  0.1173
  H  H62  1  0.893800  0.904100  0.127900  1.0  0.1142
  H  H63  1  0.071800  0.208200  0.135800  1.0  0.1093
  H  H64  1  0.805900  0.874900  0.883000  1.0  0.1155
  H  H65  1  0.947100  0.753100  0.033200  1.0  0.1016
  H  H66  1  0.012200  0.382800  0.037400  1.0  0.1219
  H  H67  1  0.779200  0.080700  0.817100  1.0  0.1248
  H  H68  1  0.057700  0.891500  0.131200  1.0  0.1294
  H  H69  1  0.910200  0.267500  0.111600  1.0  0.1261
  H  H70  1  0.700300  0.015200  0.932000  1.0  0.1173
  H  H71  1  0.606200  0.404100  0.372100  1.0  0.1143
  H  H72  1  0.428200  0.708200  0.364200  1.0  0.1085
  H  H73  1  0.694100  0.374900  0.617000  1.0  0.1146
  H  H74  1  0.552900  0.253100  0.466800  1.0  0.1018
  H  H75  1  0.487800  0.882800  0.462600  1.0  0.1213
  H  H76  1  0.720800  0.580700  0.682900  1.0  0.1241
  H  H77  1  0.442300  0.391500  0.368800  1.0  0.1298
  H  H78  1  0.589800  0.767500  0.388400  1.0  0.1259
  H  H79  1  0.799700  0.515200  0.568000  1.0  0.1176
  H  H80  1  0.106200  0.904100  0.372100  1.0  0.1143
  H  H81  1  0.928200  0.208200  0.364200  1.0  0.1085
  H  H82  1  0.194100  0.874900  0.617000  1.0  0.1146
  H  H83  1  0.052900  0.753100  0.466800  1.0  0.1018
  H  H84  1  0.987800  0.382800  0.462600  1.0  0.1213
  H  H85  1  0.220800  0.080700  0.682900  1.0  0.1241
  H  H86  1  0.942300  0.891500  0.368800  1.0  0.1298
  H  H87  1  0.089800  0.267500  0.388400  1.0  0.1259
  H  H88  1  0.299700  0.015200  0.568000  1.0  0.1176
  C  C89  1  0.522570  0.593650  0.863470  1.0  -0.1467
  C  C90  1  0.510040  0.269610  0.869170  1.0  -0.147
  C  C91  1  0.749550  0.564170  0.087440  1.0  -0.1652
  C  C92  1  0.577250  0.618120  0.884310  1.0  0.0366
  C  C93  1  0.457740  0.260220  0.880290  1.0  0.0143
  C  C94  1  0.712120  0.578980  0.119520  1.0  0.0329
  C  C95  1  0.589900  0.675900  0.923580  1.0  -0.1874
  C  C96  1  0.449730  0.203320  0.915680  1.0  -0.1234
  C  C97  1  0.701650  0.524580  0.155490  1.0  -0.1577
  C  C98  1  0.545620  0.708590  0.940940  1.0  -0.0614
  C  C99  1  0.493470  0.155870  0.939720  1.0  -0.1083
  C  C100  1  0.727570  0.455430  0.158610  1.0  -0.0786
  C  C101  1  0.490680  0.684270  0.919720  1.0  0.0031
  C  C102  1  0.545850  0.166540  0.929350  1.0  -0.0102
  C  C103  1  0.763730  0.440140  0.125320  1.0  0.0731
  C  C104  1  0.478840  0.625800  0.881760  1.0  -0.0961
  C  C105  1  0.554410  0.224560  0.894440  1.0  -0.0798
  C  C106  1  0.775040  0.494890  0.089930  1.0  -0.0666
  C  C107  1  0.509640  0.530660  0.821950  1.0  0.7373
  C  C108  1  0.516720  0.326730  0.827170  1.0  0.7863
  C  C109  1  0.761270  0.622030  0.047910  1.0  0.7452
  C  C110  1  0.648970  0.701090  0.947300  1.0  0.789
  C  C111  1  0.392060  0.192120  0.925280  1.0  0.6893
  C  C112  1  0.660350  0.539760  0.189690  1.0  0.7068
  C  C113  1  0.444730  0.719600  0.937090  1.0  0.2905
  C  C114  1  0.591900  0.117860  0.953370  1.0  0.3239
  C  C115  1  0.788170  0.366420  0.126120  1.0  0.2757
  C  C116  1  0.022570  0.093650  0.863470  1.0  -0.1467
  C  C117  1  0.010040  0.769610  0.869170  1.0  -0.147
  C  C118  1  0.249550  0.064170  0.087440  1.0  -0.1652
  C  C119  1  0.077250  0.118120  0.884310  1.0  0.0366
  C  C120  1  0.957740  0.760220  0.880290  1.0  0.0143
  C  C121  1  0.212120  0.078980  0.119520  1.0  0.0329
  C  C122  1  0.089900  0.175900  0.923580  1.0  -0.1874
  C  C123  1  0.949730  0.703320  0.915680  1.0  -0.1234
  C  C124  1  0.201650  0.024580  0.155490  1.0  -0.1577
  C  C125  1  0.045620  0.208590  0.940940  1.0  -0.0614
  C  C126  1  0.993470  0.655870  0.939720  1.0  -0.1083
  C  C127  1  0.227570  0.955430  0.158610  1.0  -0.0786
  C  C128  1  0.990680  0.184270  0.919720  1.0  0.0031
  C  C129  1  0.045850  0.666540  0.929350  1.0  -0.0102
  C  C130  1  0.263730  0.940140  0.125320  1.0  0.0731
  C  C131  1  0.978840  0.125800  0.881760  1.0  -0.0961
  C  C132  1  0.054410  0.724560  0.894440  1.0  -0.0798
  C  C133  1  0.275040  0.994890  0.089930  1.0  -0.0666
  C  C134  1  0.009640  0.030660  0.821950  1.0  0.7373
  C  C135  1  0.016720  0.826730  0.827170  1.0  0.7863
  C  C136  1  0.261270  0.122030  0.047910  1.0  0.7452
  C  C137  1  0.148970  0.201090  0.947300  1.0  0.789
  C  C138  1  0.892060  0.692120  0.925280  1.0  0.6893
  C  C139  1  0.160350  0.039760  0.189690  1.0  0.7068
  C  C140  1  0.944730  0.219600  0.937090  1.0  0.2905
  C  C141  1  0.091900  0.617860  0.953370  1.0  0.3239
  C  C142  1  0.288170  0.866420  0.126120  1.0  0.2757
  C  C143  1  0.477430  0.593650  0.636530  1.0  -0.1469
  C  C144  1  0.489960  0.269610  0.630830  1.0  -0.1481
  C  C145  1  0.250450  0.564170  0.412560  1.0  -0.1645
  C  C146  1  0.422750  0.618120  0.615690  1.0  0.0371
  C  C147  1  0.542260  0.260220  0.619710  1.0  0.0144
  C  C148  1  0.287880  0.578980  0.380480  1.0  0.0322
  C  C149  1  0.410100  0.675900  0.576420  1.0  -0.1873
  C  C150  1  0.550270  0.203320  0.584320  1.0  -0.1233
  C  C151  1  0.298350  0.524580  0.344510  1.0  -0.1577
  C  C152  1  0.454380  0.708590  0.559060  1.0  -0.0615
  C  C153  1  0.506530  0.155870  0.560280  1.0  -0.108
  C  C154  1  0.272430  0.455430  0.341390  1.0  -0.0787
  C  C155  1  0.509320  0.684270  0.580280  1.0  0.0034
  C  C156  1  0.454150  0.166540  0.570650  1.0  -0.0112
  C  C157  1  0.236270  0.440140  0.374680  1.0  0.0721
  C  C158  1  0.521160  0.625800  0.618240  1.0  -0.0925
  C  C159  1  0.445590  0.224560  0.605560  1.0  -0.0821
  C  C160  1  0.224960  0.494890  0.410070  1.0  -0.0667
  C  C161  1  0.490360  0.530660  0.678050  1.0  0.7367
  C  C162  1  0.483280  0.326730  0.672830  1.0  0.7851
  C  C163  1  0.238730  0.622030  0.452090  1.0  0.7454
  C  C164  1  0.351030  0.701090  0.552700  1.0  0.7893
  C  C165  1  0.607940  0.192120  0.574720  1.0  0.6899
  C  C166  1  0.339650  0.539760  0.310310  1.0  0.7076
  C  C167  1  0.555270  0.719600  0.562910  1.0  0.2895
  C  C168  1  0.408100  0.117860  0.546630  1.0  0.323
  C  C169  1  0.211830  0.366420  0.373880  1.0  0.2761
  C  C170  1  0.977430  0.093650  0.636530  1.0  -0.1469
  C  C171  1  0.989960  0.769610  0.630830  1.0  -0.1481
  C  C172  1  0.750450  0.064170  0.412560  1.0  -0.1645
  C  C173  1  0.922750  0.118120  0.615690  1.0  0.0371
  C  C174  1  0.042260  0.760220  0.619710  1.0  0.0144
  C  C175  1  0.787880  0.078980  0.380480  1.0  0.0322
  C  C176  1  0.910100  0.175900  0.576420  1.0  -0.1873
  C  C177  1  0.050270  0.703320  0.584320  1.0  -0.1233
  C  C178  1  0.798350  0.024580  0.344510  1.0  -0.1577
  C  C179  1  0.954380  0.208590  0.559060  1.0  -0.0615
  C  C180  1  0.006530  0.655870  0.560280  1.0  -0.108
  C  C181  1  0.772430  0.955430  0.341390  1.0  -0.0787
  C  C182  1  0.009320  0.184270  0.580280  1.0  0.0034
  C  C183  1  0.954150  0.666540  0.570650  1.0  -0.0112
  C  C184  1  0.736270  0.940140  0.374680  1.0  0.0721
  C  C185  1  0.021160  0.125800  0.618240  1.0  -0.0925
  C  C186  1  0.945590  0.724560  0.605560  1.0  -0.0821
  C  C187  1  0.724960  0.994890  0.410070  1.0  -0.0667
  C  C188  1  0.990360  0.030660  0.678050  1.0  0.7367
  C  C189  1  0.983280  0.826730  0.672830  1.0  0.7851
  C  C190  1  0.738730  0.122030  0.452090  1.0  0.7454
  C  C191  1  0.851030  0.201090  0.552700  1.0  0.7893
  C  C192  1  0.107940  0.692120  0.574720  1.0  0.6899
  C  C193  1  0.839650  0.039760  0.310310  1.0  0.7076
  C  C194  1  0.055270  0.219600  0.562910  1.0  0.2895
  C  C195  1  0.908100  0.617860  0.546630  1.0  0.323
  C  C196  1  0.711830  0.866420  0.373880  1.0  0.2761
  C  C197  1  0.477430  0.406350  0.136530  1.0  -0.1472
  C  C198  1  0.489960  0.730390  0.130830  1.0  -0.1484
  C  C199  1  0.250450  0.435830  0.912560  1.0  -0.1652
  C  C200  1  0.422750  0.381880  0.115690  1.0  0.0368
  C  C201  1  0.542260  0.739780  0.119710  1.0  0.0142
  C  C202  1  0.287880  0.421020  0.880480  1.0  0.032
  C  C203  1  0.410100  0.324100  0.076420  1.0  -0.1874
  C  C204  1  0.550270  0.796680  0.084320  1.0  -0.1223
  C  C205  1  0.298350  0.475420  0.844510  1.0  -0.158
  C  C206  1  0.454380  0.291410  0.059060  1.0  -0.0611
  C  C207  1  0.506530  0.844130  0.060280  1.0  -0.1088
  C  C208  1  0.272430  0.544570  0.841390  1.0  -0.0798
  C  C209  1  0.509320  0.315730  0.080280  1.0  0.0038
  C  C210  1  0.454150  0.833460  0.070650  1.0  -0.0109
  C  C211  1  0.236270  0.559860  0.874680  1.0  0.0721
  C  C212  1  0.521160  0.374200  0.118240  1.0  -0.0925
  C  C213  1  0.445590  0.775440  0.105560  1.0  -0.082
  C  C214  1  0.224960  0.505110  0.910070  1.0  -0.0673
  C  C215  1  0.490360  0.469340  0.178050  1.0  0.7363
  C  C216  1  0.483280  0.673270  0.172830  1.0  0.7842
  C  C217  1  0.238730  0.377970  0.952090  1.0  0.7456
  C  C218  1  0.351030  0.298910  0.052700  1.0  0.7892
  C  C219  1  0.607940  0.807880  0.074720  1.0  0.6905
  C  C220  1  0.339650  0.460240  0.810310  1.0  0.7076
  C  C221  1  0.555270  0.280400  0.062910  1.0  0.2905
  C  C222  1  0.408100  0.882140  0.046630  1.0  0.3221
  C  C223  1  0.211830  0.633580  0.873880  1.0  0.2748
  C  C224  1  0.977430  0.906350  0.136530  1.0  -0.1472
  C  C225  1  0.989960  0.230390  0.130830  1.0  -0.1484
  C  C226  1  0.750450  0.935830  0.912560  1.0  -0.1652
  C  C227  1  0.922750  0.881880  0.115690  1.0  0.0368
  C  C228  1  0.042260  0.239780  0.119710  1.0  0.0142
  C  C229  1  0.787880  0.921020  0.880480  1.0  0.032
  C  C230  1  0.910100  0.824100  0.076420  1.0  -0.1874
  C  C231  1  0.050270  0.296680  0.084320  1.0  -0.1223
  C  C232  1  0.798350  0.975420  0.844510  1.0  -0.158
  C  C233  1  0.954380  0.791410  0.059060  1.0  -0.0611
  C  C234  1  0.006530  0.344130  0.060280  1.0  -0.1088
  C  C235  1  0.772430  0.044570  0.841390  1.0  -0.0798
  C  C236  1  0.009320  0.815730  0.080280  1.0  0.0038
  C  C237  1  0.954150  0.333460  0.070650  1.0  -0.0109
  C  C238  1  0.736270  0.059860  0.874680  1.0  0.0721
  C  C239  1  0.021160  0.874200  0.118240  1.0  -0.0925
  C  C240  1  0.945590  0.275440  0.105560  1.0  -0.082
  C  C241  1  0.724960  0.005110  0.910070  1.0  -0.0673
  C  C242  1  0.990360  0.969340  0.178050  1.0  0.7363
  C  C243  1  0.983280  0.173270  0.172830  1.0  0.7842
  C  C244  1  0.738730  0.877970  0.952090  1.0  0.7456
  C  C245  1  0.851030  0.798910  0.052700  1.0  0.7892
  C  C246  1  0.107940  0.307880  0.074720  1.0  0.6905
  C  C247  1  0.839650  0.960240  0.810310  1.0  0.7076
  C  C248  1  0.055270  0.780400  0.062910  1.0  0.2905
  C  C249  1  0.908100  0.382140  0.046630  1.0  0.3221
  C  C250  1  0.711830  0.133580  0.873880  1.0  0.2748
  C  C251  1  0.522570  0.406350  0.363470  1.0  -0.1468
  C  C252  1  0.510040  0.730390  0.369170  1.0  -0.1473
  C  C253  1  0.749550  0.435830  0.587440  1.0  -0.1654
  C  C254  1  0.577250  0.381880  0.384310  1.0  0.0365
  C  C255  1  0.457740  0.739780  0.380290  1.0  0.0145
  C  C256  1  0.712120  0.421020  0.619520  1.0  0.0315
  C  C257  1  0.589900  0.324100  0.423580  1.0  -0.1874
  C  C258  1  0.449730  0.796680  0.415680  1.0  -0.1221
  C  C259  1  0.701650  0.475420  0.655490  1.0  -0.1575
  C  C260  1  0.545620  0.291410  0.440940  1.0  -0.061
  C  C261  1  0.493470  0.844130  0.439720  1.0  -0.1089
  C  C262  1  0.727570  0.544570  0.658610  1.0  -0.0795
  C  C263  1  0.490680  0.315730  0.419720  1.0  0.0033
  C  C264  1  0.545850  0.833460  0.429350  1.0  -0.01
  C  C265  1  0.763730  0.559860  0.625320  1.0  0.0724
  C  C266  1  0.478840  0.374200  0.381760  1.0  -0.0961
  C  C267  1  0.554410  0.775440  0.394440  1.0  -0.0791
  C  C268  1  0.775040  0.505110  0.589930  1.0  -0.0664
  C  C269  1  0.509640  0.469340  0.321950  1.0  0.7371
  C  C270  1  0.516720  0.673270  0.327170  1.0  0.7854
  C  C271  1  0.761270  0.377970  0.547910  1.0  0.7453
  C  C272  1  0.648970  0.298910  0.447300  1.0  0.7889
  C  C273  1  0.392060  0.807880  0.425280  1.0  0.6903
  C  C274  1  0.660350  0.460240  0.689690  1.0  0.7069
  C  C275  1  0.444730  0.280400  0.437090  1.0  0.2913
  C  C276  1  0.591900  0.882140  0.453370  1.0  0.3231
  C  C277  1  0.788170  0.633580  0.626120  1.0  0.2748
  C  C278  1  0.022570  0.906350  0.363470  1.0  -0.1468
  C  C279  1  0.010040  0.230390  0.369170  1.0  -0.1473
  C  C280  1  0.249550  0.935830  0.587440  1.0  -0.1654
  C  C281  1  0.077250  0.881880  0.384310  1.0  0.0365
  C  C282  1  0.957740  0.239780  0.380290  1.0  0.0145
  C  C283  1  0.212120  0.921020  0.619520  1.0  0.0315
  C  C284  1  0.089900  0.824100  0.423580  1.0  -0.1874
  C  C285  1  0.949730  0.296680  0.415680  1.0  -0.1221
  C  C286  1  0.201650  0.975420  0.655490  1.0  -0.1575
  C  C287  1  0.045620  0.791410  0.440940  1.0  -0.061
  C  C288  1  0.993470  0.344130  0.439720  1.0  -0.1089
  C  C289  1  0.227570  0.044570  0.658610  1.0  -0.0795
  C  C290  1  0.990680  0.815730  0.419720  1.0  0.0033
  C  C291  1  0.045850  0.333460  0.429350  1.0  -0.01
  C  C292  1  0.263730  0.059860  0.625320  1.0  0.0724
  C  C293  1  0.978840  0.874200  0.381760  1.0  -0.0961
  C  C294  1  0.054410  0.275440  0.394440  1.0  -0.0791
  C  C295  1  0.275040  0.005110  0.589930  1.0  -0.0664
  C  C296  1  0.009640  0.969340  0.321950  1.0  0.7371
  C  C297  1  0.016720  0.173270  0.327170  1.0  0.7854
  C  C298  1  0.261270  0.877970  0.547910  1.0  0.7453
  C  C299  1  0.148970  0.798910  0.447300  1.0  0.7889
  C  C300  1  0.892060  0.307880  0.425280  1.0  0.6903
  C  C301  1  0.160350  0.960240  0.689690  1.0  0.7069
  C  C302  1  0.944730  0.780400  0.437090  1.0  0.2913
  C  C303  1  0.091900  0.382140  0.453370  1.0  0.3231
  C  C304  1  0.288170  0.133580  0.626120  1.0  0.2748
  N  N305  1  0.408040  0.745800  0.949930  1.0  -0.3915
  N  N306  1  0.628600  0.078390  0.971520  1.0  -0.5074
  N  N307  1  0.807340  0.307930  0.125860  1.0  -0.4377
  N  N308  1  0.908040  0.245800  0.949930  1.0  -0.3915
  N  N309  1  0.128600  0.578390  0.971520  1.0  -0.5074
  N  N310  1  0.307340  0.807930  0.125860  1.0  -0.4377
  N  N311  1  0.591960  0.745800  0.550070  1.0  -0.3919
  N  N312  1  0.371400  0.078390  0.528480  1.0  -0.5055
  N  N313  1  0.192660  0.307930  0.374140  1.0  -0.4384
  N  N314  1  0.091960  0.245800  0.550070  1.0  -0.3919
  N  N315  1  0.871400  0.578390  0.528480  1.0  -0.5055
  N  N316  1  0.692660  0.807930  0.374140  1.0  -0.4384
  N  N317  1  0.591960  0.254200  0.050070  1.0  -0.3913
  N  N318  1  0.371400  0.921610  0.028480  1.0  -0.505
  N  N319  1  0.192660  0.692070  0.874140  1.0  -0.4386
  N  N320  1  0.091960  0.754200  0.050070  1.0  -0.3913
  N  N321  1  0.871400  0.421610  0.028480  1.0  -0.505
  N  N322  1  0.692660  0.192070  0.874140  1.0  -0.4386
  N  N323  1  0.408040  0.254200  0.449930  1.0  -0.3917
  N  N324  1  0.628600  0.921610  0.471520  1.0  -0.5075
  N  N325  1  0.807340  0.692070  0.625860  1.0  -0.4388
  N  N326  1  0.908040  0.754200  0.449930  1.0  -0.3917
  N  N327  1  0.128600  0.421610  0.471520  1.0  -0.5075
  N  N328  1  0.307340  0.192070  0.625860  1.0  -0.4388
  O  O329  1  0.460090  0.507970  0.808640  1.0  -0.7123
  O  O330  1  0.472190  0.348340  0.794580  1.0  -0.6851
  O  O331  1  0.745350  0.688320  0.051690  1.0  -0.8071
  O  O332  1  0.549770  0.507110  0.804090  1.0  -0.731
  O  O333  1  0.565020  0.346290  0.825690  1.0  -0.6303
  O  O334  1  0.785880  0.600370  0.012160  1.0  -0.6256
  O  O335  1  0.687300  0.667800  0.932240  1.0  -0.7471
  O  O336  1  0.354120  0.238730  0.903560  1.0  -0.6017
  O  O337  1  0.626650  0.593020  0.175610  1.0  -0.6682
  O  O338  1  0.654470  0.754510  0.980260  1.0  -0.6815
  O  O339  1  0.383530  0.138220  0.954360  1.0  -0.6787
  O  O340  1  0.661770  0.499570  0.231520  1.0  -0.6506
  O  O341  1  0.960090  0.007970  0.808640  1.0  -0.7123
  O  O342  1  0.972190  0.848340  0.794580  1.0  -0.6851
  O  O343  1  0.245350  0.188320  0.051690  1.0  -0.8071
  O  O344  1  0.049770  0.007110  0.804090  1.0  -0.731
  O  O345  1  0.065020  0.846290  0.825690  1.0  -0.6303
  O  O346  1  0.285880  0.100370  0.012160  1.0  -0.6256
  O  O347  1  0.187300  0.167800  0.932240  1.0  -0.7471
  O  O348  1  0.854120  0.738730  0.903560  1.0  -0.6017
  O  O349  1  0.126650  0.093020  0.175610  1.0  -0.6682
  O  O350  1  0.154470  0.254510  0.980260  1.0  -0.6815
  O  O351  1  0.883530  0.638220  0.954360  1.0  -0.6787
  O  O352  1  0.161770  0.999570  0.231520  1.0  -0.6506
  O  O353  1  0.539910  0.507970  0.691360  1.0  -0.7114
  O  O354  1  0.527810  0.348340  0.705420  1.0  -0.686
  O  O355  1  0.254650  0.688320  0.448310  1.0  -0.8067
  O  O356  1  0.450230  0.507110  0.695910  1.0  -0.731
  O  O357  1  0.434980  0.346290  0.674310  1.0  -0.6283
  O  O358  1  0.214120  0.600370  0.487840  1.0  -0.6251
  O  O359  1  0.312700  0.667800  0.567760  1.0  -0.7454
  O  O360  1  0.645880  0.238730  0.596440  1.0  -0.6043
  O  O361  1  0.373350  0.593020  0.324390  1.0  -0.6698
  O  O362  1  0.345530  0.754510  0.519740  1.0  -0.6809
  O  O363  1  0.616470  0.138220  0.545640  1.0  -0.6791
  O  O364  1  0.338230  0.499570  0.268480  1.0  -0.6513
  O  O365  1  0.039910  0.007970  0.691360  1.0  -0.7114
  O  O366  1  0.027810  0.848340  0.705420  1.0  -0.686
  O  O367  1  0.754650  0.188320  0.448310  1.0  -0.8067
  O  O368  1  0.950230  0.007110  0.695910  1.0  -0.731
  O  O369  1  0.934980  0.846290  0.674310  1.0  -0.6283
  O  O370  1  0.714120  0.100370  0.487840  1.0  -0.6251
  O  O371  1  0.812700  0.167800  0.567760  1.0  -0.7454
  O  O372  1  0.145880  0.738730  0.596440  1.0  -0.6043
  O  O373  1  0.873350  0.093020  0.324390  1.0  -0.6698
  O  O374  1  0.845530  0.254510  0.519740  1.0  -0.6809
  O  O375  1  0.116470  0.638220  0.545640  1.0  -0.6791
  O  O376  1  0.838230  0.999570  0.268480  1.0  -0.6513
  O  O377  1  0.539910  0.492030  0.191360  1.0  -0.7112
  O  O378  1  0.527810  0.651660  0.205420  1.0  -0.6861
  O  O379  1  0.254650  0.311680  0.948310  1.0  -0.8038
  O  O380  1  0.450230  0.492890  0.195910  1.0  -0.7308
  O  O381  1  0.434980  0.653710  0.174310  1.0  -0.6282
  O  O382  1  0.214120  0.399630  0.987840  1.0  -0.629
  O  O383  1  0.312700  0.332200  0.067760  1.0  -0.7459
  O  O384  1  0.645880  0.761270  0.096440  1.0  -0.6045
  O  O385  1  0.373350  0.406980  0.824390  1.0  -0.6704
  O  O386  1  0.345530  0.245490  0.019740  1.0  -0.6809
  O  O387  1  0.616470  0.861780  0.045640  1.0  -0.6803
  O  O388  1  0.338230  0.500430  0.768480  1.0  -0.6516
  O  O389  1  0.039910  0.992030  0.191360  1.0  -0.7112
  O  O390  1  0.027810  0.151660  0.205420  1.0  -0.6861
  O  O391  1  0.754650  0.811680  0.948310  1.0  -0.8038
  O  O392  1  0.950230  0.992890  0.195910  1.0  -0.7308
  O  O393  1  0.934980  0.153710  0.174310  1.0  -0.6282
  O  O394  1  0.714120  0.899630  0.987840  1.0  -0.629
  O  O395  1  0.812700  0.832200  0.067760  1.0  -0.7459
  O  O396  1  0.145880  0.261270  0.096440  1.0  -0.6045
  O  O397  1  0.873350  0.906980  0.824390  1.0  -0.6704
  O  O398  1  0.845530  0.745490  0.019740  1.0  -0.6809
  O  O399  1  0.116470  0.361780  0.045640  1.0  -0.6803
  O  O400  1  0.838230  0.000430  0.768480  1.0  -0.6516
  O  O401  1  0.460090  0.492030  0.308640  1.0  -0.712
  O  O402  1  0.472190  0.651660  0.294580  1.0  -0.6846
  O  O403  1  0.745350  0.311680  0.551690  1.0  -0.8047
  O  O404  1  0.549770  0.492890  0.304090  1.0  -0.7308
  O  O405  1  0.565020  0.653710  0.325690  1.0  -0.6299
  O  O406  1  0.785880  0.399630  0.512160  1.0  -0.6285
  O  O407  1  0.687300  0.332200  0.432240  1.0  -0.7468
  O  O408  1  0.354120  0.761270  0.403560  1.0  -0.6021
  O  O409  1  0.626650  0.406980  0.675610  1.0  -0.6688
  O  O410  1  0.654470  0.245490  0.480260  1.0  -0.6814
  O  O411  1  0.383530  0.861780  0.454360  1.0  -0.6793
  O  O412  1  0.661770  0.500430  0.731520  1.0  -0.6517
  O  O413  1  0.960090  0.992030  0.308640  1.0  -0.712
  O  O414  1  0.972190  0.151660  0.294580  1.0  -0.6846
  O  O415  1  0.245350  0.811680  0.551690  1.0  -0.8047
  O  O416  1  0.049770  0.992890  0.304090  1.0  -0.7308
  O  O417  1  0.065020  0.153710  0.325690  1.0  -0.6299
  O  O418  1  0.285880  0.899630  0.512160  1.0  -0.6285
  O  O419  1  0.187300  0.832200  0.432240  1.0  -0.7468
  O  O420  1  0.854120  0.261270  0.403560  1.0  -0.6021
  O  O421  1  0.126650  0.906980  0.675610  1.0  -0.6688
  O  O422  1  0.154470  0.745490  0.480260  1.0  -0.6814
  O  O423  1  0.883530  0.361780  0.454360  1.0  -0.6793
  O  O424  1  0.161770  0.000430  0.731520  1.0  -0.6517
