# generated using pymatgen
data_DyH9C12(NO2)3
_symmetry_space_group_name_H-M   'P 1'
_cell_length_a   10.58510000
_cell_length_b   10.78830000
_cell_length_c   12.87270000
_cell_angle_alpha   73.87800000
_cell_angle_beta   67.67700000
_cell_angle_gamma   81.16000000
_symmetry_Int_Tables_number   1
_chemical_formula_structural   DyH9C12(NO2)3
_chemical_formula_sum   'Dy2 H18 C24 N6 O12'
_cell_volume   1304.43318928
_cell_formula_units_Z   2
loop_
 _symmetry_equiv_pos_site_id
 _symmetry_equiv_pos_as_xyz
  1  'x, y, z'
loop_
 _atom_site_type_symbol
 _atom_site_label
 _atom_site_symmetry_multiplicity
 _atom_site_fract_x
 _atom_site_fract_y
 _atom_site_fract_z
 _atom_site_occupancy
 _atom_site_charge
  Dy  Dy1  1  0.061450  0.034110  0.315580  1.0  2.2019
  Dy  Dy2  1  0.938550  0.965890  0.684420  1.0  2.1991
  H  H3  1  0.860500  0.359700  0.659400  1.0  0.094
  H  H4  1  0.819900  0.364100  0.103000  1.0  0.0983
  H  H5  1  0.704200  0.058400  0.350800  1.0  0.0907
  H  H6  1  0.189400  0.486200  0.235600  1.0  0.3
  H  H7  1  0.131900  0.356000  0.284500  1.0  0.3081
  H  H8  1  0.318200  0.487700  0.978700  1.0  0.3209
  H  H9  1  0.269900  0.363700  0.063600  1.0  0.3017
  H  H10  1  0.408000  0.888900  0.779500  1.0  0.3231
  H  H11  1  0.557400  0.902600  0.744800  1.0  0.3091
  H  H12  1  0.139500  0.640300  0.340600  1.0  0.0937
  H  H13  1  0.180100  0.635900  0.897000  1.0  0.0978
  H  H14  1  0.295800  0.941600  0.649200  1.0  0.0902
  H  H15  1  0.810600  0.513800  0.764400  1.0  0.3011
  H  H16  1  0.868100  0.644000  0.715500  1.0  0.3077
  H  H17  1  0.681800  0.512300  0.021300  1.0  0.3196
  H  H18  1  0.730100  0.636300  0.936400  1.0  0.3027
  H  H19  1  0.592000  0.111100  0.220500  1.0  0.3232
  H  H20  1  0.442600  0.097400  0.255200  1.0  0.305
  C  C21  1  0.967300  0.242100  0.491300  1.0  0.7025
  C  C22  1  0.037000  0.256300  0.152200  1.0  0.6648
  C  C23  1  0.750100  0.979800  0.545200  1.0  0.675
  C  C24  1  0.984700  0.376200  0.492900  1.0  -0.2041
  C  C25  1  0.019000  0.382500  0.074200  1.0  -0.1793
  C  C26  1  0.619800  0.989900  0.523900  1.0  -0.1925
  C  C27  1  0.068900  0.462000  0.396000  1.0  0.2494
  C  C28  1  0.128200  0.464600  0.011900  1.0  0.2716
  C  C29  1  0.495900  0.954900  0.614600  1.0  0.2503
  C  C30  1  0.916800  0.416200  0.595400  1.0  -0.1566
  C  C31  1  0.891800  0.418600  0.061700  1.0  -0.1514
  C  C32  1  0.622000  0.034800  0.410600  1.0  -0.1436
  C  C33  1  0.032700  0.757900  0.508700  1.0  0.7031
  C  C34  1  0.963000  0.743700  0.847800  1.0  0.666
  C  C35  1  0.249900  0.020200  0.454800  1.0  0.6747
  C  C36  1  0.015300  0.623800  0.507100  1.0  -0.2044
  C  C37  1  0.981000  0.617500  0.925800  1.0  -0.1792
  C  C38  1  0.380200  0.010100  0.476100  1.0  -0.1917
  C  C39  1  0.931100  0.538000  0.604000  1.0  0.2496
  C  C40  1  0.871800  0.535400  0.988100  1.0  0.2695
  C  C41  1  0.504100  0.045100  0.385400  1.0  0.2486
  C  C42  1  0.083200  0.583800  0.404600  1.0  -0.1571
  C  C43  1  0.108200  0.581400  0.938300  1.0  -0.1514
  C  C44  1  0.378000  0.965200  0.589400  1.0  -0.1427
  N  N45  1  0.138600  0.430900  0.292710  1.0  -0.6713
  N  N46  1  0.254000  0.435100  0.018900  1.0  -0.6869
  N  N47  1  0.485900  0.910000  0.726610  1.0  -0.7253
  N  N48  1  0.861400  0.569100  0.707290  1.0  -0.6714
  N  N49  1  0.746000  0.564900  0.981100  1.0  -0.6858
  N  N50  1  0.514100  0.090000  0.273390  1.0  -0.723
  O  O51  1  0.020400  0.212490  0.394230  1.0  -0.6215
  O  O52  1  0.153400  0.222960  0.162490  1.0  -0.6633
  O  O53  1  0.860110  0.000180  0.460720  1.0  -0.7716
  O  O54  1  0.900700  0.167980  0.584510  1.0  -0.7162
  O  O55  1  0.937800  0.183870  0.209150  1.0  -0.6234
  O  O56  1  0.743300  0.950870  0.650140  1.0  -0.6508
  O  O57  1  0.979600  0.787510  0.605770  1.0  -0.6202
  O  O58  1  0.846600  0.777040  0.837510  1.0  -0.6626
  O  O59  1  0.139890  0.999820  0.539280  1.0  -0.7731
  O  O60  1  0.099300  0.832020  0.415490  1.0  -0.7167
  O  O61  1  0.062200  0.816130  0.790850  1.0  -0.6241
  O  O62  1  0.256700  0.049130  0.349860  1.0  -0.6519
