# generated using pymatgen
data_RbCo(CN)6
_symmetry_space_group_name_H-M   'P 1'
_cell_length_a   13.88480000
_cell_length_b   7.90260000
_cell_length_c   13.83140000
_cell_angle_alpha   90.00000000
_cell_angle_beta   108.21000000
_cell_angle_gamma   90.00000000
_symmetry_Int_Tables_number   1
_chemical_formula_structural   RbCo(CN)6
_chemical_formula_sum   'Rb4 Co4 C24 N24'
_cell_volume   1441.65608529
_cell_formula_units_Z   4
loop_
 _symmetry_equiv_pos_site_id
 _symmetry_equiv_pos_as_xyz
  1  'x, y, z'
loop_
 _atom_site_type_symbol
 _atom_site_label
 _atom_site_symmetry_multiplicity
 _atom_site_fract_x
 _atom_site_fract_y
 _atom_site_fract_z
 _atom_site_occupancy
 _atom_site_charge
  Rb  Rb1  1  0.500000  0.211320  0.250000  1.0  1.0535
  Rb  Rb2  1  0.000000  0.711320  0.250000  1.0  1.0535
  Rb  Rb3  1  0.500000  0.788680  0.750000  1.0  1.0533
  Rb  Rb4  1  0.000000  0.288680  0.750000  1.0  1.0533
  Co  Co5  1  0.750000  0.250000  0.000000  1.0  -0.2082
  Co  Co6  1  0.250000  0.250000  0.500000  1.0  -0.2082
  Co  Co7  1  0.250000  0.750000  0.000000  1.0  -0.2082
  Co  Co8  1  0.750000  0.750000  0.500000  1.0  -0.2082
  C  C9  1  0.633400  0.205800  0.040100  1.0  0.3007
  C  C10  1  0.807500  0.041900  0.061400  1.0  0.3176
  C  C11  1  0.690000  0.131600  0.876100  1.0  0.3058
  C  C12  1  0.133400  0.705800  0.040100  1.0  0.303
  C  C13  1  0.307500  0.541900  0.061400  1.0  0.3131
  C  C14  1  0.190000  0.631600  0.876100  1.0  0.3058
  C  C15  1  0.366600  0.205800  0.459900  1.0  0.3016
  C  C16  1  0.192500  0.041900  0.438600  1.0  0.317
  C  C17  1  0.310000  0.131600  0.623900  1.0  0.3065
  C  C18  1  0.866600  0.705800  0.459900  1.0  0.304
  C  C19  1  0.692500  0.541900  0.438600  1.0  0.3126
  C  C20  1  0.810000  0.631600  0.623900  1.0  0.3065
  C  C21  1  0.366600  0.794200  0.959900  1.0  0.3012
  C  C22  1  0.192500  0.958100  0.938600  1.0  0.318
  C  C23  1  0.310000  0.868400  0.123900  1.0  0.3061
  C  C24  1  0.866600  0.294200  0.959900  1.0  0.3039
  C  C25  1  0.692500  0.458100  0.938600  1.0  0.3183
  C  C26  1  0.810000  0.368400  0.123900  1.0  0.3061
  C  C27  1  0.633400  0.794200  0.540100  1.0  0.3006
  C  C28  1  0.807500  0.958100  0.561400  1.0  0.3169
  C  C29  1  0.690000  0.868400  0.376100  1.0  0.3058
  C  C30  1  0.133400  0.294200  0.540100  1.0  0.3032
  C  C31  1  0.307500  0.458100  0.561400  1.0  0.317
  C  C32  1  0.190000  0.368400  0.376100  1.0  0.3058
  N  N33  1  0.436600  0.177000  0.436300  1.0  -0.4762
  N  N34  1  0.656000  0.940600  0.301800  1.0  -0.4305
  N  N35  1  0.661000  0.414900  0.403000  1.0  -0.4388
  N  N36  1  0.936600  0.677000  0.436300  1.0  -0.4762
  N  N37  1  0.156000  0.440600  0.301800  1.0  -0.4305
  N  N38  1  0.161000  0.914900  0.403000  1.0  -0.4388
  N  N39  1  0.563400  0.177000  0.063700  1.0  -0.476
  N  N40  1  0.344000  0.940600  0.198200  1.0  -0.432
  N  N41  1  0.339000  0.414900  0.097000  1.0  -0.438
  N  N42  1  0.063400  0.677000  0.063700  1.0  -0.476
  N  N43  1  0.844000  0.440600  0.198200  1.0  -0.432
  N  N44  1  0.839000  0.914900  0.097000  1.0  -0.438
  N  N45  1  0.563400  0.823000  0.563700  1.0  -0.4768
  N  N46  1  0.344000  0.059400  0.698200  1.0  -0.4305
  N  N47  1  0.339000  0.585100  0.597000  1.0  -0.4416
  N  N48  1  0.063400  0.323000  0.563700  1.0  -0.4768
  N  N49  1  0.844000  0.559400  0.698200  1.0  -0.4305
  N  N50  1  0.839000  0.085100  0.597000  1.0  -0.4416
  N  N51  1  0.436600  0.823000  0.936300  1.0  -0.4765
  N  N52  1  0.656000  0.059400  0.801800  1.0  -0.4295
  N  N53  1  0.661000  0.585100  0.903000  1.0  -0.4424
  N  N54  1  0.936600  0.323000  0.936300  1.0  -0.4765
  N  N55  1  0.156000  0.559400  0.801800  1.0  -0.4295
  N  N56  1  0.161000  0.085100  0.903000  1.0  -0.4424
