# generated using pymatgen
data_KCo(CN)6
_symmetry_space_group_name_H-M   'P 1'
_cell_length_a   11.45400000
_cell_length_b   11.45400000
_cell_length_c   11.45400000
_cell_angle_alpha   90.00000000
_cell_angle_beta   90.00000000
_cell_angle_gamma   90.00000000
_symmetry_Int_Tables_number   1
_chemical_formula_structural   KCo(CN)6
_chemical_formula_sum   'K4 Co4 C24 N24'
_cell_volume   1502.69740466
_cell_formula_units_Z   4
loop_
 _symmetry_equiv_pos_site_id
 _symmetry_equiv_pos_as_xyz
  1  'x, y, z'
loop_
 _atom_site_type_symbol
 _atom_site_label
 _atom_site_symmetry_multiplicity
 _atom_site_fract_x
 _atom_site_fract_y
 _atom_site_fract_z
 _atom_site_occupancy
 _atom_site_charge
  K  K1  1  0.500000  0.500000  0.500000  1.0  0.943
  K  K2  1  0.500000  0.000000  0.000000  1.0  0.943
  K  K3  1  0.000000  0.500000  0.000000  1.0  0.943
  K  K4  1  0.000000  0.000000  0.500000  1.0  0.943
  Co  Co5  1  0.000000  0.500000  0.500000  1.0  -0.2484
  Co  Co6  1  0.000000  0.000000  0.000000  1.0  -0.2484
  Co  Co7  1  0.500000  0.000000  0.500000  1.0  -0.2484
  Co  Co8  1  0.500000  0.500000  0.000000  1.0  -0.2484
  C  C9  1  0.162900  0.500000  0.500000  1.0  0.2661
  C  C10  1  0.162900  0.000000  0.000000  1.0  0.2661
  C  C11  1  0.662900  0.500000  0.000000  1.0  0.2661
  C  C12  1  0.662900  0.000000  0.500000  1.0  0.2661
  C  C13  1  0.837100  0.500000  0.500000  1.0  0.2669
  C  C14  1  0.837100  0.000000  0.000000  1.0  0.2669
  C  C15  1  0.337100  0.500000  0.000000  1.0  0.2669
  C  C16  1  0.337100  0.000000  0.500000  1.0  0.2669
  C  C17  1  0.500000  0.162900  0.500000  1.0  0.2642
  C  C18  1  0.500000  0.662900  0.000000  1.0  0.2642
  C  C19  1  0.000000  0.162900  0.000000  1.0  0.2639
  C  C20  1  0.000000  0.662900  0.500000  1.0  0.2639
  C  C21  1  0.500000  0.837100  0.500000  1.0  0.2662
  C  C22  1  0.500000  0.337100  0.000000  1.0  0.2663
  C  C23  1  0.000000  0.837100  0.000000  1.0  0.2662
  C  C24  1  0.000000  0.337100  0.500000  1.0  0.2662
  C  C25  1  0.500000  0.500000  0.162900  1.0  0.2691
  C  C26  1  0.500000  0.000000  0.662900  1.0  0.2691
  C  C27  1  0.000000  0.500000  0.662900  1.0  0.2691
  C  C28  1  0.000000  0.000000  0.162900  1.0  0.2691
  C  C29  1  0.500000  0.500000  0.837100  1.0  0.2667
  C  C30  1  0.500000  0.000000  0.337100  1.0  0.2669
  C  C31  1  0.000000  0.500000  0.337100  1.0  0.2669
  C  C32  1  0.000000  0.000000  0.837100  1.0  0.2667
  N  N33  1  0.259200  0.500000  0.500000  1.0  -0.3811
  N  N34  1  0.259200  0.000000  0.000000  1.0  -0.3811
  N  N35  1  0.759200  0.500000  0.000000  1.0  -0.3811
  N  N36  1  0.759200  0.000000  0.500000  1.0  -0.3811
  N  N37  1  0.740800  0.500000  0.500000  1.0  -0.3802
  N  N38  1  0.740800  0.000000  0.000000  1.0  -0.3802
  N  N39  1  0.240800  0.500000  0.000000  1.0  -0.3802
  N  N40  1  0.240800  0.000000  0.500000  1.0  -0.3802
  N  N41  1  0.500000  0.259200  0.500000  1.0  -0.3854
  N  N42  1  0.500000  0.759200  0.000000  1.0  -0.3854
  N  N43  1  0.000000  0.259200  0.000000  1.0  -0.3854
  N  N44  1  0.000000  0.759200  0.500000  1.0  -0.3854
  N  N45  1  0.500000  0.740800  0.500000  1.0  -0.3836
  N  N46  1  0.500000  0.240800  0.000000  1.0  -0.3836
  N  N47  1  0.000000  0.740800  0.000000  1.0  -0.3836
  N  N48  1  0.000000  0.240800  0.500000  1.0  -0.3836
  N  N49  1  0.500000  0.500000  0.259200  1.0  -0.3805
  N  N50  1  0.500000  0.000000  0.759200  1.0  -0.3805
  N  N51  1  0.000000  0.500000  0.759200  1.0  -0.3805
  N  N52  1  0.000000  0.000000  0.259200  1.0  -0.3805
  N  N53  1  0.500000  0.500000  0.740800  1.0  -0.3829
  N  N54  1  0.500000  0.000000  0.240800  1.0  -0.3829
  N  N55  1  0.000000  0.500000  0.240800  1.0  -0.3829
  N  N56  1  0.000000  0.000000  0.740800  1.0  -0.3829
