# generated using pymatgen
data_CuH24(C3N)12
_symmetry_space_group_name_H-M   'P 1'
_cell_length_a   14.08450000
_cell_length_b   14.08450000
_cell_length_c   44.20360000
_cell_angle_alpha   90.00000000
_cell_angle_beta   90.00000000
_cell_angle_gamma   90.00000000
_symmetry_Int_Tables_number   1
_chemical_formula_structural   CuH24(C3N)12
_chemical_formula_sum   'Cu8 H192 C288 N96'
_cell_volume   8768.80694235
_cell_formula_units_Z   8
loop_
 _symmetry_equiv_pos_site_id
 _symmetry_equiv_pos_as_xyz
  1  'x, y, z'
loop_
 _atom_site_type_symbol
 _atom_site_label
 _atom_site_symmetry_multiplicity
 _atom_site_fract_x
 _atom_site_fract_y
 _atom_site_fract_z
 _atom_site_occupancy
 _atom_site_charge
  Cu  Cu1  1  0.500000  0.250000  0.171910  1.0  0.4715
  Cu  Cu2  1  0.000000  0.750000  0.671910  1.0  0.4715
  Cu  Cu3  1  0.500000  0.750000  0.421910  1.0  0.4715
  Cu  Cu4  1  0.000000  0.250000  0.921910  1.0  0.4715
  Cu  Cu5  1  0.500000  0.750000  0.828090  1.0  0.4717
  Cu  Cu6  1  0.000000  0.250000  0.328090  1.0  0.4717
  Cu  Cu7  1  0.500000  0.250000  0.578090  1.0  0.4717
  Cu  Cu8  1  0.000000  0.750000  0.078090  1.0  0.4717
  H  H9  1  0.706400  0.293900  0.192100  1.0  0.0686
  H  H10  1  0.479800  0.385100  0.232600  1.0  0.1074
  H  H11  1  0.617800  0.574000  0.220900  1.0  0.0984
  H  H12  1  0.619800  0.735800  0.219300  1.0  0.099
  H  H13  1  0.628000  0.824900  0.264000  1.0  0.1026
  H  H14  1  0.634500  0.751900  0.309900  1.0  0.0972
  H  H15  1  0.646200  0.453700  0.370300  1.0  0.0999
  H  H16  1  0.640400  0.292000  0.372400  1.0  0.0956
  H  H17  1  0.619400  0.202500  0.328500  1.0  0.1003
  H  H18  1  0.614500  0.274200  0.282300  1.0  0.0948
  H  H19  1  0.718300  0.716100  0.403100  1.0  0.0796
  H  H20  1  0.493000  0.633600  0.359500  1.0  0.1016
  H  H21  1  0.206400  0.793900  0.692100  1.0  0.0686
  H  H22  1  0.979800  0.885100  0.732600  1.0  0.1074
  H  H23  1  0.117800  0.074000  0.720900  1.0  0.0984
  H  H24  1  0.119800  0.235800  0.719300  1.0  0.099
  H  H25  1  0.128000  0.324900  0.764000  1.0  0.1026
  H  H26  1  0.134500  0.251900  0.809900  1.0  0.0972
  H  H27  1  0.146200  0.953700  0.870300  1.0  0.0999
  H  H28  1  0.140400  0.792000  0.872400  1.0  0.0956
  H  H29  1  0.119400  0.702500  0.828500  1.0  0.1003
  H  H30  1  0.114500  0.774200  0.782300  1.0  0.0948
  H  H31  1  0.218300  0.216100  0.903100  1.0  0.0796
  H  H32  1  0.993000  0.133600  0.859500  1.0  0.1016
  H  H33  1  0.793600  0.706100  0.692100  1.0  0.0683
  H  H34  1  0.020200  0.614900  0.732600  1.0  0.1078
  H  H35  1  0.882200  0.426000  0.720900  1.0  0.0983
  H  H36  1  0.880200  0.264200  0.719300  1.0  0.0991
  H  H37  1  0.872000  0.175100  0.764000  1.0  0.1017
  H  H38  1  0.865500  0.248100  0.809900  1.0  0.0977
  H  H39  1  0.853800  0.546300  0.870300  1.0  0.1001
  H  H40  1  0.859600  0.708000  0.872400  1.0  0.0953
  H  H41  1  0.880600  0.797500  0.828500  1.0  0.0998
  H  H42  1  0.885500  0.725800  0.782300  1.0  0.0947
  H  H43  1  0.781700  0.283900  0.903100  1.0  0.0794
  H  H44  1  0.007000  0.366400  0.859500  1.0  0.1016
  H  H45  1  0.293600  0.206100  0.192100  1.0  0.0683
  H  H46  1  0.520200  0.114900  0.232600  1.0  0.1078
  H  H47  1  0.382200  0.926000  0.220900  1.0  0.0983
  H  H48  1  0.380200  0.764200  0.219300  1.0  0.0991
  H  H49  1  0.372000  0.675100  0.264000  1.0  0.1017
  H  H50  1  0.365500  0.748100  0.309900  1.0  0.0977
  H  H51  1  0.353800  0.046300  0.370300  1.0  0.1001
  H  H52  1  0.359600  0.208000  0.372400  1.0  0.0953
  H  H53  1  0.380600  0.297500  0.328500  1.0  0.0998
  H  H54  1  0.385500  0.225800  0.282300  1.0  0.0947
  H  H55  1  0.281700  0.783900  0.403100  1.0  0.0794
  H  H56  1  0.507000  0.866400  0.359500  1.0  0.1016
  H  H57  1  0.456100  0.956400  0.442100  1.0  0.0686
  H  H58  1  0.364900  0.729800  0.482600  1.0  0.1076
  H  H59  1  0.176000  0.867800  0.470900  1.0  0.0984
  H  H60  1  0.014200  0.869800  0.469300  1.0  0.0991
  H  H61  1  0.925100  0.878000  0.514000  1.0  0.1018
  H  H62  1  0.998100  0.884500  0.559900  1.0  0.0975
  H  H63  1  0.296300  0.896200  0.620300  1.0  0.1001
  H  H64  1  0.458000  0.890400  0.622400  1.0  0.0943
  H  H65  1  0.547500  0.869400  0.578500  1.0  0.1027
  H  H66  1  0.475800  0.864500  0.532300  1.0  0.0946
  H  H67  1  0.033900  0.968300  0.653100  1.0  0.0826
  H  H68  1  0.116400  0.743000  0.609500  1.0  0.101
  H  H69  1  0.956100  0.456400  0.942100  1.0  0.0686
  H  H70  1  0.864900  0.229800  0.982600  1.0  0.1076
  H  H71  1  0.676000  0.367800  0.970900  1.0  0.0984
  H  H72  1  0.514200  0.369800  0.969300  1.0  0.0991
  H  H73  1  0.425100  0.378000  0.014000  1.0  0.1018
  H  H74  1  0.498100  0.384500  0.059900  1.0  0.0975
  H  H75  1  0.796300  0.396200  0.120300  1.0  0.1001
  H  H76  1  0.958000  0.390400  0.122400  1.0  0.0943
  H  H77  1  0.047500  0.369400  0.078500  1.0  0.1027
  H  H78  1  0.975800  0.364500  0.032300  1.0  0.0946
  H  H79  1  0.533900  0.468300  0.153100  1.0  0.0826
  H  H80  1  0.616400  0.243000  0.109500  1.0  0.101
  H  H81  1  0.043900  0.043600  0.942100  1.0  0.0682
  H  H82  1  0.135100  0.270200  0.982600  1.0  0.1089
  H  H83  1  0.324000  0.132200  0.970900  1.0  0.0983
  H  H84  1  0.485800  0.130200  0.969300  1.0  0.099
  H  H85  1  0.574900  0.122000  0.014000  1.0  0.1029
  H  H86  1  0.501900  0.115500  0.059900  1.0  0.0982
  H  H87  1  0.203700  0.103800  0.120300  1.0  0.1
  H  H88  1  0.042000  0.109600  0.122400  1.0  0.0945
  H  H89  1  0.952500  0.130600  0.078500  1.0  0.1023
  H  H90  1  0.024200  0.135500  0.032300  1.0  0.0946
  H  H91  1  0.466100  0.031700  0.153100  1.0  0.0812
  H  H92  1  0.383600  0.257000  0.109500  1.0  0.1008
  H  H93  1  0.543900  0.543600  0.442100  1.0  0.0682
  H  H94  1  0.635100  0.770200  0.482600  1.0  0.1089
  H  H95  1  0.824000  0.632200  0.470900  1.0  0.0983
  H  H96  1  0.985800  0.630200  0.469300  1.0  0.099
  H  H97  1  0.074900  0.622000  0.514000  1.0  0.1029
  H  H98  1  0.001900  0.615500  0.559900  1.0  0.0982
  H  H99  1  0.703700  0.603800  0.620300  1.0  0.1
  H  H100  1  0.542000  0.609600  0.622400  1.0  0.0945
  H  H101  1  0.452500  0.630600  0.578500  1.0  0.1023
  H  H102  1  0.524200  0.635500  0.532300  1.0  0.0946
  H  H103  1  0.966100  0.531700  0.653100  1.0  0.0812
  H  H104  1  0.883600  0.757000  0.609500  1.0  0.1008
  H  H105  1  0.293600  0.706100  0.807900  1.0  0.0682
  H  H106  1  0.520200  0.614900  0.767400  1.0  0.1078
  H  H107  1  0.382200  0.426000  0.779100  1.0  0.0979
  H  H108  1  0.380200  0.264200  0.780700  1.0  0.099
  H  H109  1  0.372000  0.175100  0.736000  1.0  0.1017
  H  H110  1  0.365500  0.248100  0.690100  1.0  0.0975
  H  H111  1  0.353800  0.546300  0.629700  1.0  0.1003
  H  H112  1  0.359600  0.708000  0.627600  1.0  0.0957
  H  H113  1  0.380600  0.797500  0.671500  1.0  0.0991
  H  H114  1  0.385500  0.725800  0.717700  1.0  0.0945
  H  H115  1  0.281700  0.283900  0.596900  1.0  0.0795
  H  H116  1  0.507000  0.366400  0.640500  1.0  0.1016
  H  H117  1  0.793600  0.206100  0.307900  1.0  0.0682
  H  H118  1  0.020200  0.114900  0.267400  1.0  0.1078
  H  H119  1  0.882200  0.926000  0.279100  1.0  0.0979
  H  H120  1  0.880200  0.764200  0.280700  1.0  0.099
  H  H121  1  0.872000  0.675100  0.236000  1.0  0.1017
  H  H122  1  0.865500  0.748100  0.190100  1.0  0.0975
  H  H123  1  0.853800  0.046300  0.129700  1.0  0.1003
  H  H124  1  0.859600  0.208000  0.127600  1.0  0.0957
  H  H125  1  0.880600  0.297500  0.171500  1.0  0.0991
  H  H126  1  0.885500  0.225800  0.217700  1.0  0.0945
  H  H127  1  0.781700  0.783900  0.096900  1.0  0.0795
  H  H128  1  0.007000  0.866400  0.140500  1.0  0.1016
  H  H129  1  0.206400  0.293900  0.307900  1.0  0.0685
  H  H130  1  0.979800  0.385100  0.267400  1.0  0.1075
  H  H131  1  0.117800  0.574000  0.279100  1.0  0.098
  H  H132  1  0.119800  0.735800  0.280700  1.0  0.0988
  H  H133  1  0.128000  0.824900  0.236000  1.0  0.1027
  H  H134  1  0.134500  0.751900  0.190100  1.0  0.0975
  H  H135  1  0.146200  0.453700  0.129700  1.0  0.1003
  H  H136  1  0.140400  0.292000  0.127600  1.0  0.096
  H  H137  1  0.119400  0.202500  0.171500  1.0  0.0998
  H  H138  1  0.114500  0.274200  0.217700  1.0  0.0948
  H  H139  1  0.218300  0.716100  0.096900  1.0  0.0799
  H  H140  1  0.993000  0.633600  0.140500  1.0  0.1018
  H  H141  1  0.706400  0.793900  0.807900  1.0  0.0685
  H  H142  1  0.479800  0.885100  0.767400  1.0  0.1075
  H  H143  1  0.617800  0.074000  0.779100  1.0  0.098
  H  H144  1  0.619800  0.235800  0.780700  1.0  0.0988
  H  H145  1  0.628000  0.324900  0.736000  1.0  0.1027
  H  H146  1  0.634500  0.251900  0.690100  1.0  0.0975
  H  H147  1  0.646200  0.953700  0.629700  1.0  0.1003
  H  H148  1  0.640400  0.792000  0.627600  1.0  0.096
  H  H149  1  0.619400  0.702500  0.671500  1.0  0.0998
  H  H150  1  0.614500  0.774200  0.717700  1.0  0.0948
  H  H151  1  0.718300  0.216100  0.596900  1.0  0.0799
  H  H152  1  0.493000  0.133600  0.640500  1.0  0.1018
  H  H153  1  0.543900  0.043600  0.557900  1.0  0.0685
  H  H154  1  0.635100  0.270200  0.517400  1.0  0.109
  H  H155  1  0.824000  0.132200  0.529100  1.0  0.0978
  H  H156  1  0.985800  0.130200  0.530700  1.0  0.0985
  H  H157  1  0.074900  0.122000  0.486000  1.0  0.1028
  H  H158  1  0.001900  0.115500  0.440100  1.0  0.0983
  H  H159  1  0.703700  0.103800  0.379700  1.0  0.1003
  H  H160  1  0.542000  0.109600  0.377600  1.0  0.0947
  H  H161  1  0.452500  0.130600  0.421500  1.0  0.1021
  H  H162  1  0.524200  0.135500  0.467700  1.0  0.0946
  H  H163  1  0.966100  0.031700  0.346900  1.0  0.0814
  H  H164  1  0.883600  0.257000  0.390500  1.0  0.1011
  H  H165  1  0.043900  0.543600  0.057900  1.0  0.0685
  H  H166  1  0.135100  0.770200  0.017400  1.0  0.109
  H  H167  1  0.324000  0.632200  0.029100  1.0  0.0978
  H  H168  1  0.485800  0.630200  0.030700  1.0  0.0985
  H  H169  1  0.574900  0.622000  0.986000  1.0  0.1028
  H  H170  1  0.501900  0.615500  0.940100  1.0  0.0983
  H  H171  1  0.203700  0.603800  0.879700  1.0  0.1003
  H  H172  1  0.042000  0.609600  0.877600  1.0  0.0947
  H  H173  1  0.952500  0.630600  0.921500  1.0  0.1021
  H  H174  1  0.024200  0.635500  0.967700  1.0  0.0946
  H  H175  1  0.466100  0.531700  0.846900  1.0  0.0814
  H  H176  1  0.383600  0.757000  0.890500  1.0  0.1011
  H  H177  1  0.956100  0.956400  0.057900  1.0  0.0686
  H  H178  1  0.864900  0.729800  0.017400  1.0  0.1076
  H  H179  1  0.676000  0.867800  0.029100  1.0  0.098
  H  H180  1  0.514200  0.869800  0.030700  1.0  0.0991
  H  H181  1  0.425100  0.878000  0.986000  1.0  0.1018
  H  H182  1  0.498100  0.884500  0.940100  1.0  0.0971
  H  H183  1  0.796300  0.896200  0.879700  1.0  0.1004
  H  H184  1  0.958000  0.890400  0.877600  1.0  0.0946
  H  H185  1  0.047500  0.869400  0.921500  1.0  0.1021
  H  H186  1  0.975800  0.864500  0.967700  1.0  0.0946
  H  H187  1  0.533900  0.968300  0.846900  1.0  0.0828
  H  H188  1  0.616400  0.743000  0.890500  1.0  0.1014
  H  H189  1  0.456100  0.456400  0.557900  1.0  0.0686
  H  H190  1  0.364900  0.229800  0.517400  1.0  0.1076
  H  H191  1  0.176000  0.367800  0.529100  1.0  0.098
  H  H192  1  0.014200  0.369800  0.530700  1.0  0.0991
  H  H193  1  0.925100  0.378000  0.486000  1.0  0.1018
  H  H194  1  0.998100  0.384500  0.440100  1.0  0.0971
  H  H195  1  0.296300  0.396200  0.379700  1.0  0.1004
  H  H196  1  0.458000  0.390400  0.377600  1.0  0.0946
  H  H197  1  0.547500  0.369400  0.421500  1.0  0.1021
  H  H198  1  0.475800  0.364500  0.467700  1.0  0.0946
  H  H199  1  0.033900  0.468300  0.346900  1.0  0.0828
  H  H200  1  0.116400  0.243000  0.390500  1.0  0.1014
  C  C201  1  0.666840  0.324150  0.205960  1.0  0.267
  C  C202  1  0.542730  0.373010  0.227470  1.0  0.1507
  C  C203  1  0.622150  0.460670  0.269650  1.0  0.1127
  C  C204  1  0.624500  0.559670  0.267040  1.0  -0.0446
  C  C205  1  0.620990  0.608430  0.238810  1.0  -0.1061
  C  C206  1  0.622300  0.704830  0.237900  1.0  -0.1226
  C  C207  1  0.627300  0.758950  0.265010  1.0  -0.122
  C  C208  1  0.631000  0.715600  0.292350  1.0  -0.178
  C  C209  1  0.629610  0.614480  0.294370  1.0  -0.0231
  C  C210  1  0.633180  0.565760  0.321780  1.0  0.0972
  C  C211  1  0.633180  0.466940  0.324310  1.0  -0.0539
  C  C212  1  0.639440  0.418830  0.352560  1.0  -0.0656
  C  C213  1  0.635600  0.322500  0.353850  1.0  -0.0966
  C  C214  1  0.624300  0.268210  0.327150  1.0  -0.1178
  C  C215  1  0.620530  0.311000  0.299660  1.0  -0.1194
  C  C216  1  0.625790  0.412060  0.297170  1.0  -0.0424
  C  C217  1  0.679450  0.689180  0.388350  1.0  0.2568
  C  C218  1  0.555560  0.645210  0.365120  1.0  0.1404
  C  C219  1  0.166840  0.824150  0.705960  1.0  0.267
  C  C220  1  0.042730  0.873010  0.727470  1.0  0.1507
  C  C221  1  0.122150  0.960670  0.769650  1.0  0.1127
  C  C222  1  0.124500  0.059670  0.767040  1.0  -0.0446
  C  C223  1  0.120990  0.108430  0.738810  1.0  -0.1061
  C  C224  1  0.122300  0.204830  0.737900  1.0  -0.1226
  C  C225  1  0.127300  0.258950  0.765010  1.0  -0.122
  C  C226  1  0.131000  0.215600  0.792350  1.0  -0.178
  C  C227  1  0.129610  0.114480  0.794370  1.0  -0.0231
  C  C228  1  0.133180  0.065760  0.821780  1.0  0.0972
  C  C229  1  0.133180  0.966940  0.824310  1.0  -0.0539
  C  C230  1  0.139440  0.918830  0.852560  1.0  -0.0656
  C  C231  1  0.135600  0.822500  0.853850  1.0  -0.0966
  C  C232  1  0.124300  0.768210  0.827150  1.0  -0.1178
  C  C233  1  0.120530  0.811000  0.799660  1.0  -0.1194
  C  C234  1  0.125790  0.912060  0.797170  1.0  -0.0424
  C  C235  1  0.179450  0.189180  0.888350  1.0  0.2568
  C  C236  1  0.055560  0.145210  0.865120  1.0  0.1404
  C  C237  1  0.833160  0.675850  0.705960  1.0  0.2665
  C  C238  1  0.957270  0.626990  0.727470  1.0  0.1517
  C  C239  1  0.877850  0.539330  0.769650  1.0  0.1129
  C  C240  1  0.875500  0.440330  0.767040  1.0  -0.0445
  C  C241  1  0.879010  0.391570  0.738810  1.0  -0.1064
  C  C242  1  0.877700  0.295170  0.737900  1.0  -0.1215
  C  C243  1  0.872700  0.241050  0.765010  1.0  -0.122
  C  C244  1  0.869000  0.284400  0.792350  1.0  -0.1761
  C  C245  1  0.870390  0.385520  0.794370  1.0  -0.0229
  C  C246  1  0.866820  0.434240  0.821780  1.0  0.0966
  C  C247  1  0.866820  0.533060  0.824310  1.0  -0.0531
  C  C248  1  0.860560  0.581170  0.852560  1.0  -0.0651
  C  C249  1  0.864400  0.677500  0.853850  1.0  -0.096
  C  C250  1  0.875700  0.731790  0.827150  1.0  -0.1175
  C  C251  1  0.879470  0.689000  0.799660  1.0  -0.1202
  C  C252  1  0.874210  0.587940  0.797170  1.0  -0.0417
  C  C253  1  0.820550  0.310820  0.888350  1.0  0.2549
  C  C254  1  0.944440  0.354790  0.865120  1.0  0.1406
  C  C255  1  0.333160  0.175850  0.205960  1.0  0.2665
  C  C256  1  0.457270  0.126990  0.227470  1.0  0.1517
  C  C257  1  0.377850  0.039330  0.269650  1.0  0.1129
  C  C258  1  0.375500  0.940330  0.267040  1.0  -0.0445
  C  C259  1  0.379010  0.891570  0.238810  1.0  -0.1064
  C  C260  1  0.377700  0.795170  0.237900  1.0  -0.1215
  C  C261  1  0.372700  0.741050  0.265010  1.0  -0.122
  C  C262  1  0.369000  0.784400  0.292350  1.0  -0.1761
  C  C263  1  0.370390  0.885520  0.294370  1.0  -0.0229
  C  C264  1  0.366820  0.934240  0.321780  1.0  0.0966
  C  C265  1  0.366820  0.033060  0.324310  1.0  -0.0531
  C  C266  1  0.360560  0.081170  0.352560  1.0  -0.0651
  C  C267  1  0.364400  0.177500  0.353850  1.0  -0.096
  C  C268  1  0.375700  0.231790  0.327150  1.0  -0.1175
  C  C269  1  0.379470  0.189000  0.299660  1.0  -0.1202
  C  C270  1  0.374210  0.087940  0.297170  1.0  -0.0417
  C  C271  1  0.320550  0.810820  0.388350  1.0  0.2549
  C  C272  1  0.444440  0.854790  0.365120  1.0  0.1406
  C  C273  1  0.425850  0.916840  0.455960  1.0  0.2657
  C  C274  1  0.376990  0.792730  0.477470  1.0  0.1525
  C  C275  1  0.289330  0.872150  0.519650  1.0  0.1128
  C  C276  1  0.190330  0.874500  0.517040  1.0  -0.0445
  C  C277  1  0.141570  0.870990  0.488810  1.0  -0.1087
  C  C278  1  0.045170  0.872300  0.487900  1.0  -0.124
  C  C279  1  0.991050  0.877300  0.515010  1.0  -0.1277
  C  C280  1  0.034400  0.881000  0.542350  1.0  -0.1759
  C  C281  1  0.135520  0.879610  0.544370  1.0  -0.0237
  C  C282  1  0.184240  0.883180  0.571780  1.0  0.0972
  C  C283  1  0.283060  0.883180  0.574310  1.0  -0.0538
  C  C284  1  0.331170  0.889440  0.602560  1.0  -0.0677
  C  C285  1  0.427500  0.885600  0.603850  1.0  -0.0968
  C  C286  1  0.481790  0.874300  0.577150  1.0  -0.123
  C  C287  1  0.439000  0.870530  0.549660  1.0  -0.1187
  C  C288  1  0.337940  0.875790  0.547170  1.0  -0.0416
  C  C289  1  0.060820  0.929450  0.638350  1.0  0.2579
  C  C290  1  0.104790  0.805560  0.615120  1.0  0.1407
  C  C291  1  0.925850  0.416840  0.955960  1.0  0.2657
  C  C292  1  0.876990  0.292730  0.977470  1.0  0.1525
  C  C293  1  0.789330  0.372150  0.019650  1.0  0.1128
  C  C294  1  0.690330  0.374500  0.017040  1.0  -0.0445
  C  C295  1  0.641570  0.370990  0.988810  1.0  -0.1087
  C  C296  1  0.545170  0.372300  0.987900  1.0  -0.124
  C  C297  1  0.491050  0.377300  0.015010  1.0  -0.1277
  C  C298  1  0.534400  0.381000  0.042350  1.0  -0.1759
  C  C299  1  0.635520  0.379610  0.044370  1.0  -0.0237
  C  C300  1  0.684240  0.383180  0.071780  1.0  0.0972
  C  C301  1  0.783060  0.383180  0.074310  1.0  -0.0538
  C  C302  1  0.831170  0.389440  0.102560  1.0  -0.0677
  C  C303  1  0.927500  0.385600  0.103850  1.0  -0.0968
  C  C304  1  0.981790  0.374300  0.077150  1.0  -0.123
  C  C305  1  0.939000  0.370530  0.049660  1.0  -0.1187
  C  C306  1  0.837940  0.375790  0.047170  1.0  -0.0416
  C  C307  1  0.560820  0.429450  0.138350  1.0  0.2579
  C  C308  1  0.604790  0.305560  0.115120  1.0  0.1407
  C  C309  1  0.074150  0.083160  0.955960  1.0  0.2661
  C  C310  1  0.123010  0.207270  0.977470  1.0  0.1517
  C  C311  1  0.210670  0.127850  0.019650  1.0  0.1127
  C  C312  1  0.309670  0.125500  0.017040  1.0  -0.0446
  C  C313  1  0.358430  0.129010  0.988810  1.0  -0.1082
  C  C314  1  0.454830  0.127700  0.987900  1.0  -0.1243
  C  C315  1  0.508950  0.122700  0.015010  1.0  -0.1267
  C  C316  1  0.465600  0.119000  0.042350  1.0  -0.1748
  C  C317  1  0.364480  0.120390  0.044370  1.0  -0.0234
  C  C318  1  0.315760  0.116820  0.071780  1.0  0.0963
  C  C319  1  0.216940  0.116820  0.074310  1.0  -0.0544
  C  C320  1  0.168830  0.110560  0.102560  1.0  -0.0667
  C  C321  1  0.072500  0.114400  0.103850  1.0  -0.0976
  C  C322  1  0.018210  0.125700  0.077150  1.0  -0.1231
  C  C323  1  0.061000  0.129470  0.049660  1.0  -0.118
  C  C324  1  0.162060  0.124210  0.047170  1.0  -0.0418
  C  C325  1  0.439180  0.070550  0.138350  1.0  0.2576
  C  C326  1  0.395210  0.194440  0.115120  1.0  0.1408
  C  C327  1  0.574150  0.583160  0.455960  1.0  0.2661
  C  C328  1  0.623010  0.707270  0.477470  1.0  0.1517
  C  C329  1  0.710670  0.627850  0.519650  1.0  0.1127
  C  C330  1  0.809670  0.625500  0.517040  1.0  -0.0446
  C  C331  1  0.858430  0.629010  0.488810  1.0  -0.1082
  C  C332  1  0.954830  0.627700  0.487900  1.0  -0.1243
  C  C333  1  0.008950  0.622700  0.515010  1.0  -0.1267
  C  C334  1  0.965600  0.619000  0.542350  1.0  -0.1748
  C  C335  1  0.864480  0.620390  0.544370  1.0  -0.0234
  C  C336  1  0.815760  0.616820  0.571780  1.0  0.0963
  C  C337  1  0.716940  0.616820  0.574310  1.0  -0.0544
  C  C338  1  0.668830  0.610560  0.602560  1.0  -0.0667
  C  C339  1  0.572500  0.614400  0.603850  1.0  -0.0976
  C  C340  1  0.518210  0.625700  0.577150  1.0  -0.1231
  C  C341  1  0.561000  0.629470  0.549660  1.0  -0.118
  C  C342  1  0.662060  0.624210  0.547170  1.0  -0.0418
  C  C343  1  0.939180  0.570550  0.638350  1.0  0.2576
  C  C344  1  0.895210  0.694440  0.615120  1.0  0.1408
  C  C345  1  0.333160  0.675850  0.794040  1.0  0.2664
  C  C346  1  0.457270  0.626990  0.772530  1.0  0.1518
  C  C347  1  0.377850  0.539330  0.730350  1.0  0.1129
  C  C348  1  0.375500  0.440330  0.732960  1.0  -0.0446
  C  C349  1  0.379010  0.391570  0.761190  1.0  -0.1073
  C  C350  1  0.377700  0.295170  0.762100  1.0  -0.1226
  C  C351  1  0.372700  0.241050  0.734990  1.0  -0.1214
  C  C352  1  0.369000  0.284400  0.707650  1.0  -0.1759
  C  C353  1  0.370390  0.385520  0.705630  1.0  -0.023
  C  C354  1  0.366820  0.434240  0.678220  1.0  0.0967
  C  C355  1  0.366820  0.533060  0.675690  1.0  -0.0528
  C  C356  1  0.360560  0.581170  0.647440  1.0  -0.0659
  C  C357  1  0.364400  0.677500  0.646150  1.0  -0.0962
  C  C358  1  0.375700  0.731790  0.672850  1.0  -0.1169
  C  C359  1  0.379470  0.689000  0.700340  1.0  -0.1194
  C  C360  1  0.374210  0.587940  0.702830  1.0  -0.0416
  C  C361  1  0.320550  0.310820  0.611650  1.0  0.2534
  C  C362  1  0.444440  0.354790  0.634880  1.0  0.1408
  C  C363  1  0.833160  0.175850  0.294040  1.0  0.2664
  C  C364  1  0.957270  0.126990  0.272530  1.0  0.1518
  C  C365  1  0.877850  0.039330  0.230350  1.0  0.1129
  C  C366  1  0.875500  0.940330  0.232960  1.0  -0.0446
  C  C367  1  0.879010  0.891570  0.261190  1.0  -0.1073
  C  C368  1  0.877700  0.795170  0.262100  1.0  -0.1226
  C  C369  1  0.872700  0.741050  0.234990  1.0  -0.1214
  C  C370  1  0.869000  0.784400  0.207650  1.0  -0.1759
  C  C371  1  0.870390  0.885520  0.205630  1.0  -0.023
  C  C372  1  0.866820  0.934240  0.178220  1.0  0.0967
  C  C373  1  0.866820  0.033060  0.175690  1.0  -0.0528
  C  C374  1  0.860560  0.081170  0.147440  1.0  -0.0659
  C  C375  1  0.864400  0.177500  0.146150  1.0  -0.0962
  C  C376  1  0.875700  0.231790  0.172850  1.0  -0.1169
  C  C377  1  0.879470  0.189000  0.200340  1.0  -0.1194
  C  C378  1  0.874210  0.087940  0.202830  1.0  -0.0416
  C  C379  1  0.820550  0.810820  0.111650  1.0  0.2534
  C  C380  1  0.944440  0.854790  0.134880  1.0  0.1408
  C  C381  1  0.166840  0.324150  0.294040  1.0  0.2674
  C  C382  1  0.042730  0.373010  0.272530  1.0  0.1509
  C  C383  1  0.122150  0.460670  0.230350  1.0  0.1127
  C  C384  1  0.124500  0.559670  0.232960  1.0  -0.0447
  C  C385  1  0.120990  0.608430  0.261190  1.0  -0.108
  C  C386  1  0.122300  0.704830  0.262100  1.0  -0.1228
  C  C387  1  0.127300  0.758950  0.234990  1.0  -0.1216
  C  C388  1  0.131000  0.715600  0.207650  1.0  -0.1776
  C  C389  1  0.129610  0.614480  0.205630  1.0  -0.023
  C  C390  1  0.133180  0.565760  0.178220  1.0  0.0973
  C  C391  1  0.133180  0.466940  0.175690  1.0  -0.0537
  C  C392  1  0.139440  0.418830  0.147440  1.0  -0.0661
  C  C393  1  0.135600  0.322500  0.146150  1.0  -0.0964
  C  C394  1  0.124300  0.268210  0.172850  1.0  -0.1175
  C  C395  1  0.120530  0.311000  0.200340  1.0  -0.1189
  C  C396  1  0.125790  0.412060  0.202830  1.0  -0.0422
  C  C397  1  0.179450  0.689180  0.111650  1.0  0.2555
  C  C398  1  0.055560  0.645210  0.134880  1.0  0.1406
  C  C399  1  0.666840  0.824150  0.794040  1.0  0.2674
  C  C400  1  0.542730  0.873010  0.772530  1.0  0.1509
  C  C401  1  0.622150  0.960670  0.730350  1.0  0.1127
  C  C402  1  0.624500  0.059670  0.732960  1.0  -0.0447
  C  C403  1  0.620990  0.108430  0.761190  1.0  -0.108
  C  C404  1  0.622300  0.204830  0.762100  1.0  -0.1228
  C  C405  1  0.627300  0.258950  0.734990  1.0  -0.1216
  C  C406  1  0.631000  0.215600  0.707650  1.0  -0.1776
  C  C407  1  0.629610  0.114480  0.705630  1.0  -0.023
  C  C408  1  0.633180  0.065760  0.678220  1.0  0.0973
  C  C409  1  0.633180  0.966940  0.675690  1.0  -0.0537
  C  C410  1  0.639440  0.918830  0.647440  1.0  -0.0661
  C  C411  1  0.635600  0.822500  0.646150  1.0  -0.0964
  C  C412  1  0.624300  0.768210  0.672850  1.0  -0.1175
  C  C413  1  0.620530  0.811000  0.700340  1.0  -0.1189
  C  C414  1  0.625790  0.912060  0.702830  1.0  -0.0422
  C  C415  1  0.679450  0.189180  0.611650  1.0  0.2555
  C  C416  1  0.555560  0.145210  0.634880  1.0  0.1406
  C  C417  1  0.574150  0.083160  0.544040  1.0  0.2668
  C  C418  1  0.623010  0.207270  0.522530  1.0  0.152
  C  C419  1  0.710670  0.127850  0.480350  1.0  0.1126
  C  C420  1  0.809670  0.125500  0.482960  1.0  -0.0445
  C  C421  1  0.858430  0.129010  0.511190  1.0  -0.11
  C  C422  1  0.954830  0.127700  0.512100  1.0  -0.1242
  C  C423  1  0.008950  0.122700  0.484990  1.0  -0.1261
  C  C424  1  0.965600  0.119000  0.457650  1.0  -0.1746
  C  C425  1  0.864480  0.120390  0.455630  1.0  -0.0235
  C  C426  1  0.815760  0.116820  0.428220  1.0  0.0964
  C  C427  1  0.716940  0.116820  0.425690  1.0  -0.0542
  C  C428  1  0.668830  0.110560  0.397440  1.0  -0.0673
  C  C429  1  0.572500  0.114400  0.396150  1.0  -0.098
  C  C430  1  0.518210  0.125700  0.422850  1.0  -0.1228
  C  C431  1  0.561000  0.129470  0.450340  1.0  -0.1174
  C  C432  1  0.662060  0.124210  0.452830  1.0  -0.0417
  C  C433  1  0.939180  0.070550  0.361650  1.0  0.2562
  C  C434  1  0.895210  0.194440  0.384880  1.0  0.1408
  C  C435  1  0.074150  0.583160  0.044040  1.0  0.2668
  C  C436  1  0.123010  0.707270  0.022530  1.0  0.152
  C  C437  1  0.210670  0.627850  0.980350  1.0  0.1126
  C  C438  1  0.309670  0.625500  0.982960  1.0  -0.0445
  C  C439  1  0.358430  0.629010  0.011190  1.0  -0.11
  C  C440  1  0.454830  0.627700  0.012100  1.0  -0.1242
  C  C441  1  0.508950  0.622700  0.984990  1.0  -0.1261
  C  C442  1  0.465600  0.619000  0.957650  1.0  -0.1746
  C  C443  1  0.364480  0.620390  0.955630  1.0  -0.0235
  C  C444  1  0.315760  0.616820  0.928220  1.0  0.0964
  C  C445  1  0.216940  0.616820  0.925690  1.0  -0.0542
  C  C446  1  0.168830  0.610560  0.897440  1.0  -0.0673
  C  C447  1  0.072500  0.614400  0.896150  1.0  -0.098
  C  C448  1  0.018210  0.625700  0.922850  1.0  -0.1228
  C  C449  1  0.061000  0.629470  0.950340  1.0  -0.1174
  C  C450  1  0.162060  0.624210  0.952830  1.0  -0.0417
  C  C451  1  0.439180  0.570550  0.861650  1.0  0.2562
  C  C452  1  0.395210  0.694440  0.884880  1.0  0.1408
  C  C453  1  0.925850  0.916840  0.044040  1.0  0.2656
  C  C454  1  0.876990  0.792730  0.022530  1.0  0.1526
  C  C455  1  0.789330  0.872150  0.980350  1.0  0.1128
  C  C456  1  0.690330  0.874500  0.982960  1.0  -0.0446
  C  C457  1  0.641570  0.870990  0.011190  1.0  -0.109
  C  C458  1  0.545170  0.872300  0.012100  1.0  -0.1256
  C  C459  1  0.491050  0.877300  0.984990  1.0  -0.1276
  C  C460  1  0.534400  0.881000  0.957650  1.0  -0.1752
  C  C461  1  0.635520  0.879610  0.955630  1.0  -0.0237
  C  C462  1  0.684240  0.883180  0.928220  1.0  0.0972
  C  C463  1  0.783060  0.883180  0.925690  1.0  -0.0537
  C  C464  1  0.831170  0.889440  0.897440  1.0  -0.0676
  C  C465  1  0.927500  0.885600  0.896150  1.0  -0.0973
  C  C466  1  0.981790  0.874300  0.922850  1.0  -0.1229
  C  C467  1  0.939000  0.870530  0.950340  1.0  -0.1179
  C  C468  1  0.837940  0.875790  0.952830  1.0  -0.0416
  C  C469  1  0.560820  0.929450  0.861650  1.0  0.2579
  C  C470  1  0.604790  0.805560  0.884880  1.0  0.1409
  C  C471  1  0.425850  0.416840  0.544040  1.0  0.2656
  C  C472  1  0.376990  0.292730  0.522530  1.0  0.1526
  C  C473  1  0.289330  0.372150  0.480350  1.0  0.1128
  C  C474  1  0.190330  0.374500  0.482960  1.0  -0.0446
  C  C475  1  0.141570  0.370990  0.511190  1.0  -0.109
  C  C476  1  0.045170  0.372300  0.512100  1.0  -0.1256
  C  C477  1  0.991050  0.377300  0.484990  1.0  -0.1276
  C  C478  1  0.034400  0.381000  0.457650  1.0  -0.1752
  C  C479  1  0.135520  0.379610  0.455630  1.0  -0.0237
  C  C480  1  0.184240  0.383180  0.428220  1.0  0.0972
  C  C481  1  0.283060  0.383180  0.425690  1.0  -0.0537
  C  C482  1  0.331170  0.389440  0.397440  1.0  -0.0676
  C  C483  1  0.427500  0.385600  0.396150  1.0  -0.0973
  C  C484  1  0.481790  0.374300  0.422850  1.0  -0.1229
  C  C485  1  0.439000  0.370530  0.450340  1.0  -0.1179
  C  C486  1  0.337940  0.375790  0.452830  1.0  -0.0416
  C  C487  1  0.060820  0.429450  0.361650  1.0  0.2579
  C  C488  1  0.104790  0.305560  0.384880  1.0  0.1409
  N  N489  1  0.617890  0.404500  0.242490  1.0  0.116
  N  N490  1  0.698810  0.372950  0.229020  1.0  -0.3662
  N  N491  1  0.571020  0.321720  0.204100  1.0  -0.3963
  N  N492  1  0.631840  0.619520  0.349500  1.0  0.1186
  N  N493  1  0.712710  0.647070  0.364140  1.0  -0.3855
  N  N494  1  0.582620  0.690030  0.390030  1.0  -0.398
  N  N495  1  0.117890  0.904500  0.742490  1.0  0.116
  N  N496  1  0.198810  0.872950  0.729020  1.0  -0.3662
  N  N497  1  0.071020  0.821720  0.704100  1.0  -0.3963
  N  N498  1  0.131840  0.119520  0.849500  1.0  0.1186
  N  N499  1  0.212710  0.147070  0.864140  1.0  -0.3855
  N  N500  1  0.082620  0.190030  0.890030  1.0  -0.398
  N  N501  1  0.882110  0.595500  0.742490  1.0  0.116
  N  N502  1  0.801190  0.627050  0.729020  1.0  -0.3655
  N  N503  1  0.928980  0.678280  0.704100  1.0  -0.3937
  N  N504  1  0.868160  0.380480  0.849500  1.0  0.1184
  N  N505  1  0.787290  0.352930  0.864140  1.0  -0.3825
  N  N506  1  0.917380  0.309970  0.890030  1.0  -0.3977
  N  N507  1  0.382110  0.095500  0.242490  1.0  0.116
  N  N508  1  0.301190  0.127050  0.229020  1.0  -0.3655
  N  N509  1  0.428980  0.178280  0.204100  1.0  -0.3937
  N  N510  1  0.368160  0.880480  0.349500  1.0  0.1184
  N  N511  1  0.287290  0.852930  0.364140  1.0  -0.3825
  N  N512  1  0.417380  0.809970  0.390030  1.0  -0.3977
  N  N513  1  0.345500  0.867890  0.492490  1.0  0.1149
  N  N514  1  0.377050  0.948810  0.479020  1.0  -0.3663
  N  N515  1  0.428280  0.821020  0.454100  1.0  -0.396
  N  N516  1  0.130480  0.881840  0.599500  1.0  0.1188
  N  N517  1  0.102930  0.962710  0.614140  1.0  -0.3859
  N  N518  1  0.059970  0.832620  0.640030  1.0  -0.3988
  N  N519  1  0.845500  0.367890  0.992490  1.0  0.1149
  N  N520  1  0.877050  0.448810  0.979020  1.0  -0.3663
  N  N521  1  0.928280  0.321020  0.954100  1.0  -0.396
  N  N522  1  0.630480  0.381840  0.099500  1.0  0.1188
  N  N523  1  0.602930  0.462710  0.114140  1.0  -0.3859
  N  N524  1  0.559970  0.332620  0.140030  1.0  -0.3988
  N  N525  1  0.154500  0.132110  0.992490  1.0  0.1162
  N  N526  1  0.122950  0.051190  0.979020  1.0  -0.3669
  N  N527  1  0.071720  0.178980  0.954100  1.0  -0.3954
  N  N528  1  0.369520  0.118160  0.099500  1.0  0.1193
  N  N529  1  0.397070  0.037290  0.114140  1.0  -0.386
  N  N530  1  0.440030  0.167380  0.140030  1.0  -0.3972
  N  N531  1  0.654500  0.632110  0.492490  1.0  0.1162
  N  N532  1  0.622950  0.551190  0.479020  1.0  -0.3669
  N  N533  1  0.571720  0.678980  0.454100  1.0  -0.3954
  N  N534  1  0.869520  0.618160  0.599500  1.0  0.1193
  N  N535  1  0.897070  0.537290  0.614140  1.0  -0.386
  N  N536  1  0.940030  0.667380  0.640030  1.0  -0.3972
  N  N537  1  0.382110  0.595500  0.757510  1.0  0.1156
  N  N538  1  0.301190  0.627050  0.770980  1.0  -0.3657
  N  N539  1  0.428980  0.678280  0.795900  1.0  -0.3922
  N  N540  1  0.368160  0.380480  0.650500  1.0  0.1184
  N  N541  1  0.287290  0.352930  0.635860  1.0  -0.383
  N  N542  1  0.417380  0.309970  0.609970  1.0  -0.3986
  N  N543  1  0.882110  0.095500  0.257510  1.0  0.1156
  N  N544  1  0.801190  0.127050  0.270980  1.0  -0.3657
  N  N545  1  0.928980  0.178280  0.295900  1.0  -0.3922
  N  N546  1  0.868160  0.880480  0.150500  1.0  0.1184
  N  N547  1  0.787290  0.852930  0.135860  1.0  -0.383
  N  N548  1  0.917380  0.809970  0.109970  1.0  -0.3986
  N  N549  1  0.117890  0.404500  0.257510  1.0  0.1159
  N  N550  1  0.198810  0.372950  0.270980  1.0  -0.3661
  N  N551  1  0.071020  0.321720  0.295900  1.0  -0.3935
  N  N552  1  0.131840  0.619520  0.150500  1.0  0.1181
  N  N553  1  0.212710  0.647070  0.135860  1.0  -0.3857
  N  N554  1  0.082620  0.690030  0.109970  1.0  -0.3981
  N  N555  1  0.617890  0.904500  0.757510  1.0  0.1159
  N  N556  1  0.698810  0.872950  0.770980  1.0  -0.3661
  N  N557  1  0.571020  0.821720  0.795900  1.0  -0.3935
  N  N558  1  0.631840  0.119520  0.650500  1.0  0.1181
  N  N559  1  0.712710  0.147070  0.635860  1.0  -0.3857
  N  N560  1  0.582620  0.190030  0.609970  1.0  -0.3981
  N  N561  1  0.654500  0.132110  0.507510  1.0  0.1159
  N  N562  1  0.622950  0.051190  0.520980  1.0  -0.3668
  N  N563  1  0.571720  0.178980  0.545900  1.0  -0.394
  N  N564  1  0.869520  0.118160  0.400500  1.0  0.1184
  N  N565  1  0.897070  0.037290  0.385860  1.0  -0.387
  N  N566  1  0.940030  0.167380  0.359970  1.0  -0.3975
  N  N567  1  0.154500  0.632110  0.007510  1.0  0.1159
  N  N568  1  0.122950  0.551190  0.020980  1.0  -0.3668
  N  N569  1  0.071720  0.678980  0.045900  1.0  -0.394
  N  N570  1  0.369520  0.618160  0.900500  1.0  0.1184
  N  N571  1  0.397070  0.537290  0.885860  1.0  -0.387
  N  N572  1  0.440030  0.667380  0.859970  1.0  -0.3975
  N  N573  1  0.845500  0.867890  0.007510  1.0  0.1146
  N  N574  1  0.877050  0.948810  0.020980  1.0  -0.3662
  N  N575  1  0.928280  0.821020  0.045900  1.0  -0.3935
  N  N576  1  0.630480  0.881840  0.900500  1.0  0.1188
  N  N577  1  0.602930  0.962710  0.885860  1.0  -0.3859
  N  N578  1  0.559970  0.832620  0.859970  1.0  -0.3987
  N  N579  1  0.345500  0.367890  0.507510  1.0  0.1146
  N  N580  1  0.377050  0.448810  0.520980  1.0  -0.3662
  N  N581  1  0.428280  0.321020  0.545900  1.0  -0.3935
  N  N582  1  0.130480  0.381840  0.400500  1.0  0.1188
  N  N583  1  0.102930  0.462710  0.385860  1.0  -0.3859
  N  N584  1  0.059970  0.332620  0.359970  1.0  -0.3987
