# generated using pymatgen
data_MgH3(CO2)3
_symmetry_space_group_name_H-M   'P 1'
_cell_length_a   12.12460000
_cell_length_b   12.20870000
_cell_length_c   12.49910000
_cell_angle_alpha   90.00000000
_cell_angle_beta   91.39400000
_cell_angle_gamma   90.00000000
_symmetry_Int_Tables_number   1
_chemical_formula_structural   MgH3(CO2)3
_chemical_formula_sum   'Mg8 H24 C24 O48'
_cell_volume   1849.63925115
_cell_formula_units_Z   8
loop_
 _symmetry_equiv_pos_site_id
 _symmetry_equiv_pos_as_xyz
  1  'x, y, z'
loop_
 _atom_site_type_symbol
 _atom_site_label
 _atom_site_symmetry_multiplicity
 _atom_site_fract_x
 _atom_site_fract_y
 _atom_site_fract_z
 _atom_site_occupancy
 _atom_site_charge
  Mg  Mg1  1  0.258580  0.248870  0.994220  1.0  1.5235
  Mg  Mg2  1  0.758570  0.250820  0.995180  1.0  1.5265
  Mg  Mg3  1  0.241420  0.748870  0.505780  1.0  1.5247
  Mg  Mg4  1  0.741430  0.750820  0.504820  1.0  1.5265
  Mg  Mg5  1  0.741420  0.751130  0.005780  1.0  1.5248
  Mg  Mg6  1  0.241430  0.749180  0.004820  1.0  1.5263
  Mg  Mg7  1  0.758580  0.251130  0.494220  1.0  1.5234
  Mg  Mg8  1  0.258570  0.249180  0.495180  1.0  1.5263
  H  H9  1  0.007100  0.277700  0.936900  1.0  0.0182
  H  H10  1  0.797200  0.346700  0.242500  1.0  0.0256
  H  H11  1  0.222200  0.999400  0.919400  1.0  0.0199
  H  H12  1  0.292300  0.503100  0.064700  1.0  0.0281
  H  H13  1  0.204000  0.171200  0.243100  1.0  0.0288
  H  H14  1  0.503200  0.195000  0.925000  1.0  0.0179
  H  H15  1  0.492900  0.777700  0.563100  1.0  0.0191
  H  H16  1  0.702800  0.846700  0.257500  1.0  0.0257
  H  H17  1  0.277800  0.499400  0.580600  1.0  0.0209
  H  H18  1  0.207700  0.003100  0.435300  1.0  0.028
  H  H19  1  0.296000  0.671200  0.256900  1.0  0.029
  H  H20  1  0.996800  0.695000  0.575000  1.0  0.0173
  H  H21  1  0.992900  0.722300  0.063100  1.0  0.0195
  H  H22  1  0.202800  0.653300  0.757500  1.0  0.0245
  H  H23  1  0.777800  0.000600  0.080600  1.0  0.0213
  H  H24  1  0.707700  0.496900  0.935300  1.0  0.0282
  H  H25  1  0.796000  0.828800  0.756900  1.0  0.0294
  H  H26  1  0.496800  0.805000  0.075000  1.0  0.0176
  H  H27  1  0.507100  0.222300  0.436900  1.0  0.0178
  H  H28  1  0.297200  0.153300  0.742500  1.0  0.0242
  H  H29  1  0.722200  0.500600  0.419400  1.0  0.0205
  H  H30  1  0.792300  0.996900  0.564700  1.0  0.0281
  H  H31  1  0.704000  0.328800  0.743100  1.0  0.0291
  H  H32  1  0.003200  0.305000  0.425000  1.0  0.0184
  C  C33  1  0.009400  0.225600  0.991200  1.0  0.6906
  C  C34  1  0.755900  0.282500  0.243600  1.0  0.7087
  C  C35  1  0.273200  0.999200  0.976100  1.0  0.741
  C  C36  1  0.232700  0.501000  0.016400  1.0  0.6617
  C  C37  1  0.256200  0.227000  0.245400  1.0  0.6897
  C  C38  1  0.506600  0.262500  0.959300  1.0  0.7266
  C  C39  1  0.490600  0.725600  0.508800  1.0  0.6916
  C  C40  1  0.744100  0.782500  0.256400  1.0  0.7097
  C  C41  1  0.226800  0.499200  0.523900  1.0  0.7403
  C  C42  1  0.267300  0.001000  0.483600  1.0  0.6614
  C  C43  1  0.243800  0.727000  0.254600  1.0  0.6893
  C  C44  1  0.993400  0.762500  0.540700  1.0  0.7257
  C  C45  1  0.990600  0.774400  0.008800  1.0  0.6913
  C  C46  1  0.244100  0.717500  0.756400  1.0  0.7096
  C  C47  1  0.726800  0.000800  0.023900  1.0  0.7401
  C  C48  1  0.767300  0.499000  0.983600  1.0  0.6613
  C  C49  1  0.743800  0.773000  0.754600  1.0  0.6892
  C  C50  1  0.493400  0.737500  0.040700  1.0  0.7255
  C  C51  1  0.509400  0.274400  0.491200  1.0  0.6906
  C  C52  1  0.255900  0.217500  0.743600  1.0  0.7085
  C  C53  1  0.773200  0.500800  0.476100  1.0  0.7408
  C  C54  1  0.732700  0.999000  0.516400  1.0  0.6614
  C  C55  1  0.756200  0.273000  0.745400  1.0  0.6897
  C  C56  1  0.006600  0.237500  0.459300  1.0  0.7254
  O  O57  1  0.919330  0.195220  0.026800  1.0  -0.5912
  O  O58  1  0.418810  0.299860  0.986010  1.0  -0.6075
  O  O59  1  0.202580  0.409130  0.983510  1.0  -0.6133
  O  O60  1  0.314460  0.089040  0.001230  1.0  -0.5899
  O  O61  1  0.285810  0.263780  0.158810  1.0  -0.6238
  O  O62  1  0.100700  0.193450  0.020800  1.0  -0.6025
  O  O63  1  0.735140  0.240650  0.157420  1.0  -0.631
  O  O64  1  0.599060  0.301540  0.971510  1.0  -0.6334
  O  O65  1  0.288910  0.257090  0.334160  1.0  -0.6395
  O  O66  1  0.190790  0.589280  0.990700  1.0  -0.6014
  O  O67  1  0.292480  0.910950  0.017610  1.0  -0.6178
  O  O68  1  0.728800  0.250110  0.331980  1.0  -0.6505
  O  O69  1  0.580670  0.695220  0.473200  1.0  -0.5907
  O  O70  1  0.081190  0.799860  0.513990  1.0  -0.609
  O  O71  1  0.297420  0.909130  0.516490  1.0  -0.6136
  O  O72  1  0.185540  0.589040  0.498770  1.0  -0.5914
  O  O73  1  0.214190  0.763780  0.341190  1.0  -0.6247
  O  O74  1  0.399300  0.693450  0.479200  1.0  -0.6052
  O  O75  1  0.764860  0.740650  0.342580  1.0  -0.6296
  O  O76  1  0.900940  0.801540  0.528490  1.0  -0.6338
  O  O77  1  0.211090  0.757090  0.165840  1.0  -0.6418
  O  O78  1  0.309210  0.089280  0.509300  1.0  -0.6018
  O  O79  1  0.207520  0.410950  0.482390  1.0  -0.619
  O  O80  1  0.771200  0.750110  0.168020  1.0  -0.652
  O  O81  1  0.080670  0.804780  0.973200  1.0  -0.5913
  O  O82  1  0.581190  0.700140  0.013990  1.0  -0.607
  O  O83  1  0.797420  0.590870  0.016490  1.0  -0.6127
  O  O84  1  0.685540  0.910960  0.998770  1.0  -0.5926
  O  O85  1  0.714190  0.736220  0.841190  1.0  -0.6252
  O  O86  1  0.899300  0.806550  0.979200  1.0  -0.6045
  O  O87  1  0.264860  0.759350  0.842580  1.0  -0.6307
  O  O88  1  0.400940  0.698460  0.028490  1.0  -0.6333
  O  O89  1  0.711090  0.742910  0.665840  1.0  -0.6409
  O  O90  1  0.809210  0.410720  0.009300  1.0  -0.6025
  O  O91  1  0.707520  0.089050  0.982390  1.0  -0.6183
  O  O92  1  0.271200  0.749890  0.668020  1.0  -0.653
  O  O93  1  0.419330  0.304780  0.526800  1.0  -0.5918
  O  O94  1  0.918810  0.200140  0.486010  1.0  -0.6072
  O  O95  1  0.702580  0.090870  0.483510  1.0  -0.6121
  O  O96  1  0.814460  0.410960  0.501230  1.0  -0.5911
  O  O97  1  0.785810  0.236220  0.658810  1.0  -0.6235
  O  O98  1  0.600700  0.306550  0.520800  1.0  -0.6029
  O  O99  1  0.235140  0.259350  0.657420  1.0  -0.6326
  O  O100  1  0.099060  0.198460  0.471510  1.0  -0.6321
  O  O101  1  0.788910  0.242910  0.834160  1.0  -0.6392
  O  O102  1  0.690790  0.910720  0.490700  1.0  -0.6018
  O  O103  1  0.792480  0.589050  0.517610  1.0  -0.6169
  O  O104  1  0.228800  0.249890  0.831980  1.0  -0.6516
