# generated using pymatgen
data_Zn3P4H8(C2O7)2
_symmetry_space_group_name_H-M   'P 1'
_cell_length_a   20.43800000
_cell_length_b   9.50200000
_cell_length_c   22.80800000
_cell_angle_alpha   90.00000000
_cell_angle_beta   90.13600000
_cell_angle_gamma   90.00000000
_symmetry_Int_Tables_number   1
_chemical_formula_structural   Zn3P4H8(C2O7)2
_chemical_formula_sum   'Zn24 P32 H64 C32 O112'
_cell_volume   4429.34390987
_cell_formula_units_Z   8
loop_
 _symmetry_equiv_pos_site_id
 _symmetry_equiv_pos_as_xyz
  1  'x, y, z'
loop_
 _atom_site_type_symbol
 _atom_site_label
 _atom_site_symmetry_multiplicity
 _atom_site_fract_x
 _atom_site_fract_y
 _atom_site_fract_z
 _atom_site_occupancy
 _atom_site_charge
  Zn  Zn1  1  0.104620  0.963590  0.028270  1.0  1.097
  Zn  Zn2  1  0.155850  0.254220  0.877710  1.0  1.0352
  Zn  Zn3  1  0.219880  0.725710  0.824140  1.0  1.0588
  Zn  Zn4  1  0.604620  0.463590  0.028270  1.0  1.097
  Zn  Zn5  1  0.655850  0.754220  0.877710  1.0  1.0352
  Zn  Zn6  1  0.719880  0.225710  0.824140  1.0  1.0588
  Zn  Zn7  1  0.895380  0.963590  0.471730  1.0  1.0987
  Zn  Zn8  1  0.844150  0.254220  0.622290  1.0  1.0355
  Zn  Zn9  1  0.780120  0.725710  0.675860  1.0  1.0596
  Zn  Zn10  1  0.395380  0.463590  0.471730  1.0  1.0987
  Zn  Zn11  1  0.344150  0.754220  0.622290  1.0  1.0355
  Zn  Zn12  1  0.280120  0.225710  0.675860  1.0  1.0596
  Zn  Zn13  1  0.895380  0.036410  0.971730  1.0  1.1008
  Zn  Zn14  1  0.844150  0.745780  0.122290  1.0  1.035
  Zn  Zn15  1  0.780120  0.274290  0.175860  1.0  1.0598
  Zn  Zn16  1  0.395380  0.536410  0.971730  1.0  1.1008
  Zn  Zn17  1  0.344150  0.245780  0.122290  1.0  1.035
  Zn  Zn18  1  0.280120  0.774290  0.175860  1.0  1.0598
  Zn  Zn19  1  0.104620  0.036410  0.528270  1.0  1.0995
  Zn  Zn20  1  0.155850  0.745780  0.377710  1.0  1.0345
  Zn  Zn21  1  0.219880  0.274290  0.324140  1.0  1.0592
  Zn  Zn22  1  0.604620  0.536410  0.528270  1.0  1.0995
  Zn  Zn23  1  0.655850  0.245780  0.377710  1.0  1.0345
  Zn  Zn24  1  0.719880  0.774290  0.324140  1.0  1.0592
  P  P25  1  0.026820  0.144300  0.930230  1.0  1.4811
  P  P26  1  0.129840  0.930100  0.896890  1.0  1.5627
  P  P27  1  0.232560  0.034300  0.104030  1.0  1.5562
  P  P28  1  0.291150  0.080100  0.226470  1.0  1.4903
  P  P29  1  0.526820  0.644300  0.930230  1.0  1.4811
  P  P30  1  0.629840  0.430100  0.896890  1.0  1.5627
  P  P31  1  0.732560  0.534300  0.104030  1.0  1.5562
  P  P32  1  0.791150  0.580100  0.226470  1.0  1.4903
  P  P33  1  0.973180  0.144300  0.569770  1.0  1.4822
  P  P34  1  0.870160  0.930100  0.603110  1.0  1.5609
  P  P35  1  0.767440  0.034300  0.395970  1.0  1.5591
  P  P36  1  0.708850  0.080100  0.273530  1.0  1.4891
  P  P37  1  0.473180  0.644300  0.569770  1.0  1.4822
  P  P38  1  0.370160  0.430100  0.603110  1.0  1.5609
  P  P39  1  0.267440  0.534300  0.395970  1.0  1.5591
  P  P40  1  0.208850  0.580100  0.273530  1.0  1.4891
  P  P41  1  0.973180  0.855700  0.069770  1.0  1.4815
  P  P42  1  0.870160  0.069900  0.103110  1.0  1.5611
  P  P43  1  0.767440  0.965700  0.895970  1.0  1.5585
  P  P44  1  0.708850  0.919900  0.773530  1.0  1.4893
  P  P45  1  0.473180  0.355700  0.069770  1.0  1.4815
  P  P46  1  0.370160  0.569900  0.103110  1.0  1.5611
  P  P47  1  0.267440  0.465700  0.895970  1.0  1.5585
  P  P48  1  0.208850  0.419900  0.773530  1.0  1.4893
  P  P49  1  0.026820  0.855700  0.430230  1.0  1.4818
  P  P50  1  0.129840  0.069900  0.396890  1.0  1.5619
  P  P51  1  0.232560  0.965700  0.604030  1.0  1.5564
  P  P52  1  0.291150  0.919900  0.726470  1.0  1.4899
  P  P53  1  0.526820  0.355700  0.430230  1.0  1.4818
  P  P54  1  0.629840  0.569900  0.396890  1.0  1.5619
  P  P55  1  0.732560  0.465700  0.604030  1.0  1.5564
  P  P56  1  0.791150  0.419900  0.726470  1.0  1.4899
  H  H57  1  0.988200  0.884300  0.931900  1.0  0.4341
  H  H58  1  0.217000  0.309100  0.194200  1.0  0.4279
  H  H59  1  0.043600  0.947100  0.795800  1.0  0.1543
  H  H60  1  0.062300  0.103900  0.809100  1.0  0.1607
  H  H61  1  0.989300  0.054900  0.814100  1.0  0.1557
  H  H62  1  0.150600  0.114700  0.241000  1.0  0.1598
  H  H63  1  0.155000  0.971100  0.207400  1.0  0.1732
  H  H64  1  0.120700  0.100700  0.177900  1.0  0.178
  H  H65  1  0.488200  0.384300  0.931900  1.0  0.4341
  H  H66  1  0.717000  0.809100  0.194200  1.0  0.4279
  H  H67  1  0.543600  0.447100  0.795800  1.0  0.1543
  H  H68  1  0.562300  0.603900  0.809100  1.0  0.1607
  H  H69  1  0.489300  0.554900  0.814100  1.0  0.1557
  H  H70  1  0.650600  0.614700  0.241000  1.0  0.1598
  H  H71  1  0.655000  0.471100  0.207400  1.0  0.1732
  H  H72  1  0.620700  0.600700  0.177900  1.0  0.178
  H  H73  1  0.011800  0.884300  0.568100  1.0  0.4355
  H  H74  1  0.783000  0.309100  0.305800  1.0  0.4289
  H  H75  1  0.956400  0.947100  0.704200  1.0  0.1548
  H  H76  1  0.937700  0.103900  0.690900  1.0  0.1606
  H  H77  1  0.010700  0.054900  0.685900  1.0  0.1557
  H  H78  1  0.849400  0.114700  0.259000  1.0  0.1615
  H  H79  1  0.845000  0.971100  0.292600  1.0  0.1732
  H  H80  1  0.879300  0.100700  0.322100  1.0  0.1778
  H  H81  1  0.511800  0.384300  0.568100  1.0  0.4355
  H  H82  1  0.283000  0.809100  0.305800  1.0  0.4289
  H  H83  1  0.456400  0.447100  0.704200  1.0  0.1548
  H  H84  1  0.437700  0.603900  0.690900  1.0  0.1606
  H  H85  1  0.510700  0.554900  0.685900  1.0  0.1557
  H  H86  1  0.349400  0.614700  0.259000  1.0  0.1615
  H  H87  1  0.345000  0.471100  0.292600  1.0  0.1732
  H  H88  1  0.379300  0.600700  0.322100  1.0  0.1778
  H  H89  1  0.011800  0.115700  0.068100  1.0  0.4356
  H  H90  1  0.783000  0.690900  0.805800  1.0  0.4303
  H  H91  1  0.956400  0.052900  0.204200  1.0  0.1544
  H  H92  1  0.937700  0.896100  0.190900  1.0  0.1612
  H  H93  1  0.010700  0.945100  0.185900  1.0  0.1565
  H  H94  1  0.849400  0.885300  0.759000  1.0  0.1611
  H  H95  1  0.845000  0.028900  0.792600  1.0  0.1743
  H  H96  1  0.879300  0.899300  0.822100  1.0  0.1784
  H  H97  1  0.511800  0.615700  0.068100  1.0  0.4356
  H  H98  1  0.283000  0.190900  0.805800  1.0  0.4303
  H  H99  1  0.456400  0.552900  0.204200  1.0  0.1544
  H  H100  1  0.437700  0.396100  0.190900  1.0  0.1612
  H  H101  1  0.510700  0.445100  0.185900  1.0  0.1565
  H  H102  1  0.349400  0.385300  0.759000  1.0  0.1611
  H  H103  1  0.345000  0.528900  0.792600  1.0  0.1743
  H  H104  1  0.379300  0.399300  0.822100  1.0  0.1784
  H  H105  1  0.988200  0.115700  0.431900  1.0  0.4342
  H  H106  1  0.217000  0.690900  0.694200  1.0  0.4288
  H  H107  1  0.043600  0.052900  0.295800  1.0  0.1552
  H  H108  1  0.062300  0.896100  0.309100  1.0  0.1613
  H  H109  1  0.989300  0.945100  0.314100  1.0  0.1557
  H  H110  1  0.150600  0.885300  0.741000  1.0  0.16
  H  H111  1  0.155000  0.028900  0.707400  1.0  0.1744
  H  H112  1  0.120700  0.899300  0.677900  1.0  0.1781
  H  H113  1  0.488200  0.615700  0.431900  1.0  0.4342
  H  H114  1  0.717000  0.190900  0.694200  1.0  0.4288
  H  H115  1  0.543600  0.552900  0.295800  1.0  0.1552
  H  H116  1  0.562300  0.396100  0.309100  1.0  0.1613
  H  H117  1  0.489300  0.445100  0.314100  1.0  0.1557
  H  H118  1  0.650600  0.385300  0.741000  1.0  0.16
  H  H119  1  0.655000  0.528900  0.707400  1.0  0.1744
  H  H120  1  0.620700  0.399300  0.677900  1.0  0.1781
  C  C121  1  0.045300  0.989300  0.885200  1.0  -0.2531
  C  C122  1  0.034100  0.027400  0.819800  1.0  -0.3095
  C  C123  1  0.222100  0.117500  0.176300  1.0  -0.247
  C  C124  1  0.155800  0.071600  0.203200  1.0  -0.3257
  C  C125  1  0.545300  0.489300  0.885200  1.0  -0.2531
  C  C126  1  0.534100  0.527400  0.819800  1.0  -0.3095
  C  C127  1  0.722100  0.617500  0.176300  1.0  -0.247
  C  C128  1  0.655800  0.571600  0.203200  1.0  -0.3257
  C  C129  1  0.954700  0.989300  0.614800  1.0  -0.2531
  C  C130  1  0.965900  0.027400  0.680200  1.0  -0.3092
  C  C131  1  0.777900  0.117500  0.323700  1.0  -0.2484
  C  C132  1  0.844200  0.071600  0.296800  1.0  -0.3267
  C  C133  1  0.454700  0.489300  0.614800  1.0  -0.2531
  C  C134  1  0.465900  0.527400  0.680200  1.0  -0.3092
  C  C135  1  0.277900  0.617500  0.323700  1.0  -0.2484
  C  C136  1  0.344200  0.571600  0.296800  1.0  -0.3267
  C  C137  1  0.954700  0.010700  0.114800  1.0  -0.2532
  C  C138  1  0.965900  0.972600  0.180200  1.0  -0.3091
  C  C139  1  0.777900  0.882500  0.823700  1.0  -0.2487
  C  C140  1  0.844200  0.928400  0.796800  1.0  -0.3262
  C  C141  1  0.454700  0.510700  0.114800  1.0  -0.2532
  C  C142  1  0.465900  0.472600  0.180200  1.0  -0.3091
  C  C143  1  0.277900  0.382500  0.823700  1.0  -0.2487
  C  C144  1  0.344200  0.428400  0.796800  1.0  -0.3262
  C  C145  1  0.045300  0.010700  0.385200  1.0  -0.2539
  C  C146  1  0.034100  0.972600  0.319800  1.0  -0.3093
  C  C147  1  0.222100  0.882500  0.676300  1.0  -0.247
  C  C148  1  0.155800  0.928400  0.703200  1.0  -0.3259
  C  C149  1  0.545300  0.510700  0.385200  1.0  -0.2539
  C  C150  1  0.534100  0.472600  0.319800  1.0  -0.3093
  C  C151  1  0.722100  0.382500  0.676300  1.0  -0.247
  C  C152  1  0.655800  0.428400  0.703200  1.0  -0.3259
  O  O153  1  0.049900  0.114700  0.993100  1.0  -0.7794
  O  O154  1  0.953400  0.163200  0.927600  1.0  -0.7057
  O  O155  1  0.062600  0.269700  0.902600  1.0  -0.694
  O  O156  1  0.002300  0.875000  0.898500  1.0  -0.5177
  O  O157  1  0.174500  0.057000  0.891500  1.0  -0.7575
  O  O158  1  0.142300  0.821000  0.850900  1.0  -0.7685
  O  O159  1  0.132400  0.865300  0.958000  1.0  -0.7334
  O  O160  1  0.172800  0.065600  0.067500  1.0  -0.7703
  O  O161  1  0.292100  0.108100  0.077200  1.0  -0.699
  O  O162  1  0.242600  0.877700  0.112400  1.0  -0.7335
  O  O163  1  0.350700  0.145700  0.197100  1.0  -0.7185
  O  O164  1  0.278700  0.147000  0.286300  1.0  -0.805
  O  O165  1  0.298400  0.920900  0.234000  1.0  -0.7569
  O  O166  1  0.223400  0.264700  0.163900  1.0  -0.5643
  O  O167  1  0.549900  0.614700  0.993100  1.0  -0.7794
  O  O168  1  0.453400  0.663200  0.927600  1.0  -0.7057
  O  O169  1  0.562600  0.769700  0.902600  1.0  -0.694
  O  O170  1  0.502300  0.375000  0.898500  1.0  -0.5177
  O  O171  1  0.674500  0.557000  0.891500  1.0  -0.7575
  O  O172  1  0.642300  0.321000  0.850900  1.0  -0.7685
  O  O173  1  0.632400  0.365300  0.958000  1.0  -0.7334
  O  O174  1  0.672800  0.565600  0.067500  1.0  -0.7703
  O  O175  1  0.792100  0.608100  0.077200  1.0  -0.699
  O  O176  1  0.742600  0.377700  0.112400  1.0  -0.7335
  O  O177  1  0.850700  0.645700  0.197100  1.0  -0.7185
  O  O178  1  0.778700  0.647000  0.286300  1.0  -0.805
  O  O179  1  0.798400  0.420900  0.234000  1.0  -0.7569
  O  O180  1  0.723400  0.764700  0.163900  1.0  -0.5643
  O  O181  1  0.950100  0.114700  0.506900  1.0  -0.7781
  O  O182  1  0.046600  0.163200  0.572400  1.0  -0.7081
  O  O183  1  0.937400  0.269700  0.597400  1.0  -0.6931
  O  O184  1  0.997700  0.875000  0.601500  1.0  -0.52
  O  O185  1  0.825500  0.057000  0.608500  1.0  -0.7566
  O  O186  1  0.857700  0.821000  0.649100  1.0  -0.7685
  O  O187  1  0.867600  0.865300  0.542000  1.0  -0.7341
  O  O188  1  0.827200  0.065600  0.432500  1.0  -0.7702
  O  O189  1  0.707900  0.108100  0.422800  1.0  -0.6978
  O  O190  1  0.757400  0.877700  0.387600  1.0  -0.7339
  O  O191  1  0.649300  0.145700  0.302900  1.0  -0.7138
  O  O192  1  0.721300  0.147000  0.213700  1.0  -0.8001
  O  O193  1  0.701600  0.920900  0.266000  1.0  -0.7572
  O  O194  1  0.776600  0.264700  0.336100  1.0  -0.5643
  O  O195  1  0.450100  0.614700  0.506900  1.0  -0.7781
  O  O196  1  0.546600  0.663200  0.572400  1.0  -0.7081
  O  O197  1  0.437400  0.769700  0.597400  1.0  -0.6931
  O  O198  1  0.497700  0.375000  0.601500  1.0  -0.52
  O  O199  1  0.325500  0.557000  0.608500  1.0  -0.7566
  O  O200  1  0.357700  0.321000  0.649100  1.0  -0.7685
  O  O201  1  0.367600  0.365300  0.542000  1.0  -0.7341
  O  O202  1  0.327200  0.565600  0.432500  1.0  -0.7702
  O  O203  1  0.207900  0.608100  0.422800  1.0  -0.6978
  O  O204  1  0.257400  0.377700  0.387600  1.0  -0.7339
  O  O205  1  0.149300  0.645700  0.302900  1.0  -0.7138
  O  O206  1  0.221300  0.647000  0.213700  1.0  -0.8001
  O  O207  1  0.201600  0.420900  0.266000  1.0  -0.7572
  O  O208  1  0.276600  0.764700  0.336100  1.0  -0.5643
  O  O209  1  0.950100  0.885300  0.006900  1.0  -0.7774
  O  O210  1  0.046600  0.836800  0.072400  1.0  -0.7065
  O  O211  1  0.937400  0.730300  0.097400  1.0  -0.6902
  O  O212  1  0.997700  0.125000  0.101500  1.0  -0.5179
  O  O213  1  0.825500  0.943000  0.108500  1.0  -0.757
  O  O214  1  0.857700  0.179000  0.149100  1.0  -0.7674
  O  O215  1  0.867600  0.134700  0.042000  1.0  -0.7342
  O  O216  1  0.827200  0.934400  0.932500  1.0  -0.7701
  O  O217  1  0.707900  0.891900  0.922800  1.0  -0.6984
  O  O218  1  0.757400  0.122300  0.887600  1.0  -0.7323
  O  O219  1  0.649300  0.854300  0.802900  1.0  -0.7129
  O  O220  1  0.721300  0.853000  0.713700  1.0  -0.8002
  O  O221  1  0.701600  0.079100  0.766000  1.0  -0.7569
  O  O222  1  0.776600  0.735300  0.836100  1.0  -0.5633
  O  O223  1  0.450100  0.385300  0.006900  1.0  -0.7774
  O  O224  1  0.546600  0.336800  0.072400  1.0  -0.7065
  O  O225  1  0.437400  0.230300  0.097400  1.0  -0.6902
  O  O226  1  0.497700  0.625000  0.101500  1.0  -0.5179
  O  O227  1  0.325500  0.443000  0.108500  1.0  -0.757
  O  O228  1  0.357700  0.679000  0.149100  1.0  -0.7674
  O  O229  1  0.367600  0.634700  0.042000  1.0  -0.7342
  O  O230  1  0.327200  0.434400  0.932500  1.0  -0.7701
  O  O231  1  0.207900  0.391900  0.922800  1.0  -0.6984
  O  O232  1  0.257400  0.622300  0.887600  1.0  -0.7323
  O  O233  1  0.149300  0.354300  0.802900  1.0  -0.7129
  O  O234  1  0.221300  0.353000  0.713700  1.0  -0.8002
  O  O235  1  0.201600  0.579100  0.766000  1.0  -0.7569
  O  O236  1  0.276600  0.235300  0.836100  1.0  -0.5633
  O  O237  1  0.049900  0.885300  0.493100  1.0  -0.7786
  O  O238  1  0.953400  0.836800  0.427600  1.0  -0.7056
  O  O239  1  0.062600  0.730300  0.402600  1.0  -0.6904
  O  O240  1  0.002300  0.125000  0.398500  1.0  -0.5154
  O  O241  1  0.174500  0.943000  0.391500  1.0  -0.7576
  O  O242  1  0.142300  0.179000  0.350900  1.0  -0.7684
  O  O243  1  0.132400  0.134700  0.458000  1.0  -0.7326
  O  O244  1  0.172800  0.934400  0.567500  1.0  -0.7706
  O  O245  1  0.292100  0.891900  0.577200  1.0  -0.7
  O  O246  1  0.242600  0.122300  0.612400  1.0  -0.7327
  O  O247  1  0.350700  0.854300  0.697100  1.0  -0.7179
  O  O248  1  0.278700  0.853000  0.786300  1.0  -0.8051
  O  O249  1  0.298400  0.079100  0.734000  1.0  -0.7564
  O  O250  1  0.223400  0.735300  0.663900  1.0  -0.5651
  O  O251  1  0.549900  0.385300  0.493100  1.0  -0.7786
  O  O252  1  0.453400  0.336800  0.427600  1.0  -0.7056
  O  O253  1  0.562600  0.230300  0.402600  1.0  -0.6904
  O  O254  1  0.502300  0.625000  0.398500  1.0  -0.5154
  O  O255  1  0.674500  0.443000  0.391500  1.0  -0.7576
  O  O256  1  0.642300  0.679000  0.350900  1.0  -0.7684
  O  O257  1  0.632400  0.634700  0.458000  1.0  -0.7326
  O  O258  1  0.672800  0.434400  0.567500  1.0  -0.7706
  O  O259  1  0.792100  0.391900  0.577200  1.0  -0.7
  O  O260  1  0.742600  0.622300  0.612400  1.0  -0.7327
  O  O261  1  0.850700  0.354300  0.697100  1.0  -0.7179
  O  O262  1  0.778700  0.353000  0.786300  1.0  -0.8051
  O  O263  1  0.798400  0.579100  0.734000  1.0  -0.7564
  O  O264  1  0.723400  0.235300  0.663900  1.0  -0.5651
