# generated using pymatgen
data_In7P8H4(O4F)8
_symmetry_space_group_name_H-M   'P 1'
_cell_length_a   19.56900000
_cell_length_b   9.70340000
_cell_length_c   14.92700000
_cell_angle_alpha   90.00000000
_cell_angle_beta   119.09100000
_cell_angle_gamma   90.00000000
_symmetry_Int_Tables_number   1
_chemical_formula_structural   In7P8H4(O4F)8
_chemical_formula_sum   'In14 P16 H8 O64 F16'
_cell_volume   2476.85907949
_cell_formula_units_Z   2
loop_
 _symmetry_equiv_pos_site_id
 _symmetry_equiv_pos_as_xyz
  1  'x, y, z'
loop_
 _atom_site_type_symbol
 _atom_site_label
 _atom_site_symmetry_multiplicity
 _atom_site_fract_x
 _atom_site_fract_y
 _atom_site_fract_z
 _atom_site_occupancy
 _atom_site_charge
  In  In1  1  0.782060  0.500000  0.013920  1.0  1.6262
  In  In2  1  0.512240  0.500000  0.760730  1.0  1.6547
  In  In3  1  0.282060  0.000000  0.013920  1.0  1.6262
  In  In4  1  0.012240  0.000000  0.760730  1.0  1.6547
  In  In5  1  0.217940  0.500000  0.986080  1.0  1.6267
  In  In6  1  0.487760  0.500000  0.239270  1.0  1.6559
  In  In7  1  0.717940  0.000000  0.986080  1.0  1.6267
  In  In8  1  0.987760  0.000000  0.239270  1.0  1.6559
  In  In9  1  0.500000  0.500000  0.000000  1.0  1.633
  In  In10  1  0.000000  0.000000  0.000000  1.0  1.633
  In  In11  1  0.500000  0.500000  0.500000  1.0  1.6482
  In  In12  1  0.000000  0.000000  0.500000  1.0  1.6482
  In  In13  1  0.500000  0.000000  0.500000  1.0  1.3929
  In  In14  1  0.000000  0.500000  0.500000  1.0  1.3929
  P  P15  1  0.422520  0.260090  0.574300  1.0  1.8731
  P  P16  1  0.626540  0.700390  0.963680  1.0  1.9209
  P  P17  1  0.922520  0.760090  0.574300  1.0  1.8731
  P  P18  1  0.126540  0.200390  0.963680  1.0  1.9209
  P  P19  1  0.577480  0.260090  0.425700  1.0  1.8717
  P  P20  1  0.373460  0.700390  0.036320  1.0  1.9211
  P  P21  1  0.077480  0.760090  0.425700  1.0  1.8717
  P  P22  1  0.873460  0.200390  0.036320  1.0  1.9211
  P  P23  1  0.577480  0.739910  0.425700  1.0  1.872
  P  P24  1  0.373460  0.299610  0.036320  1.0  1.9208
  P  P25  1  0.077480  0.239910  0.425700  1.0  1.872
  P  P26  1  0.873460  0.799610  0.036320  1.0  1.9208
  P  P27  1  0.422520  0.739910  0.574300  1.0  1.873
  P  P28  1  0.626540  0.299610  0.963680  1.0  1.9206
  P  P29  1  0.922520  0.239910  0.574300  1.0  1.873
  P  P30  1  0.126540  0.799610  0.963680  1.0  1.9209
  H  H31  1  0.310400  0.248600  0.531000  1.0  0.4126
  H  H32  1  0.810400  0.748600  0.531000  1.0  0.4126
  H  H33  1  0.689600  0.248600  0.469000  1.0  0.4108
  H  H34  1  0.189600  0.748600  0.469000  1.0  0.4108
  H  H35  1  0.689600  0.751400  0.469000  1.0  0.4128
  H  H36  1  0.189600  0.251400  0.469000  1.0  0.4128
  H  H37  1  0.310400  0.751400  0.531000  1.0  0.4149
  H  H38  1  0.810400  0.251400  0.531000  1.0  0.4149
  O  O39  1  0.709700  0.647900  0.027800  1.0  -0.7715
  O  O40  1  0.628300  0.859000  0.966300  1.0  -0.7225
  O  O41  1  0.589600  0.653600  0.852700  1.0  -0.7724
  O  O42  1  0.437000  0.339100  0.668300  1.0  -0.7687
  O  O43  1  0.578600  0.655300  0.014300  1.0  -0.7606
  O  O44  1  0.417800  0.350300  0.489400  1.0  -0.7586
  O  O45  1  0.482200  0.147000  0.597800  1.0  -0.8099
  O  O46  1  0.342000  0.192000  0.532100  1.0  -0.6324
  O  O47  1  0.209700  0.147900  0.027800  1.0  -0.7715
  O  O48  1  0.128300  0.359000  0.966300  1.0  -0.7225
  O  O49  1  0.089600  0.153600  0.852700  1.0  -0.7724
  O  O50  1  0.937000  0.839100  0.668300  1.0  -0.7687
  O  O51  1  0.078600  0.155300  0.014300  1.0  -0.7606
  O  O52  1  0.917800  0.850300  0.489400  1.0  -0.7582
  O  O53  1  0.982200  0.647000  0.597800  1.0  -0.8099
  O  O54  1  0.842000  0.692000  0.532100  1.0  -0.6324
  O  O55  1  0.290300  0.647900  0.972200  1.0  -0.7717
  O  O56  1  0.371700  0.859000  0.033700  1.0  -0.7235
  O  O57  1  0.410400  0.653600  0.147300  1.0  -0.7758
  O  O58  1  0.563000  0.339100  0.331700  1.0  -0.7685
  O  O59  1  0.421400  0.655300  0.985700  1.0  -0.7592
  O  O60  1  0.582200  0.350300  0.510600  1.0  -0.7579
  O  O61  1  0.517800  0.147000  0.402200  1.0  -0.8099
  O  O62  1  0.658000  0.192000  0.467900  1.0  -0.6351
  O  O63  1  0.790300  0.147900  0.972200  1.0  -0.7717
  O  O64  1  0.871700  0.359000  0.033700  1.0  -0.7235
  O  O65  1  0.910400  0.153600  0.147300  1.0  -0.7758
  O  O66  1  0.063000  0.839100  0.331700  1.0  -0.7685
  O  O67  1  0.921400  0.155300  0.985700  1.0  -0.7592
  O  O68  1  0.082200  0.850300  0.510600  1.0  -0.7579
  O  O69  1  0.017800  0.647000  0.402200  1.0  -0.8099
  O  O70  1  0.158000  0.692000  0.467900  1.0  -0.6351
  O  O71  1  0.290300  0.352100  0.972200  1.0  -0.7718
  O  O72  1  0.371700  0.141000  0.033700  1.0  -0.7238
  O  O73  1  0.410400  0.346400  0.147300  1.0  -0.7751
  O  O74  1  0.563000  0.660900  0.331700  1.0  -0.7688
  O  O75  1  0.421400  0.344700  0.985700  1.0  -0.7582
  O  O76  1  0.582200  0.649700  0.510600  1.0  -0.7583
  O  O77  1  0.517800  0.853000  0.402200  1.0  -0.8111
  O  O78  1  0.658000  0.808000  0.467900  1.0  -0.6352
  O  O79  1  0.790300  0.852100  0.972200  1.0  -0.7718
  O  O80  1  0.871700  0.641000  0.033700  1.0  -0.7238
  O  O81  1  0.910400  0.846400  0.147300  1.0  -0.7751
  O  O82  1  0.063000  0.160900  0.331700  1.0  -0.7688
  O  O83  1  0.921400  0.844700  0.985700  1.0  -0.7582
  O  O84  1  0.082200  0.149700  0.510600  1.0  -0.7583
  O  O85  1  0.017800  0.353000  0.402200  1.0  -0.8111
  O  O86  1  0.158000  0.308000  0.467900  1.0  -0.6352
  O  O87  1  0.709700  0.352100  0.027800  1.0  -0.7713
  O  O88  1  0.628300  0.141000  0.966300  1.0  -0.7227
  O  O89  1  0.589600  0.346400  0.852700  1.0  -0.7717
  O  O90  1  0.437000  0.660900  0.668300  1.0  -0.7691
  O  O91  1  0.578600  0.344700  0.014300  1.0  -0.7599
  O  O92  1  0.417800  0.649700  0.489400  1.0  -0.7586
  O  O93  1  0.482200  0.853000  0.597800  1.0  -0.8104
  O  O94  1  0.342000  0.808000  0.532100  1.0  -0.6345
  O  O95  1  0.209700  0.852100  0.027800  1.0  -0.7713
  O  O96  1  0.128300  0.641000  0.966300  1.0  -0.7227
  O  O97  1  0.089600  0.846400  0.852700  1.0  -0.7717
  O  O98  1  0.937000  0.160900  0.668300  1.0  -0.7691
  O  O99  1  0.078600  0.844700  0.014300  1.0  -0.7599
  O  O100  1  0.917800  0.149700  0.489400  1.0  -0.7584
  O  O101  1  0.982200  0.353000  0.597800  1.0  -0.8104
  O  O102  1  0.842000  0.308000  0.532100  1.0  -0.6345
  F  F103  1  0.734300  0.500000  0.856700  1.0  -0.4527
  F  F104  1  0.836700  0.500000  0.179500  1.0  -0.5161
  F  F105  1  0.446800  0.500000  0.838100  1.0  -0.5223
  F  F106  1  0.561900  0.500000  0.662100  1.0  -0.5415
  F  F107  1  0.234300  0.000000  0.856700  1.0  -0.4527
  F  F108  1  0.336700  0.000000  0.179500  1.0  -0.5161
  F  F109  1  0.946800  0.000000  0.838100  1.0  -0.5223
  F  F110  1  0.061900  0.000000  0.662100  1.0  -0.5415
  F  F111  1  0.265700  0.500000  0.143300  1.0  -0.4489
  F  F112  1  0.163300  0.500000  0.820500  1.0  -0.5178
  F  F113  1  0.553200  0.500000  0.161900  1.0  -0.523
  F  F114  1  0.438100  0.500000  0.337900  1.0  -0.5411
  F  F115  1  0.765700  0.000000  0.143300  1.0  -0.4489
  F  F116  1  0.663300  0.000000  0.820500  1.0  -0.5178
  F  F117  1  0.053200  0.000000  0.161900  1.0  -0.523
  F  F118  1  0.938100  0.000000  0.337900  1.0  -0.5411
