# generated using pymatgen
data_LaH6(C3O4)3
_symmetry_space_group_name_H-M   'P 1'
_cell_length_a   8.97090000
_cell_length_b   10.34260000
_cell_length_c   10.34260000
_cell_angle_alpha   120.00000000
_cell_angle_beta   90.00000000
_cell_angle_gamma   90.00000000
_symmetry_Int_Tables_number   1
_chemical_formula_structural   LaH6(C3O4)3
_chemical_formula_sum   'La2 H12 C18 O24'
_cell_volume   831.04799222
_cell_formula_units_Z   2
loop_
 _symmetry_equiv_pos_site_id
 _symmetry_equiv_pos_as_xyz
  1  'x, y, z'
loop_
 _atom_site_type_symbol
 _atom_site_label
 _atom_site_symmetry_multiplicity
 _atom_site_fract_x
 _atom_site_fract_y
 _atom_site_fract_z
 _atom_site_occupancy
 _atom_site_charge
  La  La1  1  0.950640  0.333333  0.666667  1.0  2.0861
  La  La2  1  0.049360  0.666667  0.333333  1.0  2.0861
  H  H3  1  0.563300  0.479200  0.365000  1.0  0.1241
  H  H4  1  0.719900  0.628500  0.569800  1.0  0.1382
  H  H5  1  0.563300  0.885800  0.520800  1.0  0.1241
  H  H6  1  0.719900  0.941300  0.371500  1.0  0.1376
  H  H7  1  0.563300  0.635000  0.114200  1.0  0.1241
  H  H8  1  0.719900  0.430200  0.058700  1.0  0.1384
  H  H9  1  0.436700  0.520800  0.635000  1.0  0.1225
  H  H10  1  0.280100  0.371500  0.430200  1.0  0.1385
  H  H11  1  0.436700  0.114200  0.479200  1.0  0.1249
  H  H12  1  0.280100  0.058700  0.628500  1.0  0.1373
  H  H13  1  0.436700  0.365000  0.885800  1.0  0.1241
  H  H14  1  0.280100  0.569800  0.941300  1.0  0.1381
  C  C15  1  0.567200  0.461700  0.449700  1.0  0.1131
  C  C16  1  0.842700  0.445200  0.420100  1.0  0.6981
  C  C17  1  0.714900  0.520400  0.529600  1.0  0.0258
  C  C18  1  0.567200  0.988000  0.538300  1.0  0.1156
  C  C19  1  0.842700  0.974900  0.554800  1.0  0.6994
  C  C20  1  0.714900  0.009200  0.479600  1.0  0.0261
  C  C21  1  0.567200  0.550300  0.012000  1.0  0.1156
  C  C22  1  0.842700  0.579900  0.025100  1.0  0.6951
  C  C23  1  0.714900  0.470400  0.990800  1.0  0.0242
  C  C24  1  0.432800  0.538300  0.550300  1.0  0.1085
  C  C25  1  0.157300  0.554800  0.579900  1.0  0.6932
  C  C26  1  0.285100  0.479600  0.470400  1.0  0.026
  C  C27  1  0.432800  0.012000  0.461700  1.0  0.1157
  C  C28  1  0.157300  0.025100  0.445200  1.0  0.6973
  C  C29  1  0.285100  0.990800  0.520400  1.0  0.0262
  C  C30  1  0.432800  0.449700  0.988000  1.0  0.1146
  C  C31  1  0.157300  0.420100  0.974900  1.0  0.6967
  C  C32  1  0.285100  0.529600  0.009200  1.0  0.0283
  O  O33  1  0.558700  0.303800  0.393200  1.0  -0.1986
  O  O34  1  0.920500  0.351400  0.433600  1.0  -0.5943
  O  O35  1  0.861600  0.480400  0.321700  1.0  -0.5991
  O  O36  1  0.734000  0.488700  0.648900  1.0  -0.4006
  O  O37  1  0.558700  0.089400  0.696200  1.0  -0.191
  O  O38  1  0.920500  0.082200  0.648600  1.0  -0.6016
  O  O39  1  0.861600  0.841300  0.519600  1.0  -0.5998
  O  O40  1  0.734000  0.160200  0.511300  1.0  -0.3962
  O  O41  1  0.558700  0.606800  0.910600  1.0  -0.1941
  O  O42  1  0.920500  0.566400  0.917800  1.0  -0.6022
  O  O43  1  0.861600  0.678300  0.158700  1.0  -0.6001
  O  O44  1  0.734000  0.351100  0.839800  1.0  -0.4065
  O  O45  1  0.441300  0.696200  0.606800  1.0  -0.1958
  O  O46  1  0.079500  0.648600  0.566400  1.0  -0.5976
  O  O47  1  0.138400  0.519600  0.678300  1.0  -0.6009
  O  O48  1  0.266000  0.511300  0.351100  1.0  -0.3993
  O  O49  1  0.441300  0.910600  0.303800  1.0  -0.1898
  O  O50  1  0.079500  0.917800  0.351400  1.0  -0.599
  O  O51  1  0.138400  0.158700  0.480400  1.0  -0.5988
  O  O52  1  0.266000  0.839800  0.488700  1.0  -0.3921
  O  O53  1  0.441300  0.393200  0.089400  1.0  -0.1993
  O  O54  1  0.079500  0.433600  0.082200  1.0  -0.6007
  O  O55  1  0.138400  0.321700  0.841300  1.0  -0.5989
  O  O56  1  0.266000  0.648900  0.160200  1.0  -0.407
