# generated using pymatgen
data_CeH6(C3O4)3
_symmetry_space_group_name_H-M   'P 1'
_cell_length_a   8.94270000
_cell_length_b   10.28800000
_cell_length_c   10.28800000
_cell_angle_alpha   120.00000000
_cell_angle_beta   90.00000000
_cell_angle_gamma   90.00000000
_symmetry_Int_Tables_number   1
_chemical_formula_structural   CeH6(C3O4)3
_chemical_formula_sum   'Ce2 H12 C18 O24'
_cell_volume   819.71183337
_cell_formula_units_Z   2
loop_
 _symmetry_equiv_pos_site_id
 _symmetry_equiv_pos_as_xyz
  1  'x, y, z'
loop_
 _atom_site_type_symbol
 _atom_site_label
 _atom_site_symmetry_multiplicity
 _atom_site_fract_x
 _atom_site_fract_y
 _atom_site_fract_z
 _atom_site_occupancy
 _atom_site_charge
  Ce  Ce1  1  0.950120  0.333333  0.666667  1.0  2.1973
  Ce  Ce2  1  0.049880  0.666667  0.333333  1.0  2.1969
  H  H3  1  0.562400  0.479900  0.115100  1.0  0.124
  H  H4  1  0.720700  0.629800  0.058900  1.0  0.1361
  H  H5  1  0.562400  0.635200  0.520100  1.0  0.1253
  H  H6  1  0.720700  0.429100  0.370200  1.0  0.1368
  H  H7  1  0.562400  0.884900  0.364800  1.0  0.1249
  H  H8  1  0.720700  0.941100  0.570900  1.0  0.1363
  H  H9  1  0.437600  0.520100  0.884900  1.0  0.1248
  H  H10  1  0.279300  0.370200  0.941100  1.0  0.1366
  H  H11  1  0.437600  0.364800  0.479900  1.0  0.1254
  H  H12  1  0.279300  0.570900  0.629800  1.0  0.1358
  H  H13  1  0.437600  0.115100  0.635200  1.0  0.1254
  H  H14  1  0.279300  0.058900  0.429100  1.0  0.1351
  C  C15  1  0.843800  0.445500  0.025300  1.0  0.6965
  C  C16  1  0.566600  0.461900  0.012200  1.0  0.1156
  C  C17  1  0.715600  0.521000  0.991100  1.0  0.0259
  C  C18  1  0.843800  0.579800  0.554500  1.0  0.6941
  C  C19  1  0.566600  0.550300  0.538100  1.0  0.116
  C  C20  1  0.715600  0.470100  0.479000  1.0  0.0266
  C  C21  1  0.843800  0.974700  0.420200  1.0  0.6955
  C  C22  1  0.566600  0.987800  0.449700  1.0  0.1175
  C  C23  1  0.715600  0.008900  0.529900  1.0  0.0263
  C  C24  1  0.156200  0.554500  0.974700  1.0  0.6956
  C  C25  1  0.433400  0.538100  0.987800  1.0  0.1163
  C  C26  1  0.284400  0.479000  0.008900  1.0  0.0277
  C  C27  1  0.156200  0.420200  0.445500  1.0  0.6944
  C  C28  1  0.433400  0.449700  0.461900  1.0  0.117
  C  C29  1  0.284400  0.529900  0.521000  1.0  0.0252
  C  C30  1  0.156200  0.025300  0.579800  1.0  0.6986
  C  C31  1  0.433400  0.012200  0.550300  1.0  0.1179
  C  C32  1  0.284400  0.991100  0.470100  1.0  0.0265
  O  O33  1  0.559100  0.303500  0.911100  1.0  -0.2042
  O  O34  1  0.921800  0.350900  0.917200  1.0  -0.607
  O  O35  1  0.862900  0.481300  0.159500  1.0  -0.6073
  O  O36  1  0.734600  0.488000  0.839000  1.0  -0.4126
  O  O37  1  0.559100  0.607600  0.696500  1.0  -0.2083
  O  O38  1  0.921800  0.566300  0.649100  1.0  -0.6125
  O  O39  1  0.862900  0.678200  0.518700  1.0  -0.6059
  O  O40  1  0.734600  0.351000  0.512000  1.0  -0.4178
  O  O41  1  0.559100  0.088900  0.392400  1.0  -0.1978
  O  O42  1  0.921800  0.082800  0.433700  1.0  -0.612
  O  O43  1  0.862900  0.840500  0.321800  1.0  -0.6059
  O  O44  1  0.734600  0.161000  0.649000  1.0  -0.4061
  O  O45  1  0.440900  0.696500  0.088900  1.0  -0.2002
  O  O46  1  0.078200  0.649100  0.082800  1.0  -0.6092
  O  O47  1  0.137100  0.518700  0.840500  1.0  -0.6067
  O  O48  1  0.265400  0.512000  0.161000  1.0  -0.4146
  O  O49  1  0.440900  0.392400  0.303500  1.0  -0.2063
  O  O50  1  0.078200  0.433700  0.350900  1.0  -0.613
  O  O51  1  0.137100  0.321800  0.481300  1.0  -0.6064
  O  O52  1  0.265400  0.649000  0.488000  1.0  -0.4183
  O  O53  1  0.440900  0.911100  0.607600  1.0  -0.1993
  O  O54  1  0.078200  0.917200  0.566300  1.0  -0.6107
  O  O55  1  0.137100  0.159500  0.678200  1.0  -0.6063
  O  O56  1  0.265400  0.839000  0.351000  1.0  -0.4055
