# generated using pymatgen
data_NdH6(C3O4)3
_symmetry_space_group_name_H-M   'P 1'
_cell_length_a   8.90210000
_cell_length_b   10.21510000
_cell_length_c   10.21510000
_cell_angle_alpha   120.00000000
_cell_angle_beta   90.00000000
_cell_angle_gamma   90.00000000
_symmetry_Int_Tables_number   1
_chemical_formula_structural   NdH6(C3O4)3
_chemical_formula_sum   'Nd2 H12 C18 O24'
_cell_volume   804.46720667
_cell_formula_units_Z   2
loop_
 _symmetry_equiv_pos_site_id
 _symmetry_equiv_pos_as_xyz
  1  'x, y, z'
loop_
 _atom_site_type_symbol
 _atom_site_label
 _atom_site_symmetry_multiplicity
 _atom_site_fract_x
 _atom_site_fract_y
 _atom_site_fract_z
 _atom_site_occupancy
 _atom_site_charge
  Nd  Nd1  1  0.948860  0.333333  0.666667  1.0  2.242
  Nd  Nd2  1  0.051140  0.666667  0.333333  1.0  2.2415
  H  H3  1  0.562900  0.481300  0.116800  1.0  0.125
  H  H4  1  0.722000  0.631400  0.060200  1.0  0.1363
  H  H5  1  0.562900  0.635500  0.518700  1.0  0.126
  H  H6  1  0.722000  0.428800  0.368600  1.0  0.1381
  H  H7  1  0.562900  0.883200  0.364500  1.0  0.1257
  H  H8  1  0.722000  0.939800  0.571200  1.0  0.1369
  H  H9  1  0.437100  0.518700  0.883200  1.0  0.1252
  H  H10  1  0.278000  0.368600  0.939800  1.0  0.1376
  H  H11  1  0.437100  0.364500  0.481300  1.0  0.1257
  H  H12  1  0.278000  0.571200  0.631400  1.0  0.1362
  H  H13  1  0.437100  0.116800  0.635500  1.0  0.126
  H  H14  1  0.278000  0.060200  0.428800  1.0  0.1352
  C  C15  1  0.845000  0.445700  0.025300  1.0  0.696
  C  C16  1  0.567400  0.462400  0.012900  1.0  0.1142
  C  C17  1  0.716800  0.521800  0.991600  1.0  0.0305
  C  C18  1  0.845000  0.579600  0.554300  1.0  0.6943
  C  C19  1  0.567400  0.550500  0.537600  1.0  0.1158
  C  C20  1  0.716800  0.469800  0.478200  1.0  0.0311
  C  C21  1  0.845000  0.974700  0.420400  1.0  0.6957
  C  C22  1  0.567400  0.987100  0.449500  1.0  0.1175
  C  C23  1  0.716800  0.008400  0.530200  1.0  0.0311
  C  C24  1  0.155000  0.554300  0.974700  1.0  0.6965
  C  C25  1  0.432600  0.537600  0.987100  1.0  0.1157
  C  C26  1  0.283200  0.478200  0.008400  1.0  0.0326
  C  C27  1  0.155000  0.420400  0.445700  1.0  0.6953
  C  C28  1  0.432600  0.449500  0.462400  1.0  0.1167
  C  C29  1  0.283200  0.530200  0.521800  1.0  0.0295
  C  C30  1  0.155000  0.025300  0.579600  1.0  0.699
  C  C31  1  0.432600  0.012900  0.550500  1.0  0.1176
  C  C32  1  0.283200  0.991600  0.469800  1.0  0.0311
  O  O33  1  0.559200  0.302600  0.912200  1.0  -0.2079
  O  O34  1  0.923600  0.350000  0.916000  1.0  -0.6127
  O  O35  1  0.864600  0.482500  0.160900  1.0  -0.6065
  O  O36  1  0.736700  0.488800  0.838400  1.0  -0.425
  O  O37  1  0.559200  0.609600  0.697400  1.0  -0.2116
  O  O38  1  0.923600  0.566000  0.650000  1.0  -0.6196
  O  O39  1  0.864600  0.678400  0.517500  1.0  -0.605
  O  O40  1  0.736700  0.349600  0.511200  1.0  -0.4298
  O  O41  1  0.559200  0.087800  0.390400  1.0  -0.2011
  O  O42  1  0.923600  0.084000  0.434000  1.0  -0.6183
  O  O43  1  0.864600  0.839100  0.321600  1.0  -0.6052
  O  O44  1  0.736700  0.161600  0.650400  1.0  -0.4192
  O  O45  1  0.440800  0.697400  0.087800  1.0  -0.2029
  O  O46  1  0.076400  0.650000  0.084000  1.0  -0.6144
  O  O47  1  0.135400  0.517500  0.839100  1.0  -0.6045
  O  O48  1  0.263300  0.511200  0.161600  1.0  -0.4257
  O  O49  1  0.440800  0.390400  0.302600  1.0  -0.207
  O  O50  1  0.076400  0.434000  0.350000  1.0  -0.6198
  O  O51  1  0.135400  0.321600  0.482500  1.0  -0.606
  O  O52  1  0.263300  0.650400  0.488800  1.0  -0.4286
  O  O53  1  0.440800  0.912200  0.609600  1.0  -0.2035
  O  O54  1  0.076400  0.916000  0.566000  1.0  -0.6171
  O  O55  1  0.135400  0.160900  0.678400  1.0  -0.6057
  O  O56  1  0.263300  0.838400  0.349600  1.0  -0.4206
