# generated using pymatgen
data_PrH6(C3O4)3
_symmetry_space_group_name_H-M   'P 1'
_cell_length_a   8.90840000
_cell_length_b   10.21820000
_cell_length_c   10.21820000
_cell_angle_alpha   120.00000000
_cell_angle_beta   90.00000000
_cell_angle_gamma   90.00000000
_symmetry_Int_Tables_number   1
_chemical_formula_structural   PrH6(C3O4)3
_chemical_formula_sum   'Pr2 H12 C18 O24'
_cell_volume   805.52521338
_cell_formula_units_Z   2
loop_
 _symmetry_equiv_pos_site_id
 _symmetry_equiv_pos_as_xyz
  1  'x, y, z'
loop_
 _atom_site_type_symbol
 _atom_site_label
 _atom_site_symmetry_multiplicity
 _atom_site_fract_x
 _atom_site_fract_y
 _atom_site_fract_z
 _atom_site_occupancy
 _atom_site_charge
  Pr  Pr1  1  0.948040  0.333333  0.666667  1.0  2.2253
  Pr  Pr2  1  0.051960  0.666667  0.333333  1.0  2.2251
  H  H3  1  0.563000  0.482100  0.364800  1.0  0.1249
  H  H4  1  0.722000  0.631800  0.572700  1.0  0.1356
  H  H5  1  0.563000  0.882700  0.517900  1.0  0.1257
  H  H6  1  0.722000  0.940900  0.368200  1.0  0.1369
  H  H7  1  0.563000  0.635200  0.117300  1.0  0.1252
  H  H8  1  0.722000  0.427300  0.059100  1.0  0.1379
  H  H9  1  0.437000  0.517900  0.635200  1.0  0.1234
  H  H10  1  0.278000  0.368200  0.427300  1.0  0.1379
  H  H11  1  0.437000  0.117300  0.482100  1.0  0.1258
  H  H12  1  0.278000  0.059100  0.631800  1.0  0.1367
  H  H13  1  0.437000  0.364800  0.882700  1.0  0.1247
  H  H14  1  0.278000  0.572700  0.940900  1.0  0.1369
  C  C15  1  0.567300  0.462700  0.449400  1.0  0.1165
  C  C16  1  0.844900  0.445800  0.420800  1.0  0.6988
  C  C17  1  0.716600  0.522300  0.531300  1.0  0.0295
  C  C18  1  0.567300  0.986700  0.537300  1.0  0.1181
  C  C19  1  0.844900  0.975000  0.554200  1.0  0.7022
  C  C20  1  0.716600  0.009000  0.477700  1.0  0.0294
  C  C21  1  0.567300  0.550600  0.013300  1.0  0.1188
  C  C22  1  0.844900  0.579200  0.025000  1.0  0.698
  C  C23  1  0.716600  0.468700  0.991000  1.0  0.026
  C  C24  1  0.432700  0.537300  0.550600  1.0  0.1164
  C  C25  1  0.155100  0.554200  0.579200  1.0  0.6979
  C  C26  1  0.283400  0.477700  0.468700  1.0  0.0295
  C  C27  1  0.432700  0.013300  0.462700  1.0  0.1185
  C  C28  1  0.155100  0.025000  0.445800  1.0  0.7004
  C  C29  1  0.283400  0.991000  0.522300  1.0  0.0303
  C  C30  1  0.432700  0.449400  0.986700  1.0  0.1177
  C  C31  1  0.155100  0.420800  0.975000  1.0  0.6971
  C  C32  1  0.283400  0.531300  0.009000  1.0  0.0301
  O  O33  1  0.560500  0.302400  0.389900  1.0  -0.1869
  O  O34  1  0.922600  0.349900  0.434100  1.0  -0.5949
  O  O35  1  0.867100  0.482200  0.322500  1.0  -0.6246
  O  O36  1  0.735300  0.488300  0.650800  1.0  -0.4332
  O  O37  1  0.560500  0.087500  0.697600  1.0  -0.1793
  O  O38  1  0.922600  0.084200  0.650100  1.0  -0.6037
  O  O39  1  0.867100  0.840300  0.517800  1.0  -0.6314
  O  O40  1  0.735300  0.162500  0.511700  1.0  -0.4303
  O  O41  1  0.560500  0.610100  0.912500  1.0  -0.1866
  O  O42  1  0.922600  0.565900  0.915800  1.0  -0.6035
  O  O43  1  0.867100  0.677500  0.159700  1.0  -0.6297
  O  O44  1  0.735300  0.349200  0.837500  1.0  -0.4386
  O  O45  1  0.439500  0.697600  0.610100  1.0  -0.185
  O  O46  1  0.077400  0.650100  0.565900  1.0  -0.5992
  O  O47  1  0.132900  0.517800  0.677500  1.0  -0.6299
  O  O48  1  0.264700  0.511700  0.349200  1.0  -0.4314
  O  O49  1  0.439500  0.912500  0.302400  1.0  -0.1781
  O  O50  1  0.077400  0.915800  0.349900  1.0  -0.6018
  O  O51  1  0.132900  0.159700  0.482200  1.0  -0.6298
  O  O52  1  0.264700  0.837500  0.488300  1.0  -0.431
  O  O53  1  0.439500  0.389900  0.087500  1.0  -0.1996
  O  O54  1  0.077400  0.434100  0.084200  1.0  -0.6041
  O  O55  1  0.132900  0.322500  0.840300  1.0  -0.6286
  O  O56  1  0.264700  0.650800  0.162500  1.0  -0.4359
