# generated using pymatgen
data_NiH16(C12N5)2
_symmetry_space_group_name_H-M   'P 1'
_cell_length_a   9.11300000
_cell_length_b   15.90400000
_cell_length_c   16.01400000
_cell_angle_alpha   73.48800000
_cell_angle_beta   74.01600000
_cell_angle_gamma   76.26400000
_symmetry_Int_Tables_number   1
_chemical_formula_structural   NiH16(C12N5)2
_chemical_formula_sum   'Ni3 H48 C72 N30'
_cell_volume   2107.06670807
_cell_formula_units_Z   3
loop_
 _symmetry_equiv_pos_site_id
 _symmetry_equiv_pos_as_xyz
  1  'x, y, z'
loop_
 _atom_site_type_symbol
 _atom_site_label
 _atom_site_symmetry_multiplicity
 _atom_site_fract_x
 _atom_site_fract_y
 _atom_site_fract_z
 _atom_site_occupancy
 _atom_site_charge
  Ni  Ni1  1  0.500000  0.000000  0.500000  1.0  0.4948
  Ni  Ni2  1  0.500000  0.500000  0.500000  1.0  0.4091
  Ni  Ni3  1  0.000000  0.000000  0.000000  1.0  0.4239
  H  H4  1  0.506200  0.210400  0.433700  1.0  0.0694
  H  H5  1  0.679600  0.301800  0.361800  1.0  0.1122
  H  H6  1  0.938100  0.242300  0.316700  1.0  0.1213
  H  H7  1  0.009400  0.087600  0.350300  1.0  0.0992
  H  H8  1  0.142400  0.543200  0.529900  1.0  0.0703
  H  H9  1  0.937900  0.657800  0.513300  1.0  0.1116
  H  H10  1  0.239700  0.822300  0.396200  1.0  0.1187
  H  H11  1  0.433300  0.702500  0.414300  1.0  0.0714
  H  H12  1  0.115900  0.895900  0.839000  1.0  0.0669
  H  H13  1  0.323200  0.805300  0.782500  1.0  0.1071
  H  H14  1  0.538900  0.764700  0.845500  1.0  0.1123
  H  H15  1  0.528500  0.820700  0.968600  1.0  0.1219
  H  H16  1  0.597100  0.884500  0.360100  1.0  0.0713
  H  H17  1  0.532500  0.870500  0.238000  1.0  0.1161
  H  H18  1  0.243500  0.101300  0.236100  1.0  0.1009
  H  H19  1  0.315900  0.111600  0.358500  1.0  0.0895
  H  H20  1  0.315500  0.362200  0.472000  1.0  0.0758
  H  H21  1  0.272100  0.322600  0.355600  1.0  0.1229
  H  H22  1  0.390600  0.387200  0.209900  1.0  0.1177
  H  H23  1  0.545400  0.491100  0.187400  1.0  0.127
  H  H24  1  0.968800  0.891600  0.204800  1.0  0.0693
  H  H25  1  0.871300  0.770900  0.301600  1.0  0.12
  H  H26  1  0.763400  0.722400  0.096800  1.0  0.1214
  H  H27  1  0.864900  0.842600  0.007100  1.0  0.074
  H  H28  1  0.493800  0.789600  0.566300  1.0  0.0699
  H  H29  1  0.320400  0.698200  0.638200  1.0  0.1112
  H  H30  1  0.061900  0.757700  0.683300  1.0  0.1216
  H  H31  1  0.990600  0.912400  0.649700  1.0  0.0996
  H  H32  1  0.857600  0.456800  0.470100  1.0  0.0707
  H  H33  1  0.062100  0.342200  0.486700  1.0  0.1124
  H  H34  1  0.760300  0.177700  0.603800  1.0  0.119
  H  H35  1  0.566700  0.297500  0.585700  1.0  0.0712
  H  H36  1  0.884100  0.104100  0.161000  1.0  0.0672
  H  H37  1  0.676800  0.194700  0.217500  1.0  0.1045
  H  H38  1  0.461100  0.235300  0.154500  1.0  0.1129
  H  H39  1  0.471500  0.179300  0.031400  1.0  0.1208
  H  H40  1  0.402900  0.115500  0.639900  1.0  0.0711
  H  H41  1  0.467500  0.129500  0.762000  1.0  0.1162
  H  H42  1  0.756500  0.898700  0.763900  1.0  0.1009
  H  H43  1  0.684100  0.888400  0.641500  1.0  0.089
  H  H44  1  0.684500  0.637800  0.528000  1.0  0.0762
  H  H45  1  0.727900  0.677400  0.644400  1.0  0.1226
  H  H46  1  0.609400  0.612800  0.790100  1.0  0.1177
  H  H47  1  0.454600  0.508900  0.812600  1.0  0.1277
  H  H48  1  0.031200  0.108400  0.795200  1.0  0.0695
  H  H49  1  0.128700  0.229100  0.698400  1.0  0.1212
  H  H50  1  0.236600  0.277600  0.903200  1.0  0.1218
  H  H51  1  0.135100  0.157400  0.992900  1.0  0.0737
  C  C52  1  0.609300  0.185200  0.415600  1.0  0.169
  C  C53  1  0.712300  0.240400  0.373000  1.0  -0.135
  C  C54  1  0.864700  0.205700  0.346600  1.0  -0.1258
  C  C55  1  0.906100  0.113700  0.366000  1.0  -0.0565
  C  C56  1  0.797000  0.061800  0.407700  1.0  0.1713
  C  C57  1  0.832100  0.964300  0.430000  1.0  0.3176
  C  C58  1  0.939700  0.833200  0.451400  1.0  0.3385
  C  C59  1  0.163000  0.600500  0.502900  1.0  0.1825
  C  C60  1  0.038600  0.669500  0.493700  1.0  -0.2041
  C  C61  1  0.064300  0.754400  0.455900  1.0  0.0107
  C  C62  1  0.215500  0.766000  0.424700  1.0  -0.1663
  C  C63  1  0.331300  0.693200  0.436100  1.0  0.1676
  C  C64  1  0.201000  0.880500  0.865100  1.0  0.1976
  C  C65  1  0.323400  0.826500  0.830900  1.0  -0.1431
  C  C66  1  0.451100  0.802300  0.868200  1.0  -0.1248
  C  C67  1  0.444800  0.835900  0.941400  1.0  -0.0923
  C  C68  1  0.315600  0.890700  0.971900  1.0  0.1779
  C  C69  1  0.297300  0.931200  0.045200  1.0  0.2827
  C  C70  1  0.318900  0.972800  0.151700  1.0  0.326
  C  C71  1  0.523300  0.928600  0.335500  1.0  0.1856
  C  C72  1  0.484900  0.919400  0.262400  1.0  -0.1732
  C  C73  1  0.374100  0.983700  0.225100  1.0  -0.0224
  C  C74  1  0.314600  0.055700  0.261300  1.0  -0.1244
  C  C75  1  0.358400  0.061800  0.334900  1.0  0.1435
  C  C76  1  0.362500  0.388200  0.413900  1.0  0.1552
  C  C77  1  0.335900  0.364100  0.344900  1.0  -0.1676
  C  C78  1  0.405900  0.402800  0.258300  1.0  -0.0655
  C  C79  1  0.498100  0.464200  0.245100  1.0  -0.0731
  C  C80  1  0.520000  0.485700  0.317000  1.0  0.1788
  C  C81  1  0.613400  0.550400  0.310100  1.0  0.2795
  C  C82  1  0.737400  0.654600  0.268900  1.0  0.3389
  C  C83  1  0.926300  0.857000  0.182700  1.0  0.1742
  C  C84  1  0.868600  0.784000  0.241600  1.0  -0.1684
  C  C85  1  0.807200  0.731100  0.210600  1.0  -0.0338
  C  C86  1  0.805400  0.755600  0.120700  1.0  -0.163
  C  C87  1  0.865500  0.828600  0.067500  1.0  0.1676
  C  C88  1  0.390700  0.814800  0.584400  1.0  0.1702
  C  C89  1  0.287700  0.759600  0.627000  1.0  -0.1364
  C  C90  1  0.135300  0.794300  0.653400  1.0  -0.127
  C  C91  1  0.093900  0.886300  0.634000  1.0  -0.0543
  C  C92  1  0.203000  0.938200  0.592300  1.0  0.1706
  C  C93  1  0.167900  0.035700  0.570000  1.0  0.3173
  C  C94  1  0.060300  0.166800  0.548600  1.0  0.3377
  C  C95  1  0.837000  0.399500  0.497100  1.0  0.1811
  C  C96  1  0.961400  0.330500  0.506300  1.0  -0.2037
  C  C97  1  0.935700  0.245600  0.544100  1.0  0.0113
  C  C98  1  0.784500  0.234000  0.575300  1.0  -0.1671
  C  C99  1  0.668700  0.306800  0.563900  1.0  0.167
  C  C100  1  0.799000  0.119500  0.134900  1.0  0.1983
  C  C101  1  0.676600  0.173500  0.169100  1.0  -0.1438
  C  C102  1  0.548900  0.197700  0.131800  1.0  -0.1212
  C  C103  1  0.555200  0.164100  0.058600  1.0  -0.0915
  C  C104  1  0.684400  0.109300  0.028100  1.0  0.1775
  C  C105  1  0.702700  0.068800  0.954800  1.0  0.2828
  C  C106  1  0.681100  0.027200  0.848300  1.0  0.3266
  C  C107  1  0.476700  0.071400  0.664500  1.0  0.1849
  C  C108  1  0.515100  0.080600  0.737600  1.0  -0.1717
  C  C109  1  0.625900  0.016300  0.774900  1.0  -0.0227
  C  C110  1  0.685400  0.944300  0.738700  1.0  -0.1255
  C  C111  1  0.641600  0.938200  0.665100  1.0  0.1432
  C  C112  1  0.637500  0.611800  0.586100  1.0  0.1537
  C  C113  1  0.664100  0.635900  0.655100  1.0  -0.1675
  C  C114  1  0.594100  0.597200  0.741700  1.0  -0.0615
  C  C115  1  0.501900  0.535800  0.754900  1.0  -0.0736
  C  C116  1  0.480000  0.514300  0.683000  1.0  0.1806
  C  C117  1  0.386600  0.449600  0.689900  1.0  0.2805
  C  C118  1  0.262600  0.345400  0.731100  1.0  0.3378
  C  C119  1  0.073700  0.143000  0.817300  1.0  0.1737
  C  C120  1  0.131400  0.216000  0.758400  1.0  -0.168
  C  C121  1  0.192800  0.268900  0.789400  1.0  -0.0311
  C  C122  1  0.194600  0.244400  0.879300  1.0  -0.1616
  C  C123  1  0.134500  0.171400  0.932500  1.0  0.1669
  N  N124  1  0.789400  0.829800  0.487900  1.0  -0.3748
  N  N125  1  0.719400  0.917800  0.472900  1.0  -0.173
  N  N126  1  0.974100  0.915900  0.414300  1.0  -0.49
  N  N127  1  0.646600  0.095800  0.433500  1.0  -0.2969
  N  N128  1  0.307800  0.611400  0.475700  1.0  -0.3303
  N  N129  1  0.181200  0.018000  0.135000  1.0  -0.3862
  N  N130  1  0.168600  0.989300  0.065600  1.0  -0.1904
  N  N131  1  0.394800  0.918000  0.097900  1.0  -0.4776
  N  N132  1  0.191000  0.914100  0.934000  1.0  -0.2947
  N  N133  1  0.461900  0.996800  0.373600  1.0  -0.311
  N  N134  1  0.718500  0.632800  0.356600  1.0  -0.3503
  N  N135  1  0.637000  0.563800  0.384100  1.0  -0.2155
  N  N136  1  0.674200  0.605400  0.235900  1.0  -0.4687
  N  N137  1  0.453600  0.447600  0.401600  1.0  -0.3188
  N  N138  1  0.924700  0.880900  0.095800  1.0  -0.301
  N  N139  1  0.210600  0.170200  0.512100  1.0  -0.3739
  N  N140  1  0.280600  0.082200  0.527100  1.0  -0.1766
  N  N141  1  0.025900  0.084100  0.585700  1.0  -0.4882
  N  N142  1  0.353400  0.904200  0.566500  1.0  -0.2975
  N  N143  1  0.692200  0.388600  0.524300  1.0  -0.3302
  N  N144  1  0.818800  0.982000  0.865000  1.0  -0.3864
  N  N145  1  0.831400  0.010700  0.934400  1.0  -0.1904
  N  N146  1  0.605200  0.082000  0.902100  1.0  -0.4772
  N  N147  1  0.809000  0.085900  0.066000  1.0  -0.2947
  N  N148  1  0.538100  0.003200  0.626400  1.0  -0.3095
  N  N149  1  0.281500  0.367200  0.643400  1.0  -0.3492
  N  N150  1  0.363000  0.436200  0.615900  1.0  -0.2224
  N  N151  1  0.325800  0.394600  0.764100  1.0  -0.4699
  N  N152  1  0.546400  0.552400  0.598400  1.0  -0.3165
  N  N153  1  0.075300  0.119100  0.904200  1.0  -0.3018
