# generated using pymatgen
data_NiH16(C12N5)2
_symmetry_space_group_name_H-M   'P 1'
_cell_length_a   27.73710000
_cell_length_b   27.73710000
_cell_length_c   9.62250000
_cell_angle_alpha   90.00000000
_cell_angle_beta   90.00000000
_cell_angle_gamma   120.00000000
_symmetry_Int_Tables_number   1
_chemical_formula_structural   NiH16(C12N5)2
_chemical_formula_sum   'Ni9 H144 C216 N90'
_cell_volume   6411.21964752
_cell_formula_units_Z   9
loop_
 _symmetry_equiv_pos_site_id
 _symmetry_equiv_pos_as_xyz
  1  'x, y, z'
loop_
 _atom_site_type_symbol
 _atom_site_label
 _atom_site_symmetry_multiplicity
 _atom_site_fract_x
 _atom_site_fract_y
 _atom_site_fract_z
 _atom_site_occupancy
 _atom_site_charge
  Ni  Ni1  1  0.833330  0.666667  0.666667  1.0  0.5955
  Ni  Ni2  1  0.500000  0.000000  0.000000  1.0  0.592
  Ni  Ni3  1  0.333333  0.166670  0.666667  1.0  0.5955
  Ni  Ni4  1  0.000000  0.500000  0.000000  1.0  0.5925
  Ni  Ni5  1  0.833330  0.166670  0.666667  1.0  0.5956
  Ni  Ni6  1  0.500000  0.500000  0.000000  1.0  0.5925
  Ni  Ni7  1  0.166670  0.333333  0.333333  1.0  0.5949
  Ni  Ni8  1  0.666667  0.833330  0.333333  1.0  0.5949
  Ni  Ni9  1  0.166670  0.833330  0.333333  1.0  0.5949
  H  H10  1  0.845800  0.555500  0.682200  1.0  0.0877
  H  H11  1  0.830300  0.488300  0.842500  1.0  0.1032
  H  H12  1  0.794400  0.488900  0.056800  1.0  0.1181
  H  H13  1  0.773200  0.557900  0.107100  1.0  0.1203
  H  H14  1  0.750800  0.848900  0.103900  1.0  0.0699
  H  H15  1  0.782800  0.802200  0.978500  1.0  0.1192
  H  H16  1  0.711000  0.677300  0.249100  1.0  0.1097
  H  H17  1  0.676900  0.726100  0.363800  1.0  0.0699
  H  H18  1  0.512470  0.888830  0.015530  1.0  0.0877
  H  H19  1  0.496970  0.821630  0.175830  1.0  0.1032
  H  H20  1  0.461070  0.822230  0.390130  1.0  0.1181
  H  H21  1  0.439870  0.891230  0.440430  1.0  0.1202
  H  H22  1  0.417470  0.182230  0.437230  1.0  0.0699
  H  H23  1  0.449470  0.135530  0.311830  1.0  0.1192
  H  H24  1  0.377670  0.010630  0.582430  1.0  0.1097
  H  H25  1  0.343570  0.059430  0.697130  1.0  0.0699
  H  H26  1  0.179130  0.222170  0.348870  1.0  0.0876
  H  H27  1  0.163630  0.154970  0.509170  1.0  0.1031
  H  H28  1  0.127730  0.155570  0.723470  1.0  0.1182
  H  H29  1  0.106530  0.224570  0.773770  1.0  0.1203
  H  H30  1  0.084130  0.515570  0.770570  1.0  0.0699
  H  H31  1  0.116130  0.468870  0.645170  1.0  0.1191
  H  H32  1  0.044330  0.343970  0.915770  1.0  0.1097
  H  H33  1  0.010230  0.392770  0.030470  1.0  0.0699
  H  H34  1  0.444500  0.290300  0.682200  1.0  0.0865
  H  H35  1  0.511700  0.342000  0.842500  1.0  0.104
  H  H36  1  0.511100  0.305500  0.056800  1.0  0.1172
  H  H37  1  0.442100  0.215300  0.107100  1.0  0.121
  H  H38  1  0.151100  0.901900  0.103900  1.0  0.0707
  H  H39  1  0.197800  0.980600  0.978500  1.0  0.1197
  H  H40  1  0.322700  0.033700  0.249100  1.0  0.1094
  H  H41  1  0.273900  0.950800  0.363800  1.0  0.0695
  H  H42  1  0.111170  0.623630  0.015530  1.0  0.0867
  H  H43  1  0.178370  0.675330  0.175830  1.0  0.104
  H  H44  1  0.177770  0.638830  0.390130  1.0  0.1172
  H  H45  1  0.108770  0.548630  0.440430  1.0  0.121
  H  H46  1  0.817770  0.235230  0.437230  1.0  0.0707
  H  H47  1  0.864470  0.313930  0.311830  1.0  0.1197
  H  H48  1  0.989370  0.367030  0.582430  1.0  0.1094
  H  H49  1  0.940570  0.284130  0.697130  1.0  0.0695
  H  H50  1  0.777830  0.956970  0.348870  1.0  0.0867
  H  H51  1  0.845030  0.008670  0.509170  1.0  0.104
  H  H52  1  0.844430  0.972170  0.723470  1.0  0.1179
  H  H53  1  0.775430  0.881970  0.773770  1.0  0.121
  H  H54  1  0.484430  0.568570  0.770570  1.0  0.0707
  H  H55  1  0.531130  0.647270  0.645170  1.0  0.1194
  H  H56  1  0.656030  0.700370  0.915770  1.0  0.1094
  H  H57  1  0.607230  0.617470  0.030470  1.0  0.0695
  H  H58  1  0.709700  0.154200  0.682200  1.0  0.0871
  H  H59  1  0.658000  0.169700  0.842500  1.0  0.104
  H  H60  1  0.694500  0.205600  0.056800  1.0  0.1182
  H  H61  1  0.784700  0.226800  0.107100  1.0  0.1204
  H  H62  1  0.098100  0.249200  0.103900  1.0  0.0708
  H  H63  1  0.019400  0.217200  0.978500  1.0  0.12
  H  H64  1  0.966300  0.289000  0.249100  1.0  0.1097
  H  H65  1  0.049200  0.323100  0.363800  1.0  0.0688
  H  H66  1  0.376370  0.487530  0.015530  1.0  0.0872
  H  H67  1  0.324670  0.503030  0.175830  1.0  0.104
  H  H68  1  0.361170  0.538930  0.390130  1.0  0.1182
  H  H69  1  0.451370  0.560130  0.440430  1.0  0.1205
  H  H70  1  0.764770  0.582530  0.437230  1.0  0.0708
  H  H71  1  0.686070  0.550530  0.311830  1.0  0.12
  H  H72  1  0.632970  0.622330  0.582430  1.0  0.1098
  H  H73  1  0.715870  0.656430  0.697130  1.0  0.0687
  H  H74  1  0.043030  0.820870  0.348870  1.0  0.0872
  H  H75  1  0.991330  0.836370  0.509170  1.0  0.1048
  H  H76  1  0.027830  0.872270  0.723470  1.0  0.1181
  H  H77  1  0.118030  0.893470  0.773770  1.0  0.1204
  H  H78  1  0.431430  0.915870  0.770570  1.0  0.0708
  H  H79  1  0.352730  0.883870  0.645170  1.0  0.12
  H  H80  1  0.299630  0.955670  0.915770  1.0  0.1097
  H  H81  1  0.382530  0.989770  0.030470  1.0  0.0687
  H  H82  1  0.154200  0.444500  0.317800  1.0  0.0866
  H  H83  1  0.169700  0.511700  0.157500  1.0  0.1032
  H  H84  1  0.205600  0.511100  0.943200  1.0  0.119
  H  H85  1  0.226800  0.442100  0.892900  1.0  0.1199
  H  H86  1  0.249200  0.151100  0.896100  1.0  0.0707
  H  H87  1  0.217200  0.197800  0.021500  1.0  0.1205
  H  H88  1  0.289000  0.322700  0.750900  1.0  0.1101
  H  H89  1  0.323100  0.273900  0.636200  1.0  0.0692
  H  H90  1  0.820870  0.777830  0.651130  1.0  0.0864
  H  H91  1  0.836370  0.845030  0.490830  1.0  0.1031
  H  H92  1  0.872270  0.844430  0.276530  1.0  0.1191
  H  H93  1  0.893470  0.775430  0.226230  1.0  0.1199
  H  H94  1  0.915870  0.484430  0.229430  1.0  0.0707
  H  H95  1  0.883870  0.531130  0.354830  1.0  0.1203
  H  H96  1  0.955670  0.656030  0.084230  1.0  0.1101
  H  H97  1  0.989770  0.607230  0.969530  1.0  0.0692
  H  H98  1  0.487530  0.111170  0.984470  1.0  0.0866
  H  H99  1  0.503030  0.178370  0.824170  1.0  0.1032
  H  H100  1  0.538930  0.177770  0.609870  1.0  0.119
  H  H101  1  0.560130  0.108770  0.559570  1.0  0.1199
  H  H102  1  0.582530  0.817770  0.562770  1.0  0.0707
  H  H103  1  0.550530  0.864470  0.688170  1.0  0.1205
  H  H104  1  0.622330  0.989370  0.417570  1.0  0.1101
  H  H105  1  0.656430  0.940570  0.302870  1.0  0.0692
  H  H106  1  0.555500  0.709700  0.317800  1.0  0.0858
  H  H107  1  0.488300  0.658000  0.157500  1.0  0.103
  H  H108  1  0.488900  0.694500  0.943200  1.0  0.1173
  H  H109  1  0.557900  0.784700  0.892900  1.0  0.1208
  H  H110  1  0.848900  0.098100  0.896100  1.0  0.0708
  H  H111  1  0.802200  0.019400  0.021500  1.0  0.1203
  H  H112  1  0.677300  0.966300  0.750900  1.0  0.1094
  H  H113  1  0.726100  0.049200  0.636200  1.0  0.0691
  H  H114  1  0.222170  0.043030  0.651130  1.0  0.086
  H  H115  1  0.154970  0.991330  0.490830  1.0  0.103
  H  H116  1  0.155570  0.027830  0.276530  1.0  0.1179
  H  H117  1  0.224570  0.118030  0.226230  1.0  0.1208
  H  H118  1  0.515570  0.431430  0.229430  1.0  0.0708
  H  H119  1  0.468870  0.352730  0.354830  1.0  0.1201
  H  H120  1  0.343970  0.299630  0.084230  1.0  0.1094
  H  H121  1  0.392770  0.382530  0.969530  1.0  0.0692
  H  H122  1  0.888830  0.376370  0.984470  1.0  0.086
  H  H123  1  0.821630  0.324670  0.824170  1.0  0.103
  H  H124  1  0.822230  0.361170  0.609870  1.0  0.1173
  H  H125  1  0.891230  0.451370  0.559570  1.0  0.1208
  H  H126  1  0.182230  0.764770  0.562770  1.0  0.0708
  H  H127  1  0.135530  0.686070  0.688170  1.0  0.1203
  H  H128  1  0.010630  0.632970  0.417570  1.0  0.1094
  H  H129  1  0.059430  0.715870  0.302870  1.0  0.0691
  H  H130  1  0.290300  0.845800  0.317800  1.0  0.0865
  H  H131  1  0.342000  0.830300  0.157500  1.0  0.1021
  H  H132  1  0.305500  0.794400  0.943200  1.0  0.1181
  H  H133  1  0.215300  0.773200  0.892900  1.0  0.121
  H  H134  1  0.901900  0.750800  0.896100  1.0  0.0701
  H  H135  1  0.980600  0.782800  0.021500  1.0  0.12
  H  H136  1  0.033700  0.711000  0.750900  1.0  0.1099
  H  H137  1  0.950800  0.676900  0.636200  1.0  0.0691
  H  H138  1  0.956970  0.179130  0.651130  1.0  0.0866
  H  H139  1  0.008670  0.163630  0.490830  1.0  0.103
  H  H140  1  0.972170  0.127730  0.276530  1.0  0.118
  H  H141  1  0.881970  0.106530  0.226230  1.0  0.121
  H  H142  1  0.568570  0.084130  0.229430  1.0  0.0701
  H  H143  1  0.647270  0.116130  0.354830  1.0  0.12
  H  H144  1  0.700370  0.044330  0.084230  1.0  0.1099
  H  H145  1  0.617470  0.010230  0.969530  1.0  0.069
  H  H146  1  0.623630  0.512470  0.984470  1.0  0.0866
  H  H147  1  0.675330  0.496970  0.824170  1.0  0.1021
  H  H148  1  0.638830  0.461070  0.609870  1.0  0.1181
  H  H149  1  0.548630  0.439870  0.559570  1.0  0.121
  H  H150  1  0.235230  0.417470  0.562770  1.0  0.0701
  H  H151  1  0.313930  0.449470  0.688170  1.0  0.12
  H  H152  1  0.367030  0.377670  0.417570  1.0  0.1099
  H  H153  1  0.284130  0.343570  0.302870  1.0  0.069
  C  C154  1  0.830900  0.556200  0.768300  1.0  0.1648
  C  C155  1  0.821800  0.515800  0.864400  1.0  -0.0948
  C  C156  1  0.800400  0.516000  0.991200  1.0  -0.1187
  C  C157  1  0.787800  0.556800  0.020900  1.0  -0.094
  C  C158  1  0.797100  0.595900  0.921600  1.0  0.1503
  C  C159  1  0.787500  0.642900  0.942000  1.0  0.27
  C  C160  1  0.769300  0.701800  0.015300  1.0  0.321
  C  C161  1  0.741800  0.813400  0.132600  1.0  0.1735
  C  C162  1  0.761600  0.785900  0.057800  1.0  -0.1914
  C  C163  1  0.750400  0.733500  0.099100  1.0  -0.0455
  C  C164  1  0.718900  0.712000  0.216300  1.0  -0.1489
  C  C165  1  0.699000  0.741900  0.285600  1.0  0.1793
  C  C166  1  0.497570  0.889530  0.101630  1.0  0.1648
  C  C167  1  0.488470  0.849130  0.197730  1.0  -0.0948
  C  C168  1  0.467070  0.849330  0.324530  1.0  -0.1187
  C  C169  1  0.454470  0.890130  0.354230  1.0  -0.094
  C  C170  1  0.463770  0.929230  0.254930  1.0  0.1503
  C  C171  1  0.454170  0.976230  0.275330  1.0  0.27
  C  C172  1  0.435970  0.035130  0.348630  1.0  0.321
  C  C173  1  0.408470  0.146730  0.465930  1.0  0.1735
  C  C174  1  0.428270  0.119230  0.391130  1.0  -0.1914
  C  C175  1  0.417070  0.066830  0.432430  1.0  -0.0455
  C  C176  1  0.385570  0.045330  0.549630  1.0  -0.1489
  C  C177  1  0.365670  0.075230  0.618930  1.0  0.1791
  C  C178  1  0.164230  0.222870  0.434970  1.0  0.1649
  C  C179  1  0.155130  0.182470  0.531070  1.0  -0.0948
  C  C180  1  0.133730  0.182670  0.657870  1.0  -0.1187
  C  C181  1  0.121130  0.223470  0.687570  1.0  -0.094
  C  C182  1  0.130430  0.262570  0.588270  1.0  0.1503
  C  C183  1  0.120830  0.309570  0.608670  1.0  0.27
  C  C184  1  0.102630  0.368470  0.681970  1.0  0.321
  C  C185  1  0.075130  0.480070  0.799270  1.0  0.1735
  C  C186  1  0.094930  0.452570  0.724470  1.0  -0.1914
  C  C187  1  0.083730  0.400170  0.765770  1.0  -0.0455
  C  C188  1  0.052230  0.378670  0.882970  1.0  -0.1489
  C  C189  1  0.032330  0.408570  0.952270  1.0  0.1791
  C  C190  1  0.443800  0.274700  0.768300  1.0  0.168
  C  C191  1  0.484200  0.306000  0.864400  1.0  -0.0982
  C  C192  1  0.484000  0.284400  0.991200  1.0  -0.1211
  C  C193  1  0.443200  0.231000  0.020900  1.0  -0.0898
  C  C194  1  0.404100  0.201200  0.921600  1.0  0.151
  C  C195  1  0.357100  0.144600  0.942000  1.0  0.2698
  C  C196  1  0.298200  0.067500  0.015300  1.0  0.3203
  C  C197  1  0.186600  0.928400  0.132600  1.0  0.176
  C  C198  1  0.214100  0.975700  0.057800  1.0  -0.1874
  C  C199  1  0.266500  0.016900  0.099100  1.0  -0.0459
  C  C200  1  0.288000  0.006900  0.216300  1.0  -0.1471
  C  C201  1  0.258100  0.957100  0.285600  1.0  0.1805
  C  C202  1  0.110470  0.608030  0.101630  1.0  0.168
  C  C203  1  0.150870  0.639330  0.197730  1.0  -0.0982
  C  C204  1  0.150670  0.617730  0.324530  1.0  -0.1211
  C  C205  1  0.109870  0.564330  0.354230  1.0  -0.0898
  C  C206  1  0.070770  0.534530  0.254930  1.0  0.1511
  C  C207  1  0.023770  0.477930  0.275330  1.0  0.2698
  C  C208  1  0.964870  0.400830  0.348630  1.0  0.3203
  C  C209  1  0.853270  0.261730  0.465930  1.0  0.176
  C  C210  1  0.880770  0.309030  0.391130  1.0  -0.1874
  C  C211  1  0.933170  0.350230  0.432430  1.0  -0.0459
  C  C212  1  0.954670  0.340230  0.549630  1.0  -0.1471
  C  C213  1  0.924770  0.290430  0.618930  1.0  0.1806
  C  C214  1  0.777130  0.941370  0.434970  1.0  0.168
  C  C215  1  0.817530  0.972670  0.531070  1.0  -0.0982
  C  C216  1  0.817330  0.951070  0.657870  1.0  -0.1211
  C  C217  1  0.776530  0.897670  0.687570  1.0  -0.0898
  C  C218  1  0.737430  0.867870  0.588270  1.0  0.151
  C  C219  1  0.690430  0.811270  0.608670  1.0  0.2698
  C  C220  1  0.631530  0.734170  0.681970  1.0  0.3203
  C  C221  1  0.519930  0.595070  0.799270  1.0  0.176
  C  C222  1  0.547430  0.642370  0.724470  1.0  -0.1874
  C  C223  1  0.599830  0.683570  0.765770  1.0  -0.046
  C  C224  1  0.621330  0.673570  0.882970  1.0  -0.1471
  C  C225  1  0.591430  0.623770  0.952270  1.0  0.1806
  C  C226  1  0.725300  0.169100  0.768300  1.0  0.1655
  C  C227  1  0.694000  0.178200  0.864400  1.0  -0.0967
  C  C228  1  0.715600  0.199600  0.991200  1.0  -0.119
  C  C229  1  0.769000  0.212200  0.020900  1.0  -0.0936
  C  C230  1  0.798800  0.202900  0.921600  1.0  0.15
  C  C231  1  0.855400  0.212500  0.942000  1.0  0.2701
  C  C232  1  0.932500  0.230700  0.015300  1.0  0.3225
  C  C233  1  0.071600  0.258200  0.132600  1.0  0.175
  C  C234  1  0.024300  0.238400  0.057800  1.0  -0.1891
  C  C235  1  0.983100  0.249600  0.099100  1.0  -0.044
  C  C236  1  0.993100  0.281100  0.216300  1.0  -0.1483
  C  C237  1  0.042900  0.301000  0.285600  1.0  0.1801
  C  C238  1  0.391970  0.502430  0.101630  1.0  0.1656
  C  C239  1  0.360670  0.511530  0.197730  1.0  -0.0967
  C  C240  1  0.382270  0.532930  0.324530  1.0  -0.1189
  C  C241  1  0.435670  0.545530  0.354230  1.0  -0.0936
  C  C242  1  0.465470  0.536230  0.254930  1.0  0.15
  C  C243  1  0.522070  0.545830  0.275330  1.0  0.2701
  C  C244  1  0.599170  0.564030  0.348630  1.0  0.3225
  C  C245  1  0.738270  0.591530  0.465930  1.0  0.175
  C  C246  1  0.690970  0.571730  0.391130  1.0  -0.1892
  C  C247  1  0.649770  0.582930  0.432430  1.0  -0.0441
  C  C248  1  0.659770  0.614430  0.549630  1.0  -0.1483
  C  C249  1  0.709570  0.634330  0.618930  1.0  0.1802
  C  C250  1  0.058630  0.835770  0.434970  1.0  0.1656
  C  C251  1  0.027330  0.844870  0.531070  1.0  -0.0967
  C  C252  1  0.048930  0.866270  0.657870  1.0  -0.119
  C  C253  1  0.102330  0.878870  0.687570  1.0  -0.0936
  C  C254  1  0.132130  0.869570  0.588270  1.0  0.1501
  C  C255  1  0.188730  0.879170  0.608670  1.0  0.2701
  C  C256  1  0.265830  0.897370  0.681970  1.0  0.3225
  C  C257  1  0.404930  0.924870  0.799270  1.0  0.1749
  C  C258  1  0.357630  0.905070  0.724470  1.0  -0.1892
  C  C259  1  0.316430  0.916270  0.765770  1.0  -0.044
  C  C260  1  0.326430  0.947770  0.882970  1.0  -0.1483
  C  C261  1  0.376230  0.967670  0.952270  1.0  0.1802
  C  C262  1  0.169100  0.443800  0.231700  1.0  0.1644
  C  C263  1  0.178200  0.484200  0.135600  1.0  -0.0947
  C  C264  1  0.199600  0.484000  0.008800  1.0  -0.1185
  C  C265  1  0.212200  0.443200  0.979100  1.0  -0.0949
  C  C266  1  0.202900  0.404100  0.078400  1.0  0.1497
  C  C267  1  0.212500  0.357100  0.058000  1.0  0.2708
  C  C268  1  0.230700  0.298200  0.984700  1.0  0.3229
  C  C269  1  0.258200  0.186600  0.867400  1.0  0.1742
  C  C270  1  0.238400  0.214100  0.942200  1.0  -0.1887
  C  C271  1  0.249600  0.266500  0.900900  1.0  -0.0463
  C  C272  1  0.281100  0.288000  0.783700  1.0  -0.1487
  C  C273  1  0.301000  0.258100  0.714400  1.0  0.1793
  C  C274  1  0.835770  0.777130  0.565030  1.0  0.1643
  C  C275  1  0.844870  0.817530  0.468930  1.0  -0.0947
  C  C276  1  0.866270  0.817330  0.342130  1.0  -0.1185
  C  C277  1  0.878870  0.776530  0.312430  1.0  -0.0949
  C  C278  1  0.869570  0.737430  0.411730  1.0  0.1497
  C  C279  1  0.879170  0.690430  0.391330  1.0  0.2708
  C  C280  1  0.897370  0.631530  0.318030  1.0  0.3229
  C  C281  1  0.924870  0.519930  0.200730  1.0  0.1742
  C  C282  1  0.905070  0.547430  0.275530  1.0  -0.1887
  C  C283  1  0.916270  0.599830  0.234230  1.0  -0.0462
  C  C284  1  0.947770  0.621330  0.117030  1.0  -0.1487
  C  C285  1  0.967670  0.591430  0.047730  1.0  0.1791
  C  C286  1  0.502430  0.110470  0.898370  1.0  0.1644
  C  C287  1  0.511530  0.150870  0.802270  1.0  -0.0947
  C  C288  1  0.532930  0.150670  0.675470  1.0  -0.1186
  C  C289  1  0.545530  0.109870  0.645770  1.0  -0.0949
  C  C290  1  0.536230  0.070770  0.745070  1.0  0.1497
  C  C291  1  0.545830  0.023770  0.724670  1.0  0.2708
  C  C292  1  0.564030  0.964870  0.651370  1.0  0.3229
  C  C293  1  0.591530  0.853270  0.534070  1.0  0.1742
  C  C294  1  0.571730  0.880770  0.608870  1.0  -0.1887
  C  C295  1  0.582930  0.933170  0.567570  1.0  -0.0462
  C  C296  1  0.614430  0.954670  0.450370  1.0  -0.1486
  C  C297  1  0.634330  0.924770  0.381070  1.0  0.1791
  C  C298  1  0.556200  0.725300  0.231700  1.0  0.1659
  C  C299  1  0.515800  0.694000  0.135600  1.0  -0.094
  C  C300  1  0.516000  0.715600  0.008800  1.0  -0.1239
  C  C301  1  0.556800  0.769000  0.979100  1.0  -0.0912
  C  C302  1  0.595900  0.798800  0.078400  1.0  0.151
  C  C303  1  0.642900  0.855400  0.058000  1.0  0.2689
  C  C304  1  0.701800  0.932500  0.984700  1.0  0.3213
  C  C305  1  0.813400  0.071600  0.867400  1.0  0.1781
  C  C306  1  0.785900  0.024300  0.942200  1.0  -0.1862
  C  C307  1  0.733500  0.983100  0.900900  1.0  -0.0461
  C  C308  1  0.712000  0.993100  0.783700  1.0  -0.1471
  C  C309  1  0.741900  0.042900  0.714400  1.0  0.1803
  C  C310  1  0.222870  0.058630  0.565030  1.0  0.1659
  C  C311  1  0.182470  0.027330  0.468930  1.0  -0.094
  C  C312  1  0.182670  0.048930  0.342130  1.0  -0.1239
  C  C313  1  0.223470  0.102330  0.312430  1.0  -0.0912
  C  C314  1  0.262570  0.132130  0.411730  1.0  0.151
  C  C315  1  0.309570  0.188730  0.391330  1.0  0.2689
  C  C316  1  0.368470  0.265830  0.318030  1.0  0.3213
  C  C317  1  0.480070  0.404930  0.200730  1.0  0.1781
  C  C318  1  0.452570  0.357630  0.275530  1.0  -0.1861
  C  C319  1  0.400170  0.316430  0.234230  1.0  -0.0462
  C  C320  1  0.378670  0.326430  0.117030  1.0  -0.1471
  C  C321  1  0.408570  0.376230  0.047730  1.0  0.1804
  C  C322  1  0.889530  0.391970  0.898370  1.0  0.1659
  C  C323  1  0.849130  0.360670  0.802270  1.0  -0.094
  C  C324  1  0.849330  0.382270  0.675470  1.0  -0.1239
  C  C325  1  0.890130  0.435670  0.645770  1.0  -0.0912
  C  C326  1  0.929230  0.465470  0.745070  1.0  0.151
  C  C327  1  0.976230  0.522070  0.724670  1.0  0.2689
  C  C328  1  0.035130  0.599170  0.651370  1.0  0.3213
  C  C329  1  0.146730  0.738270  0.534070  1.0  0.1781
  C  C330  1  0.119230  0.690970  0.608870  1.0  -0.1861
  C  C331  1  0.066830  0.649770  0.567570  1.0  -0.0462
  C  C332  1  0.045330  0.659770  0.450370  1.0  -0.1471
  C  C333  1  0.075230  0.709570  0.381070  1.0  0.1804
  C  C334  1  0.274700  0.830900  0.231700  1.0  0.1644
  C  C335  1  0.306000  0.821800  0.135600  1.0  -0.0969
  C  C336  1  0.284400  0.800400  0.008800  1.0  -0.1175
  C  C337  1  0.231000  0.787800  0.979100  1.0  -0.0937
  C  C338  1  0.201200  0.797100  0.078400  1.0  0.1502
  C  C339  1  0.144600  0.787500  0.058000  1.0  0.269
  C  C340  1  0.067500  0.769300  0.984700  1.0  0.3218
  C  C341  1  0.928400  0.741800  0.867400  1.0  0.1741
  C  C342  1  0.975700  0.761600  0.942200  1.0  -0.1894
  C  C343  1  0.016900  0.750400  0.900900  1.0  -0.0428
  C  C344  1  0.006900  0.718900  0.783700  1.0  -0.1494
  C  C345  1  0.957100  0.699000  0.714400  1.0  0.1802
  C  C346  1  0.941370  0.164230  0.565030  1.0  0.1644
  C  C347  1  0.972670  0.155130  0.468930  1.0  -0.0969
  C  C348  1  0.951070  0.133730  0.342130  1.0  -0.1175
  C  C349  1  0.897670  0.121130  0.312430  1.0  -0.0937
  C  C350  1  0.867870  0.130430  0.411730  1.0  0.1502
  C  C351  1  0.811270  0.120830  0.391330  1.0  0.269
  C  C352  1  0.734170  0.102630  0.318030  1.0  0.3218
  C  C353  1  0.595070  0.075130  0.200730  1.0  0.1741
  C  C354  1  0.642370  0.094930  0.275530  1.0  -0.1894
  C  C355  1  0.683570  0.083730  0.234230  1.0  -0.0428
  C  C356  1  0.673570  0.052230  0.117030  1.0  -0.1494
  C  C357  1  0.623770  0.032330  0.047730  1.0  0.1804
  C  C358  1  0.608030  0.497570  0.898370  1.0  0.1644
  C  C359  1  0.639330  0.488470  0.802270  1.0  -0.0968
  C  C360  1  0.617730  0.467070  0.675470  1.0  -0.1175
  C  C361  1  0.564330  0.454470  0.645770  1.0  -0.0937
  C  C362  1  0.534530  0.463770  0.745070  1.0  0.1502
  C  C363  1  0.477930  0.454170  0.724670  1.0  0.269
  C  C364  1  0.400830  0.435970  0.651370  1.0  0.3218
  C  C365  1  0.261730  0.408470  0.534070  1.0  0.1741
  C  C366  1  0.309030  0.428270  0.608870  1.0  -0.1895
  C  C367  1  0.350230  0.417070  0.567570  1.0  -0.0429
  C  C368  1  0.340230  0.385570  0.450370  1.0  -0.1494
  C  C369  1  0.290430  0.365670  0.381070  1.0  0.1804
  N  N370  1  0.791500  0.720700  0.890000  1.0  -0.4148
  N  N371  1  0.802800  0.680700  0.843200  1.0  -0.1474
  N  N372  1  0.765900  0.653400  0.056000  1.0  -0.4882
  N  N373  1  0.818900  0.596600  0.794900  1.0  -0.3006
  N  N374  1  0.710100  0.792500  0.245200  1.0  -0.3161
  N  N375  1  0.458170  0.054030  0.223330  1.0  -0.4148
  N  N376  1  0.469470  0.014030  0.176530  1.0  -0.1474
  N  N377  1  0.432570  0.986730  0.389330  1.0  -0.4882
  N  N378  1  0.485570  0.929930  0.128230  1.0  -0.3006
  N  N379  1  0.376770  0.125830  0.578530  1.0  -0.316
  N  N380  1  0.124830  0.387370  0.556670  1.0  -0.4148
  N  N381  1  0.136130  0.347370  0.509870  1.0  -0.1475
  N  N382  1  0.099230  0.320070  0.722670  1.0  -0.4882
  N  N383  1  0.152230  0.263270  0.461570  1.0  -0.3008
  N  N384  1  0.043430  0.459170  0.911870  1.0  -0.3165
  N  N385  1  0.279300  0.070800  0.890000  1.0  -0.4147
  N  N386  1  0.319300  0.122100  0.843200  1.0  -0.1475
  N  N387  1  0.346600  0.112500  0.056000  1.0  -0.4889
  N  N388  1  0.403400  0.222300  0.794900  1.0  -0.2998
  N  N389  1  0.207500  0.917600  0.245200  1.0  -0.3158
  N  N390  1  0.945970  0.404130  0.223330  1.0  -0.4147
  N  N391  1  0.985970  0.455430  0.176530  1.0  -0.1476
  N  N392  1  0.013270  0.445830  0.389330  1.0  -0.4889
  N  N393  1  0.070070  0.555630  0.128230  1.0  -0.2998
  N  N394  1  0.874170  0.250930  0.578530  1.0  -0.3157
  N  N395  1  0.612630  0.737470  0.556670  1.0  -0.4147
  N  N396  1  0.652630  0.788770  0.509870  1.0  -0.1475
  N  N397  1  0.679930  0.779170  0.722670  1.0  -0.4889
  N  N398  1  0.736730  0.888970  0.461570  1.0  -0.2998
  N  N399  1  0.540830  0.584270  0.911870  1.0  -0.3158
  N  N400  1  0.929200  0.208500  0.890000  1.0  -0.4154
  N  N401  1  0.877900  0.197200  0.843200  1.0  -0.1472
  N  N402  1  0.887500  0.234100  0.056000  1.0  -0.4883
  N  N403  1  0.777700  0.181100  0.794900  1.0  -0.2998
  N  N404  1  0.082400  0.289900  0.245200  1.0  -0.3151
  N  N405  1  0.595870  0.541830  0.223330  1.0  -0.4154
  N  N406  1  0.544570  0.530530  0.176530  1.0  -0.1473
  N  N407  1  0.554170  0.567430  0.389330  1.0  -0.4883
  N  N408  1  0.444370  0.514430  0.128230  1.0  -0.2996
  N  N409  1  0.749070  0.623230  0.578530  1.0  -0.3155
  N  N410  1  0.262530  0.875170  0.556670  1.0  -0.4154
  N  N411  1  0.211230  0.863870  0.509870  1.0  -0.1472
  N  N412  1  0.220830  0.900770  0.722670  1.0  -0.4883
  N  N413  1  0.111030  0.847770  0.461570  1.0  -0.2996
  N  N414  1  0.415730  0.956570  0.911870  1.0  -0.3151
  N  N415  1  0.208500  0.279300  0.110000  1.0  -0.4136
  N  N416  1  0.197200  0.319300  0.156800  1.0  -0.1489
  N  N417  1  0.234100  0.346600  0.944000  1.0  -0.4888
  N  N418  1  0.181100  0.403400  0.205100  1.0  -0.3
  N  N419  1  0.289900  0.207500  0.754800  1.0  -0.3164
  N  N420  1  0.875170  0.612630  0.443330  1.0  -0.4139
  N  N421  1  0.863870  0.652630  0.490130  1.0  -0.149
  N  N422  1  0.900770  0.679930  0.277330  1.0  -0.4888
  N  N423  1  0.847770  0.736730  0.538430  1.0  -0.3002
  N  N424  1  0.956570  0.540830  0.088130  1.0  -0.3168
  N  N425  1  0.541830  0.945970  0.776670  1.0  -0.4139
  N  N426  1  0.530530  0.985970  0.823470  1.0  -0.1489
  N  N427  1  0.567430  0.013270  0.610670  1.0  -0.4888
  N  N428  1  0.514430  0.070070  0.871770  1.0  -0.3
  N  N429  1  0.623230  0.874170  0.421470  1.0  -0.3164
  N  N430  1  0.720700  0.929200  0.110000  1.0  -0.4145
  N  N431  1  0.680700  0.877900  0.156800  1.0  -0.149
  N  N432  1  0.653400  0.887500  0.944000  1.0  -0.4879
  N  N433  1  0.596600  0.777700  0.205100  1.0  -0.2981
  N  N434  1  0.792500  0.082400  0.754800  1.0  -0.3163
  N  N435  1  0.387370  0.262530  0.443330  1.0  -0.4145
  N  N436  1  0.347370  0.211230  0.490130  1.0  -0.1492
  N  N437  1  0.320070  0.220830  0.277330  1.0  -0.4879
  N  N438  1  0.263270  0.111030  0.538430  1.0  -0.2981
  N  N439  1  0.459170  0.415730  0.088130  1.0  -0.3163
  N  N440  1  0.054030  0.595870  0.776670  1.0  -0.4145
  N  N441  1  0.014030  0.544570  0.823470  1.0  -0.1493
  N  N442  1  0.986730  0.554170  0.610670  1.0  -0.4879
  N  N443  1  0.929930  0.444370  0.871770  1.0  -0.2981
  N  N444  1  0.125830  0.749070  0.421470  1.0  -0.3163
  N  N445  1  0.070800  0.791500  0.110000  1.0  -0.4144
  N  N446  1  0.122100  0.802800  0.156800  1.0  -0.1497
  N  N447  1  0.112500  0.765900  0.944000  1.0  -0.4876
  N  N448  1  0.222300  0.818900  0.205100  1.0  -0.2996
  N  N449  1  0.917600  0.710100  0.754800  1.0  -0.3168
  N  N450  1  0.737470  0.124830  0.443330  1.0  -0.4144
  N  N451  1  0.788770  0.136130  0.490130  1.0  -0.1497
  N  N452  1  0.779170  0.099230  0.277330  1.0  -0.4876
  N  N453  1  0.888970  0.152230  0.538430  1.0  -0.2994
  N  N454  1  0.584270  0.043430  0.088130  1.0  -0.3168
  N  N455  1  0.404130  0.458170  0.776670  1.0  -0.4144
  N  N456  1  0.455430  0.469470  0.823470  1.0  -0.1498
  N  N457  1  0.445830  0.432570  0.610670  1.0  -0.4876
  N  N458  1  0.555630  0.485570  0.871770  1.0  -0.2994
  N  N459  1  0.250930  0.376770  0.421470  1.0  -0.3172
