# generated using pymatgen
data_CdRe6C4(S2N)4
_symmetry_space_group_name_H-M   'P 1'
_cell_length_a   14.99760000
_cell_length_b   14.29130000
_cell_length_c   16.50160000
_cell_angle_alpha   90.00000000
_cell_angle_beta   108.70100000
_cell_angle_gamma   90.00000000
_symmetry_Int_Tables_number   1
_chemical_formula_structural   CdRe6C4(S2N)4
_chemical_formula_sum   'Cd4 Re24 C16 S32 N16'
_cell_volume   3350.14337591
_cell_formula_units_Z   4
loop_
 _symmetry_equiv_pos_site_id
 _symmetry_equiv_pos_as_xyz
  1  'x, y, z'
loop_
 _atom_site_type_symbol
 _atom_site_label
 _atom_site_symmetry_multiplicity
 _atom_site_fract_x
 _atom_site_fract_y
 _atom_site_fract_z
 _atom_site_occupancy
 _atom_site_charge
  Cd  Cd1  1  0.000000  0.423870  0.250000  1.0  0.9781
  Cd  Cd2  1  0.500000  0.923870  0.250000  1.0  0.9765
  Cd  Cd3  1  0.000000  0.576130  0.750000  1.0  0.9793
  Cd  Cd4  1  0.500000  0.076130  0.750000  1.0  0.9777
  Re  Re5  1  0.125100  0.980270  0.058100  1.0  0.0081
  Re  Re6  1  0.004400  0.110390  0.058120  1.0  0.029
  Re  Re7  1  0.968120  0.937020  0.084060  1.0  0.3688
  Re  Re8  1  0.625100  0.480270  0.058100  1.0  0.0081
  Re  Re9  1  0.504400  0.610390  0.058120  1.0  0.029
  Re  Re10  1  0.468120  0.437020  0.084060  1.0  0.3688
  Re  Re11  1  0.874900  0.980270  0.441900  1.0  0.0082
  Re  Re12  1  0.995600  0.110390  0.441880  1.0  0.0291
  Re  Re13  1  0.031880  0.937020  0.415940  1.0  0.3698
  Re  Re14  1  0.374900  0.480270  0.441900  1.0  0.0082
  Re  Re15  1  0.495600  0.610390  0.441880  1.0  0.0291
  Re  Re16  1  0.531880  0.437020  0.415940  1.0  0.3698
  Re  Re17  1  0.874900  0.019730  0.941900  1.0  0.0083
  Re  Re18  1  0.995600  0.889610  0.941880  1.0  0.029
  Re  Re19  1  0.031880  0.062980  0.915940  1.0  0.3669
  Re  Re20  1  0.374900  0.519730  0.941900  1.0  0.0083
  Re  Re21  1  0.495600  0.389610  0.941880  1.0  0.029
  Re  Re22  1  0.531880  0.562980  0.915940  1.0  0.3669
  Re  Re23  1  0.125100  0.019730  0.558100  1.0  0.0082
  Re  Re24  1  0.004400  0.889610  0.558120  1.0  0.0291
  Re  Re25  1  0.968120  0.062980  0.584060  1.0  0.366
  Re  Re26  1  0.625100  0.519730  0.558100  1.0  0.0082
  Re  Re27  1  0.504400  0.389610  0.558120  1.0  0.0291
  Re  Re28  1  0.468120  0.562980  0.584060  1.0  0.366
  C  C29  1  0.268400  0.956300  0.127500  1.0  0.1735
  C  C30  1  0.011700  0.237700  0.125500  1.0  0.177
  C  C31  1  0.768400  0.456300  0.127500  1.0  0.1735
  C  C32  1  0.511700  0.737700  0.125500  1.0  0.177
  C  C33  1  0.731600  0.956300  0.372500  1.0  0.1734
  C  C34  1  0.988300  0.237700  0.374500  1.0  0.1769
  C  C35  1  0.231600  0.456300  0.372500  1.0  0.1734
  C  C36  1  0.488300  0.737700  0.374500  1.0  0.1769
  C  C37  1  0.731600  0.043700  0.872500  1.0  0.1736
  C  C38  1  0.988300  0.762300  0.874500  1.0  0.1767
  C  C39  1  0.231600  0.543700  0.872500  1.0  0.1736
  C  C40  1  0.488300  0.262300  0.874500  1.0  0.1767
  C  C41  1  0.268400  0.043700  0.627500  1.0  0.1736
  C  C42  1  0.011700  0.762300  0.625500  1.0  0.1768
  C  C43  1  0.768400  0.543700  0.627500  1.0  0.1736
  C  C44  1  0.511700  0.262300  0.625500  1.0  0.1768
  S  S45  1  0.089900  0.026230  0.185380  1.0  -0.0729
  S  S46  1  0.082740  0.821430  0.077920  1.0  -0.1358
  S  S47  1  0.858580  0.061920  0.078170  1.0  -0.0552
  S  S48  1  0.149520  0.141780  0.029650  1.0  -0.152
  S  S49  1  0.589900  0.526230  0.185380  1.0  -0.0729
  S  S50  1  0.582740  0.321430  0.077920  1.0  -0.1358
  S  S51  1  0.358580  0.561920  0.078170  1.0  -0.0552
  S  S52  1  0.649520  0.641780  0.029650  1.0  -0.152
  S  S53  1  0.910100  0.026230  0.314620  1.0  -0.0742
  S  S54  1  0.917260  0.821430  0.422080  1.0  -0.1374
  S  S55  1  0.141420  0.061920  0.421830  1.0  -0.0546
  S  S56  1  0.850480  0.141780  0.470350  1.0  -0.1515
  S  S57  1  0.410100  0.526230  0.314620  1.0  -0.0742
  S  S58  1  0.417260  0.321430  0.422080  1.0  -0.1374
  S  S59  1  0.641420  0.561920  0.421830  1.0  -0.0546
  S  S60  1  0.350480  0.641780  0.470350  1.0  -0.1515
  S  S61  1  0.910100  0.973770  0.814620  1.0  -0.0746
  S  S62  1  0.917260  0.178570  0.922080  1.0  -0.137
  S  S63  1  0.141420  0.938080  0.921830  1.0  -0.0548
  S  S64  1  0.850480  0.858220  0.970350  1.0  -0.1519
  S  S65  1  0.410100  0.473770  0.814620  1.0  -0.0746
  S  S66  1  0.417260  0.678570  0.922080  1.0  -0.137
  S  S67  1  0.641420  0.438080  0.921830  1.0  -0.0548
  S  S68  1  0.350480  0.358220  0.970350  1.0  -0.1519
  S  S69  1  0.089900  0.973770  0.685380  1.0  -0.0729
  S  S70  1  0.082740  0.178570  0.577920  1.0  -0.1354
  S  S71  1  0.858580  0.938080  0.578170  1.0  -0.0551
  S  S72  1  0.149520  0.858220  0.529650  1.0  -0.1528
  S  S73  1  0.589900  0.473770  0.685380  1.0  -0.0729
  S  S74  1  0.582740  0.678570  0.577920  1.0  -0.1354
  S  S75  1  0.358580  0.438080  0.578170  1.0  -0.0551
  S  S76  1  0.649520  0.358220  0.529650  1.0  -0.1528
  N  N77  1  0.344700  0.943400  0.167600  1.0  -0.4272
  N  N78  1  0.017800  0.306600  0.161300  1.0  -0.4018
  N  N79  1  0.844700  0.443400  0.167600  1.0  -0.4275
  N  N80  1  0.517800  0.806600  0.161300  1.0  -0.4018
  N  N81  1  0.655300  0.943400  0.332400  1.0  -0.4269
  N  N82  1  0.982200  0.306600  0.338700  1.0  -0.4007
  N  N83  1  0.155300  0.443400  0.332400  1.0  -0.4272
  N  N84  1  0.482200  0.806600  0.338700  1.0  -0.4007
  N  N85  1  0.655300  0.056600  0.832400  1.0  -0.4268
  N  N86  1  0.982200  0.693400  0.838700  1.0  -0.398
  N  N87  1  0.155300  0.556600  0.832400  1.0  -0.427
  N  N88  1  0.482200  0.193400  0.838700  1.0  -0.398
  N  N89  1  0.344700  0.056600  0.667600  1.0  -0.4276
  N  N90  1  0.017800  0.693400  0.661300  1.0  -0.4001
  N  N91  1  0.844700  0.556600  0.667600  1.0  -0.4279
  N  N92  1  0.517800  0.193400  0.661300  1.0  -0.4001
