# generated using pymatgen
data_CdH10C14NO4
_symmetry_space_group_name_H-M   'P 1'
_cell_length_a   9.75000000
_cell_length_b   9.88000000
_cell_length_c   9.88000000
_cell_angle_alpha   90.36000000
_cell_angle_beta   92.73000000
_cell_angle_gamma   117.33000000
_symmetry_Int_Tables_number   1
_chemical_formula_structural   CdH10C14NO4
_chemical_formula_sum   'Cd2 H20 C28 N2 O8'
_cell_volume   844.11958382
_cell_formula_units_Z   2
loop_
 _symmetry_equiv_pos_site_id
 _symmetry_equiv_pos_as_xyz
  1  'x, y, z'
loop_
 _atom_site_type_symbol
 _atom_site_label
 _atom_site_symmetry_multiplicity
 _atom_site_fract_x
 _atom_site_fract_y
 _atom_site_fract_z
 _atom_site_occupancy
 _atom_site_charge
  Cd  Cd1  1  0.443370  0.274750  0.978130  1.0  0.9594
  Cd  Cd2  1  0.556630  0.725250  0.021870  1.0  0.9606
  H  H3  1  0.327700  0.112300  0.517800  1.0  0.1249
  H  H4  1  0.662300  0.012700  0.687200  1.0  0.1204
  H  H5  1  0.793100  0.400000  0.829700  1.0  0.1169
  H  H6  1  0.996900  0.326400  0.839600  1.0  0.1239
  H  H7  1  0.542900  0.478100  0.257900  1.0  0.1025
  H  H8  1  0.702000  0.542700  0.443300  1.0  0.1214
  H  H9  1  0.844800  0.233500  0.306700  1.0  0.1305
  H  H10  1  0.673700  0.179800  0.129200  1.0  0.1004
  H  H11  1  0.934600  0.341500  0.542700  1.0  0.1129
  H  H12  1  0.894000  0.491400  0.592500  1.0  0.1129
  H  H13  1  0.672300  0.887700  0.482200  1.0  0.1256
  H  H14  1  0.337700  0.987300  0.312800  1.0  0.1202
  H  H15  1  0.206900  0.600000  0.170300  1.0  0.1166
  H  H16  1  0.003100  0.673600  0.160400  1.0  0.1241
  H  H17  1  0.457100  0.521900  0.742100  1.0  0.1027
  H  H18  1  0.298000  0.457300  0.556700  1.0  0.1212
  H  H19  1  0.155200  0.766500  0.693300  1.0  0.1304
  H  H20  1  0.326300  0.820200  0.870800  1.0  0.0999
  H  H21  1  0.065400  0.658500  0.457300  1.0  0.1112
  H  H22  1  0.106000  0.508600  0.407500  1.0  0.1118
  C  C23  1  0.494900  0.149300  0.752300  1.0  0.6771
  C  C24  1  0.501600  0.074700  0.621000  1.0  -0.1139
  C  C25  1  0.402100  0.064700  0.511800  1.0  -0.118
  C  C26  1  0.598900  0.009200  0.608200  1.0  -0.1159
  C  C27  1  0.765300  0.602800  0.988100  1.0  0.6984
  C  C28  1  0.889000  0.551700  0.993100  1.0  -0.1391
  C  C29  1  0.880300  0.441500  0.901100  1.0  -0.1161
  C  C30  1  0.990000  0.389200  0.907500  1.0  -0.0604
  C  C31  1  0.605900  0.428400  0.269100  1.0  0.1546
  C  C32  1  0.709200  0.467500  0.381800  1.0  -0.1156
  C  C33  1  0.801700  0.396900  0.400500  1.0  0.1214
  C  C34  1  0.786800  0.288300  0.304800  1.0  -0.1544
  C  C35  1  0.682100  0.254700  0.194200  1.0  0.1395
  C  C36  1  0.919300  0.440000  0.519600  1.0  -0.2343
  C  C37  1  0.505100  0.850700  0.247700  1.0  0.6773
  C  C38  1  0.498400  0.925300  0.379000  1.0  -0.1144
  C  C39  1  0.597900  0.935300  0.488200  1.0  -0.1151
  C  C40  1  0.401100  0.990800  0.391800  1.0  -0.1134
  C  C41  1  0.234700  0.397200  0.011900  1.0  0.6966
  C  C42  1  0.111000  0.448300  0.006900  1.0  -0.1384
  C  C43  1  0.119700  0.558500  0.098900  1.0  -0.1142
  C  C44  1  0.010000  0.610800  0.092500  1.0  -0.0602
  C  C45  1  0.394100  0.571600  0.730900  1.0  0.1536
  C  C46  1  0.290800  0.532500  0.618200  1.0  -0.1131
  C  C47  1  0.198300  0.603100  0.599500  1.0  0.1215
  C  C48  1  0.213200  0.711700  0.695200  1.0  -0.1567
  C  C49  1  0.317900  0.745300  0.805800  1.0  0.1393
  C  C50  1  0.080700  0.560000  0.480400  1.0  -0.2345
  N  N51  1  0.592100  0.323500  0.175400  1.0  -0.3468
  N  N52  1  0.407900  0.676500  0.824600  1.0  -0.3433
  O  O53  1  0.417600  0.221500  0.751400  1.0  -0.5509
  O  O54  1  0.564400  0.136600  0.857900  1.0  -0.6195
  O  O55  1  0.639700  0.523900  0.920900  1.0  -0.6645
  O  O56  1  0.789800  0.723000  0.051900  1.0  -0.5714
  O  O57  1  0.582400  0.778500  0.248600  1.0  -0.55
  O  O58  1  0.435600  0.863400  0.142100  1.0  -0.6191
  O  O59  1  0.360300  0.476100  0.079100  1.0  -0.6636
  O  O60  1  0.210200  0.277000  0.948100  1.0  -0.5726
