# generated using pymatgen
data_CdH10C14NO4
_symmetry_space_group_name_H-M   'P 1'
_cell_length_a   9.45000000
_cell_length_b   9.75000000
_cell_length_c   10.29000000
_cell_angle_alpha   96.11000000
_cell_angle_beta   90.40000000
_cell_angle_gamma   116.54000000
_symmetry_Int_Tables_number   1
_chemical_formula_structural   CdH10C14NO4
_chemical_formula_sum   'Cd2 H20 C28 N2 O8'
_cell_volume   841.78221251
_cell_formula_units_Z   2
loop_
 _symmetry_equiv_pos_site_id
 _symmetry_equiv_pos_as_xyz
  1  'x, y, z'
loop_
 _atom_site_type_symbol
 _atom_site_label
 _atom_site_symmetry_multiplicity
 _atom_site_fract_x
 _atom_site_fract_y
 _atom_site_fract_z
 _atom_site_occupancy
 _atom_site_charge
  Cd  Cd1  1  0.236040  0.057580  0.029240  1.0  1.0163
  Cd  Cd2  1  0.763960  0.942420  0.970760  1.0  1.0161
  H  H3  1  0.397500  0.172300  0.497800  1.0  0.1144
  H  H4  1  0.479300  0.843000  0.308100  1.0  0.1152
  H  H5  1  0.099600  0.700200  0.174400  1.0  0.1153
  H  H6  1  0.183800  0.510200  0.158700  1.0  0.105
  H  H7  1  0.043900  0.965600  0.748400  1.0  0.1138
  H  H8  1  0.982800  0.795500  0.555400  1.0  0.1308
  H  H9  1  0.271000  0.636100  0.697900  1.0  0.1231
  H  H10  1  0.326500  0.802600  0.887200  1.0  0.1133
  H  H11  1  0.047700  0.619700  0.416700  1.0  0.1257
  H  H12  1  0.160900  0.557000  0.464700  1.0  0.1287
  H  H13  1  0.602500  0.827700  0.502200  1.0  0.1139
  H  H14  1  0.520700  0.157000  0.691900  1.0  0.1158
  H  H15  1  0.900400  0.299800  0.825600  1.0  0.1148
  H  H16  1  0.816200  0.489800  0.841300  1.0  0.1054
  H  H17  1  0.956100  0.034400  0.251600  1.0  0.1132
  H  H18  1  0.017200  0.204500  0.444600  1.0  0.1315
  H  H19  1  0.729000  0.363900  0.302100  1.0  0.1226
  H  H20  1  0.673500  0.197400  0.112800  1.0  0.1136
  H  H21  1  0.952300  0.380300  0.583300  1.0  0.1268
  H  H22  1  0.839100  0.443000  0.535300  1.0  0.1274
  C  C23  1  0.364000  0.030000  0.259800  1.0  0.6813
  C  C24  1  0.433000  0.012500  0.383200  1.0  -0.1416
  C  C25  1  0.444000  0.106000  0.498700  1.0  -0.021
  C  C26  1  0.489000  0.907000  0.387300  1.0  -0.0867
  C  C27  1  0.901000  0.741000  0.014900  1.0  0.7117
  C  C28  1  0.948700  0.616400  0.008500  1.0  -0.1212
  C  C29  1  0.059000  0.617300  0.103000  1.0  -0.1489
  C  C30  1  0.107000  0.505000  0.094000  1.0  -0.08
  C  C31  1  0.089000  0.894000  0.739800  1.0  0.1559
  C  C32  1  0.053000  0.794000  0.625200  1.0  -0.1576
  C  C33  1  0.121000  0.693000  0.608800  1.0  0.122
  C  C34  1  0.223000  0.701000  0.707500  1.0  -0.1426
  C  C35  1  0.255000  0.801000  0.818400  1.0  0.1414
  C  C36  1  0.076000  0.577000  0.488600  1.0  -0.2445
  C  C37  1  0.636000  0.970000  0.740200  1.0  0.6801
  C  C38  1  0.567000  0.987500  0.616800  1.0  -0.1405
  C  C39  1  0.556000  0.894000  0.501300  1.0  -0.0233
  C  C40  1  0.511000  0.093000  0.612700  1.0  -0.0861
  C  C41  1  0.099000  0.259000  0.985100  1.0  0.709
  C  C42  1  0.051300  0.383600  0.991500  1.0  -0.1216
  C  C43  1  0.941000  0.382700  0.897000  1.0  -0.1493
  C  C44  1  0.893000  0.495000  0.906000  1.0  -0.0802
  C  C45  1  0.911000  0.106000  0.260200  1.0  0.1549
  C  C46  1  0.947000  0.206000  0.374800  1.0  -0.1589
  C  C47  1  0.879000  0.307000  0.391200  1.0  0.1214
  C  C48  1  0.777000  0.299000  0.292500  1.0  -0.142
  C  C49  1  0.745000  0.199000  0.181600  1.0  0.1417
  C  C50  1  0.924000  0.423000  0.511400  1.0  -0.2426
  N  N51  1  0.188600  0.898200  0.836000  1.0  -0.3574
  N  N52  1  0.811400  0.101800  0.164000  1.0  -0.358
  O  O53  1  0.305400  0.125000  0.260400  1.0  -0.6145
  O  O54  1  0.362700  0.951200  0.154000  1.0  -0.5858
  O  O55  1  0.984000  0.869600  0.081500  1.0  -0.7222
  O  O56  1  0.777500  0.718200  0.950000  1.0  -0.5879
  O  O57  1  0.694600  0.875000  0.739600  1.0  -0.6123
  O  O58  1  0.637300  0.048800  0.846000  1.0  -0.5865
  O  O59  1  0.016000  0.130400  0.918500  1.0  -0.7218
  O  O60  1  0.222500  0.281800  0.050000  1.0  -0.5871
