# generated using pymatgen
data_ZnH17C23(N3O2)2
_symmetry_space_group_name_H-M   'P 1'
_cell_length_a   10.83600000
_cell_length_b   14.96200000
_cell_length_c   14.96700000
_cell_angle_alpha   90.00000000
_cell_angle_beta   92.49400000
_cell_angle_gamma   90.00000000
_symmetry_Int_Tables_number   1
_chemical_formula_structural   ZnH17C23(N3O2)2
_chemical_formula_sum   'Zn4 H68 C92 N24 O16'
_cell_volume   2424.27475913
_cell_formula_units_Z   4
loop_
 _symmetry_equiv_pos_site_id
 _symmetry_equiv_pos_as_xyz
  1  'x, y, z'
loop_
 _atom_site_type_symbol
 _atom_site_label
 _atom_site_symmetry_multiplicity
 _atom_site_fract_x
 _atom_site_fract_y
 _atom_site_fract_z
 _atom_site_occupancy
 _atom_site_charge
  Zn  Zn1  1  0.429520  0.657610  0.121230  1.0  0.9018
  Zn  Zn2  1  0.070480  0.157610  0.878770  1.0  0.9019
  Zn  Zn3  1  0.570480  0.342390  0.878770  1.0  0.9014
  Zn  Zn4  1  0.929520  0.842390  0.121230  1.0  0.902
  H  H5  1  0.251500  0.589800  0.265900  1.0  0.0834
  H  H6  1  0.471600  0.790500  0.297600  1.0  0.103
  H  H7  1  0.430100  0.825800  0.466100  1.0  0.1095
  H  H8  1  0.363400  0.747800  0.514300  1.0  0.1241
  H  H9  1  0.210100  0.869400  0.344600  1.0  0.0805
  H  H10  1  0.047100  0.964500  0.360300  1.0  0.1023
  H  H11  1  0.082600  0.937200  0.623800  1.0  0.1149
  H  H12  1  0.240300  0.837300  0.604600  1.0  0.1029
  H  H13  1  0.835600  0.409700  0.494900  1.0  0.0873
  H  H14  1  0.756100  0.371800  0.355700  1.0  0.0937
  H  H15  1  0.024500  0.502800  0.243800  1.0  0.1027
  H  H16  1  0.104800  0.543000  0.384600  1.0  0.1024
  H  H17  1  0.879900  0.413100  0.148400  1.0  0.122
  H  H18  1  0.767600  0.365900  0.192200  1.0  0.1195
  H  H19  1  0.565000  0.456100  0.142100  1.0  0.1126
  H  H20  1  0.702000  0.694900  0.145900  1.0  0.0793
  H  H21  1  0.345700  0.894600  0.985100  1.0  0.1084
  H  H22  1  0.248500  0.089800  0.734100  1.0  0.0837
  H  H23  1  0.028400  0.290500  0.702400  1.0  0.1031
  H  H24  1  0.069900  0.325800  0.533900  1.0  0.1104
  H  H25  1  0.136600  0.247800  0.485700  1.0  0.1217
  H  H26  1  0.289900  0.369400  0.655400  1.0  0.0796
  H  H27  1  0.452900  0.464500  0.639700  1.0  0.1019
  H  H28  1  0.417400  0.437200  0.376200  1.0  0.1129
  H  H29  1  0.259700  0.337300  0.395400  1.0  0.1033
  H  H30  1  0.664400  0.909700  0.505100  1.0  0.0875
  H  H31  1  0.743900  0.871800  0.644300  1.0  0.0947
  H  H32  1  0.475500  0.002800  0.756200  1.0  0.1022
  H  H33  1  0.395200  0.043000  0.615400  1.0  0.1011
  H  H34  1  0.620100  0.913100  0.851600  1.0  0.1228
  H  H35  1  0.732400  0.865900  0.807800  1.0  0.1199
  H  H36  1  0.935000  0.956100  0.857900  1.0  0.1138
  H  H37  1  0.798000  0.194900  0.854100  1.0  0.0797
  H  H38  1  0.154300  0.394600  0.014900  1.0  0.1083
  H  H39  1  0.748500  0.410200  0.734100  1.0  0.0827
  H  H40  1  0.528400  0.209500  0.702400  1.0  0.1031
  H  H41  1  0.569900  0.174200  0.533900  1.0  0.1099
  H  H42  1  0.636600  0.252200  0.485700  1.0  0.1215
  H  H43  1  0.789900  0.130600  0.655400  1.0  0.0796
  H  H44  1  0.952900  0.035500  0.639700  1.0  0.1017
  H  H45  1  0.917400  0.062800  0.376200  1.0  0.1142
  H  H46  1  0.759700  0.162700  0.395400  1.0  0.1034
  H  H47  1  0.164400  0.590300  0.505100  1.0  0.0877
  H  H48  1  0.243900  0.628200  0.644300  1.0  0.0946
  H  H49  1  0.975500  0.497200  0.756200  1.0  0.1025
  H  H50  1  0.895200  0.457000  0.615400  1.0  0.101
  H  H51  1  0.120100  0.586900  0.851600  1.0  0.1229
  H  H52  1  0.232400  0.634100  0.807800  1.0  0.119
  H  H53  1  0.435000  0.543900  0.857900  1.0  0.1134
  H  H54  1  0.298000  0.305100  0.854100  1.0  0.0797
  H  H55  1  0.654300  0.105400  0.014900  1.0  0.1078
  H  H56  1  0.751500  0.910200  0.265900  1.0  0.0829
  H  H57  1  0.971600  0.709500  0.297600  1.0  0.1034
  H  H58  1  0.930100  0.674200  0.466100  1.0  0.1092
  H  H59  1  0.863400  0.752200  0.514300  1.0  0.1235
  H  H60  1  0.710100  0.630600  0.344600  1.0  0.0803
  H  H61  1  0.547100  0.535500  0.360300  1.0  0.1021
  H  H62  1  0.582600  0.562800  0.623800  1.0  0.116
  H  H63  1  0.740300  0.662700  0.604600  1.0  0.1027
  H  H64  1  0.335600  0.090300  0.494900  1.0  0.0872
  H  H65  1  0.256100  0.128200  0.355700  1.0  0.0944
  H  H66  1  0.524500  0.997200  0.243800  1.0  0.1028
  H  H67  1  0.604800  0.957000  0.384600  1.0  0.102
  H  H68  1  0.379900  0.086900  0.148400  1.0  0.1223
  H  H69  1  0.267600  0.134100  0.192200  1.0  0.1192
  H  H70  1  0.065000  0.043900  0.142100  1.0  0.1134
  H  H71  1  0.202000  0.805100  0.145900  1.0  0.0792
  H  H72  1  0.845700  0.605400  0.985100  1.0  0.1085
  C  C73  1  0.294700  0.637700  0.291600  1.0  0.3085
  C  C74  1  0.414100  0.745700  0.307000  1.0  0.1686
  C  C75  1  0.357000  0.788300  0.463700  1.0  -0.0767
  C  C76  1  0.245400  0.846600  0.473200  1.0  0.0433
  C  C77  1  0.185400  0.883500  0.401700  1.0  -0.1206
  C  C78  1  0.088100  0.941700  0.411200  1.0  -0.1046
  C  C79  1  0.050000  0.966800  0.494400  1.0  0.0304
  C  C80  1  0.107900  0.925200  0.566400  1.0  -0.1144
  C  C81  1  0.203700  0.865400  0.554700  1.0  -0.1198
  C  C82  1  0.975900  0.484700  0.456100  1.0  0.0213
  C  C83  1  0.873900  0.431100  0.444700  1.0  -0.1158
  C  C84  1  0.826100  0.407800  0.360200  1.0  -0.1251
  C  C85  1  0.877400  0.435400  0.284400  1.0  0.0371
  C  C86  1  0.983900  0.485000  0.294300  1.0  -0.1161
  C  C87  1  0.032600  0.509400  0.379900  1.0  -0.1254
  C  C88  1  0.817300  0.419800  0.192300  1.0  -0.0737
  C  C89  1  0.619200  0.504100  0.147600  1.0  0.1523
  C  C90  1  0.695900  0.633100  0.150300  1.0  0.273
  C  C91  1  0.524200  0.827300  0.088100  1.0  0.6575
  C  C92  1  0.517200  0.915200  0.036400  1.0  -0.1053
  C  C93  1  0.611200  0.978000  0.046600  1.0  -0.1019
  C  C94  1  0.408000  0.937100  0.990900  1.0  -0.0581
  C  C95  1  0.738700  0.955400  0.085100  1.0  0.6871
  C  C96  1  0.205300  0.137700  0.708400  1.0  0.3076
  C  C97  1  0.085900  0.245700  0.693000  1.0  0.1684
  C  C98  1  0.143000  0.288300  0.536300  1.0  -0.0777
  C  C99  1  0.254600  0.346600  0.526800  1.0  0.0431
  C  C100  1  0.314600  0.383500  0.598300  1.0  -0.121
  C  C101  1  0.411900  0.441700  0.588800  1.0  -0.1073
  C  C102  1  0.450000  0.466800  0.505600  1.0  0.03
  C  C103  1  0.392100  0.425200  0.433600  1.0  -0.116
  C  C104  1  0.296300  0.365400  0.445300  1.0  -0.1201
  C  C105  1  0.524100  0.984700  0.543900  1.0  0.0209
  C  C106  1  0.626100  0.931100  0.555300  1.0  -0.1113
  C  C107  1  0.673900  0.907800  0.639800  1.0  -0.1257
  C  C108  1  0.622600  0.935400  0.715600  1.0  0.0364
  C  C109  1  0.516100  0.985000  0.705700  1.0  -0.1145
  C  C110  1  0.467400  0.009400  0.620100  1.0  -0.1241
  C  C111  1  0.682700  0.919800  0.807700  1.0  -0.0718
  C  C112  1  0.880800  0.004100  0.852400  1.0  0.1533
  C  C113  1  0.804100  0.133100  0.849700  1.0  0.2707
  C  C114  1  0.975800  0.327300  0.911900  1.0  0.6586
  C  C115  1  0.982800  0.415200  0.963600  1.0  -0.1051
  C  C116  1  0.888800  0.478000  0.953400  1.0  -0.1019
  C  C117  1  0.092000  0.437100  0.009100  1.0  -0.0568
  C  C118  1  0.761300  0.455400  0.914900  1.0  0.6855
  C  C119  1  0.705300  0.362300  0.708400  1.0  0.3086
  C  C120  1  0.585900  0.254300  0.693000  1.0  0.1686
  C  C121  1  0.643000  0.211700  0.536300  1.0  -0.0776
  C  C122  1  0.754600  0.153400  0.526800  1.0  0.0427
  C  C123  1  0.814600  0.116500  0.598300  1.0  -0.1212
  C  C124  1  0.911900  0.058300  0.588800  1.0  -0.1076
  C  C125  1  0.950000  0.033200  0.505600  1.0  0.0299
  C  C126  1  0.892100  0.074800  0.433600  1.0  -0.1138
  C  C127  1  0.796300  0.134600  0.445300  1.0  -0.1202
  C  C128  1  0.024100  0.515300  0.543900  1.0  0.0206
  C  C129  1  0.126100  0.568900  0.555300  1.0  -0.1066
  C  C130  1  0.173900  0.592200  0.639800  1.0  -0.126
  C  C131  1  0.122600  0.564600  0.715600  1.0  0.0347
  C  C132  1  0.016100  0.515000  0.705700  1.0  -0.1147
  C  C133  1  0.967400  0.490600  0.620100  1.0  -0.1196
  C  C134  1  0.182700  0.580200  0.807700  1.0  -0.0726
  C  C135  1  0.380800  0.495900  0.852400  1.0  0.1537
  C  C136  1  0.304100  0.366900  0.849700  1.0  0.2724
  C  C137  1  0.475800  0.172700  0.911900  1.0  0.6567
  C  C138  1  0.482800  0.084800  0.963600  1.0  -0.1041
  C  C139  1  0.388800  0.022000  0.953400  1.0  -0.1012
  C  C140  1  0.592000  0.062900  0.009100  1.0  -0.0582
  C  C141  1  0.261300  0.044600  0.914900  1.0  0.6771
  C  C142  1  0.794700  0.862300  0.291600  1.0  0.3089
  C  C143  1  0.914100  0.754300  0.307000  1.0  0.1686
  C  C144  1  0.857000  0.711700  0.463700  1.0  -0.0767
  C  C145  1  0.745400  0.653400  0.473200  1.0  0.0428
  C  C146  1  0.685400  0.616500  0.401700  1.0  -0.1204
  C  C147  1  0.588100  0.558300  0.411200  1.0  -0.1056
  C  C148  1  0.550000  0.533200  0.494400  1.0  0.0306
  C  C149  1  0.607900  0.574800  0.566400  1.0  -0.1118
  C  C150  1  0.703700  0.634600  0.554700  1.0  -0.1204
  C  C151  1  0.475900  0.015300  0.456100  1.0  0.0211
  C  C152  1  0.373900  0.068900  0.444700  1.0  -0.1105
  C  C153  1  0.326100  0.092200  0.360200  1.0  -0.1279
  C  C154  1  0.377400  0.064600  0.284400  1.0  0.036
  C  C155  1  0.483900  0.015000  0.294300  1.0  -0.1156
  C  C156  1  0.532600  0.990600  0.379900  1.0  -0.1201
  C  C157  1  0.317300  0.080200  0.192300  1.0  -0.0731
  C  C158  1  0.119200  0.995900  0.147600  1.0  0.1526
  C  C159  1  0.195900  0.866900  0.150300  1.0  0.2739
  C  C160  1  0.024200  0.672700  0.088100  1.0  0.6567
  C  C161  1  0.017200  0.584800  0.036400  1.0  -0.1047
  C  C162  1  0.111200  0.522000  0.046600  1.0  -0.1013
  C  C163  1  0.908000  0.562900  0.990900  1.0  -0.0594
  C  C164  1  0.238700  0.544600  0.085100  1.0  0.6792
  N  N165  1  0.379500  0.682800  0.246500  1.0  -0.4387
  N  N166  1  0.275900  0.663800  0.372000  1.0  -0.3731
  N  N167  1  0.355800  0.735100  0.380400  1.0  0.1549
  N  N168  1  0.588500  0.589000  0.133800  1.0  -0.4258
  N  N169  1  0.791100  0.582000  0.172900  1.0  -0.3373
  N  N170  1  0.739200  0.497700  0.170500  1.0  0.1471
  N  N171  1  0.120500  0.182800  0.753500  1.0  -0.4382
  N  N172  1  0.224100  0.163800  0.628000  1.0  -0.3738
  N  N173  1  0.144200  0.235100  0.619600  1.0  0.1549
  N  N174  1  0.911500  0.089000  0.866200  1.0  -0.426
  N  N175  1  0.708900  0.082000  0.827100  1.0  -0.3359
  N  N176  1  0.760800  0.997700  0.829500  1.0  0.147
  N  N177  1  0.620500  0.317200  0.753500  1.0  -0.4388
  N  N178  1  0.724100  0.336200  0.628000  1.0  -0.3745
  N  N179  1  0.644200  0.264900  0.619600  1.0  0.1544
  N  N180  1  0.411500  0.411000  0.866200  1.0  -0.4256
  N  N181  1  0.208900  0.418000  0.827100  1.0  -0.3364
  N  N182  1  0.260800  0.502300  0.829500  1.0  0.147
  N  N183  1  0.879500  0.817200  0.246500  1.0  -0.4384
  N  N184  1  0.775900  0.836200  0.372000  1.0  -0.3737
  N  N185  1  0.855800  0.764900  0.380400  1.0  0.1545
  N  N186  1  0.088500  0.911000  0.133800  1.0  -0.4263
  N  N187  1  0.291100  0.918000  0.172900  1.0  -0.3377
  N  N188  1  0.239200  0.002300  0.170500  1.0  0.1474
  O  O189  1  0.463000  0.762200  0.049000  1.0  -0.6207
  O  O190  1  0.577000  0.823000  0.160700  1.0  -0.5605
  O  O191  1  0.785300  0.884800  0.053700  1.0  -0.6049
  O  O192  1  0.788800  0.004800  0.140800  1.0  -0.613
  O  O193  1  0.037000  0.262200  0.951000  1.0  -0.6193
  O  O194  1  0.923000  0.323000  0.839300  1.0  -0.5605
  O  O195  1  0.714700  0.384800  0.946300  1.0  -0.6062
  O  O196  1  0.711200  0.504800  0.859200  1.0  -0.6125
  O  O197  1  0.537000  0.237800  0.951000  1.0  -0.6194
  O  O198  1  0.423000  0.177000  0.839300  1.0  -0.5601
  O  O199  1  0.214700  0.115200  0.946300  1.0  -0.6066
  O  O200  1  0.211200  0.995200  0.859200  1.0  -0.611
  O  O201  1  0.963000  0.737800  0.049000  1.0  -0.6193
  O  O202  1  0.077000  0.677000  0.160700  1.0  -0.5604
  O  O203  1  0.285300  0.615200  0.053700  1.0  -0.605
  O  O204  1  0.288800  0.495200  0.140800  1.0  -0.6108
