# generated using pymatgen
data_CuH17C23(N3O2)2
_symmetry_space_group_name_H-M   'P 1'
_cell_length_a   11.55390000
_cell_length_b   15.42280000
_cell_length_c   17.68600000
_cell_angle_alpha   114.09500000
_cell_angle_beta   90.00000000
_cell_angle_gamma   111.99800000
_symmetry_Int_Tables_number   1
_chemical_formula_structural   CuH17C23(N3O2)2
_chemical_formula_sum   'Cu4 H68 C92 N24 O16'
_cell_volume   2623.59043024
_cell_formula_units_Z   4
loop_
 _symmetry_equiv_pos_site_id
 _symmetry_equiv_pos_as_xyz
  1  'x, y, z'
loop_
 _atom_site_type_symbol
 _atom_site_label
 _atom_site_symmetry_multiplicity
 _atom_site_fract_x
 _atom_site_fract_y
 _atom_site_fract_z
 _atom_site_occupancy
 _atom_site_charge
  Cu  Cu1  1  0.837230  0.601820  0.770190  1.0  0.845
  Cu  Cu2  1  0.235410  0.398180  0.729810  1.0  0.8444
  Cu  Cu3  1  0.162770  0.398180  0.229810  1.0  0.8443
  Cu  Cu4  1  0.764590  0.601820  0.270190  1.0  0.8449
  H  H5  1  0.893500  0.537800  0.577800  1.0  0.0727
  H  H6  1  0.121800  0.650600  0.784800  1.0  0.105
  H  H7  1  0.330400  0.664000  0.726000  1.0  0.1184
  H  H8  1  0.307300  0.590400  0.629700  1.0  0.1163
  H  H9  1  0.224200  0.802800  0.686600  1.0  0.1052
  H  H10  1  0.329700  0.948400  0.665500  1.0  0.1102
  H  H11  1  0.598100  0.847400  0.585000  1.0  0.1087
  H  H12  1  0.493600  0.702800  0.607300  1.0  0.0959
  H  H13  1  0.407200  0.053200  0.607700  1.0  0.1076
  H  H14  1  0.521500  0.200000  0.587800  1.0  0.1148
  H  H15  1  0.832900  0.150200  0.598400  1.0  0.114
  H  H16  1  0.721900  0.009200  0.621700  1.0  0.1082
  H  H17  1  0.739000  0.342400  0.613400  1.0  0.113
  H  H18  1  0.727900  0.269000  0.518400  1.0  0.1142
  H  H19  1  0.954200  0.380600  0.713000  1.0  0.0961
  H  H20  1  0.147700  0.325600  0.534600  1.0  0.1003
  H  H21  1  0.711300  0.613600  0.540300  1.0  0.1034
  H  H22  1  0.355700  0.462200  0.922200  1.0  0.0721
  H  H23  1  0.471200  0.349400  0.715200  1.0  0.1044
  H  H24  1  0.666400  0.336000  0.774000  1.0  0.1178
  H  H25  1  0.716900  0.409600  0.870300  1.0  0.1163
  H  H26  1  0.421400  0.197200  0.813400  1.0  0.1046
  H  H27  1  0.381300  0.051600  0.834500  1.0  0.1099
  H  H28  1  0.750700  0.152600  0.915000  1.0  0.1089
  H  H29  1  0.790800  0.297200  0.892700  1.0  0.0954
  H  H30  1  0.354000  0.946800  0.892300  1.0  0.1074
  H  H31  1  0.321500  0.800000  0.912200  1.0  0.1145
  H  H32  1  0.682700  0.849800  0.901600  1.0  0.1139
  H  H33  1  0.712700  0.990800  0.878300  1.0  0.1079
  H  H34  1  0.396600  0.657600  0.886600  1.0  0.113
  H  H35  1  0.458900  0.731000  0.981600  1.0  0.114
  H  H36  1  0.573600  0.619400  0.787000  1.0  0.097
  H  H37  1  0.822100  0.674400  0.965400  1.0  0.1003
  H  H38  1  0.097700  0.386400  0.959700  1.0  0.1042
  H  H39  1  0.106500  0.462200  0.422200  1.0  0.0715
  H  H40  1  0.878200  0.349400  0.215200  1.0  0.1042
  H  H41  1  0.669600  0.336000  0.274000  1.0  0.1175
  H  H42  1  0.692700  0.409600  0.370300  1.0  0.1163
  H  H43  1  0.775800  0.197200  0.313400  1.0  0.1041
  H  H44  1  0.670300  0.051600  0.334500  1.0  0.1108
  H  H45  1  0.401900  0.152600  0.415000  1.0  0.1081
  H  H46  1  0.506400  0.297200  0.392700  1.0  0.0956
  H  H47  1  0.592800  0.946800  0.392300  1.0  0.1072
  H  H48  1  0.478500  0.800000  0.412200  1.0  0.1158
  H  H49  1  0.167100  0.849800  0.401600  1.0  0.1131
  H  H50  1  0.278100  0.990800  0.378300  1.0  0.1088
  H  H51  1  0.261000  0.657600  0.386600  1.0  0.1129
  H  H52  1  0.272100  0.731000  0.481600  1.0  0.1138
  H  H53  1  0.045800  0.619400  0.287000  1.0  0.0966
  H  H54  1  0.852300  0.674400  0.465400  1.0  0.1007
  H  H55  1  0.288700  0.386400  0.459700  1.0  0.1045
  H  H56  1  0.644300  0.537800  0.077800  1.0  0.0722
  H  H57  1  0.528800  0.650600  0.284800  1.0  0.1048
  H  H58  1  0.333600  0.664000  0.226000  1.0  0.1179
  H  H59  1  0.283100  0.590400  0.129700  1.0  0.1162
  H  H60  1  0.578600  0.802800  0.186600  1.0  0.1044
  H  H61  1  0.618700  0.948400  0.165500  1.0  0.1106
  H  H62  1  0.249300  0.847400  0.085000  1.0  0.1081
  H  H63  1  0.209200  0.702800  0.107300  1.0  0.0957
  H  H64  1  0.646000  0.053200  0.107700  1.0  0.1075
  H  H65  1  0.678500  0.200000  0.087800  1.0  0.1156
  H  H66  1  0.317300  0.150200  0.098400  1.0  0.1131
  H  H67  1  0.287300  0.009200  0.121700  1.0  0.1091
  H  H68  1  0.603400  0.342400  0.113400  1.0  0.1129
  H  H69  1  0.541100  0.269000  0.018400  1.0  0.1141
  H  H70  1  0.426400  0.380600  0.213000  1.0  0.0969
  H  H71  1  0.177900  0.325600  0.034600  1.0  0.1004
  H  H72  1  0.902300  0.613600  0.040300  1.0  0.104
  C  C73  1  0.967600  0.565000  0.616000  1.0  0.2857
  C  C74  1  0.088300  0.625400  0.728500  1.0  0.1605
  C  C75  1  0.291600  0.648000  0.670600  1.0  -0.086
  C  C76  1  0.351900  0.739400  0.653900  1.0  0.0426
  C  C77  1  0.301500  0.812800  0.668200  1.0  -0.1334
  C  C78  1  0.364900  0.900200  0.655400  1.0  -0.1036
  C  C79  1  0.480700  0.917600  0.627600  1.0  0.0217
  C  C80  1  0.524500  0.840600  0.607800  1.0  -0.102
  C  C81  1  0.461200  0.753200  0.621000  1.0  -0.1215
  C  C82  1  0.551200  0.013000  0.615500  1.0  0.0157
  C  C83  1  0.493300  0.072200  0.606100  1.0  -0.1043
  C  C84  1  0.562500  0.161000  0.594000  1.0  -0.1264
  C  C85  1  0.687600  0.190800  0.591400  1.0  0.0414
  C  C86  1  0.747100  0.131800  0.600900  1.0  -0.1607
  C  C87  1  0.679500  0.046400  0.613700  1.0  -0.0875
  C  C88  1  0.757800  0.284800  0.575800  1.0  -0.0842
  C  C89  1  0.975900  0.357600  0.659900  1.0  0.1693
  C  C90  1  0.080100  0.326000  0.563100  1.0  0.2737
  C  C91  1  0.651400  0.526400  0.644000  1.0  0.6493
  C  C92  1  0.572200  0.513600  0.571100  1.0  -0.1068
  C  C93  1  0.444000  0.446200  0.546600  1.0  -0.0649
  C  C94  1  0.626200  0.567600  0.523900  1.0  -0.0716
  C  C95  1  0.374200  0.389800  0.596800  1.0  0.6434
  C  C96  1  0.402600  0.435000  0.884000  1.0  0.2854
  C  C97  1  0.462900  0.374600  0.771500  1.0  0.1606
  C  C98  1  0.643600  0.352000  0.829400  1.0  -0.0855
  C  C99  1  0.612500  0.260600  0.846100  1.0  0.0427
  C  C100  1  0.488700  0.187200  0.831800  1.0  -0.134
  C  C101  1  0.464700  0.099800  0.844600  1.0  -0.1024
  C  C102  1  0.563100  0.082400  0.872400  1.0  0.0216
  C  C103  1  0.683900  0.159400  0.892200  1.0  -0.1009
  C  C104  1  0.708000  0.246800  0.879000  1.0  -0.1212
  C  C105  1  0.538200  0.987000  0.884500  1.0  0.016
  C  C106  1  0.421100  0.927800  0.893900  1.0  -0.1041
  C  C107  1  0.401500  0.839000  0.906000  1.0  -0.1264
  C  C108  1  0.496800  0.809200  0.908600  1.0  0.0417
  C  C109  1  0.615300  0.868200  0.899100  1.0  -0.1603
  C  C110  1  0.633100  0.953600  0.886300  1.0  -0.0884
  C  C111  1  0.473000  0.715200  0.924200  1.0  -0.0844
  C  C112  1  0.618300  0.642400  0.840100  1.0  0.1693
  C  C113  1  0.754100  0.674000  0.936900  1.0  0.2773
  C  C114  1  0.125000  0.473600  0.856000  1.0  0.649
  C  C115  1  0.058600  0.486400  0.928900  1.0  -0.1082
  C  C116  1  0.997800  0.553800  0.953400  1.0  -0.0651
  C  C117  1  0.058600  0.432400  0.976100  1.0  -0.0711
  C  C118  1  0.984400  0.610200  0.903200  1.0  0.6426
  C  C119  1  0.032400  0.435000  0.384000  1.0  0.285
  C  C120  1  0.911700  0.374600  0.271500  1.0  0.1607
  C  C121  1  0.708400  0.352000  0.329400  1.0  -0.0849
  C  C122  1  0.648100  0.260600  0.346100  1.0  0.0427
  C  C123  1  0.698500  0.187200  0.331800  1.0  -0.1343
  C  C124  1  0.635100  0.099800  0.344600  1.0  -0.1045
  C  C125  1  0.519300  0.082400  0.372400  1.0  0.0214
  C  C126  1  0.475500  0.159400  0.392200  1.0  -0.0999
  C  C127  1  0.538800  0.246800  0.379000  1.0  -0.1205
  C  C128  1  0.448800  0.987000  0.384500  1.0  0.0157
  C  C129  1  0.506700  0.927800  0.393900  1.0  -0.106
  C  C130  1  0.437500  0.839000  0.406000  1.0  -0.1264
  C  C131  1  0.312400  0.809200  0.408600  1.0  0.0421
  C  C132  1  0.252900  0.868200  0.399100  1.0  -0.1596
  C  C133  1  0.320500  0.953600  0.386300  1.0  -0.0879
  C  C134  1  0.242200  0.715200  0.424200  1.0  -0.0855
  C  C135  1  0.024100  0.642400  0.340100  1.0  0.1687
  C  C136  1  0.919900  0.674000  0.436900  1.0  0.2762
  C  C137  1  0.348600  0.473600  0.356000  1.0  0.6483
  C  C138  1  0.427800  0.486400  0.428900  1.0  -0.1059
  C  C139  1  0.556000  0.553800  0.453400  1.0  -0.065
  C  C140  1  0.373800  0.432400  0.476100  1.0  -0.0703
  C  C141  1  0.625800  0.610200  0.403200  1.0  0.6431
  C  C142  1  0.597400  0.565000  0.116000  1.0  0.2849
  C  C143  1  0.537100  0.625400  0.228500  1.0  0.1601
  C  C144  1  0.356400  0.648000  0.170600  1.0  -0.0857
  C  C145  1  0.387500  0.739400  0.153900  1.0  0.0428
  C  C146  1  0.511300  0.812800  0.168200  1.0  -0.1339
  C  C147  1  0.535300  0.900200  0.155400  1.0  -0.1057
  C  C148  1  0.436900  0.917600  0.127600  1.0  0.0218
  C  C149  1  0.316100  0.840600  0.107800  1.0  -0.1002
  C  C150  1  0.292000  0.753200  0.121000  1.0  -0.1202
  C  C151  1  0.461800  0.013000  0.115500  1.0  0.0157
  C  C152  1  0.578900  0.072200  0.106100  1.0  -0.1066
  C  C153  1  0.598500  0.161000  0.094000  1.0  -0.1263
  C  C154  1  0.503200  0.190800  0.091400  1.0  0.0421
  C  C155  1  0.384700  0.131800  0.100900  1.0  -0.1585
  C  C156  1  0.366900  0.046400  0.113700  1.0  -0.0873
  C  C157  1  0.527000  0.284800  0.075800  1.0  -0.0852
  C  C158  1  0.381700  0.357600  0.159900  1.0  0.1691
  C  C159  1  0.245900  0.326000  0.063100  1.0  0.2745
  C  C160  1  0.875000  0.526400  0.144000  1.0  0.6486
  C  C161  1  0.941400  0.513600  0.071100  1.0  -0.1046
  C  C162  1  0.002200  0.446200  0.046600  1.0  -0.0646
  C  C163  1  0.941400  0.567600  0.023900  1.0  -0.0707
  C  C164  1  0.015600  0.389800  0.096800  1.0  0.6433
  N  N165  1  0.969190  0.594780  0.699300  1.0  -0.4328
  N  N166  1  0.076700  0.576800  0.593400  1.0  -0.3563
  N  N167  1  0.155210  0.615820  0.666900  1.0  0.1679
  N  N168  1  0.086790  0.362380  0.647600  1.0  -0.429
  N  N169  1  0.962500  0.292200  0.528900  1.0  -0.3885
  N  N170  1  0.895270  0.316340  0.588600  1.0  0.1881
  N  N171  1  0.374410  0.405220  0.800700  1.0  -0.4325
  N  N172  1  0.499900  0.423200  0.906600  1.0  -0.3555
  N  N173  1  0.539390  0.384180  0.833100  1.0  0.1685
  N  N174  1  0.724410  0.637620  0.852400  1.0  -0.4292
  N  N175  1  0.670300  0.707800  0.971100  1.0  -0.3887
  N  N176  1  0.578930  0.683660  0.911400  1.0  0.1881
  N  N177  1  0.030810  0.405220  0.300700  1.0  -0.4315
  N  N178  1  0.923300  0.423200  0.406600  1.0  -0.3553
  N  N179  1  0.844790  0.384180  0.333100  1.0  0.1683
  N  N180  1  0.913210  0.637620  0.352400  1.0  -0.429
  N  N181  1  0.037500  0.707800  0.471100  1.0  -0.3885
  N  N182  1  0.104730  0.683660  0.411400  1.0  0.1896
  N  N183  1  0.625590  0.594780  0.199300  1.0  -0.4322
  N  N184  1  0.500100  0.576800  0.093400  1.0  -0.3561
  N  N185  1  0.460610  0.615820  0.166900  1.0  0.1675
  N  N186  1  0.275590  0.362380  0.147600  1.0  -0.4286
  N  N187  1  0.329700  0.292200  0.028900  1.0  -0.3883
  N  N188  1  0.421070  0.316340  0.088600  1.0  0.1891
  O  O189  1  0.742850  0.616900  0.686400  1.0  -0.5885
  O  O190  1  0.632890  0.452980  0.660800  1.0  -0.5838
  O  O191  1  0.357060  0.451520  0.666100  1.0  -0.604
  O  O192  1  0.338270  0.295740  0.570100  1.0  -0.5761
  O  O193  1  0.125950  0.383100  0.813600  1.0  -0.587
  O  O194  1  0.179910  0.547020  0.839200  1.0  -0.5834
  O  O195  1  0.905540  0.548480  0.833900  1.0  -0.6046
  O  O196  1  0.042530  0.704260  0.929900  1.0  -0.575
  O  O197  1  0.257150  0.383100  0.313600  1.0  -0.5879
  O  O198  1  0.367110  0.547020  0.339200  1.0  -0.5837
  O  O199  1  0.642940  0.548480  0.333900  1.0  -0.604
  O  O200  1  0.661730  0.704260  0.429900  1.0  -0.5739
  O  O201  1  0.874050  0.616900  0.186400  1.0  -0.5898
  O  O202  1  0.820090  0.452980  0.160800  1.0  -0.5839
  O  O203  1  0.094460  0.451520  0.166100  1.0  -0.6035
  O  O204  1  0.957470  0.295740  0.070100  1.0  -0.5759
