# generated using pymatgen
data_CuH16C9(SN4)2
_symmetry_space_group_name_H-M   'P 1'
_cell_length_a   13.29400000
_cell_length_b   25.17100000
_cell_length_c   13.62600000
_cell_angle_alpha   90.00000000
_cell_angle_beta   104.60000000
_cell_angle_gamma   90.00000000
_symmetry_Int_Tables_number   1
_chemical_formula_structural   CuH16C9(SN4)2
_chemical_formula_sum   'Cu8 H128 C72 S16 N64'
_cell_volume   4412.34421661
_cell_formula_units_Z   8
loop_
 _symmetry_equiv_pos_site_id
 _symmetry_equiv_pos_as_xyz
  1  'x, y, z'
loop_
 _atom_site_type_symbol
 _atom_site_label
 _atom_site_symmetry_multiplicity
 _atom_site_fract_x
 _atom_site_fract_y
 _atom_site_fract_z
 _atom_site_occupancy
 _atom_site_charge
  Cu  Cu1  1  0.541750  0.245660  0.717010  1.0  0.4652
  Cu  Cu2  1  0.569410  0.208190  0.976960  1.0  0.3798
  Cu  Cu3  1  0.458250  0.745660  0.782990  1.0  0.4662
  Cu  Cu4  1  0.430590  0.708190  0.523040  1.0  0.3807
  Cu  Cu5  1  0.458250  0.754340  0.282990  1.0  0.4664
  Cu  Cu6  1  0.430590  0.791810  0.023040  1.0  0.3805
  Cu  Cu7  1  0.541750  0.254340  0.217010  1.0  0.4652
  Cu  Cu8  1  0.569410  0.291810  0.476960  1.0  0.3796
  H  H9  1  0.302400  0.373400  0.747200  1.0  0.1799
  H  H10  1  0.293600  0.361200  0.632400  1.0  0.0892
  H  H11  1  0.200200  0.435700  0.640000  1.0  0.0766
  H  H12  1  0.293100  0.461800  0.719100  1.0  0.0772
  H  H13  1  0.384600  0.468500  0.587600  1.0  0.0728
  H  H14  1  0.284200  0.448000  0.510000  1.0  0.0814
  H  H15  1  0.281800  0.544700  0.618300  1.0  0.0718
  H  H16  1  0.194400  0.525800  0.524600  1.0  0.0749
  H  H17  1  0.306800  0.536600  0.420400  1.0  0.125
  H  H18  1  0.289500  0.590300  0.471500  1.0  0.1058
  H  H19  1  0.437900  0.436200  0.907700  1.0  0.1192
  H  H20  1  0.481700  0.414900  0.018400  1.0  0.0976
  H  H21  1  0.557300  0.439800  0.959300  1.0  0.1047
  H  H22  1  0.537100  0.512800  0.727500  1.0  0.1137
  H  H23  1  0.573100  0.537900  0.836000  1.0  0.1151
  H  H24  1  0.456500  0.521700  0.792400  1.0  0.1148
  H  H25  1  0.749800  0.152900  0.882500  1.0  0.0714
  H  H26  1  0.753100  0.164300  0.770400  1.0  0.1231
  H  H27  1  0.911000  0.152700  0.802100  1.0  0.059
  H  H28  1  0.860800  0.105000  0.844800  1.0  0.0729
  H  H29  1  0.945000  0.121800  0.003400  1.0  0.0751
  H  H30  1  0.962000  0.181900  0.981400  1.0  0.0846
  H  H31  1  0.125800  0.128500  0.002600  1.0  0.0742
  H  H32  1  0.072600  0.097800  0.902800  1.0  0.0686
  H  H33  1  0.062700  0.175000  0.813800  1.0  0.1083
  H  H34  1  0.177700  0.158800  0.865800  1.0  0.1105
  H  H35  1  0.970400  0.296400  0.807200  1.0  0.1221
  H  H36  1  0.960200  0.337800  0.719400  1.0  0.1248
  H  H37  1  0.983100  0.278100  0.701000  1.0  0.128
  H  H38  1  0.211200  0.267100  0.157600  1.0  0.124
  H  H39  1  0.325400  0.278700  0.219600  1.0  0.1258
  H  H40  1  0.268700  0.318200  0.134600  1.0  0.1256
  H  H41  1  0.697600  0.873400  0.752800  1.0  0.1779
  H  H42  1  0.706400  0.861200  0.867600  1.0  0.0905
  H  H43  1  0.799800  0.935700  0.860000  1.0  0.0769
  H  H44  1  0.706900  0.961800  0.780900  1.0  0.0785
  H  H45  1  0.615400  0.968500  0.912400  1.0  0.0783
  H  H46  1  0.715800  0.948000  0.990000  1.0  0.0826
  H  H47  1  0.718200  0.044700  0.881700  1.0  0.073
  H  H48  1  0.805600  0.025800  0.975400  1.0  0.0759
  H  H49  1  0.693200  0.036600  0.079600  1.0  0.1256
  H  H50  1  0.710500  0.090300  0.028500  1.0  0.1051
  H  H51  1  0.562100  0.936200  0.592300  1.0  0.1196
  H  H52  1  0.518300  0.914900  0.481600  1.0  0.0985
  H  H53  1  0.442700  0.939800  0.540700  1.0  0.1055
  H  H54  1  0.462900  0.012800  0.772500  1.0  0.1151
  H  H55  1  0.426900  0.037900  0.664000  1.0  0.1152
  H  H56  1  0.543500  0.021700  0.707600  1.0  0.1179
  H  H57  1  0.250200  0.652900  0.617500  1.0  0.0717
  H  H58  1  0.246900  0.664300  0.729600  1.0  0.1238
  H  H59  1  0.089000  0.652700  0.697900  1.0  0.0587
  H  H60  1  0.139200  0.605000  0.655200  1.0  0.0743
  H  H61  1  0.055000  0.621800  0.496600  1.0  0.0738
  H  H62  1  0.038000  0.681900  0.518600  1.0  0.0845
  H  H63  1  0.874200  0.628500  0.497400  1.0  0.0731
  H  H64  1  0.927400  0.597800  0.597200  1.0  0.0685
  H  H65  1  0.937300  0.675000  0.686200  1.0  0.1099
  H  H66  1  0.822300  0.658800  0.634200  1.0  0.1116
  H  H67  1  0.029600  0.796400  0.692800  1.0  0.1218
  H  H68  1  0.039800  0.837800  0.780600  1.0  0.1245
  H  H69  1  0.016900  0.778100  0.799000  1.0  0.1293
  H  H70  1  0.788800  0.767100  0.342400  1.0  0.1218
  H  H71  1  0.674600  0.778700  0.280400  1.0  0.1251
  H  H72  1  0.731300  0.818200  0.365400  1.0  0.1261
  H  H73  1  0.697600  0.626600  0.252800  1.0  0.1781
  H  H74  1  0.706400  0.638800  0.367600  1.0  0.09
  H  H75  1  0.799800  0.564300  0.360000  1.0  0.077
  H  H76  1  0.706900  0.538200  0.280900  1.0  0.0782
  H  H77  1  0.615400  0.531500  0.412400  1.0  0.0778
  H  H78  1  0.715800  0.552000  0.490000  1.0  0.0824
  H  H79  1  0.718200  0.455300  0.381700  1.0  0.0734
  H  H80  1  0.805600  0.474200  0.475400  1.0  0.0759
  H  H81  1  0.693200  0.463400  0.579600  1.0  0.1252
  H  H82  1  0.710500  0.409700  0.528500  1.0  0.1064
  H  H83  1  0.562100  0.563800  0.092300  1.0  0.1195
  H  H84  1  0.518300  0.585100  0.981600  1.0  0.0985
  H  H85  1  0.442700  0.560200  0.040700  1.0  0.1061
  H  H86  1  0.462900  0.487200  0.272500  1.0  0.1152
  H  H87  1  0.426900  0.462100  0.164000  1.0  0.1153
  H  H88  1  0.543500  0.478300  0.207600  1.0  0.1179
  H  H89  1  0.250200  0.847100  0.117500  1.0  0.0718
  H  H90  1  0.246900  0.835700  0.229600  1.0  0.1233
  H  H91  1  0.089000  0.847300  0.197900  1.0  0.0584
  H  H92  1  0.139200  0.895000  0.155200  1.0  0.0728
  H  H93  1  0.055000  0.878200  0.996600  1.0  0.0749
  H  H94  1  0.038000  0.818100  0.018600  1.0  0.0855
  H  H95  1  0.874200  0.871500  0.997400  1.0  0.0737
  H  H96  1  0.927400  0.902200  0.097200  1.0  0.0698
  H  H97  1  0.937300  0.825000  0.186200  1.0  0.1098
  H  H98  1  0.822300  0.841200  0.134200  1.0  0.1115
  H  H99  1  0.029600  0.703600  0.192800  1.0  0.1224
  H  H100  1  0.039800  0.662200  0.280600  1.0  0.124
  H  H101  1  0.016900  0.721900  0.299000  1.0  0.1285
  H  H102  1  0.788800  0.732900  0.842400  1.0  0.1214
  H  H103  1  0.674600  0.721300  0.780400  1.0  0.1239
  H  H104  1  0.731300  0.681800  0.865400  1.0  0.1251
  H  H105  1  0.302400  0.126600  0.247200  1.0  0.1795
  H  H106  1  0.293600  0.138800  0.132400  1.0  0.0895
  H  H107  1  0.200200  0.064300  0.140000  1.0  0.0767
  H  H108  1  0.293100  0.038200  0.219100  1.0  0.0774
  H  H109  1  0.384600  0.031500  0.087600  1.0  0.0724
  H  H110  1  0.284200  0.052000  0.010000  1.0  0.0822
  H  H111  1  0.281800  0.955300  0.118300  1.0  0.0718
  H  H112  1  0.194400  0.974200  0.024600  1.0  0.0753
  H  H113  1  0.306800  0.963400  0.920400  1.0  0.1248
  H  H114  1  0.289500  0.909700  0.971500  1.0  0.1065
  H  H115  1  0.437900  0.063800  0.407700  1.0  0.119
  H  H116  1  0.481700  0.085100  0.518400  1.0  0.0977
  H  H117  1  0.557300  0.060200  0.459300  1.0  0.104
  H  H118  1  0.537100  0.987200  0.227500  1.0  0.1149
  H  H119  1  0.573100  0.962100  0.336000  1.0  0.1149
  H  H120  1  0.456500  0.978300  0.292400  1.0  0.115
  H  H121  1  0.749800  0.347100  0.382500  1.0  0.0714
  H  H122  1  0.753100  0.335700  0.270400  1.0  0.1228
  H  H123  1  0.911000  0.347300  0.302100  1.0  0.0586
  H  H124  1  0.860800  0.395000  0.344800  1.0  0.0723
  H  H125  1  0.945000  0.378200  0.503400  1.0  0.0747
  H  H126  1  0.962000  0.318100  0.481400  1.0  0.0866
  H  H127  1  0.125800  0.371500  0.502600  1.0  0.0735
  H  H128  1  0.072600  0.402200  0.402800  1.0  0.0711
  H  H129  1  0.062700  0.325000  0.313800  1.0  0.1082
  H  H130  1  0.177700  0.341200  0.365800  1.0  0.1108
  H  H131  1  0.970400  0.203600  0.307200  1.0  0.1219
  H  H132  1  0.960200  0.162200  0.219400  1.0  0.1267
  H  H133  1  0.983100  0.221900  0.201000  1.0  0.1278
  H  H134  1  0.211200  0.232900  0.657600  1.0  0.1237
  H  H135  1  0.325400  0.221300  0.719600  1.0  0.1253
  H  H136  1  0.268700  0.181800  0.634600  1.0  0.1238
  C  C137  1  0.497800  0.349500  0.819000  1.0  0.2811
  C  C138  1  0.321300  0.386000  0.687000  1.0  -0.3491
  C  C139  1  0.275300  0.439300  0.659300  1.0  -0.1352
  C  C140  1  0.309300  0.468100  0.572100  1.0  -0.1121
  C  C141  1  0.268800  0.526200  0.553900  1.0  -0.0988
  C  C142  1  0.320800  0.555400  0.484500  1.0  -0.3733
  C  C143  1  0.467800  0.603600  0.635900  1.0  0.17
  C  C144  1  0.495600  0.418800  0.953000  1.0  -0.1979
  C  C145  1  0.517300  0.535700  0.775700  1.0  -0.1814
  C  C146  1  0.769300  0.265800  0.747000  1.0  0.2331
  C  C147  1  0.791300  0.168500  0.841000  1.0  -0.2974
  C  C148  1  0.878600  0.142300  0.855000  1.0  -0.1319
  C  C149  1  0.961200  0.146200  0.954500  1.0  -0.1471
  C  C150  1  0.076400  0.131900  0.937000  1.0  -0.1365
  C  C151  1  0.113000  0.171000  0.878700  1.0  -0.3467
  C  C152  1  0.268100  0.232000  0.990800  1.0  0.2786
  C  C153  1  0.946800  0.301800  0.735400  1.0  -0.2656
  C  C154  1  0.277100  0.281500  0.154300  1.0  -0.1969
  C  C155  1  0.502200  0.849500  0.681000  1.0  0.2809
  C  C156  1  0.678700  0.886000  0.813000  1.0  -0.3496
  C  C157  1  0.724700  0.939300  0.840700  1.0  -0.1339
  C  C158  1  0.690700  0.968100  0.927900  1.0  -0.113
  C  C159  1  0.731200  0.026200  0.946100  1.0  -0.0981
  C  C160  1  0.679200  0.055400  0.015500  1.0  -0.3743
  C  C161  1  0.532200  0.103600  0.864100  1.0  0.1691
  C  C162  1  0.504400  0.918800  0.547000  1.0  -0.1982
  C  C163  1  0.482700  0.035700  0.724300  1.0  -0.1823
  C  C164  1  0.230700  0.765800  0.753000  1.0  0.2328
  C  C165  1  0.208700  0.668500  0.659000  1.0  -0.2941
  C  C166  1  0.121400  0.642300  0.645000  1.0  -0.1337
  C  C167  1  0.038800  0.646200  0.545500  1.0  -0.1479
  C  C168  1  0.923600  0.631900  0.563000  1.0  -0.1355
  C  C169  1  0.887000  0.671000  0.621300  1.0  -0.3489
  C  C170  1  0.731900  0.732000  0.509200  1.0  0.2774
  C  C171  1  0.053200  0.801800  0.764600  1.0  -0.2639
  C  C172  1  0.722900  0.781500  0.345700  1.0  -0.1974
  C  C173  1  0.502200  0.650500  0.181000  1.0  0.2809
  C  C174  1  0.678700  0.614000  0.313000  1.0  -0.3489
  C  C175  1  0.724700  0.560700  0.340700  1.0  -0.1342
  C  C176  1  0.690700  0.531900  0.427900  1.0  -0.1124
  C  C177  1  0.731200  0.473800  0.446100  1.0  -0.0984
  C  C178  1  0.679200  0.444600  0.515500  1.0  -0.3744
  C  C179  1  0.532200  0.396400  0.364100  1.0  0.1681
  C  C180  1  0.504400  0.581200  0.047000  1.0  -0.1982
  C  C181  1  0.482700  0.464300  0.224300  1.0  -0.1828
  C  C182  1  0.230700  0.734200  0.253000  1.0  0.2332
  C  C183  1  0.208700  0.831500  0.159000  1.0  -0.2937
  C  C184  1  0.121400  0.857700  0.145000  1.0  -0.1334
  C  C185  1  0.038800  0.853800  0.045500  1.0  -0.1484
  C  C186  1  0.923600  0.868100  0.063000  1.0  -0.1356
  C  C187  1  0.887000  0.829000  0.121300  1.0  -0.3497
  C  C188  1  0.731900  0.768000  0.009200  1.0  0.2787
  C  C189  1  0.053200  0.698200  0.264600  1.0  -0.263
  C  C190  1  0.722900  0.718500  0.845700  1.0  -0.1973
  C  C191  1  0.497800  0.150500  0.319000  1.0  0.2809
  C  C192  1  0.321300  0.114000  0.187000  1.0  -0.3493
  C  C193  1  0.275300  0.060700  0.159300  1.0  -0.1359
  C  C194  1  0.309300  0.031900  0.072100  1.0  -0.1129
  C  C195  1  0.268800  0.973800  0.053900  1.0  -0.0991
  C  C196  1  0.320800  0.944600  0.984500  1.0  -0.3735
  C  C197  1  0.467800  0.896400  0.135900  1.0  0.1698
  C  C198  1  0.495600  0.081200  0.453000  1.0  -0.1977
  C  C199  1  0.517300  0.964300  0.275700  1.0  -0.1827
  C  C200  1  0.769300  0.234200  0.247000  1.0  0.2333
  C  C201  1  0.791300  0.331500  0.341000  1.0  -0.2958
  C  C202  1  0.878600  0.357700  0.355000  1.0  -0.132
  C  C203  1  0.961200  0.353800  0.454500  1.0  -0.1476
  C  C204  1  0.076400  0.368100  0.437000  1.0  -0.1365
  C  C205  1  0.113000  0.329000  0.378700  1.0  -0.3474
  C  C206  1  0.268100  0.268000  0.490800  1.0  0.2782
  C  C207  1  0.946800  0.198200  0.235400  1.0  -0.2646
  C  C208  1  0.277100  0.218500  0.654300  1.0  -0.1971
  S  S209  1  0.460900  0.388390  0.710800  1.0  -0.0282
  S  S210  1  0.461700  0.563450  0.531500  1.0  -0.0217
  S  S211  1  0.807600  0.240200  0.869800  1.0  -0.0171
  S  S212  1  0.134700  0.236000  0.942500  1.0  -0.0091
  S  S213  1  0.539100  0.888390  0.789200  1.0  -0.0285
  S  S214  1  0.538300  0.063450  0.968500  1.0  -0.0226
  S  S215  1  0.192400  0.740200  0.630200  1.0  -0.0184
  S  S216  1  0.865300  0.736000  0.557500  1.0  -0.0093
  S  S217  1  0.539100  0.611610  0.289200  1.0  -0.0289
  S  S218  1  0.538300  0.436550  0.468500  1.0  -0.0224
  S  S219  1  0.192400  0.759800  0.130200  1.0  -0.0146
  S  S220  1  0.865300  0.764000  0.057500  1.0  -0.0082
  S  S221  1  0.460900  0.111610  0.210800  1.0  -0.0283
  S  S222  1  0.461700  0.936550  0.031500  1.0  -0.021
  S  S223  1  0.807600  0.259800  0.369800  1.0  -0.0153
  S  S224  1  0.134700  0.264000  0.442500  1.0  -0.0087
  N  N225  1  0.523300  0.299300  0.823100  1.0  -0.2202
  N  N226  1  0.555400  0.285900  0.922700  1.0  -0.0835
  N  N227  1  0.549500  0.327500  0.979600  1.0  -0.3907
  N  N228  1  0.510600  0.367200  0.913300  1.0  0.1786
  N  N229  1  0.455200  0.655500  0.636500  1.0  -0.2404
  N  N230  1  0.472000  0.670600  0.734900  1.0  -0.0919
  N  N231  1  0.495400  0.629900  0.793600  1.0  -0.3175
  N  N232  1  0.495000  0.587700  0.732700  1.0  0.1643
  N  N233  1  0.674900  0.265300  0.685100  1.0  -0.3332
  N  N234  1  0.685600  0.290800  0.600600  1.0  -0.0677
  N  N235  1  0.778700  0.306900  0.608500  1.0  -0.3442
  N  N236  1  0.832500  0.291000  0.701600  1.0  0.1684
  N  N237  1  0.335700  0.211000  0.949300  1.0  -0.231
  N  N238  1  0.428800  0.216800  0.014500  1.0  -0.0613
  N  N239  1  0.418900  0.243700  0.094200  1.0  -0.2797
  N  N240  1  0.316400  0.252200  0.080400  1.0  0.1603
  N  N241  1  0.476700  0.799300  0.676900  1.0  -0.2212
  N  N242  1  0.444600  0.785900  0.577300  1.0  -0.0833
  N  N243  1  0.450500  0.827500  0.520400  1.0  -0.3883
  N  N244  1  0.489400  0.867200  0.586700  1.0  0.1781
  N  N245  1  0.544800  0.155500  0.863500  1.0  -0.2408
  N  N246  1  0.528000  0.170600  0.765100  1.0  -0.0909
  N  N247  1  0.504600  0.129900  0.706400  1.0  -0.3159
  N  N248  1  0.505000  0.087700  0.767300  1.0  0.1646
  N  N249  1  0.325100  0.765300  0.814900  1.0  -0.3301
  N  N250  1  0.314400  0.790800  0.899400  1.0  -0.068
  N  N251  1  0.221300  0.806900  0.891500  1.0  -0.347
  N  N252  1  0.167500  0.791000  0.798400  1.0  0.1669
  N  N253  1  0.664300  0.711000  0.550700  1.0  -0.2329
  N  N254  1  0.571200  0.716800  0.485500  1.0  -0.0605
  N  N255  1  0.581100  0.743700  0.405800  1.0  -0.2799
  N  N256  1  0.683600  0.752200  0.419600  1.0  0.1602
  N  N257  1  0.476700  0.700700  0.176900  1.0  -0.2207
  N  N258  1  0.444600  0.714100  0.077300  1.0  -0.0831
  N  N259  1  0.450500  0.672500  0.020400  1.0  -0.3877
  N  N260  1  0.489400  0.632800  0.086700  1.0  0.1788
  N  N261  1  0.544800  0.344500  0.363500  1.0  -0.2402
  N  N262  1  0.528000  0.329400  0.265100  1.0  -0.09
  N  N263  1  0.504600  0.370100  0.206400  1.0  -0.3165
  N  N264  1  0.505000  0.412300  0.267300  1.0  0.1645
  N  N265  1  0.325100  0.734700  0.314900  1.0  -0.3291
  N  N266  1  0.314400  0.709200  0.399400  1.0  -0.068
  N  N267  1  0.221300  0.693100  0.391500  1.0  -0.3475
  N  N268  1  0.167500  0.709000  0.298400  1.0  0.1677
  N  N269  1  0.664300  0.789000  0.050700  1.0  -0.2332
  N  N270  1  0.571200  0.783200  0.985500  1.0  -0.0612
  N  N271  1  0.581100  0.756300  0.905800  1.0  -0.2804
  N  N272  1  0.683600  0.747800  0.919600  1.0  0.1601
  N  N273  1  0.523300  0.200700  0.323100  1.0  -0.2195
  N  N274  1  0.555400  0.214100  0.422700  1.0  -0.083
  N  N275  1  0.549500  0.172500  0.479600  1.0  -0.3905
  N  N276  1  0.510600  0.132800  0.413300  1.0  0.1788
  N  N277  1  0.455200  0.844500  0.136500  1.0  -0.2401
  N  N278  1  0.472000  0.829400  0.234900  1.0  -0.0906
  N  N279  1  0.495400  0.870100  0.293600  1.0  -0.3174
  N  N280  1  0.495000  0.912300  0.232700  1.0  0.1645
  N  N281  1  0.674900  0.234700  0.185100  1.0  -0.3325
  N  N282  1  0.685600  0.209200  0.100600  1.0  -0.068
  N  N283  1  0.778700  0.193100  0.108500  1.0  -0.3445
  N  N284  1  0.832500  0.209000  0.201600  1.0  0.1684
  N  N285  1  0.335700  0.289000  0.449300  1.0  -0.2302
  N  N286  1  0.428800  0.283200  0.514500  1.0  -0.0616
  N  N287  1  0.418900  0.256300  0.594200  1.0  -0.28
  N  N288  1  0.316400  0.247800  0.580400  1.0  0.1595
