# generated using pymatgen
data_CoH14C17O6
_symmetry_space_group_name_H-M   'P 1'
_cell_length_a   10.53050000
_cell_length_b   13.84200000
_cell_length_c   14.13610000
_cell_angle_alpha   60.68590000
_cell_angle_beta   82.60520000
_cell_angle_gamma   74.75890000
_symmetry_Int_Tables_number   1
_chemical_formula_structural   CoH14C17O6
_chemical_formula_sum   'Co4 H56 C68 O24'
_cell_volume   1733.47831033
_cell_formula_units_Z   4
loop_
 _symmetry_equiv_pos_site_id
 _symmetry_equiv_pos_as_xyz
  1  'x, y, z'
loop_
 _atom_site_type_symbol
 _atom_site_label
 _atom_site_symmetry_multiplicity
 _atom_site_fract_x
 _atom_site_fract_y
 _atom_site_fract_z
 _atom_site_occupancy
 _atom_site_charge
  Co  Co1  1  0.250000  0.582830  0.834340  1.0  1.0392
  Co  Co2  1  0.750000  0.417170  0.165660  1.0  1.0423
  Co  Co3  1  0.500000  0.500000  0.000000  1.0  1.1418
  Co  Co4  1  0.000000  0.500000  0.000000  1.0  1.1418
  H  H5  1  0.265200  0.700100  0.140000  1.0  0.0979
  H  H6  1  0.150900  0.823400  0.206200  1.0  0.1283
  H  H7  1  0.701900  0.734200  0.753000  1.0  0.0906
  H  H8  1  0.420100  0.819300  0.544000  1.0  0.1022
  H  H9  1  0.831800  0.882800  0.041400  1.0  0.1146
  H  H10  1  0.944400  0.756900  0.979400  1.0  0.101
  H  H11  1  0.824400  0.843700  0.614200  1.0  0.1372
  H  H12  1  0.542200  0.928000  0.402000  1.0  0.1234
  H  H13  1  0.888400  0.094300  0.272600  1.0  0.1093
  H  H14  1  0.818900  0.122900  0.167400  1.0  0.0943
  H  H15  1  0.985100  0.907100  0.294000  1.0  0.0626
  H  H16  1  0.034600  0.003600  0.189200  1.0  0.0523
  H  H17  1  0.713700  0.964600  0.285400  1.0  0.0509
  H  H18  1  0.660500  0.076800  0.295400  1.0  0.0613
  H  H19  1  0.234800  0.159900  0.140000  1.0  0.0981
  H  H20  1  0.349100  0.970400  0.206200  1.0  0.1281
  H  H21  1  0.798100  0.512800  0.753000  1.0  0.0907
  H  H22  1  0.079900  0.636700  0.544000  1.0  0.1019
  H  H23  1  0.668200  0.075800  0.041400  1.0  0.1148
  H  H24  1  0.555600  0.263700  0.979400  1.0  0.1015
  H  H25  1  0.675600  0.542100  0.614200  1.0  0.1366
  H  H26  1  0.957800  0.670000  0.402000  1.0  0.123
  H  H27  1  0.611600  0.633100  0.272600  1.0  0.111
  H  H28  1  0.681100  0.709700  0.167400  1.0  0.095
  H  H29  1  0.514900  0.798900  0.294000  1.0  0.0603
  H  H30  1  0.465400  0.807200  0.189200  1.0  0.0645
  H  H31  1  0.786300  0.750000  0.285400  1.0  0.0517
  H  H32  1  0.839500  0.627800  0.295400  1.0  0.0595
  H  H33  1  0.734800  0.299900  0.860000  1.0  0.0979
  H  H34  1  0.849100  0.176600  0.793800  1.0  0.1282
  H  H35  1  0.298100  0.265800  0.247000  1.0  0.0911
  H  H36  1  0.579900  0.180700  0.456000  1.0  0.1029
  H  H37  1  0.168200  0.117200  0.958600  1.0  0.115
  H  H38  1  0.055600  0.243100  0.020600  1.0  0.1016
  H  H39  1  0.175600  0.156300  0.385800  1.0  0.1364
  H  H40  1  0.457800  0.072000  0.598000  1.0  0.1236
  H  H41  1  0.111600  0.905700  0.727400  1.0  0.1096
  H  H42  1  0.181100  0.877100  0.832600  1.0  0.0931
  H  H43  1  0.014900  0.092900  0.706000  1.0  0.0612
  H  H44  1  0.965400  0.996400  0.810800  1.0  0.0628
  H  H45  1  0.286300  0.035400  0.714600  1.0  0.0506
  H  H46  1  0.339500  0.923200  0.704600  1.0  0.0613
  H  H47  1  0.765200  0.840100  0.860000  1.0  0.0982
  H  H48  1  0.650900  0.029600  0.793800  1.0  0.1285
  H  H49  1  0.201900  0.487200  0.247000  1.0  0.0909
  H  H50  1  0.920100  0.363300  0.456000  1.0  0.1012
  H  H51  1  0.331800  0.924200  0.958600  1.0  0.1149
  H  H52  1  0.444400  0.736300  0.020600  1.0  0.1007
  H  H53  1  0.324400  0.457900  0.385800  1.0  0.137
  H  H54  1  0.042200  0.330000  0.598000  1.0  0.1232
  H  H55  1  0.388400  0.366900  0.727400  1.0  0.1059
  H  H56  1  0.318900  0.290300  0.832600  1.0  0.0953
  H  H57  1  0.485100  0.201100  0.706000  1.0  0.0604
  H  H58  1  0.534600  0.192800  0.810800  1.0  0.0588
  H  H59  1  0.213700  0.250000  0.714600  1.0  0.0525
  H  H60  1  0.160500  0.372200  0.704600  1.0  0.0596
  C  C61  1  0.118500  0.717840  0.051120  1.0  -0.2112
  C  C62  1  0.980200  0.866900  0.127200  1.0  0.3036
  C  C63  1  0.474100  0.688690  0.752820  1.0  0.7145
  C  C64  1  0.178000  0.737240  0.119720  1.0  0.0207
  C  C65  1  0.110200  0.811480  0.159440  1.0  -0.2664
  C  C66  1  0.695600  0.895630  0.492340  1.0  0.3057
  C  C67  1  0.548100  0.765130  0.662740  1.0  -0.2295
  C  C68  1  0.669900  0.773290  0.682420  1.0  0.0106
  C  C69  1  0.193100  0.645790  0.003020  1.0  0.7229
  C  C70  1  0.501900  0.823600  0.557800  1.0  0.0282
  C  C71  1  0.919200  0.846280  0.061040  1.0  -0.2353
  C  C72  1  0.986900  0.771380  0.023240  1.0  0.0126
  C  C73  1  0.743800  0.837930  0.599740  1.0  -0.2381
  C  C74  1  0.574900  0.888940  0.472320  1.0  -0.2777
  C  C75  1  0.851200  0.061940  0.238320  1.0  -0.2429
  C  C76  1  0.958400  0.972910  0.224180  1.0  0.1324
  C  C77  1  0.736800  0.015270  0.305860  1.0  0.1217
  C  C78  1  0.381500  0.231040  0.051120  1.0  -0.211
  C  C79  1  0.519800  0.005900  0.127200  1.0  0.3037
  C  C80  1  0.025900  0.558490  0.752820  1.0  0.7222
  C  C81  1  0.322000  0.143040  0.119720  1.0  0.0209
  C  C82  1  0.389800  0.029080  0.159440  1.0  -0.2681
  C  C83  1  0.804400  0.612030  0.492340  1.0  0.3053
  C  C84  1  0.951900  0.572130  0.662740  1.0  -0.2287
  C  C85  1  0.830100  0.544290  0.682420  1.0  0.0117
  C  C86  1  0.306900  0.351190  0.003020  1.0  0.7241
  C  C87  1  0.998100  0.618600  0.557800  1.0  0.0265
  C  C88  1  0.580800  0.092680  0.061040  1.0  -0.2365
  C  C89  1  0.513100  0.205380  0.023240  1.0  0.0105
  C  C90  1  0.756200  0.562330  0.599740  1.0  -0.2383
  C  C91  1  0.925100  0.638740  0.472320  1.0  -0.2769
  C  C92  1  0.648800  0.699740  0.238320  1.0  -0.2399
  C  C93  1  0.541600  0.802910  0.224180  1.0  0.1343
  C  C94  1  0.763200  0.678870  0.305860  1.0  0.1233
  C  C95  1  0.881500  0.282160  0.948880  1.0  -0.2111
  C  C96  1  0.019800  0.133100  0.872800  1.0  0.3041
  C  C97  1  0.525900  0.311310  0.247180  1.0  0.7142
  C  C98  1  0.822000  0.262760  0.880280  1.0  0.0179
  C  C99  1  0.889800  0.188520  0.840560  1.0  -0.2642
  C  C100  1  0.304400  0.104370  0.507660  1.0  0.3057
  C  C101  1  0.451900  0.234870  0.337260  1.0  -0.2284
  C  C102  1  0.330100  0.226710  0.317580  1.0  0.0117
  C  C103  1  0.806900  0.354210  0.996980  1.0  0.7233
  C  C104  1  0.498100  0.176400  0.442200  1.0  0.0281
  C  C105  1  0.080800  0.153720  0.938960  1.0  -0.2361
  C  C106  1  0.013100  0.228620  0.976760  1.0  0.0105
  C  C107  1  0.256200  0.162070  0.400260  1.0  -0.239
  C  C108  1  0.425100  0.111060  0.527680  1.0  -0.2775
  C  C109  1  0.148800  0.938060  0.761680  1.0  -0.2424
  C  C110  1  0.041600  0.027090  0.775820  1.0  0.1338
  C  C111  1  0.263200  0.984730  0.694140  1.0  0.1292
  C  C112  1  0.618500  0.768960  0.948880  1.0  -0.2114
  C  C113  1  0.480200  0.994100  0.872800  1.0  0.3038
  C  C114  1  0.974100  0.441510  0.247180  1.0  0.7202
  C  C115  1  0.678000  0.856960  0.880280  1.0  0.0212
  C  C116  1  0.610200  0.970920  0.840560  1.0  -0.2664
  C  C117  1  0.195600  0.387970  0.507660  1.0  0.3051
  C  C118  1  0.048100  0.427870  0.337260  1.0  -0.2294
  C  C119  1  0.169900  0.455710  0.317580  1.0  0.0106
  C  C120  1  0.693100  0.648810  0.996980  1.0  0.7246
  C  C121  1  0.001900  0.381400  0.442200  1.0  0.0271
  C  C122  1  0.419200  0.907320  0.938960  1.0  -0.236
  C  C123  1  0.486900  0.794620  0.976760  1.0  0.0114
  C  C124  1  0.243800  0.437670  0.400260  1.0  -0.2388
  C  C125  1  0.074900  0.361260  0.527680  1.0  -0.2783
  C  C126  1  0.351200  0.300260  0.761680  1.0  -0.2409
  C  C127  1  0.458400  0.197090  0.775820  1.0  0.1335
  C  C128  1  0.236800  0.321130  0.694140  1.0  0.1266
  O  O129  1  0.527300  0.624130  0.843540  1.0  -0.625
  O  O130  1  0.130100  0.629000  0.941880  1.0  -0.6887
  O  O131  1  0.314400  0.608270  0.018100  1.0  -0.6137
  O  O132  1  0.360100  0.691370  0.732060  1.0  -0.6136
  O  O133  1  0.904500  0.942250  0.158700  1.0  -0.2674
  O  O134  1  0.779000  0.954520  0.416360  1.0  -0.2908
  O  O135  1  0.972700  0.532330  0.843540  1.0  -0.624
  O  O136  1  0.369900  0.429120  0.941880  1.0  -0.6866
  O  O137  1  0.185600  0.373630  0.018100  1.0  -0.6144
  O  O138  1  0.139900  0.576570  0.732060  1.0  -0.6172
  O  O139  1  0.595500  0.899050  0.158700  1.0  -0.2686
  O  O140  1  0.721000  0.629120  0.416360  1.0  -0.2925
  O  O141  1  0.472700  0.375870  0.156460  1.0  -0.6251
  O  O142  1  0.869900  0.371000  0.058120  1.0  -0.688
  O  O143  1  0.685600  0.391730  0.981900  1.0  -0.6156
  O  O144  1  0.639900  0.308630  0.267940  1.0  -0.6166
  O  O145  1  0.095500  0.057750  0.841300  1.0  -0.2687
  O  O146  1  0.221000  0.045480  0.583640  1.0  -0.291
  O  O147  1  0.027300  0.467670  0.156460  1.0  -0.6233
  O  O148  1  0.630100  0.570880  0.058120  1.0  -0.6882
  O  O149  1  0.814400  0.626370  0.981900  1.0  -0.6126
  O  O150  1  0.860100  0.423430  0.267940  1.0  -0.616
  O  O151  1  0.404500  0.100950  0.841300  1.0  -0.2676
  O  O152  1  0.279000  0.370880  0.583640  1.0  -0.2922
