# generated using pymatgen
data_Eu2Co3H18C42(NO4)6
_symmetry_space_group_name_H-M   'P 1'
_cell_length_a   15.28060000
_cell_length_b   15.28060000
_cell_length_c   15.39300000
_cell_angle_alpha   90.00000000
_cell_angle_beta   90.00000000
_cell_angle_gamma   120.00000000
_symmetry_Int_Tables_number   1
_chemical_formula_structural   Eu2Co3H18C42(NO4)6
_chemical_formula_sum   'Eu4 Co6 H36 C84 N12 O48'
_cell_volume   3112.68172425
_cell_formula_units_Z   2
loop_
 _symmetry_equiv_pos_site_id
 _symmetry_equiv_pos_as_xyz
  1  'x, y, z'
loop_
 _atom_site_type_symbol
 _atom_site_label
 _atom_site_symmetry_multiplicity
 _atom_site_fract_x
 _atom_site_fract_y
 _atom_site_fract_z
 _atom_site_occupancy
 _atom_site_charge
  Eu  Eu1  1  0.666667  0.333333  0.750000  1.0  1.9736
  Eu  Eu2  1  0.333333  0.666667  0.750000  1.0  1.9736
  Eu  Eu3  1  0.333333  0.666667  0.250000  1.0  1.9736
  Eu  Eu4  1  0.666667  0.333333  0.250000  1.0  1.9736
  Co  Co5  1  0.500000  0.500000  0.000000  1.0  1.078
  Co  Co6  1  0.000000  0.500000  0.000000  1.0  1.078
  Co  Co7  1  0.500000  0.000000  0.000000  1.0  1.078
  Co  Co8  1  0.000000  0.500000  0.500000  1.0  1.078
  Co  Co9  1  0.500000  0.500000  0.500000  1.0  1.078
  Co  Co10  1  0.500000  0.000000  0.500000  1.0  1.078
  H  H11  1  0.766200  0.712300  0.845400  1.0  0.1259
  H  H12  1  0.946100  0.233800  0.845400  1.0  0.1245
  H  H13  1  0.287700  0.053900  0.845400  1.0  0.1238
  H  H14  1  0.233800  0.287700  0.845400  1.0  0.1246
  H  H15  1  0.053900  0.766200  0.845400  1.0  0.1257
  H  H16  1  0.712300  0.946100  0.845400  1.0  0.1249
  H  H17  1  0.053900  0.287700  0.654600  1.0  0.1244
  H  H18  1  0.712300  0.766200  0.654600  1.0  0.1254
  H  H19  1  0.233800  0.946100  0.654600  1.0  0.1236
  H  H20  1  0.946100  0.712300  0.654600  1.0  0.1248
  H  H21  1  0.287700  0.233800  0.654600  1.0  0.124
  H  H22  1  0.766200  0.053900  0.654600  1.0  0.1247
  H  H23  1  0.233800  0.287700  0.154600  1.0  0.1245
  H  H24  1  0.053900  0.766200  0.154600  1.0  0.1249
  H  H25  1  0.712300  0.946100  0.154600  1.0  0.1248
  H  H26  1  0.766200  0.712300  0.154600  1.0  0.1258
  H  H27  1  0.946100  0.233800  0.154600  1.0  0.124
  H  H28  1  0.287700  0.053900  0.154600  1.0  0.1235
  H  H29  1  0.946100  0.712300  0.345400  1.0  0.1249
  H  H30  1  0.287700  0.233800  0.345400  1.0  0.124
  H  H31  1  0.766200  0.053900  0.345400  1.0  0.1249
  H  H32  1  0.053900  0.287700  0.345400  1.0  0.1246
  H  H33  1  0.712300  0.766200  0.345400  1.0  0.1259
  H  H34  1  0.233800  0.946100  0.345400  1.0  0.1236
  H  H35  1  0.900400  0.800800  0.750000  1.0  0.0951
  H  H36  1  0.900400  0.099600  0.750000  1.0  0.0966
  H  H37  1  0.199200  0.099600  0.750000  1.0  0.0968
  H  H38  1  0.099600  0.199200  0.750000  1.0  0.0939
  H  H39  1  0.099600  0.900400  0.750000  1.0  0.0968
  H  H40  1  0.800800  0.900400  0.750000  1.0  0.0966
  H  H41  1  0.099600  0.199200  0.250000  1.0  0.0939
  H  H42  1  0.099600  0.900400  0.250000  1.0  0.0968
  H  H43  1  0.800800  0.900400  0.250000  1.0  0.0966
  H  H44  1  0.900400  0.800800  0.250000  1.0  0.0951
  H  H45  1  0.900400  0.099600  0.250000  1.0  0.0966
  H  H46  1  0.199200  0.099600  0.250000  1.0  0.0968
  C  C47  1  0.646100  0.509600  0.861500  1.0  0.6429
  C  C48  1  0.735100  0.574700  0.804000  1.0  0.1498
  C  C49  1  0.785300  0.678200  0.806600  1.0  -0.1079
  C  C50  1  0.863500  0.353900  0.861500  1.0  0.6433
  C  C51  1  0.839600  0.264900  0.804000  1.0  0.1479
  C  C52  1  0.892900  0.214700  0.806600  1.0  -0.1078
  C  C53  1  0.490400  0.136500  0.861500  1.0  0.6416
  C  C54  1  0.425300  0.160400  0.804000  1.0  0.1485
  C  C55  1  0.321800  0.107100  0.806600  1.0  -0.1073
  C  C56  1  0.353900  0.490400  0.861500  1.0  0.6426
  C  C57  1  0.264900  0.425300  0.804000  1.0  0.1478
  C  C58  1  0.214700  0.321800  0.806600  1.0  -0.1066
  C  C59  1  0.136500  0.646100  0.861500  1.0  0.6424
  C  C60  1  0.160400  0.735100  0.804000  1.0  0.1478
  C  C61  1  0.107100  0.785300  0.806600  1.0  -0.109
  C  C62  1  0.509600  0.863500  0.861500  1.0  0.6429
  C  C63  1  0.574700  0.839600  0.804000  1.0  0.149
  C  C64  1  0.678200  0.892900  0.806600  1.0  -0.1071
  C  C65  1  0.136500  0.490400  0.638500  1.0  0.6425
  C  C66  1  0.160400  0.425300  0.696000  1.0  0.1487
  C  C67  1  0.107100  0.321800  0.693400  1.0  -0.1076
  C  C68  1  0.509600  0.646100  0.638500  1.0  0.6432
  C  C69  1  0.574700  0.735100  0.696000  1.0  0.1477
  C  C70  1  0.678200  0.785300  0.693400  1.0  -0.108
  C  C71  1  0.353900  0.863500  0.638500  1.0  0.6427
  C  C72  1  0.264900  0.839600  0.696000  1.0  0.1491
  C  C73  1  0.214700  0.892900  0.693400  1.0  -0.1068
  C  C74  1  0.863500  0.509600  0.638500  1.0  0.6422
  C  C75  1  0.839600  0.574700  0.696000  1.0  0.148
  C  C76  1  0.892900  0.678200  0.693400  1.0  -0.109
  C  C77  1  0.490400  0.353900  0.638500  1.0  0.6425
  C  C78  1  0.425300  0.264900  0.696000  1.0  0.1503
  C  C79  1  0.321800  0.214700  0.693400  1.0  -0.1073
  C  C80  1  0.646100  0.136500  0.638500  1.0  0.6439
  C  C81  1  0.735100  0.160400  0.696000  1.0  0.1502
  C  C82  1  0.785300  0.107100  0.693400  1.0  -0.1082
  C  C83  1  0.353900  0.490400  0.138500  1.0  0.643
  C  C84  1  0.264900  0.425300  0.196000  1.0  0.1481
  C  C85  1  0.214700  0.321800  0.193400  1.0  -0.1064
  C  C86  1  0.136500  0.646100  0.138500  1.0  0.6422
  C  C87  1  0.160400  0.735100  0.196000  1.0  0.1479
  C  C88  1  0.107100  0.785300  0.193400  1.0  -0.1078
  C  C89  1  0.509600  0.863500  0.138500  1.0  0.6436
  C  C90  1  0.574700  0.839600  0.196000  1.0  0.1501
  C  C91  1  0.678200  0.892900  0.193400  1.0  -0.1073
  C  C92  1  0.646100  0.509600  0.138500  1.0  0.643
  C  C93  1  0.735100  0.574700  0.196000  1.0  0.1493
  C  C94  1  0.785300  0.678200  0.193400  1.0  -0.1071
  C  C95  1  0.863500  0.353900  0.138500  1.0  0.6438
  C  C96  1  0.839600  0.264900  0.196000  1.0  0.1491
  C  C97  1  0.892900  0.214700  0.193400  1.0  -0.108
  C  C98  1  0.490400  0.136500  0.138500  1.0  0.6418
  C  C99  1  0.425300  0.160400  0.196000  1.0  0.1492
  C  C100  1  0.321800  0.107100  0.193400  1.0  -0.1065
  C  C101  1  0.863500  0.509600  0.361500  1.0  0.6424
  C  C102  1  0.839600  0.574700  0.304000  1.0  0.1484
  C  C103  1  0.892900  0.678200  0.306600  1.0  -0.1093
  C  C104  1  0.490400  0.353900  0.361500  1.0  0.6419
  C  C105  1  0.425300  0.264900  0.304000  1.0  0.148
  C  C106  1  0.321800  0.214700  0.306600  1.0  -0.1082
  C  C107  1  0.646100  0.136500  0.361500  1.0  0.6432
  C  C108  1  0.735100  0.160400  0.304000  1.0  0.1489
  C  C109  1  0.785300  0.107100  0.306600  1.0  -0.1086
  C  C110  1  0.136500  0.490400  0.361500  1.0  0.6419
  C  C111  1  0.160400  0.425300  0.304000  1.0  0.1484
  C  C112  1  0.107100  0.321800  0.306600  1.0  -0.1083
  C  C113  1  0.509600  0.646100  0.361500  1.0  0.6432
  C  C114  1  0.574700  0.735100  0.304000  1.0  0.1483
  C  C115  1  0.678200  0.785300  0.306600  1.0  -0.1081
  C  C116  1  0.353900  0.863500  0.361500  1.0  0.6426
  C  C117  1  0.264900  0.839600  0.304000  1.0  0.1484
  C  C118  1  0.214700  0.892900  0.306600  1.0  -0.107
  C  C119  1  0.865200  0.730400  0.750000  1.0  -0.0151
  C  C120  1  0.865200  0.134800  0.750000  1.0  -0.0164
  C  C121  1  0.269600  0.134800  0.750000  1.0  -0.0152
  C  C122  1  0.134800  0.269600  0.750000  1.0  -0.0152
  C  C123  1  0.134800  0.865200  0.750000  1.0  -0.0199
  C  C124  1  0.730400  0.865200  0.750000  1.0  -0.0173
  C  C125  1  0.134800  0.269600  0.250000  1.0  -0.0143
  C  C126  1  0.134800  0.865200  0.250000  1.0  -0.0173
  C  C127  1  0.730400  0.865200  0.250000  1.0  -0.0179
  C  C128  1  0.865200  0.730400  0.250000  1.0  -0.0131
  C  C129  1  0.865200  0.134800  0.250000  1.0  -0.0264
  C  C130  1  0.269600  0.134800  0.250000  1.0  -0.0173
  N  N131  1  0.761680  0.523360  0.750000  1.0  -0.4008
  N  N132  1  0.761680  0.238320  0.750000  1.0  -0.401
  N  N133  1  0.476640  0.238320  0.750000  1.0  -0.4012
  N  N134  1  0.238320  0.476640  0.750000  1.0  -0.4018
  N  N135  1  0.238320  0.761680  0.750000  1.0  -0.401
  N  N136  1  0.523360  0.761680  0.750000  1.0  -0.4011
  N  N137  1  0.238320  0.476640  0.250000  1.0  -0.4018
  N  N138  1  0.238320  0.761680  0.250000  1.0  -0.401
  N  N139  1  0.523360  0.761680  0.250000  1.0  -0.4011
  N  N140  1  0.761680  0.523360  0.250000  1.0  -0.4008
  N  N141  1  0.761680  0.238320  0.250000  1.0  -0.401
  N  N142  1  0.476640  0.238320  0.250000  1.0  -0.4012
  O  O143  1  0.611800  0.414200  0.857350  1.0  -0.6527
  O  O144  1  0.613300  0.553300  0.907200  1.0  -0.591
  O  O145  1  0.802400  0.388200  0.857350  1.0  -0.655
  O  O146  1  0.940000  0.386700  0.907200  1.0  -0.5917
  O  O147  1  0.585800  0.197600  0.857350  1.0  -0.6563
  O  O148  1  0.446700  0.060000  0.907200  1.0  -0.5905
  O  O149  1  0.388200  0.585800  0.857350  1.0  -0.6534
  O  O150  1  0.386700  0.446700  0.907200  1.0  -0.5912
  O  O151  1  0.197600  0.611800  0.857350  1.0  -0.6554
  O  O152  1  0.060000  0.613300  0.907200  1.0  -0.5918
  O  O153  1  0.414200  0.802400  0.857350  1.0  -0.6542
  O  O154  1  0.553300  0.940000  0.907200  1.0  -0.5907
  O  O155  1  0.197600  0.585800  0.642650  1.0  -0.6527
  O  O156  1  0.060000  0.446700  0.592800  1.0  -0.5912
  O  O157  1  0.414200  0.611800  0.642650  1.0  -0.6544
  O  O158  1  0.553300  0.613300  0.592800  1.0  -0.5926
  O  O159  1  0.388200  0.802400  0.642650  1.0  -0.6554
  O  O160  1  0.386700  0.940000  0.592800  1.0  -0.5907
  O  O161  1  0.802400  0.414200  0.642650  1.0  -0.6528
  O  O162  1  0.940000  0.553300  0.592800  1.0  -0.5911
  O  O163  1  0.585800  0.388200  0.642650  1.0  -0.6554
  O  O164  1  0.446700  0.386700  0.592800  1.0  -0.5918
  O  O165  1  0.611800  0.197600  0.642650  1.0  -0.6542
  O  O166  1  0.613300  0.060000  0.592800  1.0  -0.5908
  O  O167  1  0.388200  0.585800  0.142650  1.0  -0.6531
  O  O168  1  0.386700  0.446700  0.092800  1.0  -0.5919
  O  O169  1  0.197600  0.611800  0.142650  1.0  -0.6554
  O  O170  1  0.060000  0.613300  0.092800  1.0  -0.5927
  O  O171  1  0.414200  0.802400  0.142650  1.0  -0.654
  O  O172  1  0.553300  0.940000  0.092800  1.0  -0.5906
  O  O173  1  0.611800  0.414200  0.142650  1.0  -0.6523
  O  O174  1  0.613300  0.553300  0.092800  1.0  -0.5912
  O  O175  1  0.802400  0.388200  0.142650  1.0  -0.6546
  O  O176  1  0.940000  0.386700  0.092800  1.0  -0.5928
  O  O177  1  0.585800  0.197600  0.142650  1.0  -0.6557
  O  O178  1  0.446700  0.060000  0.092800  1.0  -0.5907
  O  O179  1  0.802400  0.414200  0.357350  1.0  -0.6531
  O  O180  1  0.940000  0.553300  0.407200  1.0  -0.5913
  O  O181  1  0.585800  0.388200  0.357350  1.0  -0.6555
  O  O182  1  0.446700  0.386700  0.407200  1.0  -0.592
  O  O183  1  0.611800  0.197600  0.357350  1.0  -0.6547
  O  O184  1  0.613300  0.060000  0.407200  1.0  -0.5903
  O  O185  1  0.197600  0.585800  0.357350  1.0  -0.6533
  O  O186  1  0.060000  0.446700  0.407200  1.0  -0.5901
  O  O187  1  0.414200  0.611800  0.357350  1.0  -0.6544
  O  O188  1  0.553300  0.613300  0.407200  1.0  -0.5928
  O  O189  1  0.388200  0.802400  0.357350  1.0  -0.6555
  O  O190  1  0.386700  0.940000  0.407200  1.0  -0.5907
