# generated using pymatgen
data_Dy2Co3H18C42(NO4)6
_symmetry_space_group_name_H-M   'P 1'
_cell_length_a   15.21960000
_cell_length_b   15.21960000
_cell_length_c   15.47370000
_cell_angle_alpha   90.00000000
_cell_angle_beta   90.00000000
_cell_angle_gamma   120.00000000
_symmetry_Int_Tables_number   1
_chemical_formula_structural   Dy2Co3H18C42(NO4)6
_chemical_formula_sum   'Dy4 Co6 H36 C84 N12 O48'
_cell_volume   3104.06839059
_cell_formula_units_Z   2
loop_
 _symmetry_equiv_pos_site_id
 _symmetry_equiv_pos_as_xyz
  1  'x, y, z'
loop_
 _atom_site_type_symbol
 _atom_site_label
 _atom_site_symmetry_multiplicity
 _atom_site_fract_x
 _atom_site_fract_y
 _atom_site_fract_z
 _atom_site_occupancy
 _atom_site_charge
  Dy  Dy1  1  0.666667  0.333333  0.750000  1.0  2.1241
  Dy  Dy2  1  0.333333  0.666667  0.750000  1.0  2.1241
  Dy  Dy3  1  0.333333  0.666667  0.250000  1.0  2.1241
  Dy  Dy4  1  0.666667  0.333333  0.250000  1.0  2.1241
  Co  Co5  1  0.500000  0.000000  0.500000  1.0  1.0585
  Co  Co6  1  0.500000  0.500000  0.500000  1.0  1.0585
  Co  Co7  1  0.000000  0.500000  0.500000  1.0  1.0585
  Co  Co8  1  0.500000  0.000000  0.000000  1.0  1.0585
  Co  Co9  1  0.000000  0.500000  0.000000  1.0  1.0585
  Co  Co10  1  0.500000  0.500000  0.000000  1.0  1.0585
  H  H11  1  0.766100  0.054500  0.655100  1.0  0.1123
  H  H12  1  0.288400  0.233900  0.655100  1.0  0.1114
  H  H13  1  0.945500  0.711600  0.655100  1.0  0.1123
  H  H14  1  0.233900  0.945500  0.655100  1.0  0.111
  H  H15  1  0.711600  0.766100  0.655100  1.0  0.1131
  H  H16  1  0.054500  0.288400  0.655100  1.0  0.1119
  H  H17  1  0.711600  0.945500  0.844900  1.0  0.1122
  H  H18  1  0.054500  0.766100  0.844900  1.0  0.1134
  H  H19  1  0.233900  0.288400  0.844900  1.0  0.1117
  H  H20  1  0.288400  0.054500  0.844900  1.0  0.1109
  H  H21  1  0.945500  0.233900  0.844900  1.0  0.1118
  H  H22  1  0.766100  0.711600  0.844900  1.0  0.1132
  H  H23  1  0.233900  0.945500  0.344900  1.0  0.1109
  H  H24  1  0.711600  0.766100  0.344900  1.0  0.1132
  H  H25  1  0.054500  0.288400  0.344900  1.0  0.112
  H  H26  1  0.766100  0.054500  0.344900  1.0  0.1123
  H  H27  1  0.288400  0.233900  0.344900  1.0  0.1114
  H  H28  1  0.945500  0.711600  0.344900  1.0  0.1121
  H  H29  1  0.288400  0.054500  0.155100  1.0  0.1108
  H  H30  1  0.945500  0.233900  0.155100  1.0  0.1115
  H  H31  1  0.766100  0.711600  0.155100  1.0  0.1133
  H  H32  1  0.711600  0.945500  0.155100  1.0  0.1124
  H  H33  1  0.054500  0.766100  0.155100  1.0  0.1125
  H  H34  1  0.233900  0.288400  0.155100  1.0  0.1117
  H  H35  1  0.900500  0.099500  0.750000  1.0  0.0923
  H  H36  1  0.199000  0.099500  0.750000  1.0  0.092
  H  H37  1  0.900500  0.801000  0.750000  1.0  0.09
  H  H38  1  0.099500  0.900500  0.750000  1.0  0.0921
  H  H39  1  0.801000  0.900500  0.750000  1.0  0.0923
  H  H40  1  0.099500  0.199000  0.750000  1.0  0.0889
  H  H41  1  0.099500  0.900500  0.250000  1.0  0.0921
  H  H42  1  0.801000  0.900500  0.250000  1.0  0.0923
  H  H43  1  0.099500  0.199000  0.250000  1.0  0.0889
  H  H44  1  0.900500  0.099500  0.250000  1.0  0.0923
  H  H45  1  0.199000  0.099500  0.250000  1.0  0.092
  H  H46  1  0.900500  0.801000  0.250000  1.0  0.09
  C  C47  1  0.645300  0.138000  0.639200  1.0  0.6422
  C  C48  1  0.733900  0.161300  0.696400  1.0  0.1366
  C  C49  1  0.785200  0.107800  0.693800  1.0  -0.1016
  C  C50  1  0.492700  0.354700  0.639200  1.0  0.6408
  C  C51  1  0.427400  0.266100  0.696400  1.0  0.1367
  C  C52  1  0.322600  0.214800  0.693800  1.0  -0.0961
  C  C53  1  0.862000  0.507300  0.639200  1.0  0.6412
  C  C54  1  0.838700  0.572600  0.696400  1.0  0.1352
  C  C55  1  0.892200  0.677400  0.693800  1.0  -0.1016
  C  C56  1  0.354700  0.862000  0.639200  1.0  0.6406
  C  C57  1  0.266100  0.838700  0.696400  1.0  0.1363
  C  C58  1  0.214800  0.892200  0.693800  1.0  -0.0957
  C  C59  1  0.507300  0.645300  0.639200  1.0  0.6421
  C  C60  1  0.572600  0.733900  0.696400  1.0  0.135
  C  C61  1  0.677400  0.785200  0.693800  1.0  -0.1012
  C  C62  1  0.138000  0.492700  0.639200  1.0  0.6401
  C  C63  1  0.161300  0.427400  0.696400  1.0  0.1361
  C  C64  1  0.107800  0.322600  0.693800  1.0  -0.096
  C  C65  1  0.507300  0.862000  0.860800  1.0  0.6419
  C  C66  1  0.572600  0.838700  0.803600  1.0  0.136
  C  C67  1  0.677400  0.892200  0.806200  1.0  -0.1024
  C  C68  1  0.138000  0.645300  0.860800  1.0  0.6404
  C  C69  1  0.161300  0.733900  0.803600  1.0  0.1351
  C  C70  1  0.107800  0.785200  0.806200  1.0  -0.0969
  C  C71  1  0.354700  0.492700  0.860800  1.0  0.6412
  C  C72  1  0.266100  0.427400  0.803600  1.0  0.1352
  C  C73  1  0.214800  0.322600  0.806200  1.0  -0.0977
  C  C74  1  0.492700  0.138000  0.860800  1.0  0.6399
  C  C75  1  0.427400  0.161300  0.803600  1.0  0.1361
  C  C76  1  0.322600  0.107800  0.806200  1.0  -0.0987
  C  C77  1  0.862000  0.354700  0.860800  1.0  0.6416
  C  C78  1  0.838700  0.266100  0.803600  1.0  0.1355
  C  C79  1  0.892200  0.214800  0.806200  1.0  -0.0994
  C  C80  1  0.645300  0.507300  0.860800  1.0  0.641
  C  C81  1  0.733900  0.572600  0.803600  1.0  0.1362
  C  C82  1  0.785200  0.677400  0.806200  1.0  -0.1022
  C  C83  1  0.354700  0.862000  0.360800  1.0  0.6406
  C  C84  1  0.266100  0.838700  0.303600  1.0  0.1359
  C  C85  1  0.214800  0.892200  0.306200  1.0  -0.0974
  C  C86  1  0.507300  0.645300  0.360800  1.0  0.642
  C  C87  1  0.572600  0.733900  0.303600  1.0  0.1359
  C  C88  1  0.677400  0.785200  0.306200  1.0  -0.1018
  C  C89  1  0.138000  0.492700  0.360800  1.0  0.6394
  C  C90  1  0.161300  0.427400  0.303600  1.0  0.1356
  C  C91  1  0.107800  0.322600  0.306200  1.0  -0.0974
  C  C92  1  0.645300  0.138000  0.360800  1.0  0.6419
  C  C93  1  0.733900  0.161300  0.303600  1.0  0.1361
  C  C94  1  0.785200  0.107800  0.306200  1.0  -0.1028
  C  C95  1  0.492700  0.354700  0.360800  1.0  0.6402
  C  C96  1  0.427400  0.266100  0.303600  1.0  0.1352
  C  C97  1  0.322600  0.214800  0.306200  1.0  -0.0973
  C  C98  1  0.862000  0.507300  0.360800  1.0  0.6415
  C  C99  1  0.838700  0.572600  0.303600  1.0  0.1354
  C  C100  1  0.892200  0.677400  0.306200  1.0  -0.1021
  C  C101  1  0.492700  0.138000  0.139200  1.0  0.6397
  C  C102  1  0.427400  0.161300  0.196400  1.0  0.1364
  C  C103  1  0.322600  0.107800  0.193800  1.0  -0.0967
  C  C104  1  0.862000  0.354700  0.139200  1.0  0.6422
  C  C105  1  0.838700  0.266100  0.196400  1.0  0.1368
  C  C106  1  0.892200  0.214800  0.193800  1.0  -0.0997
  C  C107  1  0.645300  0.507300  0.139200  1.0  0.6411
  C  C108  1  0.733900  0.572600  0.196400  1.0  0.1359
  C  C109  1  0.785200  0.677400  0.193800  1.0  -0.1009
  C  C110  1  0.507300  0.862000  0.139200  1.0  0.6425
  C  C111  1  0.572600  0.838700  0.196400  1.0  0.1366
  C  C112  1  0.677400  0.892200  0.193800  1.0  -0.102
  C  C113  1  0.138000  0.645300  0.139200  1.0  0.6402
  C  C114  1  0.161300  0.733900  0.196400  1.0  0.135
  C  C115  1  0.107800  0.785200  0.193800  1.0  -0.0952
  C  C116  1  0.354700  0.492700  0.139200  1.0  0.6415
  C  C117  1  0.266100  0.427400  0.196400  1.0  0.1356
  C  C118  1  0.214800  0.322600  0.193800  1.0  -0.0973
  C  C119  1  0.865250  0.134750  0.750000  1.0  -0.0347
  C  C120  1  0.269500  0.134750  0.750000  1.0  -0.0325
  C  C121  1  0.865250  0.730500  0.750000  1.0  -0.0321
  C  C122  1  0.134750  0.865250  0.750000  1.0  -0.0358
  C  C123  1  0.730500  0.865250  0.750000  1.0  -0.0354
  C  C124  1  0.134750  0.269500  0.750000  1.0  -0.0325
  C  C125  1  0.134750  0.865250  0.250000  1.0  -0.0336
  C  C126  1  0.730500  0.865250  0.250000  1.0  -0.036
  C  C127  1  0.134750  0.269500  0.250000  1.0  -0.0316
  C  C128  1  0.865250  0.134750  0.250000  1.0  -0.0398
  C  C129  1  0.269500  0.134750  0.250000  1.0  -0.0342
  C  C130  1  0.865250  0.730500  0.250000  1.0  -0.0306
  N  N131  1  0.760600  0.239400  0.750000  1.0  -0.3682
  N  N132  1  0.478800  0.239400  0.750000  1.0  -0.3684
  N  N133  1  0.760600  0.521200  0.750000  1.0  -0.3689
  N  N134  1  0.239400  0.760600  0.750000  1.0  -0.3678
  N  N135  1  0.521200  0.760600  0.750000  1.0  -0.3679
  N  N136  1  0.239400  0.478800  0.750000  1.0  -0.3708
  N  N137  1  0.239400  0.760600  0.250000  1.0  -0.3678
  N  N138  1  0.521200  0.760600  0.250000  1.0  -0.3679
  N  N139  1  0.239400  0.478800  0.250000  1.0  -0.3708
  N  N140  1  0.760600  0.239400  0.250000  1.0  -0.3682
  N  N141  1  0.478800  0.239400  0.250000  1.0  -0.3684
  N  N142  1  0.760600  0.521200  0.250000  1.0  -0.3689
  O  O143  1  0.612900  0.061600  0.592500  1.0  -0.6033
  O  O144  1  0.611200  0.199000  0.643380  1.0  -0.6485
  O  O145  1  0.448700  0.387100  0.592500  1.0  -0.6044
  O  O146  1  0.587800  0.388800  0.643380  1.0  -0.6503
  O  O147  1  0.938400  0.551300  0.592500  1.0  -0.6037
  O  O148  1  0.801000  0.412200  0.643380  1.0  -0.6477
  O  O149  1  0.387100  0.938400  0.592500  1.0  -0.6033
  O  O150  1  0.388800  0.801000  0.643380  1.0  -0.6502
  O  O151  1  0.551300  0.612900  0.592500  1.0  -0.6052
  O  O152  1  0.412200  0.611200  0.643380  1.0  -0.6486
  O  O153  1  0.061600  0.448700  0.592500  1.0  -0.6036
  O  O154  1  0.199000  0.587800  0.643380  1.0  -0.6483
  O  O155  1  0.551300  0.938400  0.907500  1.0  -0.603
  O  O156  1  0.412200  0.801000  0.856620  1.0  -0.649
  O  O157  1  0.061600  0.612900  0.907500  1.0  -0.6039
  O  O158  1  0.199000  0.611200  0.856620  1.0  -0.6497
  O  O159  1  0.387100  0.448700  0.907500  1.0  -0.6031
  O  O160  1  0.388800  0.587800  0.856620  1.0  -0.6484
  O  O161  1  0.448700  0.061600  0.907500  1.0  -0.603
  O  O162  1  0.587800  0.199000  0.856620  1.0  -0.6514
  O  O163  1  0.938400  0.387100  0.907500  1.0  -0.604
  O  O164  1  0.801000  0.388800  0.856620  1.0  -0.6491
  O  O165  1  0.612900  0.551300  0.907500  1.0  -0.6029
  O  O166  1  0.611200  0.412200  0.856620  1.0  -0.6477
  O  O167  1  0.387100  0.938400  0.407500  1.0  -0.6029
  O  O168  1  0.388800  0.801000  0.356620  1.0  -0.6503
  O  O169  1  0.551300  0.612900  0.407500  1.0  -0.6048
  O  O170  1  0.412200  0.611200  0.356620  1.0  -0.6483
  O  O171  1  0.061600  0.448700  0.407500  1.0  -0.6028
  O  O172  1  0.199000  0.587800  0.356620  1.0  -0.6485
  O  O173  1  0.612900  0.061600  0.407500  1.0  -0.6029
  O  O174  1  0.611200  0.199000  0.356620  1.0  -0.6488
  O  O175  1  0.448700  0.387100  0.407500  1.0  -0.6039
  O  O176  1  0.587800  0.388800  0.356620  1.0  -0.65
  O  O177  1  0.938400  0.551300  0.407500  1.0  -0.6027
  O  O178  1  0.801000  0.412200  0.356620  1.0  -0.6476
  O  O179  1  0.448700  0.061600  0.092500  1.0  -0.6034
  O  O180  1  0.587800  0.199000  0.143380  1.0  -0.651
  O  O181  1  0.938400  0.387100  0.092500  1.0  -0.6049
  O  O182  1  0.801000  0.388800  0.143380  1.0  -0.649
  O  O183  1  0.612900  0.551300  0.092500  1.0  -0.6036
  O  O184  1  0.611200  0.412200  0.143380  1.0  -0.6478
  O  O185  1  0.551300  0.938400  0.092500  1.0  -0.6032
  O  O186  1  0.412200  0.801000  0.143380  1.0  -0.6489
  O  O187  1  0.061600  0.612900  0.092500  1.0  -0.605
  O  O188  1  0.199000  0.611200  0.143380  1.0  -0.6505
  O  O189  1  0.387100  0.448700  0.092500  1.0  -0.6036
  O  O190  1  0.388800  0.587800  0.143380  1.0  -0.6483
