# generated using pymatgen
data_Tb2Co3H18C42(NO4)6
_symmetry_space_group_name_H-M   'P 1'
_cell_length_a   15.28800000
_cell_length_b   15.28800000
_cell_length_c   15.57100000
_cell_angle_alpha   90.00000000
_cell_angle_beta   90.00000000
_cell_angle_gamma   120.00000000
_symmetry_Int_Tables_number   1
_chemical_formula_structural   Tb2Co3H18C42(NO4)6
_chemical_formula_sum   'Tb4 Co6 H36 C84 N12 O48'
_cell_volume   3151.72621824
_cell_formula_units_Z   2
loop_
 _symmetry_equiv_pos_site_id
 _symmetry_equiv_pos_as_xyz
  1  'x, y, z'
loop_
 _atom_site_type_symbol
 _atom_site_label
 _atom_site_symmetry_multiplicity
 _atom_site_fract_x
 _atom_site_fract_y
 _atom_site_fract_z
 _atom_site_occupancy
 _atom_site_charge
  Tb  Tb1  1  0.333333  0.666667  0.750000  1.0  2.1036
  Tb  Tb2  1  0.666667  0.333333  0.750000  1.0  2.1036
  Tb  Tb3  1  0.666667  0.333333  0.250000  1.0  2.1036
  Tb  Tb4  1  0.333333  0.666667  0.250000  1.0  2.1036
  Co  Co5  1  0.500000  0.500000  0.500000  1.0  1.0604
  Co  Co6  1  0.000000  0.500000  0.500000  1.0  1.0604
  Co  Co7  1  0.500000  0.000000  0.500000  1.0  1.0604
  Co  Co8  1  0.000000  0.500000  0.000000  1.0  1.0604
  Co  Co9  1  0.500000  0.500000  0.000000  1.0  1.0604
  Co  Co10  1  0.500000  0.000000  0.000000  1.0  1.0604
  H  H11  1  0.232800  0.287000  0.654900  1.0  0.1138
  H  H12  1  0.054200  0.767200  0.654900  1.0  0.1137
  H  H13  1  0.713000  0.945800  0.654900  1.0  0.113
  H  H14  1  0.767200  0.713000  0.654900  1.0  0.1137
  H  H15  1  0.945800  0.232800  0.654900  1.0  0.1132
  H  H16  1  0.287000  0.054200  0.654900  1.0  0.1129
  H  H17  1  0.945800  0.713000  0.845100  1.0  0.114
  H  H18  1  0.287000  0.232800  0.845100  1.0  0.1137
  H  H19  1  0.767200  0.054200  0.845100  1.0  0.1129
  H  H20  1  0.054200  0.287000  0.845100  1.0  0.114
  H  H21  1  0.713000  0.767200  0.845100  1.0  0.114
  H  H22  1  0.232800  0.945800  0.845100  1.0  0.1134
  H  H23  1  0.767200  0.713000  0.345100  1.0  0.1141
  H  H24  1  0.945800  0.232800  0.345100  1.0  0.1139
  H  H25  1  0.287000  0.054200  0.345100  1.0  0.1137
  H  H26  1  0.232800  0.287000  0.345100  1.0  0.1142
  H  H27  1  0.054200  0.767200  0.345100  1.0  0.1139
  H  H28  1  0.713000  0.945800  0.345100  1.0  0.1128
  H  H29  1  0.054200  0.287000  0.154900  1.0  0.1135
  H  H30  1  0.713000  0.767200  0.154900  1.0  0.1133
  H  H31  1  0.232800  0.945800  0.154900  1.0  0.1131
  H  H32  1  0.945800  0.713000  0.154900  1.0  0.1139
  H  H33  1  0.287000  0.232800  0.154900  1.0  0.1137
  H  H34  1  0.767200  0.054200  0.154900  1.0  0.1127
  H  H35  1  0.099350  0.198700  0.750000  1.0  0.0788
  H  H36  1  0.099350  0.900650  0.750000  1.0  0.0824
  H  H37  1  0.801300  0.900650  0.750000  1.0  0.0824
  H  H38  1  0.900650  0.801300  0.750000  1.0  0.0799
  H  H39  1  0.900650  0.099350  0.750000  1.0  0.0825
  H  H40  1  0.198700  0.099350  0.750000  1.0  0.0824
  H  H41  1  0.900650  0.801300  0.250000  1.0  0.0799
  H  H42  1  0.900650  0.099350  0.250000  1.0  0.0825
  H  H43  1  0.198700  0.099350  0.250000  1.0  0.0824
  H  H44  1  0.099350  0.198700  0.250000  1.0  0.0788
  H  H45  1  0.099350  0.900650  0.250000  1.0  0.0824
  H  H46  1  0.801300  0.900650  0.250000  1.0  0.0824
  C  C47  1  0.354100  0.491200  0.638700  1.0  0.6502
  C  C48  1  0.265100  0.426100  0.696200  1.0  0.1409
  C  C49  1  0.214000  0.321100  0.693500  1.0  -0.1084
  C  C50  1  0.137100  0.645900  0.638700  1.0  0.6506
  C  C51  1  0.161000  0.734900  0.696200  1.0  0.1403
  C  C52  1  0.107100  0.786000  0.693500  1.0  -0.1085
  C  C53  1  0.508800  0.862900  0.638700  1.0  0.6512
  C  C54  1  0.573900  0.839000  0.696200  1.0  0.1418
  C  C55  1  0.678900  0.892900  0.693500  1.0  -0.1093
  C  C56  1  0.645900  0.508800  0.638700  1.0  0.6502
  C  C57  1  0.734900  0.573900  0.696200  1.0  0.1407
  C  C58  1  0.786000  0.678900  0.693500  1.0  -0.1077
  C  C59  1  0.862900  0.354100  0.638700  1.0  0.6512
  C  C60  1  0.839000  0.265100  0.696200  1.0  0.1414
  C  C61  1  0.892900  0.214000  0.693500  1.0  -0.1102
  C  C62  1  0.491200  0.137100  0.638700  1.0  0.6503
  C  C63  1  0.426100  0.161000  0.696200  1.0  0.1417
  C  C64  1  0.321100  0.107100  0.693500  1.0  -0.1086
  C  C65  1  0.862900  0.508800  0.861300  1.0  0.6499
  C  C66  1  0.839000  0.573900  0.803800  1.0  0.1403
  C  C67  1  0.892900  0.678900  0.806500  1.0  -0.1112
  C  C68  1  0.491200  0.354100  0.861300  1.0  0.6502
  C  C69  1  0.426100  0.265100  0.803800  1.0  0.1401
  C  C70  1  0.321100  0.214000  0.806500  1.0  -0.1133
  C  C71  1  0.645900  0.137100  0.861300  1.0  0.6505
  C  C72  1  0.734900  0.161000  0.803800  1.0  0.1414
  C  C73  1  0.786000  0.107100  0.806500  1.0  -0.1122
  C  C74  1  0.137100  0.491200  0.861300  1.0  0.6497
  C  C75  1  0.161000  0.426100  0.803800  1.0  0.1407
  C  C76  1  0.107100  0.321100  0.806500  1.0  -0.1115
  C  C77  1  0.508800  0.645900  0.861300  1.0  0.6505
  C  C78  1  0.573900  0.734900  0.803800  1.0  0.1405
  C  C79  1  0.678900  0.786000  0.806500  1.0  -0.1122
  C  C80  1  0.354100  0.862900  0.861300  1.0  0.6502
  C  C81  1  0.265100  0.839000  0.803800  1.0  0.141
  C  C82  1  0.214000  0.892900  0.806500  1.0  -0.1126
  C  C83  1  0.645900  0.508800  0.361300  1.0  0.6498
  C  C84  1  0.734900  0.573900  0.303800  1.0  0.1409
  C  C85  1  0.786000  0.678900  0.306500  1.0  -0.1086
  C  C86  1  0.862900  0.354100  0.361300  1.0  0.6504
  C  C87  1  0.839000  0.265100  0.303800  1.0  0.1408
  C  C88  1  0.892900  0.214000  0.306500  1.0  -0.1103
  C  C89  1  0.491200  0.137100  0.361300  1.0  0.6501
  C  C90  1  0.426100  0.161000  0.303800  1.0  0.1414
  C  C91  1  0.321100  0.107100  0.306500  1.0  -0.1104
  C  C92  1  0.354100  0.491200  0.361300  1.0  0.6498
  C  C93  1  0.265100  0.426100  0.303800  1.0  0.1404
  C  C94  1  0.214000  0.321100  0.306500  1.0  -0.1089
  C  C95  1  0.137100  0.645900  0.361300  1.0  0.6505
  C  C96  1  0.161000  0.734900  0.303800  1.0  0.1404
  C  C97  1  0.107100  0.786000  0.306500  1.0  -0.1101
  C  C98  1  0.508800  0.862900  0.361300  1.0  0.6505
  C  C99  1  0.573900  0.839000  0.303800  1.0  0.1416
  C  C100  1  0.678900  0.892900  0.306500  1.0  -0.1095
  C  C101  1  0.137100  0.491200  0.138700  1.0  0.6505
  C  C102  1  0.161000  0.426100  0.196200  1.0  0.1413
  C  C103  1  0.107100  0.321100  0.193500  1.0  -0.1101
  C  C104  1  0.508800  0.645900  0.138700  1.0  0.6507
  C  C105  1  0.573900  0.734900  0.196200  1.0  0.1402
  C  C106  1  0.678900  0.786000  0.193500  1.0  -0.1117
  C  C107  1  0.354100  0.862900  0.138700  1.0  0.6504
  C  C108  1  0.265100  0.839000  0.196200  1.0  0.1412
  C  C109  1  0.214000  0.892900  0.193500  1.0  -0.1116
  C  C110  1  0.862900  0.508800  0.138700  1.0  0.6498
  C  C111  1  0.839000  0.573900  0.196200  1.0  0.1402
  C  C112  1  0.892900  0.678900  0.193500  1.0  -0.111
  C  C113  1  0.491200  0.354100  0.138700  1.0  0.6508
  C  C114  1  0.426100  0.265100  0.196200  1.0  0.1407
  C  C115  1  0.321100  0.214000  0.193500  1.0  -0.112
  C  C116  1  0.645900  0.137100  0.138700  1.0  0.6512
  C  C117  1  0.734900  0.161000  0.196200  1.0  0.1417
  C  C118  1  0.786000  0.107100  0.193500  1.0  -0.1112
  C  C119  1  0.134450  0.268900  0.750000  1.0  -0.0239
  C  C120  1  0.134450  0.865550  0.750000  1.0  -0.026
  C  C121  1  0.731100  0.865550  0.750000  1.0  -0.0266
  C  C122  1  0.865550  0.731100  0.750000  1.0  -0.024
  C  C123  1  0.865550  0.134450  0.750000  1.0  -0.0261
  C  C124  1  0.268900  0.134450  0.750000  1.0  -0.0257
  C  C125  1  0.865550  0.731100  0.250000  1.0  -0.024
  C  C126  1  0.865550  0.134450  0.250000  1.0  -0.0261
  C  C127  1  0.268900  0.134450  0.250000  1.0  -0.0257
  C  C128  1  0.134450  0.268900  0.250000  1.0  -0.0239
  C  C129  1  0.134450  0.865550  0.250000  1.0  -0.026
  C  C130  1  0.731100  0.865550  0.250000  1.0  -0.0266
  N  N131  1  0.238810  0.477620  0.750000  1.0  -0.4115
  N  N132  1  0.238810  0.761190  0.750000  1.0  -0.4116
  N  N133  1  0.522380  0.761190  0.750000  1.0  -0.4117
  N  N134  1  0.761190  0.522380  0.750000  1.0  -0.4106
  N  N135  1  0.761190  0.238810  0.750000  1.0  -0.4115
  N  N136  1  0.477620  0.238810  0.750000  1.0  -0.4117
  N  N137  1  0.761190  0.522380  0.250000  1.0  -0.4106
  N  N138  1  0.761190  0.238810  0.250000  1.0  -0.4115
  N  N139  1  0.477620  0.238810  0.250000  1.0  -0.4117
  N  N140  1  0.238810  0.477620  0.250000  1.0  -0.4115
  N  N141  1  0.238810  0.761190  0.250000  1.0  -0.4116
  N  N142  1  0.522380  0.761190  0.250000  1.0  -0.4117
  O  O143  1  0.388800  0.587100  0.643370  1.0  -0.6391
  O  O144  1  0.386600  0.447100  0.592400  1.0  -0.5925
  O  O145  1  0.198300  0.611200  0.643370  1.0  -0.6414
  O  O146  1  0.060500  0.613400  0.592400  1.0  -0.5931
  O  O147  1  0.412900  0.801700  0.643370  1.0  -0.64
  O  O148  1  0.552900  0.939500  0.592400  1.0  -0.5922
  O  O149  1  0.611200  0.412900  0.643370  1.0  -0.6386
  O  O150  1  0.613400  0.552900  0.592400  1.0  -0.5927
  O  O151  1  0.801700  0.388800  0.643370  1.0  -0.6404
  O  O152  1  0.939500  0.386600  0.592400  1.0  -0.5929
  O  O153  1  0.587100  0.198300  0.643370  1.0  -0.6415
  O  O154  1  0.447100  0.060500  0.592400  1.0  -0.5925
  O  O155  1  0.801700  0.412900  0.856630  1.0  -0.6389
  O  O156  1  0.939500  0.552900  0.907600  1.0  -0.5917
  O  O157  1  0.587100  0.388800  0.856630  1.0  -0.6411
  O  O158  1  0.447100  0.386600  0.907600  1.0  -0.5925
  O  O159  1  0.611200  0.198300  0.856630  1.0  -0.6402
  O  O160  1  0.613400  0.060500  0.907600  1.0  -0.5917
  O  O161  1  0.198300  0.587100  0.856630  1.0  -0.6388
  O  O162  1  0.060500  0.447100  0.907600  1.0  -0.5924
  O  O163  1  0.412900  0.611200  0.856630  1.0  -0.6401
  O  O164  1  0.552900  0.613400  0.907600  1.0  -0.592
  O  O165  1  0.388800  0.801700  0.856630  1.0  -0.6408
  O  O166  1  0.386600  0.939500  0.907600  1.0  -0.592
  O  O167  1  0.611200  0.412900  0.356630  1.0  -0.6386
  O  O168  1  0.613400  0.552900  0.407600  1.0  -0.5918
  O  O169  1  0.801700  0.388800  0.356630  1.0  -0.6405
  O  O170  1  0.939500  0.386600  0.407600  1.0  -0.5923
  O  O171  1  0.587100  0.198300  0.356630  1.0  -0.6412
  O  O172  1  0.447100  0.060500  0.407600  1.0  -0.5918
  O  O173  1  0.388800  0.587100  0.356630  1.0  -0.6391
  O  O174  1  0.386600  0.447100  0.407600  1.0  -0.5919
  O  O175  1  0.198300  0.611200  0.356630  1.0  -0.6409
  O  O176  1  0.060500  0.613400  0.407600  1.0  -0.5924
  O  O177  1  0.412900  0.801700  0.356630  1.0  -0.64
  O  O178  1  0.552900  0.939500  0.407600  1.0  -0.5916
  O  O179  1  0.198300  0.587100  0.143370  1.0  -0.6385
  O  O180  1  0.060500  0.447100  0.092400  1.0  -0.5925
  O  O181  1  0.412900  0.611200  0.143370  1.0  -0.6401
  O  O182  1  0.552900  0.613400  0.092400  1.0  -0.5928
  O  O183  1  0.388800  0.801700  0.143370  1.0  -0.6413
  O  O184  1  0.386600  0.939500  0.092400  1.0  -0.5924
  O  O185  1  0.801700  0.412900  0.143370  1.0  -0.639
  O  O186  1  0.939500  0.552900  0.092400  1.0  -0.5922
  O  O187  1  0.587100  0.388800  0.143370  1.0  -0.6415
  O  O188  1  0.447100  0.386600  0.092400  1.0  -0.5932
  O  O189  1  0.611200  0.198300  0.143370  1.0  -0.6399
  O  O190  1  0.613400  0.060500  0.092400  1.0  -0.5921
