# generated using pymatgen
data_Cd3H108C86(SeN19)2
_symmetry_space_group_name_H-M   'P 1'
_cell_length_a   13.78190000
_cell_length_b   15.16750000
_cell_length_c   15.16900000
_cell_angle_alpha   73.92400000
_cell_angle_beta   75.93900000
_cell_angle_gamma   67.01700000
_symmetry_Int_Tables_number   1
_chemical_formula_structural   Cd3H108C86(SeN19)2
_chemical_formula_sum   'Cd3 H108 C86 Se2 N38'
_cell_volume   2772.25202328
_cell_formula_units_Z   1
loop_
 _symmetry_equiv_pos_site_id
 _symmetry_equiv_pos_as_xyz
  1  'x, y, z'
loop_
 _atom_site_type_symbol
 _atom_site_label
 _atom_site_symmetry_multiplicity
 _atom_site_fract_x
 _atom_site_fract_y
 _atom_site_fract_z
 _atom_site_occupancy
 _atom_site_charge
  Cd  Cd1  1  0.190990  0.804410  0.692330  1.0  0.8875
  Cd  Cd2  1  0.809010  0.195590  0.307670  1.0  0.8877
  Cd  Cd3  1  0.000000  0.000000  0.500000  1.0  0.7372
  H  H4  1  0.145700  0.879000  0.017300  1.0  0.0891
  H  H5  1  0.067400  0.707900  0.916800  1.0  0.0705
  H  H6  1  0.185800  0.900100  0.328700  1.0  0.0888
  H  H7  1  0.371800  0.706900  0.507700  1.0  0.0886
  H  H8  1  0.666200  0.538000  0.397600  1.0  0.0937
  H  H9  1  0.637900  0.420500  0.207000  1.0  0.0819
  H  H10  1  0.432000  0.600800  0.391900  1.0  0.0815
  H  H11  1  0.506600  0.664500  0.376600  1.0  0.074
  H  H12  1  0.624900  0.645300  0.140200  1.0  0.0594
  H  H13  1  0.620300  0.693800  0.223600  1.0  0.0683
  H  H14  1  0.513500  0.815100  0.110200  1.0  0.0627
  H  H15  1  0.467500  0.826000  0.273000  1.0  0.076
  H  H16  1  0.362400  0.875200  0.223900  1.0  0.0814
  H  H17  1  0.240900  0.774300  0.245600  1.0  0.0671
  H  H18  1  0.270500  0.667600  0.311800  1.0  0.0788
  H  H19  1  0.322000  0.653500  0.152000  1.0  0.0653
  H  H20  1  0.501400  0.545500  0.162400  1.0  0.0753
  H  H21  1  0.428700  0.528500  0.261200  1.0  0.0854
  H  H22  1  0.459200  0.713200  0.059100  1.0  0.0543
  H  H23  1  0.358200  0.802500  0.090800  1.0  0.0759
  H  H24  1  0.197800  0.094700  0.382900  1.0  0.0855
  H  H25  1  0.002500  0.300300  0.219300  1.0  0.0936
  H  H26  1  0.597700  0.267700  0.186500  1.0  0.0901
  H  H27  1  0.453400  0.123600  0.399300  1.0  0.0913
  H  H28  1  0.337300  0.136500  0.297300  1.0  0.0656
  H  H29  1  0.287600  0.232200  0.342000  1.0  0.0706
  H  H30  1  0.463100  0.135200  0.147500  1.0  0.0962
  H  H31  1  0.496300  0.229200  0.095800  1.0  0.0589
  H  H32  1  0.365500  0.223500  0.018800  1.0  0.0591
  H  H33  1  0.191600  0.237500  0.103100  1.0  0.0783
  H  H34  1  0.278000  0.140100  0.150400  1.0  0.0915
  H  H35  1  0.153700  0.383100  0.267900  1.0  0.083
  H  H36  1  0.114200  0.386000  0.175500  1.0  0.0779
  H  H37  1  0.240100  0.468900  0.134700  1.0  0.0605
  H  H38  1  0.418300  0.380700  0.166800  1.0  0.0705
  H  H39  1  0.336600  0.380400  0.262500  1.0  0.0899
  H  H40  1  0.241400  0.384100  0.022700  1.0  0.0798
  H  H41  1  0.359600  0.382000  0.018800  1.0  0.0657
  H  H42  1  0.009500  0.807100  0.404100  1.0  0.0876
  H  H43  1  0.829000  0.005900  0.223900  1.0  0.0889
  H  H44  1  0.074100  0.823200  0.159500  1.0  0.0593
  H  H45  1  0.968000  0.894200  0.116200  1.0  0.0598
  H  H46  1  0.145500  0.643800  0.153500  1.0  0.0684
  H  H47  1  0.085800  0.601700  0.105400  1.0  0.0679
  H  H48  1  0.039200  0.560800  0.271600  1.0  0.0597
  H  H49  1  0.949500  0.689900  0.356700  1.0  0.0804
  H  H50  1  0.063300  0.697000  0.304600  1.0  0.0628
  H  H51  1  0.779900  0.804200  0.285500  1.0  0.074
  H  H52  1  0.790900  0.882600  0.191200  1.0  0.0803
  H  H53  1  0.771500  0.745600  0.157600  1.0  0.0643
  H  H54  1  0.874600  0.828300  0.041100  1.0  0.0817
  H  H55  1  0.919600  0.714400  0.036900  1.0  0.0725
  H  H56  1  0.900700  0.591200  0.186100  1.0  0.0828
  H  H57  1  0.847900  0.628600  0.281700  1.0  0.074
  H  H58  1  0.854300  0.121000  0.982700  1.0  0.0893
  H  H59  1  0.932600  0.292100  0.083200  1.0  0.0724
  H  H60  1  0.814200  0.099900  0.671300  1.0  0.0889
  H  H61  1  0.628200  0.293100  0.492300  1.0  0.0891
  H  H62  1  0.333800  0.462000  0.602400  1.0  0.0951
  H  H63  1  0.362100  0.579500  0.793000  1.0  0.0817
  H  H64  1  0.568000  0.399200  0.608100  1.0  0.0798
  H  H65  1  0.493400  0.335500  0.623400  1.0  0.0752
  H  H66  1  0.375100  0.354700  0.859800  1.0  0.0601
  H  H67  1  0.379700  0.306200  0.776400  1.0  0.0698
  H  H68  1  0.486500  0.184900  0.889800  1.0  0.0641
  H  H69  1  0.532500  0.174000  0.727000  1.0  0.0777
  H  H70  1  0.637600  0.124800  0.776100  1.0  0.0803
  H  H71  1  0.759100  0.225700  0.754400  1.0  0.0687
  H  H72  1  0.729500  0.332400  0.688200  1.0  0.0778
  H  H73  1  0.678000  0.346500  0.848000  1.0  0.0652
  H  H74  1  0.498600  0.454500  0.837600  1.0  0.0731
  H  H75  1  0.571300  0.471500  0.738800  1.0  0.083
  H  H76  1  0.540800  0.286800  0.940900  1.0  0.0553
  H  H77  1  0.641800  0.197500  0.909200  1.0  0.0756
  H  H78  1  0.802200  0.905300  0.617100  1.0  0.0854
  H  H79  1  0.997500  0.699700  0.780700  1.0  0.0933
  H  H80  1  0.402300  0.732300  0.813500  1.0  0.0908
  H  H81  1  0.546600  0.876400  0.600700  1.0  0.09
  H  H82  1  0.662700  0.863500  0.702700  1.0  0.0648
  H  H83  1  0.712400  0.767800  0.658000  1.0  0.071
  H  H84  1  0.536900  0.864800  0.852500  1.0  0.0956
  H  H85  1  0.503700  0.770800  0.904200  1.0  0.055
  H  H86  1  0.634500  0.776500  0.981200  1.0  0.0576
  H  H87  1  0.808400  0.762500  0.896900  1.0  0.0773
  H  H88  1  0.722000  0.859900  0.849600  1.0  0.0907
  H  H89  1  0.846300  0.616900  0.732100  1.0  0.0827
  H  H90  1  0.885800  0.614000  0.824500  1.0  0.0796
  H  H91  1  0.759900  0.531100  0.865300  1.0  0.0616
  H  H92  1  0.581700  0.619300  0.833200  1.0  0.0704
  H  H93  1  0.663400  0.619600  0.737500  1.0  0.0892
  H  H94  1  0.758600  0.615900  0.977300  1.0  0.0798
  H  H95  1  0.640400  0.618000  0.981200  1.0  0.0645
  H  H96  1  0.990500  0.192900  0.595900  1.0  0.088
  H  H97  1  0.171000  0.994100  0.776100  1.0  0.0884
  H  H98  1  0.925900  0.176800  0.840500  1.0  0.058
  H  H99  1  0.032000  0.105800  0.883800  1.0  0.0607
  H  H100  1  0.854500  0.356200  0.846500  1.0  0.0662
  H  H101  1  0.914200  0.398300  0.894600  1.0  0.0673
  H  H102  1  0.960800  0.439200  0.728400  1.0  0.0591
  H  H103  1  0.050500  0.310100  0.643300  1.0  0.0794
  H  H104  1  0.936700  0.303000  0.695400  1.0  0.0634
  H  H105  1  0.220100  0.195800  0.714500  1.0  0.0736
  H  H106  1  0.209100  0.117400  0.808800  1.0  0.0825
  H  H107  1  0.228500  0.254400  0.842400  1.0  0.0636
  H  H108  1  0.125400  0.171700  0.958900  1.0  0.0828
  H  H109  1  0.080400  0.285600  0.963100  1.0  0.0724
  H  H110  1  0.099300  0.408800  0.813900  1.0  0.083
  H  H111  1  0.152100  0.371400  0.718300  1.0  0.0721
  C  C112  1  0.142100  0.843200  0.976400  1.0  0.1035
  C  C113  1  0.098600  0.751300  0.923200  1.0  0.1896
  C  C114  1  0.213700  0.865200  0.384700  1.0  0.1517
  C  C115  1  0.314900  0.760300  0.481700  1.0  0.1331
  C  C116  1  0.677100  0.493600  0.359600  1.0  0.1131
  C  C117  1  0.661900  0.429500  0.256400  1.0  0.1428
  C  C118  1  0.371700  0.740500  0.310700  1.0  0.2164
  C  C119  1  0.462000  0.647900  0.346100  1.0  -0.2414
  C  C120  1  0.530200  0.602300  0.261600  1.0  0.2311
  C  C121  1  0.577700  0.675100  0.192700  1.0  -0.2225
  C  C122  1  0.483800  0.767200  0.156600  1.0  0.0264
  C  C123  1  0.419600  0.812700  0.243100  1.0  -0.2337
  C  C124  1  0.300700  0.714700  0.266100  1.0  -0.2644
  C  C125  1  0.367800  0.669400  0.182800  1.0  0.049
  C  C126  1  0.458500  0.575900  0.215800  1.0  -0.2737
  C  C127  1  0.416200  0.742300  0.113300  1.0  -0.1816
  C  C128  1  0.136000  0.134000  0.354800  1.0  0.1292
  C  C129  1  0.030200  0.245500  0.266400  1.0  0.1368
  C  C130  1  0.582100  0.228900  0.245300  1.0  0.1273
  C  C131  1  0.504700  0.150600  0.360700  1.0  0.1535
  C  C132  1  0.218200  0.248400  0.227800  1.0  0.2046
  C  C133  1  0.311100  0.208900  0.282900  1.0  -0.2294
  C  C134  1  0.399800  0.245800  0.223300  1.0  0.2199
  C  C135  1  0.437000  0.207600  0.133300  1.0  -0.2647
  C  C136  1  0.342100  0.247800  0.078200  1.0  0.0679
  C  C137  1  0.252900  0.212500  0.137200  1.0  -0.2571
  C  C138  1  0.176500  0.359900  0.208700  1.0  -0.2591
  C  C139  1  0.266500  0.395800  0.148800  1.0  0.055
  C  C140  1  0.360100  0.356800  0.203400  1.0  -0.2749
  C  C141  1  0.302100  0.358400  0.057600  1.0  -0.2022
  C  C142  1  0.967300  0.867800  0.371200  1.0  0.1218
  C  C143  1  0.869000  0.975900  0.273900  1.0  0.1242
  C  C144  1  0.936900  0.805300  0.242400  1.0  0.2139
  C  C145  1  0.004000  0.827100  0.149700  1.0  -0.276
  C  C146  1  0.019800  0.752500  0.091600  1.0  0.2376
  C  C147  1  0.074900  0.649800  0.142900  1.0  -0.2519
  C  C148  1  0.004300  0.628800  0.237600  1.0  0.0275
  C  C149  1  0.992300  0.702900  0.295100  1.0  -0.2399
  C  C150  1  0.825900  0.815800  0.225500  1.0  -0.2644
  C  C151  1  0.842500  0.739900  0.168600  1.0  0.0421
  C  C152  1  0.910500  0.761400  0.075000  1.0  -0.2834
  C  C153  1  0.893300  0.640200  0.221300  1.0  -0.1849
  C  C154  1  0.857900  0.156800  0.023600  1.0  0.1031
  C  C155  1  0.901400  0.248700  0.076800  1.0  0.1885
  C  C156  1  0.786300  0.134800  0.615300  1.0  0.1512
  C  C157  1  0.685100  0.239700  0.518300  1.0  0.1334
  C  C158  1  0.322900  0.506400  0.640400  1.0  0.1133
  C  C159  1  0.338100  0.570500  0.743600  1.0  0.1442
  C  C160  1  0.628300  0.259500  0.689300  1.0  0.2121
  C  C161  1  0.538000  0.352100  0.653900  1.0  -0.241
  C  C162  1  0.469800  0.397700  0.738400  1.0  0.2313
  C  C163  1  0.422300  0.324900  0.807300  1.0  -0.2255
  C  C164  1  0.516200  0.232800  0.843400  1.0  0.0295
  C  C165  1  0.580400  0.187300  0.756900  1.0  -0.2311
  C  C166  1  0.699300  0.285300  0.733900  1.0  -0.2603
  C  C167  1  0.632200  0.330600  0.817200  1.0  0.0482
  C  C168  1  0.541500  0.424100  0.784200  1.0  -0.2768
  C  C169  1  0.583800  0.257700  0.886700  1.0  -0.1806
  C  C170  1  0.864000  0.866000  0.645200  1.0  0.1302
  C  C171  1  0.969800  0.754500  0.733600  1.0  0.1375
  C  C172  1  0.417900  0.771100  0.754700  1.0  0.1255
  C  C173  1  0.495300  0.849400  0.639300  1.0  0.1535
  C  C174  1  0.781800  0.751600  0.772200  1.0  0.2034
  C  C175  1  0.688900  0.791100  0.717100  1.0  -0.227
  C  C176  1  0.600200  0.754200  0.776700  1.0  0.2181
  C  C177  1  0.563000  0.792400  0.866700  1.0  -0.2685
  C  C178  1  0.657900  0.752200  0.921800  1.0  0.0653
  C  C179  1  0.747100  0.787500  0.862800  1.0  -0.2562
  C  C180  1  0.823500  0.640100  0.791300  1.0  -0.2576
  C  C181  1  0.733500  0.604200  0.851200  1.0  0.0563
  C  C182  1  0.639900  0.643200  0.796600  1.0  -0.2764
  C  C183  1  0.697900  0.641600  0.942400  1.0  -0.2006
  C  C184  1  0.032700  0.132200  0.628800  1.0  0.1209
  C  C185  1  0.131000  0.024100  0.726100  1.0  0.1219
  C  C186  1  0.063100  0.194700  0.757600  1.0  0.2103
  C  C187  1  0.996000  0.172900  0.850300  1.0  -0.2756
  C  C188  1  0.980200  0.247500  0.908400  1.0  0.2399
  C  C189  1  0.925100  0.350200  0.857100  1.0  -0.2521
  C  C190  1  0.995700  0.371200  0.762400  1.0  0.0273
  C  C191  1  0.007700  0.297100  0.704900  1.0  -0.2453
  C  C192  1  0.174100  0.184200  0.774500  1.0  -0.2624
  C  C193  1  0.157500  0.260100  0.831400  1.0  0.0421
  C  C194  1  0.089500  0.238600  0.925000  1.0  -0.2822
  C  C195  1  0.106700  0.359800  0.778700  1.0  -0.1856
  C  C196  1  0.757000  0.989600  0.924600  1.0  0.1236
  C  C197  1  0.243000  0.010400  0.075400  1.0  0.1286
  Se  Se198  1  0.881360  0.984560  0.845700  1.0  -0.0566
  Se  Se199  1  0.118640  0.015440  0.154300  1.0  -0.0578
  N  N200  1  0.169300  0.886800  0.465900  1.0  -0.2493
  N  N201  1  0.234200  0.819300  0.529400  1.0  -0.2675
  N  N202  1  0.304800  0.786800  0.390700  1.0  -0.0848
  N  N203  1  0.751400  0.406800  0.364200  1.0  -0.3124
  N  N204  1  0.740100  0.365700  0.297200  1.0  -0.2545
  N  N205  1  0.618200  0.511000  0.293000  1.0  -0.048
  N  N206  1  0.044300  0.119800  0.379300  1.0  -0.264
  N  N207  1  0.975800  0.192500  0.322200  1.0  -0.2571
  N  N208  1  0.130500  0.211900  0.284500  1.0  -0.0382
  N  N209  1  0.646800  0.187000  0.307800  1.0  -0.2507
  N  N210  1  0.596800  0.135400  0.383000  1.0  -0.3073
  N  N211  1  0.491500  0.209400  0.275800  1.0  -0.0675
  N  N212  1  0.943600  0.953200  0.391200  1.0  -0.2479
  N  N213  1  0.878800  0.022700  0.328900  1.0  -0.2569
  N  N214  1  0.922700  0.878900  0.296800  1.0  -0.0469
  N  N215  1  0.085300  0.776600  0.001400  1.0  -0.1676
  N  N216  1  0.156600  0.788400  0.854800  1.0  -0.2774
  N  N217  1  0.188200  0.848600  0.890800  1.0  -0.3194
  N  N218  1  0.830700  0.113200  0.534100  1.0  -0.2492
  N  N219  1  0.765800  0.180700  0.470600  1.0  -0.2669
  N  N220  1  0.695200  0.213200  0.609300  1.0  -0.0866
  N  N221  1  0.248600  0.593200  0.635800  1.0  -0.3114
  N  N222  1  0.259900  0.634300  0.702800  1.0  -0.2549
  N  N223  1  0.381800  0.489000  0.707000  1.0  -0.0479
  N  N224  1  0.955700  0.880200  0.620700  1.0  -0.2647
  N  N225  1  0.024200  0.807500  0.677800  1.0  -0.2583
  N  N226  1  0.869500  0.788100  0.715500  1.0  -0.0374
  N  N227  1  0.353200  0.813000  0.692200  1.0  -0.2498
  N  N228  1  0.403200  0.864600  0.617000  1.0  -0.308
  N  N229  1  0.508500  0.790600  0.724200  1.0  -0.0685
  N  N230  1  0.056400  0.046800  0.608800  1.0  -0.2473
  N  N231  1  0.121200  0.977300  0.671100  1.0  -0.2544
  N  N232  1  0.077300  0.121100  0.703200  1.0  -0.0477
  N  N233  1  0.914700  0.223400  0.998600  1.0  -0.1663
  N  N234  1  0.843400  0.211600  0.145200  1.0  -0.2791
  N  N235  1  0.811800  0.151400  0.109200  1.0  -0.3187
  N  N236  1  0.679900  0.994200  0.977100  1.0  -0.5006
  N  N237  1  0.320100  0.005800  0.022900  1.0  -0.5023
