# generated using pymatgen
data_Er2Fe3H18C42(NO4)6
_symmetry_space_group_name_H-M   'P 1'
_cell_length_a   15.16500000
_cell_length_b   15.16500000
_cell_length_c   15.71300000
_cell_angle_alpha   90.00000000
_cell_angle_beta   90.00000000
_cell_angle_gamma   120.00000000
_symmetry_Int_Tables_number   1
_chemical_formula_structural   Er2Fe3H18C42(NO4)6
_chemical_formula_sum   'Er4 Fe6 H36 C84 N12 O48'
_cell_volume   3129.49723008
_cell_formula_units_Z   2
loop_
 _symmetry_equiv_pos_site_id
 _symmetry_equiv_pos_as_xyz
  1  'x, y, z'
loop_
 _atom_site_type_symbol
 _atom_site_label
 _atom_site_symmetry_multiplicity
 _atom_site_fract_x
 _atom_site_fract_y
 _atom_site_fract_z
 _atom_site_occupancy
 _atom_site_charge
  Er  Er1  1  0.666667  0.333333  0.750000  1.0  1.1904
  Er  Er2  1  0.333333  0.666667  0.750000  1.0  1.1904
  Er  Er3  1  0.333333  0.666667  0.250000  1.0  1.1904
  Er  Er4  1  0.666667  0.333333  0.250000  1.0  1.1904
  Fe  Fe5  1  0.500000  0.000000  0.000000  1.0  1.282
  Fe  Fe6  1  0.500000  0.500000  0.000000  1.0  1.282
  Fe  Fe7  1  0.000000  0.500000  0.000000  1.0  1.282
  Fe  Fe8  1  0.500000  0.000000  0.500000  1.0  1.282
  Fe  Fe9  1  0.000000  0.500000  0.500000  1.0  1.282
  Fe  Fe10  1  0.500000  0.500000  0.500000  1.0  1.282
  H  H11  1  0.288500  0.056500  0.845600  1.0  0.1173
  H  H12  1  0.768000  0.711500  0.845600  1.0  0.1171
  H  H13  1  0.943500  0.232000  0.845600  1.0  0.1173
  H  H14  1  0.711500  0.943500  0.845600  1.0  0.1167
  H  H15  1  0.232000  0.288500  0.845600  1.0  0.1175
  H  H16  1  0.056500  0.768000  0.845600  1.0  0.1175
  H  H17  1  0.232000  0.943500  0.654400  1.0  0.1166
  H  H18  1  0.056500  0.288500  0.654400  1.0  0.1165
  H  H19  1  0.711500  0.768000  0.654400  1.0  0.1168
  H  H20  1  0.768000  0.056500  0.654400  1.0  0.1163
  H  H21  1  0.943500  0.711500  0.654400  1.0  0.1168
  H  H22  1  0.288500  0.232000  0.654400  1.0  0.1169
  H  H23  1  0.711500  0.943500  0.154400  1.0  0.1164
  H  H24  1  0.232000  0.288500  0.154400  1.0  0.1169
  H  H25  1  0.056500  0.768000  0.154400  1.0  0.1169
  H  H26  1  0.288500  0.056500  0.154400  1.0  0.1165
  H  H27  1  0.768000  0.711500  0.154400  1.0  0.1167
  H  H28  1  0.943500  0.232000  0.154400  1.0  0.1167
  H  H29  1  0.768000  0.056500  0.345600  1.0  0.117
  H  H30  1  0.943500  0.711500  0.345600  1.0  0.1172
  H  H31  1  0.288500  0.232000  0.345600  1.0  0.1175
  H  H32  1  0.232000  0.943500  0.345600  1.0  0.1171
  H  H33  1  0.056500  0.288500  0.345600  1.0  0.1173
  H  H34  1  0.711500  0.768000  0.345600  1.0  0.1173
  H  H35  1  0.199900  0.099950  0.750000  1.0  0.0914
  H  H36  1  0.900050  0.800100  0.750000  1.0  0.0912
  H  H37  1  0.900050  0.099950  0.750000  1.0  0.0914
  H  H38  1  0.800100  0.900050  0.750000  1.0  0.0913
  H  H39  1  0.099950  0.199900  0.750000  1.0  0.0896
  H  H40  1  0.099950  0.900050  0.750000  1.0  0.0916
  H  H41  1  0.800100  0.900050  0.250000  1.0  0.0913
  H  H42  1  0.099950  0.199900  0.250000  1.0  0.0896
  H  H43  1  0.099950  0.900050  0.250000  1.0  0.0916
  H  H44  1  0.199900  0.099950  0.250000  1.0  0.0914
  H  H45  1  0.900050  0.800100  0.250000  1.0  0.0912
  H  H46  1  0.900050  0.099950  0.250000  1.0  0.0914
  C  C47  1  0.322900  0.108900  0.806600  1.0  -0.1228
  C  C48  1  0.427300  0.162400  0.803600  1.0  0.1159
  C  C49  1  0.493400  0.140000  0.860700  1.0  0.642
  C  C50  1  0.786000  0.677100  0.806600  1.0  -0.1218
  C  C51  1  0.735100  0.572700  0.803600  1.0  0.1151
  C  C52  1  0.646600  0.506600  0.860700  1.0  0.6416
  C  C53  1  0.891100  0.214000  0.806600  1.0  -0.1231
  C  C54  1  0.837600  0.264900  0.803600  1.0  0.1144
  C  C55  1  0.860000  0.353400  0.860700  1.0  0.6422
  C  C56  1  0.677100  0.891100  0.806600  1.0  -0.1228
  C  C57  1  0.572700  0.837600  0.803600  1.0  0.1157
  C  C58  1  0.506600  0.860000  0.860700  1.0  0.6419
  C  C59  1  0.214000  0.322900  0.806600  1.0  -0.1216
  C  C60  1  0.264900  0.427300  0.803600  1.0  0.1146
  C  C61  1  0.353400  0.493400  0.860700  1.0  0.6411
  C  C62  1  0.108900  0.786000  0.806600  1.0  -0.1227
  C  C63  1  0.162400  0.735100  0.803600  1.0  0.1148
  C  C64  1  0.140000  0.646600  0.860700  1.0  0.6422
  C  C65  1  0.214000  0.891100  0.693400  1.0  -0.1222
  C  C66  1  0.264900  0.837600  0.696400  1.0  0.1153
  C  C67  1  0.353400  0.860000  0.639300  1.0  0.6424
  C  C68  1  0.108900  0.322900  0.693400  1.0  -0.1214
  C  C69  1  0.162400  0.427300  0.696400  1.0  0.1148
  C  C70  1  0.140000  0.493400  0.639300  1.0  0.6423
  C  C71  1  0.677100  0.786000  0.693400  1.0  -0.1231
  C  C72  1  0.572700  0.735100  0.696400  1.0  0.1137
  C  C73  1  0.506600  0.646600  0.639300  1.0  0.6427
  C  C74  1  0.786000  0.108900  0.693400  1.0  -0.1232
  C  C75  1  0.735100  0.162400  0.696400  1.0  0.1153
  C  C76  1  0.646600  0.140000  0.639300  1.0  0.6429
  C  C77  1  0.891100  0.677100  0.693400  1.0  -0.1221
  C  C78  1  0.837600  0.572700  0.696400  1.0  0.1143
  C  C79  1  0.860000  0.506600  0.639300  1.0  0.6414
  C  C80  1  0.322900  0.214000  0.693400  1.0  -0.1227
  C  C81  1  0.427300  0.264900  0.696400  1.0  0.1144
  C  C82  1  0.493400  0.353400  0.639300  1.0  0.6432
  C  C83  1  0.677100  0.891100  0.193400  1.0  -0.1226
  C  C84  1  0.572700  0.837600  0.196400  1.0  0.115
  C  C85  1  0.506600  0.860000  0.139300  1.0  0.6429
  C  C86  1  0.214000  0.322900  0.193400  1.0  -0.1213
  C  C87  1  0.264900  0.427300  0.196400  1.0  0.1145
  C  C88  1  0.353400  0.493400  0.139300  1.0  0.6418
  C  C89  1  0.108900  0.786000  0.193400  1.0  -0.1213
  C  C90  1  0.162400  0.735100  0.196400  1.0  0.1138
  C  C91  1  0.140000  0.646600  0.139300  1.0  0.6426
  C  C92  1  0.322900  0.108900  0.193400  1.0  -0.1215
  C  C93  1  0.427300  0.162400  0.196400  1.0  0.1153
  C  C94  1  0.493400  0.140000  0.139300  1.0  0.6423
  C  C95  1  0.786000  0.677100  0.193400  1.0  -0.1208
  C  C96  1  0.735100  0.572700  0.196400  1.0  0.114
  C  C97  1  0.646600  0.506600  0.139300  1.0  0.6421
  C  C98  1  0.891100  0.214000  0.193400  1.0  -0.1232
  C  C99  1  0.837600  0.264900  0.196400  1.0  0.1143
  C  C100  1  0.860000  0.353400  0.139300  1.0  0.6435
  C  C101  1  0.786000  0.108900  0.306600  1.0  -0.1234
  C  C102  1  0.735100  0.162400  0.303600  1.0  0.116
  C  C103  1  0.646600  0.140000  0.360700  1.0  0.6421
  C  C104  1  0.891100  0.677100  0.306600  1.0  -0.1225
  C  C105  1  0.837600  0.572700  0.303600  1.0  0.1154
  C  C106  1  0.860000  0.506600  0.360700  1.0  0.6412
  C  C107  1  0.322900  0.214000  0.306600  1.0  -0.1239
  C  C108  1  0.427300  0.264900  0.303600  1.0  0.1145
  C  C109  1  0.493400  0.353400  0.360700  1.0  0.642
  C  C110  1  0.214000  0.891100  0.306600  1.0  -0.1234
  C  C111  1  0.264900  0.837600  0.303600  1.0  0.1159
  C  C112  1  0.353400  0.860000  0.360700  1.0  0.6419
  C  C113  1  0.108900  0.322900  0.306600  1.0  -0.1223
  C  C114  1  0.162400  0.427300  0.303600  1.0  0.115
  C  C115  1  0.140000  0.493400  0.360700  1.0  0.6413
  C  C116  1  0.677100  0.786000  0.306600  1.0  -0.1233
  C  C117  1  0.572700  0.735100  0.303600  1.0  0.115
  C  C118  1  0.506600  0.646600  0.360700  1.0  0.6423
  C  C119  1  0.270700  0.135350  0.750000  1.0  -0.0268
  C  C120  1  0.864650  0.729300  0.750000  1.0  -0.025
  C  C121  1  0.864650  0.135350  0.750000  1.0  -0.0271
  C  C122  1  0.729300  0.864650  0.750000  1.0  -0.0274
  C  C123  1  0.135350  0.270700  0.750000  1.0  -0.025
  C  C124  1  0.135350  0.864650  0.750000  1.0  -0.0268
  C  C125  1  0.729300  0.864650  0.250000  1.0  -0.0274
  C  C126  1  0.135350  0.270700  0.250000  1.0  -0.025
  C  C127  1  0.135350  0.864650  0.250000  1.0  -0.0268
  C  C128  1  0.270700  0.135350  0.250000  1.0  -0.0268
  C  C129  1  0.864650  0.729300  0.250000  1.0  -0.025
  C  C130  1  0.864650  0.135350  0.250000  1.0  -0.0271
  N  N131  1  0.479100  0.239550  0.750000  1.0  -0.277
  N  N132  1  0.760450  0.520900  0.750000  1.0  -0.2802
  N  N133  1  0.760450  0.239550  0.750000  1.0  -0.2785
  N  N134  1  0.520900  0.760450  0.750000  1.0  -0.2782
  N  N135  1  0.239550  0.479100  0.750000  1.0  -0.2829
  N  N136  1  0.239550  0.760450  0.750000  1.0  -0.2767
  N  N137  1  0.520900  0.760450  0.250000  1.0  -0.2782
  N  N138  1  0.239550  0.479100  0.250000  1.0  -0.2829
  N  N139  1  0.239550  0.760450  0.250000  1.0  -0.2767
  N  N140  1  0.479100  0.239550  0.250000  1.0  -0.277
  N  N141  1  0.760450  0.520900  0.250000  1.0  -0.2802
  N  N142  1  0.760450  0.239550  0.250000  1.0  -0.2785
  O  O143  1  0.589300  0.199700  0.855500  1.0  -0.5677
  O  O144  1  0.449200  0.064900  0.908800  1.0  -0.5974
  O  O145  1  0.610400  0.410700  0.855500  1.0  -0.565
  O  O146  1  0.615700  0.550800  0.908800  1.0  -0.5975
  O  O147  1  0.800300  0.389600  0.855500  1.0  -0.5657
  O  O148  1  0.935100  0.384300  0.908800  1.0  -0.598
  O  O149  1  0.410700  0.800300  0.855500  1.0  -0.5665
  O  O150  1  0.550800  0.935100  0.908800  1.0  -0.5973
  O  O151  1  0.389600  0.589300  0.855500  1.0  -0.5653
  O  O152  1  0.384300  0.449200  0.908800  1.0  -0.5976
  O  O153  1  0.199700  0.610400  0.855500  1.0  -0.5662
  O  O154  1  0.064900  0.615700  0.908800  1.0  -0.5977
  O  O155  1  0.389600  0.800300  0.644500  1.0  -0.5673
  O  O156  1  0.384300  0.935100  0.591200  1.0  -0.5973
  O  O157  1  0.199700  0.589300  0.644500  1.0  -0.5643
  O  O158  1  0.064900  0.449200  0.591200  1.0  -0.5977
  O  O159  1  0.410700  0.610400  0.644500  1.0  -0.565
  O  O160  1  0.550800  0.615700  0.591200  1.0  -0.598
  O  O161  1  0.610400  0.199700  0.644500  1.0  -0.5651
  O  O162  1  0.615700  0.064900  0.591200  1.0  -0.5971
  O  O163  1  0.800300  0.410700  0.644500  1.0  -0.5649
  O  O164  1  0.935100  0.550800  0.591200  1.0  -0.5977
  O  O165  1  0.589300  0.389600  0.644500  1.0  -0.5654
  O  O166  1  0.449200  0.384300  0.591200  1.0  -0.598
  O  O167  1  0.410700  0.800300  0.144500  1.0  -0.5655
  O  O168  1  0.550800  0.935100  0.091200  1.0  -0.5974
  O  O169  1  0.389600  0.589300  0.144500  1.0  -0.5641
  O  O170  1  0.384300  0.449200  0.091200  1.0  -0.5979
  O  O171  1  0.199700  0.610400  0.144500  1.0  -0.5657
  O  O172  1  0.064900  0.615700  0.091200  1.0  -0.5981
  O  O173  1  0.589300  0.199700  0.144500  1.0  -0.5669
  O  O174  1  0.449200  0.064900  0.091200  1.0  -0.5974
  O  O175  1  0.610400  0.410700  0.144500  1.0  -0.5646
  O  O176  1  0.615700  0.550800  0.091200  1.0  -0.5979
  O  O177  1  0.800300  0.389600  0.144500  1.0  -0.5647
  O  O178  1  0.935100  0.384300  0.091200  1.0  -0.598
  O  O179  1  0.610400  0.199700  0.355500  1.0  -0.5662
  O  O180  1  0.615700  0.064900  0.408800  1.0  -0.5973
  O  O181  1  0.800300  0.410700  0.355500  1.0  -0.5651
  O  O182  1  0.935100  0.550800  0.408800  1.0  -0.5976
  O  O183  1  0.589300  0.389600  0.355500  1.0  -0.5662
  O  O184  1  0.449200  0.384300  0.408800  1.0  -0.598
  O  O185  1  0.389600  0.800300  0.355500  1.0  -0.5681
  O  O186  1  0.384300  0.935100  0.408800  1.0  -0.5973
  O  O187  1  0.199700  0.589300  0.355500  1.0  -0.5655
  O  O188  1  0.064900  0.449200  0.408800  1.0  -0.5974
  O  O189  1  0.410700  0.610400  0.355500  1.0  -0.5655
  O  O190  1  0.550800  0.615700  0.408800  1.0  -0.5981
