# generated using pymatgen
data_Yb2Co3H18C42(NO4)6
_symmetry_space_group_name_H-M   'P 1'
_cell_length_a   15.01440000
_cell_length_b   15.01440000
_cell_length_c   15.61650000
_cell_angle_alpha   90.00000000
_cell_angle_beta   90.00000000
_cell_angle_gamma   120.00000000
_symmetry_Int_Tables_number   1
_chemical_formula_structural   Yb2Co3H18C42(NO4)6
_chemical_formula_sum   'Yb4 Co6 H36 C84 N12 O48'
_cell_volume   3048.80958242
_cell_formula_units_Z   2
loop_
 _symmetry_equiv_pos_site_id
 _symmetry_equiv_pos_as_xyz
  1  'x, y, z'
loop_
 _atom_site_type_symbol
 _atom_site_label
 _atom_site_symmetry_multiplicity
 _atom_site_fract_x
 _atom_site_fract_y
 _atom_site_fract_z
 _atom_site_occupancy
 _atom_site_charge
  Yb  Yb1  1  0.666667  0.333333  0.250000  1.0  1.1414
  Yb  Yb2  1  0.333333  0.666667  0.250000  1.0  1.1414
  Yb  Yb3  1  0.333333  0.666667  0.750000  1.0  1.1414
  Yb  Yb4  1  0.666667  0.333333  0.750000  1.0  1.1414
  Co  Co5  1  0.500000  0.000000  0.500000  1.0  1.1874
  Co  Co6  1  0.500000  0.500000  0.500000  1.0  1.1874
  Co  Co7  1  0.000000  0.500000  0.500000  1.0  1.1874
  Co  Co8  1  0.500000  0.000000  0.000000  1.0  1.1874
  Co  Co9  1  0.000000  0.500000  0.000000  1.0  1.1874
  Co  Co10  1  0.500000  0.500000  0.000000  1.0  1.1874
  H  H11  1  0.767800  0.055000  0.346800  1.0  0.1298
  H  H12  1  0.287200  0.232200  0.346800  1.0  0.1305
  H  H13  1  0.945000  0.712800  0.346800  1.0  0.1306
  H  H14  1  0.232200  0.945000  0.346800  1.0  0.1302
  H  H15  1  0.712800  0.767800  0.346800  1.0  0.1303
  H  H16  1  0.055000  0.287200  0.346800  1.0  0.1302
  H  H17  1  0.712800  0.945000  0.153200  1.0  0.1296
  H  H18  1  0.055000  0.767800  0.153200  1.0  0.1303
  H  H19  1  0.232200  0.287200  0.153200  1.0  0.1303
  H  H20  1  0.287200  0.055000  0.153200  1.0  0.1297
  H  H21  1  0.945000  0.232200  0.153200  1.0  0.1299
  H  H22  1  0.767800  0.712800  0.153200  1.0  0.1303
  H  H23  1  0.232200  0.945000  0.653200  1.0  0.1298
  H  H24  1  0.712800  0.767800  0.653200  1.0  0.1301
  H  H25  1  0.055000  0.287200  0.653200  1.0  0.13
  H  H26  1  0.767800  0.055000  0.653200  1.0  0.1296
  H  H27  1  0.287200  0.232200  0.653200  1.0  0.1301
  H  H28  1  0.945000  0.712800  0.653200  1.0  0.1304
  H  H29  1  0.287200  0.055000  0.846800  1.0  0.1301
  H  H30  1  0.945000  0.232200  0.846800  1.0  0.1303
  H  H31  1  0.767800  0.712800  0.846800  1.0  0.1305
  H  H32  1  0.712800  0.945000  0.846800  1.0  0.1298
  H  H33  1  0.055000  0.767800  0.846800  1.0  0.1305
  H  H34  1  0.232200  0.287200  0.846800  1.0  0.1305
  H  H35  1  0.901600  0.098400  0.250000  1.0  0.0993
  H  H36  1  0.196800  0.098400  0.250000  1.0  0.0998
  H  H37  1  0.901600  0.803200  0.250000  1.0  0.0968
  H  H38  1  0.098400  0.901600  0.250000  1.0  0.0994
  H  H39  1  0.803200  0.901600  0.250000  1.0  0.0994
  H  H40  1  0.098400  0.196800  0.250000  1.0  0.0969
  H  H41  1  0.098400  0.901600  0.750000  1.0  0.0994
  H  H42  1  0.803200  0.901600  0.750000  1.0  0.0994
  H  H43  1  0.098400  0.196800  0.750000  1.0  0.0969
  H  H44  1  0.901600  0.098400  0.750000  1.0  0.0993
  H  H45  1  0.196800  0.098400  0.750000  1.0  0.0998
  H  H46  1  0.901600  0.803200  0.750000  1.0  0.0968
  C  C47  1  0.785800  0.107600  0.307300  1.0  -0.0805
  C  C48  1  0.734000  0.161600  0.303900  1.0  0.1341
  C  C49  1  0.644400  0.138500  0.361300  1.0  0.6646
  C  C50  1  0.321800  0.214200  0.307300  1.0  -0.0808
  C  C51  1  0.427600  0.266000  0.303900  1.0  0.1323
  C  C52  1  0.494100  0.355600  0.361300  1.0  0.6641
  C  C53  1  0.892400  0.678200  0.307300  1.0  -0.0798
  C  C54  1  0.838400  0.572400  0.303900  1.0  0.1331
  C  C55  1  0.861500  0.505900  0.361300  1.0  0.6643
  C  C56  1  0.214200  0.892400  0.307300  1.0  -0.0804
  C  C57  1  0.266000  0.838400  0.303900  1.0  0.1338
  C  C58  1  0.355600  0.861500  0.361300  1.0  0.665
  C  C59  1  0.678200  0.785800  0.307300  1.0  -0.0799
  C  C60  1  0.572400  0.734000  0.303900  1.0  0.1331
  C  C61  1  0.505900  0.644400  0.361300  1.0  0.6647
  C  C62  1  0.107600  0.321800  0.307300  1.0  -0.0802
  C  C63  1  0.161600  0.427600  0.303900  1.0  0.1331
  C  C64  1  0.138500  0.494100  0.361300  1.0  0.6634
  C  C65  1  0.678200  0.892400  0.192700  1.0  -0.0814
  C  C66  1  0.572400  0.838400  0.196100  1.0  0.1342
  C  C67  1  0.505900  0.861500  0.138700  1.0  0.6655
  C  C68  1  0.107600  0.785800  0.192700  1.0  -0.0806
  C  C69  1  0.161600  0.734000  0.196100  1.0  0.1324
  C  C70  1  0.138500  0.644400  0.138700  1.0  0.6651
  C  C71  1  0.214200  0.321800  0.192700  1.0  -0.0813
  C  C72  1  0.266000  0.427600  0.196100  1.0  0.1332
  C  C73  1  0.355600  0.494100  0.138700  1.0  0.6648
  C  C74  1  0.321800  0.107600  0.192700  1.0  -0.0806
  C  C75  1  0.427600  0.161600  0.196100  1.0  0.1342
  C  C76  1  0.494100  0.138500  0.138700  1.0  0.6655
  C  C77  1  0.892400  0.214200  0.192700  1.0  -0.0819
  C  C78  1  0.838400  0.266000  0.196100  1.0  0.1334
  C  C79  1  0.861500  0.355600  0.138700  1.0  0.6655
  C  C80  1  0.785800  0.678200  0.192700  1.0  -0.0809
  C  C81  1  0.734000  0.572400  0.196100  1.0  0.1331
  C  C82  1  0.644400  0.505900  0.138700  1.0  0.6645
  C  C83  1  0.214200  0.892400  0.692700  1.0  -0.0783
  C  C84  1  0.266000  0.838400  0.696100  1.0  0.1339
  C  C85  1  0.355600  0.861500  0.638700  1.0  0.6656
  C  C86  1  0.678200  0.785800  0.692700  1.0  -0.0785
  C  C87  1  0.572400  0.734000  0.696100  1.0  0.1327
  C  C88  1  0.505900  0.644400  0.638700  1.0  0.6652
  C  C89  1  0.107600  0.321800  0.692700  1.0  -0.078
  C  C90  1  0.161600  0.427600  0.696100  1.0  0.1334
  C  C91  1  0.138500  0.494100  0.638700  1.0  0.6646
  C  C92  1  0.785800  0.107600  0.692700  1.0  -0.0788
  C  C93  1  0.734000  0.161600  0.696100  1.0  0.1342
  C  C94  1  0.644400  0.138500  0.638700  1.0  0.6655
  C  C95  1  0.321800  0.214200  0.692700  1.0  -0.0788
  C  C96  1  0.427600  0.266000  0.696100  1.0  0.1327
  C  C97  1  0.494100  0.355600  0.638700  1.0  0.6653
  C  C98  1  0.892400  0.678200  0.692700  1.0  -0.0787
  C  C99  1  0.838400  0.572400  0.696100  1.0  0.1327
  C  C100  1  0.861500  0.505900  0.638700  1.0  0.6645
  C  C101  1  0.321800  0.107600  0.807300  1.0  -0.0836
  C  C102  1  0.427600  0.161600  0.803900  1.0  0.1342
  C  C103  1  0.494100  0.138500  0.861300  1.0  0.6652
  C  C104  1  0.892400  0.214200  0.807300  1.0  -0.0828
  C  C105  1  0.838400  0.266000  0.803900  1.0  0.133
  C  C106  1  0.861500  0.355600  0.861300  1.0  0.6643
  C  C107  1  0.785800  0.678200  0.807300  1.0  -0.0831
  C  C108  1  0.734000  0.572400  0.803900  1.0  0.1335
  C  C109  1  0.644400  0.505900  0.861300  1.0  0.6638
  C  C110  1  0.678200  0.892400  0.807300  1.0  -0.0829
  C  C111  1  0.572400  0.838400  0.803900  1.0  0.1341
  C  C112  1  0.505900  0.861500  0.861300  1.0  0.6644
  C  C113  1  0.107600  0.785800  0.807300  1.0  -0.0834
  C  C114  1  0.161600  0.734000  0.803900  1.0  0.1328
  C  C115  1  0.138500  0.644400  0.861300  1.0  0.6646
  C  C116  1  0.214200  0.321800  0.807300  1.0  -0.0829
  C  C117  1  0.266000  0.427600  0.803900  1.0  0.1329
  C  C118  1  0.355600  0.494100  0.861300  1.0  0.6639
  C  C119  1  0.865800  0.134200  0.250000  1.0  -0.0238
  C  C120  1  0.268400  0.134200  0.250000  1.0  -0.0222
  C  C121  1  0.865800  0.731600  0.250000  1.0  -0.0206
  C  C122  1  0.134200  0.865800  0.250000  1.0  -0.0223
  C  C123  1  0.731600  0.865800  0.250000  1.0  -0.0241
  C  C124  1  0.134200  0.268400  0.250000  1.0  -0.0199
  C  C125  1  0.134200  0.865800  0.750000  1.0  -0.0223
  C  C126  1  0.731600  0.865800  0.750000  1.0  -0.0241
  C  C127  1  0.134200  0.268400  0.750000  1.0  -0.0199
  C  C128  1  0.865800  0.134200  0.750000  1.0  -0.0238
  C  C129  1  0.268400  0.134200  0.750000  1.0  -0.0222
  C  C130  1  0.865800  0.731600  0.750000  1.0  -0.0206
  N  N131  1  0.760000  0.240000  0.250000  1.0  -0.3405
  N  N132  1  0.480000  0.240000  0.250000  1.0  -0.3402
  N  N133  1  0.760000  0.520000  0.250000  1.0  -0.3423
  N  N134  1  0.240000  0.760000  0.250000  1.0  -0.3404
  N  N135  1  0.520000  0.760000  0.250000  1.0  -0.3405
  N  N136  1  0.240000  0.480000  0.250000  1.0  -0.3434
  N  N137  1  0.240000  0.760000  0.750000  1.0  -0.3404
  N  N138  1  0.520000  0.760000  0.750000  1.0  -0.3405
  N  N139  1  0.240000  0.480000  0.750000  1.0  -0.3434
  N  N140  1  0.760000  0.240000  0.750000  1.0  -0.3405
  N  N141  1  0.480000  0.240000  0.750000  1.0  -0.3402
  N  N142  1  0.760000  0.520000  0.750000  1.0  -0.3423
  O  O143  1  0.609200  0.199600  0.355400  1.0  -0.6078
  O  O144  1  0.613000  0.062500  0.408400  1.0  -0.5935
  O  O145  1  0.590400  0.390800  0.355400  1.0  -0.6086
  O  O146  1  0.449500  0.387000  0.408400  1.0  -0.5954
  O  O147  1  0.800400  0.409600  0.355400  1.0  -0.6077
  O  O148  1  0.937500  0.550500  0.408400  1.0  -0.5947
  O  O149  1  0.390800  0.800400  0.355400  1.0  -0.6085
  O  O150  1  0.387000  0.937500  0.408400  1.0  -0.5943
  O  O151  1  0.409600  0.609200  0.355400  1.0  -0.6074
  O  O152  1  0.550500  0.613000  0.408400  1.0  -0.5954
  O  O153  1  0.199600  0.590400  0.355400  1.0  -0.6085
  O  O154  1  0.062500  0.449500  0.408400  1.0  -0.5922
  O  O155  1  0.409600  0.800400  0.144600  1.0  -0.6075
  O  O156  1  0.550500  0.937500  0.091600  1.0  -0.5944
  O  O157  1  0.199600  0.609200  0.144600  1.0  -0.6079
  O  O158  1  0.062500  0.613000  0.091600  1.0  -0.5954
  O  O159  1  0.390800  0.590400  0.144600  1.0  -0.6081
  O  O160  1  0.387000  0.449500  0.091600  1.0  -0.5947
  O  O161  1  0.590400  0.199600  0.144600  1.0  -0.6079
  O  O162  1  0.449500  0.062500  0.091600  1.0  -0.5943
  O  O163  1  0.800400  0.390800  0.144600  1.0  -0.6077
  O  O164  1  0.937500  0.387000  0.091600  1.0  -0.5955
  O  O165  1  0.609200  0.409600  0.144600  1.0  -0.6069
  O  O166  1  0.613000  0.550500  0.091600  1.0  -0.5934
  O  O167  1  0.390800  0.800400  0.644600  1.0  -0.6082
  O  O168  1  0.387000  0.937500  0.591600  1.0  -0.5943
  O  O169  1  0.409600  0.609200  0.644600  1.0  -0.6073
  O  O170  1  0.550500  0.613000  0.591600  1.0  -0.5956
  O  O171  1  0.199600  0.590400  0.644600  1.0  -0.6077
  O  O172  1  0.062500  0.449500  0.591600  1.0  -0.5927
  O  O173  1  0.609200  0.199600  0.644600  1.0  -0.6073
  O  O174  1  0.613000  0.062500  0.591600  1.0  -0.5933
  O  O175  1  0.590400  0.390800  0.644600  1.0  -0.6084
  O  O176  1  0.449500  0.387000  0.591600  1.0  -0.5952
  O  O177  1  0.800400  0.409600  0.644600  1.0  -0.6077
  O  O178  1  0.937500  0.550500  0.591600  1.0  -0.5947
  O  O179  1  0.590400  0.199600  0.855400  1.0  -0.6081
  O  O180  1  0.449500  0.062500  0.908400  1.0  -0.5937
  O  O181  1  0.800400  0.390800  0.855400  1.0  -0.6083
  O  O182  1  0.937500  0.387000  0.908400  1.0  -0.5955
  O  O183  1  0.609200  0.409600  0.855400  1.0  -0.6075
  O  O184  1  0.613000  0.550500  0.908400  1.0  -0.5925
  O  O185  1  0.409600  0.800400  0.855400  1.0  -0.6079
  O  O186  1  0.550500  0.937500  0.908400  1.0  -0.5935
  O  O187  1  0.199600  0.609200  0.855400  1.0  -0.6078
  O  O188  1  0.062500  0.613000  0.908400  1.0  -0.5947
  O  O189  1  0.390800  0.590400  0.855400  1.0  -0.6082
  O  O190  1  0.387000  0.449500  0.908400  1.0  -0.5938
