# generated using pymatgen
data_Pr2Co3H18C42(NO4)6
_symmetry_space_group_name_H-M   'P 1'
_cell_length_a   15.23480000
_cell_length_b   15.49970000
_cell_length_c   15.49970000
_cell_angle_alpha   120.00000000
_cell_angle_beta   90.00000000
_cell_angle_gamma   90.00000000
_symmetry_Int_Tables_number   1
_chemical_formula_structural   Pr2Co3H18C42(NO4)6
_chemical_formula_sum   'Pr4 Co6 H36 C84 N12 O48'
_cell_volume   3169.66944769
_cell_formula_units_Z   2
loop_
 _symmetry_equiv_pos_site_id
 _symmetry_equiv_pos_as_xyz
  1  'x, y, z'
loop_
 _atom_site_type_symbol
 _atom_site_label
 _atom_site_symmetry_multiplicity
 _atom_site_fract_x
 _atom_site_fract_y
 _atom_site_fract_z
 _atom_site_occupancy
 _atom_site_charge
  Pr  Pr1  1  0.250000  0.333333  0.666667  1.0  2.1145
  Pr  Pr2  1  0.250000  0.666667  0.333333  1.0  2.1145
  Pr  Pr3  1  0.750000  0.666667  0.333333  1.0  2.1145
  Pr  Pr4  1  0.750000  0.333333  0.666667  1.0  2.1145
  Co  Co5  1  0.500000  0.000000  0.500000  1.0  1.0694
  Co  Co6  1  0.500000  0.500000  0.000000  1.0  1.0694
  Co  Co7  1  0.500000  0.500000  0.500000  1.0  1.0694
  Co  Co8  1  0.000000  0.500000  0.500000  1.0  1.0694
  Co  Co9  1  0.000000  0.500000  0.000000  1.0  1.0694
  Co  Co10  1  0.000000  0.000000  0.500000  1.0  1.0694
  H  H11  1  0.344300  0.053500  0.766500  1.0  0.1167
  H  H12  1  0.344300  0.713000  0.946500  1.0  0.1171
  H  H13  1  0.344300  0.233500  0.287000  1.0  0.1169
  H  H14  1  0.344300  0.946500  0.233500  1.0  0.1167
  H  H15  1  0.344300  0.287000  0.053500  1.0  0.1168
  H  H16  1  0.344300  0.766500  0.713000  1.0  0.117
  H  H17  1  0.155700  0.287000  0.233500  1.0  0.1174
  H  H18  1  0.155700  0.766500  0.053500  1.0  0.1173
  H  H19  1  0.155700  0.946500  0.713000  1.0  0.1171
  H  H20  1  0.155700  0.713000  0.766500  1.0  0.1174
  H  H21  1  0.155700  0.233500  0.946500  1.0  0.1173
  H  H22  1  0.155700  0.053500  0.287000  1.0  0.1163
  H  H23  1  0.655700  0.946500  0.233500  1.0  0.1169
  H  H24  1  0.655700  0.287000  0.053500  1.0  0.1171
  H  H25  1  0.655700  0.766500  0.713000  1.0  0.1174
  H  H26  1  0.655700  0.053500  0.766500  1.0  0.1169
  H  H27  1  0.655700  0.713000  0.946500  1.0  0.1172
  H  H28  1  0.655700  0.233500  0.287000  1.0  0.1172
  H  H29  1  0.844300  0.713000  0.766500  1.0  0.1173
  H  H30  1  0.844300  0.233500  0.946500  1.0  0.117
  H  H31  1  0.844300  0.053500  0.287000  1.0  0.1163
  H  H32  1  0.844300  0.287000  0.233500  1.0  0.117
  H  H33  1  0.844300  0.766500  0.053500  1.0  0.117
  H  H34  1  0.844300  0.946500  0.713000  1.0  0.1167
  H  H35  1  0.250000  0.100400  0.899600  1.0  0.0872
  H  H36  1  0.250000  0.799200  0.899600  1.0  0.0847
  H  H37  1  0.250000  0.100400  0.200800  1.0  0.0872
  H  H38  1  0.250000  0.899600  0.100400  1.0  0.087
  H  H39  1  0.250000  0.200800  0.100400  1.0  0.084
  H  H40  1  0.250000  0.899600  0.799200  1.0  0.087
  H  H41  1  0.750000  0.899600  0.100400  1.0  0.087
  H  H42  1  0.750000  0.200800  0.100400  1.0  0.084
  H  H43  1  0.750000  0.899600  0.799200  1.0  0.087
  H  H44  1  0.750000  0.100400  0.899600  1.0  0.0872
  H  H45  1  0.750000  0.799200  0.899600  1.0  0.0847
  H  H46  1  0.750000  0.100400  0.200800  1.0  0.0872
  C  C47  1  0.361200  0.134500  0.646800  1.0  0.6575
  C  C48  1  0.303700  0.159200  0.735600  1.0  0.1485
  C  C49  1  0.305900  0.106700  0.785700  1.0  -0.1236
  C  C50  1  0.361200  0.512300  0.865500  1.0  0.6571
  C  C51  1  0.303700  0.576400  0.840800  1.0  0.1472
  C  C52  1  0.305900  0.679000  0.893300  1.0  -0.1235
  C  C53  1  0.361200  0.353200  0.487700  1.0  0.6562
  C  C54  1  0.303700  0.264400  0.423600  1.0  0.1476
  C  C55  1  0.305900  0.214300  0.321000  1.0  -0.1249
  C  C56  1  0.361200  0.865500  0.353200  1.0  0.6573
  C  C57  1  0.303700  0.840800  0.264400  1.0  0.1472
  C  C58  1  0.305900  0.893300  0.214300  1.0  -0.1242
  C  C59  1  0.361200  0.487700  0.134500  1.0  0.6568
  C  C60  1  0.303700  0.423600  0.159200  1.0  0.1466
  C  C61  1  0.305900  0.321000  0.106700  1.0  -0.1232
  C  C62  1  0.361200  0.646800  0.512300  1.0  0.6566
  C  C63  1  0.303700  0.735600  0.576400  1.0  0.148
  C  C64  1  0.305900  0.785700  0.679000  1.0  -0.1245
  C  C65  1  0.138800  0.487700  0.353200  1.0  0.6573
  C  C66  1  0.196300  0.423600  0.264400  1.0  0.1471
  C  C67  1  0.194100  0.321000  0.214300  1.0  -0.1241
  C  C68  1  0.138800  0.646800  0.134500  1.0  0.6571
  C  C69  1  0.196300  0.735600  0.159200  1.0  0.1479
  C  C70  1  0.194100  0.785700  0.106700  1.0  -0.1254
  C  C71  1  0.138800  0.865500  0.512300  1.0  0.6583
  C  C72  1  0.196300  0.840800  0.576400  1.0  0.1483
  C  C73  1  0.194100  0.893300  0.679000  1.0  -0.1251
  C  C74  1  0.138800  0.512300  0.646800  1.0  0.6572
  C  C75  1  0.196300  0.576400  0.735600  1.0  0.1468
  C  C76  1  0.194100  0.679000  0.785700  1.0  -0.1243
  C  C77  1  0.138800  0.353200  0.865500  1.0  0.6569
  C  C78  1  0.196300  0.264400  0.840800  1.0  0.1481
  C  C79  1  0.194100  0.214300  0.893300  1.0  -0.1258
  C  C80  1  0.138800  0.134500  0.487700  1.0  0.6575
  C  C81  1  0.196300  0.159200  0.423600  1.0  0.1478
  C  C82  1  0.194100  0.106700  0.321000  1.0  -0.1245
  C  C83  1  0.638800  0.865500  0.353200  1.0  0.6575
  C  C84  1  0.696300  0.840800  0.264400  1.0  0.1475
  C  C85  1  0.694100  0.893300  0.214300  1.0  -0.124
  C  C86  1  0.638800  0.487700  0.134500  1.0  0.6573
  C  C87  1  0.696300  0.423600  0.159200  1.0  0.147
  C  C88  1  0.694100  0.321000  0.106700  1.0  -0.1235
  C  C89  1  0.638800  0.646800  0.512300  1.0  0.6569
  C  C90  1  0.696300  0.735600  0.576400  1.0  0.1477
  C  C91  1  0.694100  0.785700  0.679000  1.0  -0.1244
  C  C92  1  0.638800  0.134500  0.646800  1.0  0.6582
  C  C93  1  0.696300  0.159200  0.735600  1.0  0.1485
  C  C94  1  0.694100  0.106700  0.785700  1.0  -0.1237
  C  C95  1  0.638800  0.512300  0.865500  1.0  0.6573
  C  C96  1  0.696300  0.576400  0.840800  1.0  0.1469
  C  C97  1  0.694100  0.679000  0.893300  1.0  -0.1232
  C  C98  1  0.638800  0.353200  0.487700  1.0  0.6568
  C  C99  1  0.696300  0.264400  0.423600  1.0  0.148
  C  C100  1  0.694100  0.214300  0.321000  1.0  -0.1251
  C  C101  1  0.861200  0.512300  0.646800  1.0  0.657
  C  C102  1  0.803700  0.576400  0.735600  1.0  0.1472
  C  C103  1  0.805900  0.679000  0.785700  1.0  -0.1244
  C  C104  1  0.861200  0.353200  0.865500  1.0  0.6563
  C  C105  1  0.803700  0.264400  0.840800  1.0  0.1479
  C  C106  1  0.805900  0.214300  0.893300  1.0  -0.1258
  C  C107  1  0.861200  0.134500  0.487700  1.0  0.6573
  C  C108  1  0.803700  0.159200  0.423600  1.0  0.1476
  C  C109  1  0.805900  0.106700  0.321000  1.0  -0.1243
  C  C110  1  0.861200  0.487700  0.353200  1.0  0.6569
  C  C111  1  0.803700  0.423600  0.264400  1.0  0.1469
  C  C112  1  0.805900  0.321000  0.214300  1.0  -0.1238
  C  C113  1  0.861200  0.646800  0.134500  1.0  0.6566
  C  C114  1  0.803700  0.735600  0.159200  1.0  0.1482
  C  C115  1  0.805900  0.785700  0.106700  1.0  -0.1254
  C  C116  1  0.861200  0.865500  0.512300  1.0  0.6576
  C  C117  1  0.803700  0.840800  0.576400  1.0  0.1484
  C  C118  1  0.805900  0.893300  0.679000  1.0  -0.1252
  C  C119  1  0.250000  0.135050  0.864950  1.0  -0.0192
  C  C120  1  0.250000  0.729900  0.864950  1.0  -0.0187
  C  C121  1  0.250000  0.135050  0.270100  1.0  -0.0193
  C  C122  1  0.250000  0.864950  0.135050  1.0  -0.0189
  C  C123  1  0.250000  0.270100  0.135050  1.0  -0.0187
  C  C124  1  0.250000  0.864950  0.729900  1.0  -0.0194
  C  C125  1  0.750000  0.864950  0.135050  1.0  -0.0189
  C  C126  1  0.750000  0.270100  0.135050  1.0  -0.0187
  C  C127  1  0.750000  0.864950  0.729900  1.0  -0.0194
  C  C128  1  0.750000  0.135050  0.864950  1.0  -0.0192
  C  C129  1  0.750000  0.729900  0.864950  1.0  -0.0187
  C  C130  1  0.750000  0.135050  0.270100  1.0  -0.0193
  N  N131  1  0.250000  0.237100  0.762900  1.0  -0.4055
  N  N132  1  0.250000  0.525800  0.762900  1.0  -0.4041
  N  N133  1  0.250000  0.237100  0.474200  1.0  -0.4044
  N  N134  1  0.250000  0.762900  0.237100  1.0  -0.4045
  N  N135  1  0.250000  0.474200  0.237100  1.0  -0.4051
  N  N136  1  0.250000  0.762900  0.525800  1.0  -0.4056
  N  N137  1  0.750000  0.762900  0.237100  1.0  -0.4045
  N  N138  1  0.750000  0.474200  0.237100  1.0  -0.4051
  N  N139  1  0.750000  0.762900  0.525800  1.0  -0.4056
  N  N140  1  0.750000  0.237100  0.762900  1.0  -0.4055
  N  N141  1  0.750000  0.525800  0.762900  1.0  -0.4041
  N  N142  1  0.750000  0.237100  0.474200  1.0  -0.4044
  O  O143  1  0.359170  0.195300  0.614010  1.0  -0.6622
  O  O144  1  0.405800  0.057600  0.612600  1.0  -0.586
  O  O145  1  0.359170  0.418710  0.804700  1.0  -0.6609
  O  O146  1  0.405800  0.555000  0.942400  1.0  -0.5865
  O  O147  1  0.359170  0.385990  0.581290  1.0  -0.6624
  O  O148  1  0.405800  0.387400  0.445000  1.0  -0.5866
  O  O149  1  0.359170  0.804700  0.385990  1.0  -0.6628
  O  O150  1  0.405800  0.942400  0.387400  1.0  -0.586
  O  O151  1  0.359170  0.581290  0.195300  1.0  -0.6601
  O  O152  1  0.405800  0.445000  0.057600  1.0  -0.5869
  O  O153  1  0.359170  0.614010  0.418710  1.0  -0.6625
  O  O154  1  0.405800  0.612600  0.555000  1.0  -0.5857
  O  O155  1  0.140830  0.581290  0.385990  1.0  -0.661
  O  O156  1  0.094200  0.445000  0.387400  1.0  -0.5863
  O  O157  1  0.140830  0.614010  0.195300  1.0  -0.6621
  O  O158  1  0.094200  0.612600  0.057600  1.0  -0.5864
  O  O159  1  0.140830  0.804700  0.418710  1.0  -0.6626
  O  O160  1  0.094200  0.942400  0.555000  1.0  -0.5863
  O  O161  1  0.140830  0.418710  0.614010  1.0  -0.6603
  O  O162  1  0.094200  0.555000  0.612600  1.0  -0.5863
  O  O163  1  0.140830  0.385990  0.804700  1.0  -0.6618
  O  O164  1  0.094200  0.387400  0.942400  1.0  -0.5863
  O  O165  1  0.140830  0.195300  0.581290  1.0  -0.663
  O  O166  1  0.094200  0.057600  0.445000  1.0  -0.5853
  O  O167  1  0.640830  0.804700  0.385990  1.0  -0.6625
  O  O168  1  0.594200  0.942400  0.387400  1.0  -0.586
  O  O169  1  0.640830  0.581290  0.195300  1.0  -0.661
  O  O170  1  0.594200  0.445000  0.057600  1.0  -0.5869
  O  O171  1  0.640830  0.614010  0.418710  1.0  -0.662
  O  O172  1  0.594200  0.612600  0.555000  1.0  -0.5858
  O  O173  1  0.640830  0.195300  0.614010  1.0  -0.6621
  O  O174  1  0.594200  0.057600  0.612600  1.0  -0.5861
  O  O175  1  0.640830  0.418710  0.804700  1.0  -0.6606
  O  O176  1  0.594200  0.555000  0.942400  1.0  -0.5868
  O  O177  1  0.640830  0.385990  0.581290  1.0  -0.6627
  O  O178  1  0.594200  0.387400  0.445000  1.0  -0.5869
  O  O179  1  0.859170  0.418710  0.614010  1.0  -0.6609
  O  O180  1  0.905800  0.555000  0.612600  1.0  -0.587
  O  O181  1  0.859170  0.385990  0.804700  1.0  -0.6616
  O  O182  1  0.905800  0.387400  0.942400  1.0  -0.5865
  O  O183  1  0.859170  0.195300  0.581290  1.0  -0.6628
  O  O184  1  0.905800  0.057600  0.445000  1.0  -0.5862
  O  O185  1  0.859170  0.581290  0.385990  1.0  -0.66
  O  O186  1  0.905800  0.445000  0.387400  1.0  -0.5873
  O  O187  1  0.859170  0.614010  0.195300  1.0  -0.6624
  O  O188  1  0.905800  0.612600  0.057600  1.0  -0.5875
  O  O189  1  0.859170  0.804700  0.418710  1.0  -0.6629
  O  O190  1  0.905800  0.942400  0.555000  1.0  -0.5869
