# generated using pymatgen
data_Ho2Fe3H18C42(NO4)6
_symmetry_space_group_name_H-M   'P 1'
_cell_length_a   15.18700000
_cell_length_b   15.18700000
_cell_length_c   15.61600000
_cell_angle_alpha   90.00000000
_cell_angle_beta   90.00000000
_cell_angle_gamma   120.00000000
_symmetry_Int_Tables_number   1
_chemical_formula_structural   Ho2Fe3H18C42(NO4)6
_chemical_formula_sum   'Ho4 Fe6 H36 C84 N12 O48'
_cell_volume   3119.20858802
_cell_formula_units_Z   2
loop_
 _symmetry_equiv_pos_site_id
 _symmetry_equiv_pos_as_xyz
  1  'x, y, z'
loop_
 _atom_site_type_symbol
 _atom_site_label
 _atom_site_symmetry_multiplicity
 _atom_site_fract_x
 _atom_site_fract_y
 _atom_site_fract_z
 _atom_site_occupancy
 _atom_site_charge
  Ho  Ho1  1  0.666667  0.333333  0.250000  1.0  2.0692
  Ho  Ho2  1  0.333333  0.666667  0.250000  1.0  2.0692
  Ho  Ho3  1  0.333333  0.666667  0.750000  1.0  2.0692
  Ho  Ho4  1  0.666667  0.333333  0.750000  1.0  2.0692
  Fe  Fe5  1  0.500000  0.500000  0.500000  1.0  1.1066
  Fe  Fe6  1  0.000000  0.500000  0.500000  1.0  1.1066
  Fe  Fe7  1  0.500000  0.000000  0.500000  1.0  1.1066
  Fe  Fe8  1  0.000000  0.500000  0.000000  1.0  1.1066
  Fe  Fe9  1  0.500000  0.500000  0.000000  1.0  1.1066
  Fe  Fe10  1  0.500000  0.000000  0.000000  1.0  1.1066
  H  H11  1  0.289300  0.233700  0.344700  1.0  0.1036
  H  H12  1  0.944400  0.710700  0.344700  1.0  0.1039
  H  H13  1  0.766300  0.055600  0.344700  1.0  0.103
  H  H14  1  0.710700  0.766300  0.344700  1.0  0.1036
  H  H15  1  0.055600  0.289300  0.344700  1.0  0.1037
  H  H16  1  0.233700  0.944400  0.344700  1.0  0.1032
  H  H17  1  0.055600  0.766300  0.155300  1.0  0.1035
  H  H18  1  0.233700  0.289300  0.155300  1.0  0.1037
  H  H19  1  0.710700  0.944400  0.155300  1.0  0.1029
  H  H20  1  0.944400  0.233700  0.155300  1.0  0.1031
  H  H21  1  0.766300  0.710700  0.155300  1.0  0.1037
  H  H22  1  0.289300  0.055600  0.155300  1.0  0.103
  H  H23  1  0.710700  0.766300  0.655300  1.0  0.1033
  H  H24  1  0.055600  0.289300  0.655300  1.0  0.1034
  H  H25  1  0.233700  0.944400  0.655300  1.0  0.103
  H  H26  1  0.289300  0.233700  0.655300  1.0  0.1033
  H  H27  1  0.944400  0.710700  0.655300  1.0  0.1038
  H  H28  1  0.766300  0.055600  0.655300  1.0  0.1027
  H  H29  1  0.944400  0.233700  0.844700  1.0  0.1034
  H  H30  1  0.766300  0.710700  0.844700  1.0  0.1038
  H  H31  1  0.289300  0.055600  0.844700  1.0  0.1033
  H  H32  1  0.055600  0.766300  0.844700  1.0  0.1038
  H  H33  1  0.233700  0.289300  0.844700  1.0  0.1039
  H  H34  1  0.710700  0.944400  0.844700  1.0  0.103
  H  H35  1  0.199200  0.099600  0.250000  1.0  0.0931
  H  H36  1  0.900400  0.800800  0.250000  1.0  0.0911
  H  H37  1  0.900400  0.099600  0.250000  1.0  0.0934
  H  H38  1  0.800800  0.900400  0.250000  1.0  0.0935
  H  H39  1  0.099600  0.199200  0.250000  1.0  0.09
  H  H40  1  0.099600  0.900400  0.250000  1.0  0.0933
  H  H41  1  0.800800  0.900400  0.750000  1.0  0.0935
  H  H42  1  0.099600  0.199200  0.750000  1.0  0.09
  H  H43  1  0.099600  0.900400  0.750000  1.0  0.0933
  H  H44  1  0.199200  0.099600  0.750000  1.0  0.0931
  H  H45  1  0.900400  0.800800  0.750000  1.0  0.0911
  H  H46  1  0.900400  0.099600  0.750000  1.0  0.0934
  C  C47  1  0.493700  0.354100  0.361000  1.0  0.6522
  C  C48  1  0.427700  0.266200  0.303900  1.0  0.132
  C  C49  1  0.323600  0.215000  0.306100  1.0  -0.0976
  C  C50  1  0.860400  0.506300  0.361000  1.0  0.6514
  C  C51  1  0.838500  0.572300  0.303900  1.0  0.1325
  C  C52  1  0.891400  0.676400  0.306100  1.0  -0.0965
  C  C53  1  0.645900  0.139600  0.361000  1.0  0.6526
  C  C54  1  0.733800  0.161500  0.303900  1.0  0.1331
  C  C55  1  0.785000  0.108600  0.306100  1.0  -0.096
  C  C56  1  0.506300  0.645900  0.361000  1.0  0.6526
  C  C57  1  0.572300  0.733800  0.303900  1.0  0.1321
  C  C58  1  0.676400  0.785000  0.306100  1.0  -0.0963
  C  C59  1  0.139600  0.493700  0.361000  1.0  0.6514
  C  C60  1  0.161500  0.427700  0.303900  1.0  0.132
  C  C61  1  0.108600  0.323600  0.306100  1.0  -0.0962
  C  C62  1  0.354100  0.860400  0.361000  1.0  0.6527
  C  C63  1  0.266200  0.838500  0.303900  1.0  0.1337
  C  C64  1  0.215000  0.891400  0.306100  1.0  -0.0963
  C  C65  1  0.139600  0.645900  0.139000  1.0  0.6533
  C  C66  1  0.161500  0.733800  0.196100  1.0  0.1317
  C  C67  1  0.108600  0.785000  0.193900  1.0  -0.0983
  C  C68  1  0.354100  0.493700  0.139000  1.0  0.6525
  C  C69  1  0.266200  0.427700  0.196100  1.0  0.1322
  C  C70  1  0.215000  0.323600  0.193900  1.0  -0.0979
  C  C71  1  0.506300  0.860400  0.139000  1.0  0.6538
  C  C72  1  0.572300  0.838500  0.196100  1.0  0.1331
  C  C73  1  0.676400  0.891400  0.193900  1.0  -0.0977
  C  C74  1  0.860400  0.354100  0.139000  1.0  0.654
  C  C75  1  0.838500  0.266200  0.196100  1.0  0.1322
  C  C76  1  0.891400  0.215000  0.193900  1.0  -0.0989
  C  C77  1  0.645900  0.506300  0.139000  1.0  0.6522
  C  C78  1  0.733800  0.572300  0.196100  1.0  0.1318
  C  C79  1  0.785000  0.676400  0.193900  1.0  -0.0979
  C  C80  1  0.493700  0.139600  0.139000  1.0  0.6532
  C  C81  1  0.427700  0.161500  0.196100  1.0  0.1338
  C  C82  1  0.323600  0.108600  0.193900  1.0  -0.0969
  C  C83  1  0.506300  0.645900  0.639000  1.0  0.6533
  C  C84  1  0.572300  0.733800  0.696100  1.0  0.1315
  C  C85  1  0.676400  0.785000  0.693900  1.0  -0.0972
  C  C86  1  0.139600  0.493700  0.639000  1.0  0.6528
  C  C87  1  0.161500  0.427700  0.696100  1.0  0.1322
  C  C88  1  0.108600  0.323600  0.693900  1.0  -0.0962
  C  C89  1  0.354100  0.860400  0.639000  1.0  0.6534
  C  C90  1  0.266200  0.838500  0.696100  1.0  0.1336
  C  C91  1  0.215000  0.891400  0.693900  1.0  -0.0961
  C  C92  1  0.493700  0.354100  0.639000  1.0  0.6539
  C  C93  1  0.427700  0.266200  0.696100  1.0  0.1321
  C  C94  1  0.323600  0.215000  0.693900  1.0  -0.0976
  C  C95  1  0.860400  0.506300  0.639000  1.0  0.6518
  C  C96  1  0.838500  0.572300  0.696100  1.0  0.1319
  C  C97  1  0.891400  0.676400  0.693900  1.0  -0.0969
  C  C98  1  0.645900  0.139600  0.639000  1.0  0.6537
  C  C99  1  0.733800  0.161500  0.696100  1.0  0.1332
  C  C100  1  0.785000  0.108600  0.693900  1.0  -0.0963
  C  C101  1  0.860400  0.354100  0.861000  1.0  0.6524
  C  C102  1  0.838500  0.266200  0.803900  1.0  0.1321
  C  C103  1  0.891400  0.215000  0.806100  1.0  -0.0975
  C  C104  1  0.645900  0.506300  0.861000  1.0  0.6515
  C  C105  1  0.733800  0.572300  0.803900  1.0  0.1323
  C  C106  1  0.785000  0.676400  0.806100  1.0  -0.098
  C  C107  1  0.493700  0.139600  0.861000  1.0  0.6527
  C  C108  1  0.427700  0.161500  0.803900  1.0  0.1339
  C  C109  1  0.323600  0.108600  0.806100  1.0  -0.0976
  C  C110  1  0.139600  0.645900  0.861000  1.0  0.6524
  C  C111  1  0.161500  0.733800  0.803900  1.0  0.1322
  C  C112  1  0.108600  0.785000  0.806100  1.0  -0.0985
  C  C113  1  0.354100  0.493700  0.861000  1.0  0.6514
  C  C114  1  0.266200  0.427700  0.803900  1.0  0.1322
  C  C115  1  0.215000  0.323600  0.806100  1.0  -0.0975
  C  C116  1  0.506300  0.860400  0.861000  1.0  0.6525
  C  C117  1  0.572300  0.838500  0.803900  1.0  0.1331
  C  C118  1  0.676400  0.891400  0.806100  1.0  -0.0968
  C  C119  1  0.269800  0.134900  0.250000  1.0  -0.0466
  C  C120  1  0.865100  0.730200  0.250000  1.0  -0.0443
  C  C121  1  0.865100  0.134900  0.250000  1.0  -0.0484
  C  C122  1  0.730200  0.865100  0.250000  1.0  -0.0485
  C  C123  1  0.134900  0.269800  0.250000  1.0  -0.0444
  C  C124  1  0.134900  0.865100  0.250000  1.0  -0.0467
  C  C125  1  0.730200  0.865100  0.750000  1.0  -0.0485
  C  C126  1  0.134900  0.269800  0.750000  1.0  -0.0444
  C  C127  1  0.134900  0.865100  0.750000  1.0  -0.0467
  C  C128  1  0.269800  0.134900  0.750000  1.0  -0.0466
  C  C129  1  0.865100  0.730200  0.750000  1.0  -0.0443
  C  C130  1  0.865100  0.134900  0.750000  1.0  -0.0484
  N  N131  1  0.479380  0.239690  0.250000  1.0  -0.3684
  N  N132  1  0.760310  0.520620  0.250000  1.0  -0.368
  N  N133  1  0.760310  0.239690  0.250000  1.0  -0.3674
  N  N134  1  0.520620  0.760310  0.250000  1.0  -0.3673
  N  N135  1  0.239690  0.479380  0.250000  1.0  -0.3687
  N  N136  1  0.239690  0.760310  0.250000  1.0  -0.3682
  N  N137  1  0.520620  0.760310  0.750000  1.0  -0.3673
  N  N138  1  0.239690  0.479380  0.750000  1.0  -0.3687
  N  N139  1  0.239690  0.760310  0.750000  1.0  -0.3682
  N  N140  1  0.479380  0.239690  0.750000  1.0  -0.3684
  N  N141  1  0.760310  0.520620  0.750000  1.0  -0.368
  N  N142  1  0.760310  0.239690  0.750000  1.0  -0.3674
  O  O143  1  0.588100  0.388300  0.355730  1.0  -0.6483
  O  O144  1  0.449500  0.385100  0.408400  1.0  -0.6047
  O  O145  1  0.800200  0.411900  0.355730  1.0  -0.647
  O  O146  1  0.935600  0.550500  0.408400  1.0  -0.6041
  O  O147  1  0.611700  0.199800  0.355730  1.0  -0.6475
  O  O148  1  0.614900  0.064400  0.408400  1.0  -0.604
  O  O149  1  0.411900  0.611700  0.355730  1.0  -0.647
  O  O150  1  0.550500  0.614900  0.408400  1.0  -0.6047
  O  O151  1  0.199800  0.588100  0.355730  1.0  -0.6482
  O  O152  1  0.064400  0.449500  0.408400  1.0  -0.6032
  O  O153  1  0.388300  0.800200  0.355730  1.0  -0.6482
  O  O154  1  0.385100  0.935600  0.408400  1.0  -0.6035
  O  O155  1  0.199800  0.611700  0.144270  1.0  -0.6483
  O  O156  1  0.064400  0.614900  0.091600  1.0  -0.6049
  O  O157  1  0.388300  0.588100  0.144270  1.0  -0.6478
  O  O158  1  0.385100  0.449500  0.091600  1.0  -0.6042
  O  O159  1  0.411900  0.800200  0.144270  1.0  -0.6475
  O  O160  1  0.550500  0.935600  0.091600  1.0  -0.6037
  O  O161  1  0.800200  0.388300  0.144270  1.0  -0.6469
  O  O162  1  0.935600  0.385100  0.091600  1.0  -0.6047
  O  O163  1  0.611700  0.411900  0.144270  1.0  -0.6472
  O  O164  1  0.614900  0.550500  0.091600  1.0  -0.6039
  O  O165  1  0.588100  0.199800  0.144270  1.0  -0.6482
  O  O166  1  0.449500  0.064400  0.091600  1.0  -0.6038
  O  O167  1  0.411900  0.611700  0.644270  1.0  -0.6469
  O  O168  1  0.550500  0.614900  0.591600  1.0  -0.6049
  O  O169  1  0.199800  0.588100  0.644270  1.0  -0.648
  O  O170  1  0.064400  0.449500  0.591600  1.0  -0.6037
  O  O171  1  0.388300  0.800200  0.644270  1.0  -0.6482
  O  O172  1  0.385100  0.935600  0.591600  1.0  -0.6037
  O  O173  1  0.588100  0.388300  0.644270  1.0  -0.6483
  O  O174  1  0.449500  0.385100  0.591600  1.0  -0.605
  O  O175  1  0.800200  0.411900  0.644270  1.0  -0.647
  O  O176  1  0.935600  0.550500  0.591600  1.0  -0.6045
  O  O177  1  0.611700  0.199800  0.644270  1.0  -0.6471
  O  O178  1  0.614900  0.064400  0.591600  1.0  -0.6038
  O  O179  1  0.800200  0.388300  0.855730  1.0  -0.6473
  O  O180  1  0.935600  0.385100  0.908400  1.0  -0.6048
  O  O181  1  0.611700  0.411900  0.855730  1.0  -0.6473
  O  O182  1  0.614900  0.550500  0.908400  1.0  -0.604
  O  O183  1  0.588100  0.199800  0.855730  1.0  -0.6481
  O  O184  1  0.449500  0.064400  0.908400  1.0  -0.6041
  O  O185  1  0.199800  0.611700  0.855730  1.0  -0.6481
  O  O186  1  0.064400  0.614900  0.908400  1.0  -0.6048
  O  O187  1  0.388300  0.588100  0.855730  1.0  -0.6477
  O  O188  1  0.385100  0.449500  0.908400  1.0  -0.6041
  O  O189  1  0.411900  0.800200  0.855730  1.0  -0.6477
  O  O190  1  0.550500  0.935600  0.908400  1.0  -0.6038
