# generated using pymatgen
data_Nd2Fe3H18C42(NO4)6
_symmetry_space_group_name_H-M   'P 1'
_cell_length_a   15.32900000
_cell_length_b   15.32900000
_cell_length_c   15.40300000
_cell_angle_alpha   90.00000000
_cell_angle_beta   90.00000000
_cell_angle_gamma   120.00000000
_symmetry_Int_Tables_number   1
_chemical_formula_structural   Nd2Fe3H18C42(NO4)6
_chemical_formula_sum   'Nd4 Fe6 H36 C84 N12 O48'
_cell_volume   3134.46623243
_cell_formula_units_Z   2
loop_
 _symmetry_equiv_pos_site_id
 _symmetry_equiv_pos_as_xyz
  1  'x, y, z'
loop_
 _atom_site_type_symbol
 _atom_site_label
 _atom_site_symmetry_multiplicity
 _atom_site_fract_x
 _atom_site_fract_y
 _atom_site_fract_z
 _atom_site_occupancy
 _atom_site_charge
  Nd  Nd1  1  0.333333  0.666667  0.750000  1.0  2.1473
  Nd  Nd2  1  0.666667  0.333333  0.750000  1.0  2.1473
  Nd  Nd3  1  0.666667  0.333333  0.250000  1.0  2.1473
  Nd  Nd4  1  0.333333  0.666667  0.250000  1.0  2.1473
  Fe  Fe5  1  0.000000  0.500000  0.000000  1.0  1.1279
  Fe  Fe6  1  0.500000  0.000000  0.000000  1.0  1.1279
  Fe  Fe7  1  0.500000  0.500000  0.000000  1.0  1.1279
  Fe  Fe8  1  0.500000  0.500000  0.500000  1.0  1.1279
  Fe  Fe9  1  0.500000  0.000000  0.500000  1.0  1.1279
  Fe  Fe10  1  0.000000  0.500000  0.500000  1.0  1.1279
  H  H11  1  0.054000  0.767700  0.844500  1.0  0.1109
  H  H12  1  0.713700  0.946000  0.844500  1.0  0.1102
  H  H13  1  0.232300  0.286300  0.844500  1.0  0.1111
  H  H14  1  0.946000  0.232300  0.844500  1.0  0.1106
  H  H15  1  0.286300  0.054000  0.844500  1.0  0.1107
  H  H16  1  0.767700  0.713700  0.844500  1.0  0.1109
  H  H17  1  0.286300  0.232300  0.655500  1.0  0.1109
  H  H18  1  0.767700  0.054000  0.655500  1.0  0.1103
  H  H19  1  0.946000  0.713700  0.655500  1.0  0.1109
  H  H20  1  0.713700  0.767700  0.655500  1.0  0.1106
  H  H21  1  0.232300  0.946000  0.655500  1.0  0.1106
  H  H22  1  0.054000  0.286300  0.655500  1.0  0.1109
  H  H23  1  0.946000  0.232300  0.155500  1.0  0.1105
  H  H24  1  0.286300  0.054000  0.155500  1.0  0.1106
  H  H25  1  0.767700  0.713700  0.155500  1.0  0.111
  H  H26  1  0.054000  0.767700  0.155500  1.0  0.1109
  H  H27  1  0.713700  0.946000  0.155500  1.0  0.1103
  H  H28  1  0.232300  0.286300  0.155500  1.0  0.111
  H  H29  1  0.713700  0.767700  0.344500  1.0  0.1106
  H  H30  1  0.232300  0.946000  0.344500  1.0  0.1105
  H  H31  1  0.054000  0.286300  0.344500  1.0  0.111
  H  H32  1  0.286300  0.232300  0.344500  1.0  0.1107
  H  H33  1  0.767700  0.054000  0.344500  1.0  0.1104
  H  H34  1  0.946000  0.713700  0.344500  1.0  0.1108
  H  H35  1  0.099250  0.900750  0.750000  1.0  0.0892
  H  H36  1  0.801500  0.900750  0.750000  1.0  0.0891
  H  H37  1  0.099250  0.198500  0.750000  1.0  0.0866
  H  H38  1  0.900750  0.099250  0.750000  1.0  0.0892
  H  H39  1  0.198500  0.099250  0.750000  1.0  0.0893
  H  H40  1  0.900750  0.801500  0.750000  1.0  0.0878
  H  H41  1  0.900750  0.099250  0.250000  1.0  0.0892
  H  H42  1  0.198500  0.099250  0.250000  1.0  0.0893
  H  H43  1  0.900750  0.801500  0.250000  1.0  0.0878
  H  H44  1  0.099250  0.900750  0.250000  1.0  0.0892
  H  H45  1  0.801500  0.900750  0.250000  1.0  0.0891
  H  H46  1  0.099250  0.198500  0.250000  1.0  0.0866
  C  C47  1  0.136500  0.648800  0.861300  1.0  0.6697
  C  C48  1  0.160000  0.736900  0.803900  1.0  0.1257
  C  C49  1  0.107200  0.786800  0.805900  1.0  -0.1113
  C  C50  1  0.512300  0.863500  0.861300  1.0  0.6674
  C  C51  1  0.576900  0.840000  0.803900  1.0  0.1258
  C  C52  1  0.679600  0.892800  0.805900  1.0  -0.1112
  C  C53  1  0.351200  0.487700  0.861300  1.0  0.6683
  C  C54  1  0.263100  0.423100  0.803900  1.0  0.1249
  C  C55  1  0.213200  0.320400  0.805900  1.0  -0.1108
  C  C56  1  0.863500  0.351200  0.861300  1.0  0.6693
  C  C57  1  0.840000  0.263100  0.803900  1.0  0.1252
  C  C58  1  0.892800  0.213200  0.805900  1.0  -0.1116
  C  C59  1  0.487700  0.136500  0.861300  1.0  0.6686
  C  C60  1  0.423100  0.160000  0.803900  1.0  0.1248
  C  C61  1  0.320400  0.107200  0.805900  1.0  -0.1118
  C  C62  1  0.648800  0.512300  0.861300  1.0  0.6689
  C  C63  1  0.736900  0.576900  0.803900  1.0  0.1257
  C  C64  1  0.786800  0.679600  0.805900  1.0  -0.1112
  C  C65  1  0.487700  0.351200  0.638700  1.0  0.6701
  C  C66  1  0.423100  0.263100  0.696100  1.0  0.1258
  C  C67  1  0.320400  0.213200  0.694100  1.0  -0.1117
  C  C68  1  0.648800  0.136500  0.638700  1.0  0.6681
  C  C69  1  0.736900  0.160000  0.696100  1.0  0.1259
  C  C70  1  0.786800  0.107200  0.694100  1.0  -0.112
  C  C71  1  0.863500  0.512300  0.638700  1.0  0.6683
  C  C72  1  0.840000  0.576900  0.696100  1.0  0.1253
  C  C73  1  0.892800  0.679600  0.694100  1.0  -0.1113
  C  C74  1  0.512300  0.648800  0.638700  1.0  0.6694
  C  C75  1  0.576900  0.736900  0.696100  1.0  0.1252
  C  C76  1  0.679600  0.786800  0.694100  1.0  -0.1123
  C  C77  1  0.351200  0.863500  0.638700  1.0  0.6684
  C  C78  1  0.263100  0.840000  0.696100  1.0  0.1256
  C  C79  1  0.213200  0.892800  0.694100  1.0  -0.1112
  C  C80  1  0.136500  0.487700  0.638700  1.0  0.6692
  C  C81  1  0.160000  0.423100  0.696100  1.0  0.1256
  C  C82  1  0.107200  0.320400  0.694100  1.0  -0.1113
  C  C83  1  0.863500  0.351200  0.138700  1.0  0.6701
  C  C84  1  0.840000  0.263100  0.196100  1.0  0.1255
  C  C85  1  0.892800  0.213200  0.194100  1.0  -0.1116
  C  C86  1  0.487700  0.136500  0.138700  1.0  0.6684
  C  C87  1  0.423100  0.160000  0.196100  1.0  0.1255
  C  C88  1  0.320400  0.107200  0.194100  1.0  -0.1098
  C  C89  1  0.648800  0.512300  0.138700  1.0  0.669
  C  C90  1  0.736900  0.576900  0.196100  1.0  0.1253
  C  C91  1  0.786800  0.679600  0.194100  1.0  -0.1101
  C  C92  1  0.136500  0.648800  0.138700  1.0  0.6696
  C  C93  1  0.160000  0.736900  0.196100  1.0  0.1253
  C  C94  1  0.107200  0.786800  0.194100  1.0  -0.1104
  C  C95  1  0.512300  0.863500  0.138700  1.0  0.6681
  C  C96  1  0.576900  0.840000  0.196100  1.0  0.1257
  C  C97  1  0.679600  0.892800  0.194100  1.0  -0.1113
  C  C98  1  0.351200  0.487700  0.138700  1.0  0.6686
  C  C99  1  0.263100  0.423100  0.196100  1.0  0.125
  C  C100  1  0.213200  0.320400  0.194100  1.0  -0.1102
  C  C101  1  0.512300  0.648800  0.361300  1.0  0.6694
  C  C102  1  0.576900  0.736900  0.303900  1.0  0.1257
  C  C103  1  0.679600  0.786800  0.305900  1.0  -0.1123
  C  C104  1  0.351200  0.863500  0.361300  1.0  0.6686
  C  C105  1  0.263100  0.840000  0.303900  1.0  0.125
  C  C106  1  0.213200  0.892800  0.305900  1.0  -0.1128
  C  C107  1  0.136500  0.487700  0.361300  1.0  0.6685
  C  C108  1  0.160000  0.423100  0.303900  1.0  0.1254
  C  C109  1  0.107200  0.320400  0.305900  1.0  -0.1126
  C  C110  1  0.487700  0.351200  0.361300  1.0  0.6694
  C  C111  1  0.423100  0.263100  0.303900  1.0  0.1254
  C  C112  1  0.320400  0.213200  0.305900  1.0  -0.1127
  C  C113  1  0.648800  0.136500  0.361300  1.0  0.6674
  C  C114  1  0.736900  0.160000  0.303900  1.0  0.1258
  C  C115  1  0.786800  0.107200  0.305900  1.0  -0.1126
  C  C116  1  0.863500  0.512300  0.361300  1.0  0.6688
  C  C117  1  0.840000  0.576900  0.303900  1.0  0.1257
  C  C118  1  0.892800  0.679600  0.305900  1.0  -0.1119
  C  C119  1  0.134250  0.865750  0.750000  1.0  -0.0273
  C  C120  1  0.731500  0.865750  0.750000  1.0  -0.0278
  C  C121  1  0.134250  0.268500  0.750000  1.0  -0.025
  C  C122  1  0.865750  0.134250  0.750000  1.0  -0.0276
  C  C123  1  0.268500  0.134250  0.750000  1.0  -0.0272
  C  C124  1  0.865750  0.731500  0.750000  1.0  -0.0249
  C  C125  1  0.865750  0.134250  0.250000  1.0  -0.0276
  C  C126  1  0.268500  0.134250  0.250000  1.0  -0.0272
  C  C127  1  0.865750  0.731500  0.250000  1.0  -0.0249
  C  C128  1  0.134250  0.865750  0.250000  1.0  -0.0273
  C  C129  1  0.731500  0.865750  0.250000  1.0  -0.0278
  C  C130  1  0.134250  0.268500  0.250000  1.0  -0.025
  N  N131  1  0.237200  0.762800  0.750000  1.0  -0.3712
  N  N132  1  0.525600  0.762800  0.750000  1.0  -0.3717
  N  N133  1  0.237200  0.474400  0.750000  1.0  -0.3735
  N  N134  1  0.762800  0.237200  0.750000  1.0  -0.3717
  N  N135  1  0.474400  0.237200  0.750000  1.0  -0.3716
  N  N136  1  0.762800  0.525600  0.750000  1.0  -0.3724
  N  N137  1  0.762800  0.237200  0.250000  1.0  -0.3717
  N  N138  1  0.474400  0.237200  0.250000  1.0  -0.3716
  N  N139  1  0.762800  0.525600  0.250000  1.0  -0.3724
  N  N140  1  0.237200  0.762800  0.250000  1.0  -0.3712
  N  N141  1  0.525600  0.762800  0.250000  1.0  -0.3717
  N  N142  1  0.237200  0.474400  0.250000  1.0  -0.3735
  O  O143  1  0.196300  0.614600  0.858100  1.0  -0.6796
  O  O144  1  0.060300  0.616100  0.907300  1.0  -0.5996
  O  O145  1  0.418300  0.803700  0.858100  1.0  -0.6792
  O  O146  1  0.555800  0.939700  0.907300  1.0  -0.5989
  O  O147  1  0.385400  0.581700  0.858100  1.0  -0.6779
  O  O148  1  0.383900  0.444200  0.907300  1.0  -0.5998
  O  O149  1  0.803700  0.385400  0.858100  1.0  -0.679
  O  O150  1  0.939700  0.383900  0.907300  1.0  -0.6001
  O  O151  1  0.581700  0.196300  0.858100  1.0  -0.6791
  O  O152  1  0.444200  0.060300  0.907300  1.0  -0.5985
  O  O153  1  0.614600  0.418300  0.858100  1.0  -0.6771
  O  O154  1  0.616100  0.555800  0.907300  1.0  -0.5997
  O  O155  1  0.581700  0.385400  0.641900  1.0  -0.68
  O  O156  1  0.444200  0.383900  0.592700  1.0  -0.5999
  O  O157  1  0.614600  0.196300  0.641900  1.0  -0.6787
  O  O158  1  0.616100  0.060300  0.592700  1.0  -0.5979
  O  O159  1  0.803700  0.418300  0.641900  1.0  -0.6773
  O  O160  1  0.939700  0.555800  0.592700  1.0  -0.5998
  O  O161  1  0.418300  0.614600  0.641900  1.0  -0.679
  O  O162  1  0.555800  0.616100  0.592700  1.0  -0.6004
  O  O163  1  0.385400  0.803700  0.641900  1.0  -0.68
  O  O164  1  0.383900  0.939700  0.592700  1.0  -0.5991
  O  O165  1  0.196300  0.581700  0.641900  1.0  -0.6777
  O  O166  1  0.060300  0.444200  0.592700  1.0  -0.5997
  O  O167  1  0.803700  0.385400  0.141900  1.0  -0.679
  O  O168  1  0.939700  0.383900  0.092700  1.0  -0.6003
  O  O169  1  0.581700  0.196300  0.141900  1.0  -0.6795
  O  O170  1  0.444200  0.060300  0.092700  1.0  -0.5987
  O  O171  1  0.614600  0.418300  0.141900  1.0  -0.6769
  O  O172  1  0.616100  0.555800  0.092700  1.0  -0.5999
  O  O173  1  0.196300  0.614600  0.141900  1.0  -0.6802
  O  O174  1  0.060300  0.616100  0.092700  1.0  -0.6004
  O  O175  1  0.418300  0.803700  0.141900  1.0  -0.6795
  O  O176  1  0.555800  0.939700  0.092700  1.0  -0.599
  O  O177  1  0.385400  0.581700  0.141900  1.0  -0.678
  O  O178  1  0.383900  0.444200  0.092700  1.0  -0.6003
  O  O179  1  0.418300  0.614600  0.358100  1.0  -0.6788
  O  O180  1  0.555800  0.616100  0.407300  1.0  -0.6002
  O  O181  1  0.385400  0.803700  0.358100  1.0  -0.6797
  O  O182  1  0.383900  0.939700  0.407300  1.0  -0.5991
  O  O183  1  0.196300  0.581700  0.358100  1.0  -0.6778
  O  O184  1  0.060300  0.444200  0.407300  1.0  -0.5998
  O  O185  1  0.581700  0.385400  0.358100  1.0  -0.6795
  O  O186  1  0.444200  0.383900  0.407300  1.0  -0.5999
  O  O187  1  0.614600  0.196300  0.358100  1.0  -0.6784
  O  O188  1  0.616100  0.060300  0.407300  1.0  -0.5982
  O  O189  1  0.803700  0.418300  0.358100  1.0  -0.6773
  O  O190  1  0.939700  0.555800  0.407300  1.0  -0.5998
