# generated using pymatgen
data_Sm2Co3H18C42(NO4)6
_symmetry_space_group_name_H-M   'P 1'
_cell_length_a   15.30920000
_cell_length_b   15.30920000
_cell_length_c   15.34600000
_cell_angle_alpha   90.00000000
_cell_angle_beta   90.00000000
_cell_angle_gamma   120.00000000
_symmetry_Int_Tables_number   1
_chemical_formula_structural   Sm2Co3H18C42(NO4)6
_chemical_formula_sum   'Sm4 Co6 H36 C84 N12 O48'
_cell_volume   3114.80468335
_cell_formula_units_Z   2
loop_
 _symmetry_equiv_pos_site_id
 _symmetry_equiv_pos_as_xyz
  1  'x, y, z'
loop_
 _atom_site_type_symbol
 _atom_site_label
 _atom_site_symmetry_multiplicity
 _atom_site_fract_x
 _atom_site_fract_y
 _atom_site_fract_z
 _atom_site_occupancy
 _atom_site_charge
  Sm  Sm1  1  0.333333  0.666667  0.750000  1.0  2.1435
  Sm  Sm2  1  0.666667  0.333333  0.750000  1.0  2.1435
  Sm  Sm3  1  0.666667  0.333333  0.250000  1.0  2.1435
  Sm  Sm4  1  0.333333  0.666667  0.250000  1.0  2.1435
  Co  Co5  1  0.500000  0.500000  0.500000  1.0  1.1219
  Co  Co6  1  0.000000  0.500000  0.500000  1.0  1.1219
  Co  Co7  1  0.500000  0.000000  0.500000  1.0  1.1219
  Co  Co8  1  0.000000  0.500000  0.000000  1.0  1.1219
  Co  Co9  1  0.500000  0.500000  0.000000  1.0  1.1219
  Co  Co10  1  0.500000  0.000000  0.000000  1.0  1.1219
  H  H11  1  0.233600  0.287100  0.655300  1.0  0.1156
  H  H12  1  0.053500  0.766400  0.655300  1.0  0.1156
  H  H13  1  0.712900  0.946500  0.655300  1.0  0.115
  H  H14  1  0.766400  0.712900  0.655300  1.0  0.1157
  H  H15  1  0.946500  0.233600  0.655300  1.0  0.1151
  H  H16  1  0.287100  0.053500  0.655300  1.0  0.1153
  H  H17  1  0.946500  0.712900  0.844700  1.0  0.1156
  H  H18  1  0.287100  0.233600  0.844700  1.0  0.1155
  H  H19  1  0.766400  0.053500  0.844700  1.0  0.115
  H  H20  1  0.053500  0.287100  0.844700  1.0  0.1157
  H  H21  1  0.712900  0.766400  0.844700  1.0  0.1153
  H  H22  1  0.233600  0.946500  0.844700  1.0  0.1154
  H  H23  1  0.766400  0.712900  0.344700  1.0  0.1157
  H  H24  1  0.946500  0.233600  0.344700  1.0  0.1153
  H  H25  1  0.287100  0.053500  0.344700  1.0  0.1155
  H  H26  1  0.233600  0.287100  0.344700  1.0  0.1157
  H  H27  1  0.053500  0.766400  0.344700  1.0  0.1156
  H  H28  1  0.712900  0.946500  0.344700  1.0  0.115
  H  H29  1  0.053500  0.287100  0.155300  1.0  0.1155
  H  H30  1  0.712900  0.766400  0.155300  1.0  0.1152
  H  H31  1  0.233600  0.946500  0.155300  1.0  0.1154
  H  H32  1  0.946500  0.712900  0.155300  1.0  0.1156
  H  H33  1  0.287100  0.233600  0.155300  1.0  0.1155
  H  H34  1  0.766400  0.053500  0.155300  1.0  0.1149
  H  H35  1  0.100150  0.200300  0.750000  1.0  0.0818
  H  H36  1  0.100150  0.899850  0.750000  1.0  0.0849
  H  H37  1  0.799700  0.899850  0.750000  1.0  0.0845
  H  H38  1  0.899850  0.799700  0.750000  1.0  0.0825
  H  H39  1  0.899850  0.100150  0.750000  1.0  0.0847
  H  H40  1  0.200300  0.100150  0.750000  1.0  0.0849
  H  H41  1  0.899850  0.799700  0.250000  1.0  0.0825
  H  H42  1  0.899850  0.100150  0.250000  1.0  0.0847
  H  H43  1  0.200300  0.100150  0.250000  1.0  0.0849
  H  H44  1  0.100150  0.200300  0.250000  1.0  0.0818
  H  H45  1  0.100150  0.899850  0.250000  1.0  0.0849
  H  H46  1  0.799700  0.899850  0.250000  1.0  0.0845
  C  C47  1  0.354100  0.490000  0.638400  1.0  0.665
  C  C48  1  0.264800  0.424800  0.696400  1.0  0.1472
  C  C49  1  0.214500  0.321400  0.693900  1.0  -0.1248
  C  C50  1  0.135900  0.645900  0.638400  1.0  0.6653
  C  C51  1  0.160000  0.735200  0.696400  1.0  0.1467
  C  C52  1  0.106900  0.785500  0.693900  1.0  -0.1248
  C  C53  1  0.510000  0.864100  0.638400  1.0  0.6659
  C  C54  1  0.575200  0.840000  0.696400  1.0  0.1476
  C  C55  1  0.678600  0.893100  0.693900  1.0  -0.1257
  C  C56  1  0.645900  0.510000  0.638400  1.0  0.665
  C  C57  1  0.735200  0.575200  0.696400  1.0  0.147
  C  C58  1  0.785500  0.678600  0.693900  1.0  -0.1246
  C  C59  1  0.864100  0.354100  0.638400  1.0  0.6658
  C  C60  1  0.840000  0.264800  0.696400  1.0  0.1471
  C  C61  1  0.893100  0.214500  0.693900  1.0  -0.126
  C  C62  1  0.490000  0.135900  0.638400  1.0  0.665
  C  C63  1  0.424800  0.160000  0.696400  1.0  0.1481
  C  C64  1  0.321400  0.106900  0.693900  1.0  -0.1246
  C  C65  1  0.864100  0.510000  0.861600  1.0  0.6652
  C  C66  1  0.840000  0.575200  0.803600  1.0  0.1474
  C  C67  1  0.893100  0.678600  0.806100  1.0  -0.1267
  C  C68  1  0.490000  0.354100  0.861600  1.0  0.6652
  C  C69  1  0.424800  0.264800  0.803600  1.0  0.1469
  C  C70  1  0.321400  0.214500  0.806100  1.0  -0.1278
  C  C71  1  0.645900  0.135900  0.861600  1.0  0.6653
  C  C72  1  0.735200  0.160000  0.803600  1.0  0.1478
  C  C73  1  0.785500  0.106900  0.806100  1.0  -0.1274
  C  C74  1  0.135900  0.490000  0.861600  1.0  0.6646
  C  C75  1  0.160000  0.424800  0.803600  1.0  0.1474
  C  C76  1  0.106900  0.321400  0.806100  1.0  -0.1276
  C  C77  1  0.510000  0.645900  0.861600  1.0  0.6655
  C  C78  1  0.575200  0.735200  0.803600  1.0  0.1471
  C  C79  1  0.678600  0.785500  0.806100  1.0  -0.1272
  C  C80  1  0.354100  0.864100  0.861600  1.0  0.6654
  C  C81  1  0.264800  0.840000  0.803600  1.0  0.1479
  C  C82  1  0.214500  0.893100  0.806100  1.0  -0.1277
  C  C83  1  0.645900  0.510000  0.361600  1.0  0.665
  C  C84  1  0.735200  0.575200  0.303600  1.0  0.1475
  C  C85  1  0.785500  0.678600  0.306100  1.0  -0.1252
  C  C86  1  0.864100  0.354100  0.361600  1.0  0.6652
  C  C87  1  0.840000  0.264800  0.303600  1.0  0.1468
  C  C88  1  0.893100  0.214500  0.306100  1.0  -0.1257
  C  C89  1  0.490000  0.135900  0.361600  1.0  0.6652
  C  C90  1  0.424800  0.160000  0.303600  1.0  0.1479
  C  C91  1  0.321400  0.106900  0.306100  1.0  -0.1258
  C  C92  1  0.354100  0.490000  0.361600  1.0  0.6648
  C  C93  1  0.264800  0.424800  0.303600  1.0  0.1469
  C  C94  1  0.214500  0.321400  0.306100  1.0  -0.1246
  C  C95  1  0.135900  0.645900  0.361600  1.0  0.6655
  C  C96  1  0.160000  0.735200  0.303600  1.0  0.1471
  C  C97  1  0.106900  0.785500  0.306100  1.0  -0.1256
  C  C98  1  0.510000  0.864100  0.361600  1.0  0.6654
  C  C99  1  0.575200  0.840000  0.303600  1.0  0.1477
  C  C100  1  0.678600  0.893100  0.306100  1.0  -0.1253
  C  C101  1  0.135900  0.490000  0.138400  1.0  0.6652
  C  C102  1  0.160000  0.424800  0.196400  1.0  0.1476
  C  C103  1  0.106900  0.321400  0.193900  1.0  -0.1271
  C  C104  1  0.510000  0.645900  0.138400  1.0  0.6655
  C  C105  1  0.575200  0.735200  0.196400  1.0  0.1466
  C  C106  1  0.678600  0.785500  0.193900  1.0  -0.1278
  C  C107  1  0.354100  0.864100  0.138400  1.0  0.6653
  C  C108  1  0.264800  0.840000  0.196400  1.0  0.148
  C  C109  1  0.214500  0.893100  0.193900  1.0  -0.1267
  C  C110  1  0.864100  0.510000  0.138400  1.0  0.6646
  C  C111  1  0.840000  0.575200  0.196400  1.0  0.1471
  C  C112  1  0.893100  0.678600  0.193900  1.0  -0.1268
  C  C113  1  0.490000  0.354100  0.138400  1.0  0.6656
  C  C114  1  0.424800  0.264800  0.196400  1.0  0.1472
  C  C115  1  0.321400  0.214500  0.193900  1.0  -0.1268
  C  C116  1  0.645900  0.135900  0.138400  1.0  0.6659
  C  C117  1  0.735200  0.160000  0.196400  1.0  0.1479
  C  C118  1  0.785500  0.106900  0.193900  1.0  -0.1274
  C  C119  1  0.134900  0.269800  0.750000  1.0  -0.0122
  C  C120  1  0.134900  0.865100  0.750000  1.0  -0.0146
  C  C121  1  0.730200  0.865100  0.750000  1.0  -0.0156
  C  C122  1  0.865100  0.730200  0.750000  1.0  -0.0121
  C  C123  1  0.865100  0.134900  0.750000  1.0  -0.0154
  C  C124  1  0.269800  0.134900  0.750000  1.0  -0.0145
  C  C125  1  0.865100  0.730200  0.250000  1.0  -0.0121
  C  C126  1  0.865100  0.134900  0.250000  1.0  -0.0154
  C  C127  1  0.269800  0.134900  0.250000  1.0  -0.0145
  C  C128  1  0.134900  0.269800  0.250000  1.0  -0.0122
  C  C129  1  0.134900  0.865100  0.250000  1.0  -0.0146
  C  C130  1  0.730200  0.865100  0.250000  1.0  -0.0156
  N  N131  1  0.237900  0.475800  0.750000  1.0  -0.41
  N  N132  1  0.237900  0.762100  0.750000  1.0  -0.4096
  N  N133  1  0.524200  0.762100  0.750000  1.0  -0.4101
  N  N134  1  0.762100  0.524200  0.750000  1.0  -0.409
  N  N135  1  0.762100  0.237900  0.750000  1.0  -0.4099
  N  N136  1  0.475800  0.237900  0.750000  1.0  -0.4097
  N  N137  1  0.762100  0.524200  0.250000  1.0  -0.409
  N  N138  1  0.762100  0.237900  0.250000  1.0  -0.4099
  N  N139  1  0.475800  0.237900  0.250000  1.0  -0.4097
  N  N140  1  0.237900  0.475800  0.250000  1.0  -0.41
  N  N141  1  0.237900  0.762100  0.250000  1.0  -0.4096
  N  N142  1  0.524200  0.762100  0.250000  1.0  -0.4101
  O  O143  1  0.387700  0.584600  0.642600  1.0  -0.6745
  O  O144  1  0.387000  0.446300  0.593100  1.0  -0.5939
  O  O145  1  0.196900  0.612300  0.642600  1.0  -0.6771
  O  O146  1  0.059300  0.613000  0.593100  1.0  -0.5943
  O  O147  1  0.415400  0.803100  0.642600  1.0  -0.6762
  O  O148  1  0.553700  0.940700  0.593100  1.0  -0.5928
  O  O149  1  0.612300  0.415400  0.642600  1.0  -0.6741
  O  O150  1  0.613000  0.553700  0.593100  1.0  -0.5937
  O  O151  1  0.803100  0.387700  0.642600  1.0  -0.6763
  O  O152  1  0.940700  0.387000  0.593100  1.0  -0.5945
  O  O153  1  0.584600  0.196900  0.642600  1.0  -0.6768
  O  O154  1  0.446300  0.059300  0.593100  1.0  -0.5929
  O  O155  1  0.803100  0.415400  0.857400  1.0  -0.6746
  O  O156  1  0.940700  0.553700  0.906900  1.0  -0.5936
  O  O157  1  0.584600  0.387700  0.857400  1.0  -0.6768
  O  O158  1  0.446300  0.387000  0.906900  1.0  -0.5942
  O  O159  1  0.612300  0.196900  0.857400  1.0  -0.676
  O  O160  1  0.613000  0.059300  0.906900  1.0  -0.5928
  O  O161  1  0.196900  0.584600  0.857400  1.0  -0.6746
  O  O162  1  0.059300  0.446300  0.906900  1.0  -0.5936
  O  O163  1  0.415400  0.612300  0.857400  1.0  -0.6763
  O  O164  1  0.553700  0.613000  0.906900  1.0  -0.5947
  O  O165  1  0.387700  0.803100  0.857400  1.0  -0.6766
  O  O166  1  0.387000  0.940700  0.906900  1.0  -0.5926
  O  O167  1  0.612300  0.415400  0.357400  1.0  -0.6742
  O  O168  1  0.613000  0.553700  0.406900  1.0  -0.5939
  O  O169  1  0.803100  0.387700  0.357400  1.0  -0.6766
  O  O170  1  0.940700  0.387000  0.406900  1.0  -0.5947
  O  O171  1  0.584600  0.196900  0.357400  1.0  -0.6766
  O  O172  1  0.446300  0.059300  0.406900  1.0  -0.593
  O  O173  1  0.387700  0.584600  0.357400  1.0  -0.6747
  O  O174  1  0.387000  0.446300  0.406900  1.0  -0.5941
  O  O175  1  0.196900  0.612300  0.357400  1.0  -0.6768
  O  O176  1  0.059300  0.613000  0.406900  1.0  -0.5942
  O  O177  1  0.415400  0.803100  0.357400  1.0  -0.6763
  O  O178  1  0.553700  0.940700  0.406900  1.0  -0.593
  O  O179  1  0.196900  0.584600  0.142600  1.0  -0.6742
  O  O180  1  0.059300  0.446300  0.093100  1.0  -0.5941
  O  O181  1  0.415400  0.612300  0.142600  1.0  -0.6762
  O  O182  1  0.553700  0.613000  0.093100  1.0  -0.595
  O  O183  1  0.387700  0.803100  0.142600  1.0  -0.6769
  O  O184  1  0.387000  0.940700  0.093100  1.0  -0.5929
  O  O185  1  0.803100  0.415400  0.142600  1.0  -0.6746
  O  O186  1  0.940700  0.553700  0.093100  1.0  -0.5941
  O  O187  1  0.584600  0.387700  0.142600  1.0  -0.6771
  O  O188  1  0.446300  0.387000  0.093100  1.0  -0.5945
  O  O189  1  0.612300  0.196900  0.142600  1.0  -0.6758
  O  O190  1  0.613000  0.059300  0.093100  1.0  -0.593
