# generated using pymatgen
data_Pr2Fe3H18C42(NO4)6
_symmetry_space_group_name_H-M   'P 1'
_cell_length_a   15.35400000
_cell_length_b   15.51400000
_cell_length_c   15.51400000
_cell_angle_alpha   120.00000000
_cell_angle_beta   90.00000000
_cell_angle_gamma   90.00000000
_symmetry_Int_Tables_number   1
_chemical_formula_structural   Pr2Fe3H18C42(NO4)6
_chemical_formula_sum   'Pr4 Fe6 H36 C84 N12 O48'
_cell_volume   3200.36669470
_cell_formula_units_Z   2
loop_
 _symmetry_equiv_pos_site_id
 _symmetry_equiv_pos_as_xyz
  1  'x, y, z'
loop_
 _atom_site_type_symbol
 _atom_site_label
 _atom_site_symmetry_multiplicity
 _atom_site_fract_x
 _atom_site_fract_y
 _atom_site_fract_z
 _atom_site_occupancy
 _atom_site_charge
  Pr  Pr1  1  0.750000  0.666667  0.333333  1.0  2.0542
  Pr  Pr2  1  0.750000  0.333333  0.666667  1.0  2.0542
  Pr  Pr3  1  0.250000  0.333333  0.666667  1.0  2.0542
  Pr  Pr4  1  0.250000  0.666667  0.333333  1.0  2.0542
  Fe  Fe5  1  0.000000  0.500000  0.500000  1.0  1.0135
  Fe  Fe6  1  0.000000  0.000000  0.500000  1.0  1.0135
  Fe  Fe7  1  0.000000  0.500000  0.000000  1.0  1.0135
  Fe  Fe8  1  0.500000  0.000000  0.500000  1.0  1.0135
  Fe  Fe9  1  0.500000  0.500000  0.500000  1.0  1.0135
  Fe  Fe10  1  0.500000  0.500000  0.000000  1.0  1.0135
  H  H11  1  0.844400  0.766300  0.712800  1.0  0.1153
  H  H12  1  0.844400  0.946500  0.233700  1.0  0.1149
  H  H13  1  0.844400  0.287200  0.053500  1.0  0.1151
  H  H14  1  0.844400  0.233700  0.287200  1.0  0.1151
  H  H15  1  0.844400  0.053500  0.766300  1.0  0.1148
  H  H16  1  0.844400  0.712800  0.946500  1.0  0.1153
  H  H17  1  0.655600  0.053500  0.287200  1.0  0.1146
  H  H18  1  0.655600  0.712800  0.766300  1.0  0.1156
  H  H19  1  0.655600  0.233700  0.946500  1.0  0.1156
  H  H20  1  0.655600  0.946500  0.712800  1.0  0.1153
  H  H21  1  0.655600  0.287200  0.233700  1.0  0.1156
  H  H22  1  0.655600  0.766300  0.053500  1.0  0.1154
  H  H23  1  0.155600  0.233700  0.287200  1.0  0.1153
  H  H24  1  0.155600  0.053500  0.766300  1.0  0.1152
  H  H25  1  0.155600  0.712800  0.946500  1.0  0.1154
  H  H26  1  0.155600  0.766300  0.712800  1.0  0.1157
  H  H27  1  0.155600  0.946500  0.233700  1.0  0.1151
  H  H28  1  0.155600  0.287200  0.053500  1.0  0.1154
  H  H29  1  0.344400  0.946500  0.712800  1.0  0.1149
  H  H30  1  0.344400  0.287200  0.233700  1.0  0.1152
  H  H31  1  0.344400  0.766300  0.053500  1.0  0.1152
  H  H32  1  0.344400  0.053500  0.287200  1.0  0.1144
  H  H33  1  0.344400  0.712800  0.766300  1.0  0.1155
  H  H34  1  0.344400  0.233700  0.946500  1.0  0.1153
  H  H35  1  0.750000  0.899900  0.799800  1.0  0.0869
  H  H36  1  0.750000  0.899900  0.100100  1.0  0.0869
  H  H37  1  0.750000  0.200200  0.100100  1.0  0.0838
  H  H38  1  0.750000  0.100100  0.200200  1.0  0.087
  H  H39  1  0.750000  0.100100  0.899900  1.0  0.0871
  H  H40  1  0.750000  0.799800  0.899900  1.0  0.0846
  H  H41  1  0.250000  0.100100  0.200200  1.0  0.087
  H  H42  1  0.250000  0.100100  0.899900  1.0  0.0871
  H  H43  1  0.250000  0.799800  0.899900  1.0  0.0846
  H  H44  1  0.250000  0.899900  0.799800  1.0  0.0869
  H  H45  1  0.250000  0.899900  0.100100  1.0  0.0869
  H  H46  1  0.250000  0.200200  0.100100  1.0  0.0838
  C  C47  1  0.803600  0.735700  0.576500  1.0  0.141
  C  C48  1  0.806100  0.785600  0.679100  1.0  -0.1234
  C  C49  1  0.861000  0.647000  0.512400  1.0  0.6478
  C  C50  1  0.803600  0.840800  0.264300  1.0  0.1403
  C  C51  1  0.806100  0.893500  0.214400  1.0  -0.1227
  C  C52  1  0.861000  0.865400  0.353000  1.0  0.6482
  C  C53  1  0.803600  0.423500  0.159200  1.0  0.1396
  C  C54  1  0.806100  0.320900  0.106500  1.0  -0.1225
  C  C55  1  0.861000  0.487600  0.134600  1.0  0.648
  C  C56  1  0.803600  0.264300  0.423500  1.0  0.1407
  C  C57  1  0.806100  0.214400  0.320900  1.0  -0.1238
  C  C58  1  0.861000  0.353000  0.487600  1.0  0.6477
  C  C59  1  0.803600  0.159200  0.735700  1.0  0.1413
  C  C60  1  0.806100  0.106500  0.785600  1.0  -0.1223
  C  C61  1  0.861000  0.134600  0.647000  1.0  0.6488
  C  C62  1  0.803600  0.576500  0.840800  1.0  0.1403
  C  C63  1  0.806100  0.679100  0.893500  1.0  -0.1223
  C  C64  1  0.861000  0.512400  0.865400  1.0  0.6482
  C  C65  1  0.696400  0.159200  0.423500  1.0  0.141
  C  C66  1  0.693900  0.106500  0.320900  1.0  -0.1244
  C  C67  1  0.639000  0.134600  0.487600  1.0  0.6476
  C  C68  1  0.696400  0.576500  0.735700  1.0  0.14
  C  C69  1  0.693900  0.679100  0.785600  1.0  -0.1244
  C  C70  1  0.639000  0.512400  0.647000  1.0  0.6477
  C  C71  1  0.696400  0.264300  0.840800  1.0  0.1412
  C  C72  1  0.693900  0.214400  0.893500  1.0  -0.1259
  C  C73  1  0.639000  0.353000  0.865400  1.0  0.6475
  C  C74  1  0.696400  0.840800  0.576500  1.0  0.1414
  C  C75  1  0.693900  0.893500  0.679100  1.0  -0.1244
  C  C76  1  0.639000  0.865400  0.512400  1.0  0.6488
  C  C77  1  0.696400  0.423500  0.264300  1.0  0.1403
  C  C78  1  0.693900  0.320900  0.214400  1.0  -0.124
  C  C79  1  0.639000  0.487600  0.353000  1.0  0.6475
  C  C80  1  0.696400  0.735700  0.159200  1.0  0.1411
  C  C81  1  0.693900  0.785600  0.106500  1.0  -0.1251
  C  C82  1  0.639000  0.647000  0.134600  1.0  0.6477
  C  C83  1  0.196400  0.264300  0.423500  1.0  0.1412
  C  C84  1  0.193900  0.214400  0.320900  1.0  -0.1241
  C  C85  1  0.139000  0.353000  0.487600  1.0  0.6475
  C  C86  1  0.196400  0.159200  0.735700  1.0  0.1416
  C  C87  1  0.193900  0.106500  0.785600  1.0  -0.1224
  C  C88  1  0.139000  0.134600  0.647000  1.0  0.6488
  C  C89  1  0.196400  0.576500  0.840800  1.0  0.1401
  C  C90  1  0.193900  0.679100  0.893500  1.0  -0.1223
  C  C91  1  0.139000  0.512400  0.865400  1.0  0.6476
  C  C92  1  0.196400  0.735700  0.576500  1.0  0.1408
  C  C93  1  0.193900  0.785600  0.679100  1.0  -0.1233
  C  C94  1  0.139000  0.647000  0.512400  1.0  0.6474
  C  C95  1  0.196400  0.840800  0.264300  1.0  0.1407
  C  C96  1  0.193900  0.893500  0.214400  1.0  -0.1226
  C  C97  1  0.139000  0.865400  0.353000  1.0  0.6476
  C  C98  1  0.196400  0.423500  0.159200  1.0  0.1401
  C  C99  1  0.193900  0.320900  0.106500  1.0  -0.1226
  C  C100  1  0.139000  0.487600  0.134600  1.0  0.6478
  C  C101  1  0.303600  0.840800  0.576500  1.0  0.1411
  C  C102  1  0.306100  0.893500  0.679100  1.0  -0.1242
  C  C103  1  0.361000  0.865400  0.512400  1.0  0.6488
  C  C104  1  0.303600  0.423500  0.264300  1.0  0.1398
  C  C105  1  0.306100  0.320900  0.214400  1.0  -0.1236
  C  C106  1  0.361000  0.487600  0.353000  1.0  0.6478
  C  C107  1  0.303600  0.735700  0.159200  1.0  0.1413
  C  C108  1  0.306100  0.785600  0.106500  1.0  -0.125
  C  C109  1  0.361000  0.647000  0.134600  1.0  0.6479
  C  C110  1  0.303600  0.159200  0.423500  1.0  0.1405
  C  C111  1  0.306100  0.106500  0.320900  1.0  -0.1242
  C  C112  1  0.361000  0.134600  0.487600  1.0  0.6482
  C  C113  1  0.303600  0.576500  0.735700  1.0  0.1401
  C  C114  1  0.306100  0.679100  0.785600  1.0  -0.1243
  C  C115  1  0.361000  0.512400  0.647000  1.0  0.6482
  C  C116  1  0.303600  0.264300  0.840800  1.0  0.1407
  C  C117  1  0.306100  0.214400  0.893500  1.0  -0.1254
  C  C118  1  0.361000  0.353000  0.865400  1.0  0.6476
  C  C119  1  0.750000  0.865300  0.730600  1.0  -0.0217
  C  C120  1  0.750000  0.865300  0.134700  1.0  -0.0213
  C  C121  1  0.750000  0.269400  0.134700  1.0  -0.0208
  C  C122  1  0.750000  0.134700  0.269400  1.0  -0.0212
  C  C123  1  0.750000  0.134700  0.865300  1.0  -0.0213
  C  C124  1  0.750000  0.730600  0.865300  1.0  -0.0205
  C  C125  1  0.250000  0.134700  0.269400  1.0  -0.0212
  C  C126  1  0.250000  0.134700  0.865300  1.0  -0.0213
  C  C127  1  0.250000  0.730600  0.865300  1.0  -0.0205
  C  C128  1  0.250000  0.865300  0.730600  1.0  -0.0217
  C  C129  1  0.250000  0.865300  0.134700  1.0  -0.0213
  C  C130  1  0.250000  0.269400  0.134700  1.0  -0.0208
  N  N131  1  0.750000  0.762910  0.525820  1.0  -0.4055
  N  N132  1  0.750000  0.762910  0.237090  1.0  -0.4043
  N  N133  1  0.750000  0.474180  0.237090  1.0  -0.4051
  N  N134  1  0.750000  0.237090  0.474180  1.0  -0.404
  N  N135  1  0.750000  0.237090  0.762910  1.0  -0.4055
  N  N136  1  0.750000  0.525820  0.762910  1.0  -0.4043
  N  N137  1  0.250000  0.237090  0.474180  1.0  -0.404
  N  N138  1  0.250000  0.237090  0.762910  1.0  -0.4055
  N  N139  1  0.250000  0.525820  0.762910  1.0  -0.4043
  N  N140  1  0.250000  0.762910  0.525820  1.0  -0.4055
  N  N141  1  0.250000  0.762910  0.237090  1.0  -0.4043
  N  N142  1  0.250000  0.474180  0.237090  1.0  -0.4051
  O  O143  1  0.858980  0.614000  0.418600  1.0  -0.6487
  O  O144  1  0.905700  0.612600  0.555000  1.0  -0.5569
  O  O145  1  0.858980  0.804600  0.386000  1.0  -0.6488
  O  O146  1  0.905700  0.942400  0.387400  1.0  -0.5554
  O  O147  1  0.858980  0.581400  0.195400  1.0  -0.6475
  O  O148  1  0.905700  0.445000  0.057600  1.0  -0.5585
  O  O149  1  0.858980  0.386000  0.581400  1.0  -0.649
  O  O150  1  0.905700  0.387400  0.445000  1.0  -0.5569
  O  O151  1  0.858980  0.195400  0.614000  1.0  -0.6483
  O  O152  1  0.905700  0.057600  0.612600  1.0  -0.5561
  O  O153  1  0.858980  0.418600  0.804600  1.0  -0.6486
  O  O154  1  0.905700  0.555000  0.942400  1.0  -0.5587
  O  O155  1  0.641020  0.195400  0.581400  1.0  -0.6488
  O  O156  1  0.594300  0.057600  0.445000  1.0  -0.5557
  O  O157  1  0.641020  0.418600  0.614000  1.0  -0.6473
  O  O158  1  0.594300  0.555000  0.612600  1.0  -0.5575
  O  O159  1  0.641020  0.386000  0.804600  1.0  -0.6484
  O  O160  1  0.594300  0.387400  0.942400  1.0  -0.5586
  O  O161  1  0.641020  0.804600  0.418600  1.0  -0.6484
  O  O162  1  0.594300  0.942400  0.555000  1.0  -0.5564
  O  O163  1  0.641020  0.581400  0.386000  1.0  -0.6474
  O  O164  1  0.594300  0.445000  0.387400  1.0  -0.5584
  O  O165  1  0.641020  0.614000  0.195400  1.0  -0.6488
  O  O166  1  0.594300  0.612600  0.057600  1.0  -0.5585
  O  O167  1  0.141020  0.386000  0.581400  1.0  -0.6491
  O  O168  1  0.094300  0.387400  0.445000  1.0  -0.5578
  O  O169  1  0.141020  0.195400  0.614000  1.0  -0.6482
  O  O170  1  0.094300  0.057600  0.612600  1.0  -0.5565
  O  O171  1  0.141020  0.418600  0.804600  1.0  -0.6482
  O  O172  1  0.094300  0.555000  0.942400  1.0  -0.5596
  O  O173  1  0.141020  0.614000  0.418600  1.0  -0.6482
  O  O174  1  0.094300  0.612600  0.555000  1.0  -0.5581
  O  O175  1  0.141020  0.804600  0.386000  1.0  -0.6486
  O  O176  1  0.094300  0.942400  0.387400  1.0  -0.5567
  O  O177  1  0.141020  0.581400  0.195400  1.0  -0.6482
  O  O178  1  0.094300  0.445000  0.057600  1.0  -0.5594
  O  O179  1  0.358980  0.804600  0.418600  1.0  -0.6488
  O  O180  1  0.405700  0.942400  0.555000  1.0  -0.556
  O  O181  1  0.358980  0.581400  0.386000  1.0  -0.6466
  O  O182  1  0.405700  0.445000  0.387400  1.0  -0.5587
  O  O183  1  0.358980  0.614000  0.195400  1.0  -0.6491
  O  O184  1  0.405700  0.612600  0.057600  1.0  -0.5588
  O  O185  1  0.358980  0.195400  0.581400  1.0  -0.6487
  O  O186  1  0.405700  0.057600  0.445000  1.0  -0.5562
  O  O187  1  0.358980  0.418600  0.614000  1.0  -0.6478
  O  O188  1  0.405700  0.555000  0.612600  1.0  -0.5577
  O  O189  1  0.358980  0.386000  0.804600  1.0  -0.6483
  O  O190  1  0.405700  0.387400  0.942400  1.0  -0.559
