# generated using pymatgen
data_Sm2Fe3H18C42(NO4)6
_symmetry_space_group_name_H-M   'P 1'
_cell_length_a   15.40500000
_cell_length_b   15.40500000
_cell_length_c   15.45600000
_cell_angle_alpha   90.00000000
_cell_angle_beta   90.00000000
_cell_angle_gamma   120.00000000
_symmetry_Int_Tables_number   1
_chemical_formula_structural   Sm2Fe3H18C42(NO4)6
_chemical_formula_sum   'Sm4 Fe6 H36 C84 N12 O48'
_cell_volume   3176.51672316
_cell_formula_units_Z   2
loop_
 _symmetry_equiv_pos_site_id
 _symmetry_equiv_pos_as_xyz
  1  'x, y, z'
loop_
 _atom_site_type_symbol
 _atom_site_label
 _atom_site_symmetry_multiplicity
 _atom_site_fract_x
 _atom_site_fract_y
 _atom_site_fract_z
 _atom_site_occupancy
 _atom_site_charge
  Sm  Sm1  1  0.333333  0.666667  0.750000  1.0  2.1456
  Sm  Sm2  1  0.666667  0.333333  0.750000  1.0  2.1456
  Sm  Sm3  1  0.666667  0.333333  0.250000  1.0  2.1456
  Sm  Sm4  1  0.333333  0.666667  0.250000  1.0  2.1456
  Fe  Fe5  1  0.500000  0.000000  0.000000  1.0  1.1622
  Fe  Fe6  1  0.500000  0.500000  0.000000  1.0  1.1622
  Fe  Fe7  1  0.000000  0.500000  0.000000  1.0  1.1622
  Fe  Fe8  1  0.500000  0.000000  0.500000  1.0  1.1622
  Fe  Fe9  1  0.000000  0.500000  0.500000  1.0  1.1622
  Fe  Fe10  1  0.500000  0.500000  0.500000  1.0  1.1622
  H  H11  1  0.712800  0.946300  0.844500  1.0  0.1174
  H  H12  1  0.233500  0.287200  0.844500  1.0  0.1184
  H  H13  1  0.053700  0.766500  0.844500  1.0  0.1181
  H  H14  1  0.287200  0.053700  0.844500  1.0  0.1179
  H  H15  1  0.766500  0.712800  0.844500  1.0  0.1183
  H  H16  1  0.946300  0.233500  0.844500  1.0  0.1178
  H  H17  1  0.766500  0.053700  0.655500  1.0  0.1169
  H  H18  1  0.946300  0.712800  0.655500  1.0  0.1179
  H  H19  1  0.287200  0.233500  0.655500  1.0  0.1177
  H  H20  1  0.233500  0.946300  0.655500  1.0  0.1174
  H  H21  1  0.053700  0.287200  0.655500  1.0  0.1177
  H  H22  1  0.712800  0.766500  0.655500  1.0  0.1174
  H  H23  1  0.287200  0.053700  0.155500  1.0  0.1172
  H  H24  1  0.766500  0.712800  0.155500  1.0  0.118
  H  H25  1  0.946300  0.233500  0.155500  1.0  0.1173
  H  H26  1  0.712800  0.946300  0.155500  1.0  0.1171
  H  H27  1  0.233500  0.287200  0.155500  1.0  0.1178
  H  H28  1  0.053700  0.766500  0.155500  1.0  0.1178
  H  H29  1  0.233500  0.946300  0.344500  1.0  0.1177
  H  H30  1  0.053700  0.287200  0.344500  1.0  0.1183
  H  H31  1  0.712800  0.766500  0.344500  1.0  0.118
  H  H32  1  0.766500  0.053700  0.344500  1.0  0.1175
  H  H33  1  0.946300  0.712800  0.344500  1.0  0.1182
  H  H34  1  0.287200  0.233500  0.344500  1.0  0.118
  H  H35  1  0.800100  0.900050  0.750000  1.0  0.0849
  H  H36  1  0.099950  0.199900  0.750000  1.0  0.082
  H  H37  1  0.099950  0.900050  0.750000  1.0  0.085
  H  H38  1  0.199900  0.099950  0.750000  1.0  0.085
  H  H39  1  0.900050  0.800100  0.750000  1.0  0.083
  H  H40  1  0.900050  0.099950  0.750000  1.0  0.085
  H  H41  1  0.199900  0.099950  0.250000  1.0  0.085
  H  H42  1  0.900050  0.800100  0.250000  1.0  0.083
  H  H43  1  0.900050  0.099950  0.250000  1.0  0.085
  H  H44  1  0.800100  0.900050  0.250000  1.0  0.0849
  H  H45  1  0.099950  0.199900  0.250000  1.0  0.082
  H  H46  1  0.099950  0.900050  0.250000  1.0  0.085
  C  C47  1  0.510000  0.864000  0.861600  1.0  0.6619
  C  C48  1  0.575300  0.840100  0.803500  1.0  0.1464
  C  C49  1  0.678800  0.893200  0.806200  1.0  -0.1255
  C  C50  1  0.354000  0.490000  0.861600  1.0  0.6612
  C  C51  1  0.264800  0.424700  0.803500  1.0  0.1459
  C  C52  1  0.214400  0.321200  0.806200  1.0  -0.1248
  C  C53  1  0.136000  0.646000  0.861600  1.0  0.6617
  C  C54  1  0.159900  0.735200  0.803500  1.0  0.1458
  C  C55  1  0.106800  0.785600  0.806200  1.0  -0.1265
  C  C56  1  0.490000  0.136000  0.861600  1.0  0.6615
  C  C57  1  0.424700  0.159900  0.803500  1.0  0.1467
  C  C58  1  0.321200  0.106800  0.806200  1.0  -0.1263
  C  C59  1  0.646000  0.510000  0.861600  1.0  0.661
  C  C60  1  0.735200  0.575300  0.803500  1.0  0.1464
  C  C61  1  0.785600  0.678800  0.806200  1.0  -0.1252
  C  C62  1  0.864000  0.354000  0.861600  1.0  0.6614
  C  C63  1  0.840100  0.264800  0.803500  1.0  0.1459
  C  C64  1  0.893200  0.214400  0.806200  1.0  -0.1264
  C  C65  1  0.646000  0.136000  0.638400  1.0  0.6618
  C  C66  1  0.735200  0.159900  0.696500  1.0  0.146
  C  C67  1  0.785600  0.106800  0.693800  1.0  -0.1281
  C  C68  1  0.864000  0.510000  0.638400  1.0  0.6604
  C  C69  1  0.840100  0.575300  0.696500  1.0  0.1455
  C  C70  1  0.893200  0.678800  0.693800  1.0  -0.1279
  C  C71  1  0.490000  0.354000  0.638400  1.0  0.6611
  C  C72  1  0.424700  0.264800  0.696500  1.0  0.1453
  C  C73  1  0.321200  0.214400  0.693800  1.0  -0.1292
  C  C74  1  0.354000  0.864000  0.638400  1.0  0.661
  C  C75  1  0.264800  0.840100  0.696500  1.0  0.1461
  C  C76  1  0.214400  0.893200  0.693800  1.0  -0.1282
  C  C77  1  0.136000  0.490000  0.638400  1.0  0.6609
  C  C78  1  0.159900  0.424700  0.696500  1.0  0.146
  C  C79  1  0.106800  0.321200  0.693800  1.0  -0.1275
  C  C80  1  0.510000  0.646000  0.638400  1.0  0.6613
  C  C81  1  0.575300  0.735200  0.696500  1.0  0.1451
  C  C82  1  0.678800  0.785600  0.693800  1.0  -0.1285
  C  C83  1  0.490000  0.136000  0.138400  1.0  0.661
  C  C84  1  0.424700  0.159900  0.196500  1.0  0.1465
  C  C85  1  0.321200  0.106800  0.193800  1.0  -0.1254
  C  C86  1  0.646000  0.510000  0.138400  1.0  0.6607
  C  C87  1  0.735200  0.575300  0.196500  1.0  0.1456
  C  C88  1  0.785600  0.678800  0.193800  1.0  -0.1252
  C  C89  1  0.864000  0.354000  0.138400  1.0  0.6614
  C  C90  1  0.840100  0.264800  0.196500  1.0  0.1457
  C  C91  1  0.893200  0.214400  0.193800  1.0  -0.1271
  C  C92  1  0.510000  0.864000  0.138400  1.0  0.6618
  C  C93  1  0.575300  0.840100  0.196500  1.0  0.1459
  C  C94  1  0.678800  0.893200  0.193800  1.0  -0.1263
  C  C95  1  0.354000  0.490000  0.138400  1.0  0.6609
  C  C96  1  0.264800  0.424700  0.196500  1.0  0.1458
  C  C97  1  0.214400  0.321200  0.193800  1.0  -0.1252
  C  C98  1  0.136000  0.646000  0.138400  1.0  0.6611
  C  C99  1  0.159900  0.735200  0.196500  1.0  0.1451
  C  C100  1  0.106800  0.785600  0.193800  1.0  -0.1259
  C  C101  1  0.354000  0.864000  0.361600  1.0  0.6617
  C  C102  1  0.264800  0.840100  0.303500  1.0  0.1464
  C  C103  1  0.214400  0.893200  0.306200  1.0  -0.1286
  C  C104  1  0.136000  0.490000  0.361600  1.0  0.6608
  C  C105  1  0.159900  0.424700  0.303500  1.0  0.1462
  C  C106  1  0.106800  0.321200  0.306200  1.0  -0.1277
  C  C107  1  0.510000  0.646000  0.361600  1.0  0.6618
  C  C108  1  0.575300  0.735200  0.303500  1.0  0.146
  C  C109  1  0.678800  0.785600  0.306200  1.0  -0.1279
  C  C110  1  0.646000  0.136000  0.361600  1.0  0.6618
  C  C111  1  0.735200  0.159900  0.303500  1.0  0.1464
  C  C112  1  0.785600  0.106800  0.306200  1.0  -0.1279
  C  C113  1  0.864000  0.510000  0.361600  1.0  0.6613
  C  C114  1  0.840100  0.575300  0.303500  1.0  0.146
  C  C115  1  0.893200  0.678800  0.306200  1.0  -0.1273
  C  C116  1  0.490000  0.354000  0.361600  1.0  0.6613
  C  C117  1  0.424700  0.264800  0.303500  1.0  0.1454
  C  C118  1  0.321200  0.214400  0.306200  1.0  -0.1299
  C  C119  1  0.730400  0.865200  0.750000  1.0  -0.0216
  C  C120  1  0.134800  0.269600  0.750000  1.0  -0.019
  C  C121  1  0.134800  0.865200  0.750000  1.0  -0.0208
  C  C122  1  0.269600  0.134800  0.750000  1.0  -0.0207
  C  C123  1  0.865200  0.730400  0.750000  1.0  -0.0186
  C  C124  1  0.865200  0.134800  0.750000  1.0  -0.0213
  C  C125  1  0.269600  0.134800  0.250000  1.0  -0.0207
  C  C126  1  0.865200  0.730400  0.250000  1.0  -0.0186
  C  C127  1  0.865200  0.134800  0.250000  1.0  -0.0213
  C  C128  1  0.730400  0.865200  0.250000  1.0  -0.0216
  C  C129  1  0.134800  0.269600  0.250000  1.0  -0.019
  C  C130  1  0.134800  0.865200  0.250000  1.0  -0.0208
  N  N131  1  0.524300  0.762150  0.750000  1.0  -0.4136
  N  N132  1  0.237850  0.475700  0.750000  1.0  -0.4135
  N  N133  1  0.237850  0.762150  0.750000  1.0  -0.4133
  N  N134  1  0.475700  0.237850  0.750000  1.0  -0.4135
  N  N135  1  0.762150  0.524300  0.750000  1.0  -0.4123
  N  N136  1  0.762150  0.237850  0.750000  1.0  -0.4134
  N  N137  1  0.475700  0.237850  0.250000  1.0  -0.4135
  N  N138  1  0.762150  0.524300  0.250000  1.0  -0.4123
  N  N139  1  0.762150  0.237850  0.250000  1.0  -0.4134
  N  N140  1  0.524300  0.762150  0.250000  1.0  -0.4136
  N  N141  1  0.237850  0.475700  0.250000  1.0  -0.4135
  N  N142  1  0.237850  0.762150  0.250000  1.0  -0.4133
  O  O143  1  0.553400  0.940600  0.906600  1.0  -0.5937
  O  O144  1  0.415400  0.803300  0.857100  1.0  -0.6766
  O  O145  1  0.387200  0.446600  0.906600  1.0  -0.5947
  O  O146  1  0.387900  0.584600  0.857100  1.0  -0.6757
  O  O147  1  0.059400  0.612800  0.906600  1.0  -0.5945
  O  O148  1  0.196700  0.612100  0.857100  1.0  -0.678
  O  O149  1  0.446600  0.059400  0.906600  1.0  -0.5933
  O  O150  1  0.584600  0.196700  0.857100  1.0  -0.6774
  O  O151  1  0.612800  0.553400  0.906600  1.0  -0.5943
  O  O152  1  0.612100  0.415400  0.857100  1.0  -0.6753
  O  O153  1  0.940600  0.387200  0.906600  1.0  -0.5951
  O  O154  1  0.803300  0.387900  0.857100  1.0  -0.6772
  O  O155  1  0.612800  0.059400  0.593400  1.0  -0.5934
  O  O156  1  0.612100  0.196700  0.642900  1.0  -0.6765
  O  O157  1  0.940600  0.553400  0.593400  1.0  -0.5951
  O  O158  1  0.803300  0.415400  0.642900  1.0  -0.6759
  O  O159  1  0.446600  0.387200  0.593400  1.0  -0.5949
  O  O160  1  0.584600  0.387900  0.642900  1.0  -0.6783
  O  O161  1  0.387200  0.940600  0.593400  1.0  -0.5938
  O  O162  1  0.387900  0.803300  0.642900  1.0  -0.6782
  O  O163  1  0.059400  0.446600  0.593400  1.0  -0.5948
  O  O164  1  0.196700  0.584600  0.642900  1.0  -0.6755
  O  O165  1  0.553400  0.612800  0.593400  1.0  -0.5954
  O  O166  1  0.415400  0.612100  0.642900  1.0  -0.6772
  O  O167  1  0.446600  0.059400  0.093400  1.0  -0.5939
  O  O168  1  0.584600  0.196700  0.142900  1.0  -0.6778
  O  O169  1  0.612800  0.553400  0.093400  1.0  -0.5952
  O  O170  1  0.612100  0.415400  0.142900  1.0  -0.6755
  O  O171  1  0.940600  0.387200  0.093400  1.0  -0.5951
  O  O172  1  0.803300  0.387900  0.142900  1.0  -0.6773
  O  O173  1  0.553400  0.940600  0.093400  1.0  -0.594
  O  O174  1  0.415400  0.803300  0.142900  1.0  -0.6769
  O  O175  1  0.387200  0.446600  0.093400  1.0  -0.5953
  O  O176  1  0.387900  0.584600  0.142900  1.0  -0.6758
  O  O177  1  0.059400  0.612800  0.093400  1.0  -0.5954
  O  O178  1  0.196700  0.612100  0.142900  1.0  -0.6785
  O  O179  1  0.387200  0.940600  0.406600  1.0  -0.5939
  O  O180  1  0.387900  0.803300  0.357100  1.0  -0.6777
  O  O181  1  0.059400  0.446600  0.406600  1.0  -0.5948
  O  O182  1  0.196700  0.584600  0.357100  1.0  -0.6756
  O  O183  1  0.553400  0.612800  0.406600  1.0  -0.5952
  O  O184  1  0.415400  0.612100  0.357100  1.0  -0.6769
  O  O185  1  0.612800  0.059400  0.406600  1.0  -0.5934
  O  O186  1  0.612100  0.196700  0.357100  1.0  -0.6764
  O  O187  1  0.940600  0.553400  0.406600  1.0  -0.5948
  O  O188  1  0.803300  0.415400  0.357100  1.0  -0.6757
  O  O189  1  0.446600  0.387200  0.406600  1.0  -0.595
  O  O190  1  0.584600  0.387900  0.357100  1.0  -0.6779
