# generated using pymatgen
data_NdC4NO4
_symmetry_space_group_name_H-M   'P 1'
_cell_length_a   8.35600000
_cell_length_b   14.16400000
_cell_length_c   8.42400000
_cell_angle_alpha   90.00000000
_cell_angle_beta   90.00000000
_cell_angle_gamma   90.00000000
_symmetry_Int_Tables_number   1
_chemical_formula_structural   NdC4NO4
_chemical_formula_sum   'Nd4 C16 N4 O16'
_cell_volume   997.01733082
_cell_formula_units_Z   4
loop_
 _symmetry_equiv_pos_site_id
 _symmetry_equiv_pos_as_xyz
  1  'x, y, z'
loop_
 _atom_site_type_symbol
 _atom_site_label
 _atom_site_symmetry_multiplicity
 _atom_site_fract_x
 _atom_site_fract_y
 _atom_site_fract_z
 _atom_site_occupancy
 _atom_site_charge
  Nd  Nd1  1  0.344600  0.914500  0.634200  1.0  2.1035
  Nd  Nd2  1  0.155400  0.085500  0.134200  1.0  2.1034
  Nd  Nd3  1  0.655400  0.414500  0.865800  1.0  2.1031
  Nd  Nd4  1  0.844600  0.585500  0.365800  1.0  2.1034
  C  C5  1  0.442100  0.989300  0.271100  1.0  0.5954
  C  C6  1  0.581900  0.921800  0.301800  1.0  -0.1408
  C  C7  1  0.736900  0.851400  0.525100  1.0  -0.0169
  C  C8  1  0.658300  0.765700  0.574300  1.0  0.6252
  C  C9  1  0.057900  0.010700  0.771100  1.0  0.596
  C  C10  1  0.918100  0.078200  0.801800  1.0  -0.1405
  C  C11  1  0.763100  0.148600  0.025100  1.0  -0.0165
  C  C12  1  0.841700  0.234300  0.074300  1.0  0.6245
  C  C13  1  0.557900  0.489300  0.228900  1.0  0.5955
  C  C14  1  0.418100  0.421800  0.198200  1.0  -0.1443
  C  C15  1  0.263100  0.351400  0.974900  1.0  -0.0159
  C  C16  1  0.341700  0.265700  0.925700  1.0  0.624
  C  C17  1  0.942100  0.510700  0.728900  1.0  0.5914
  C  C18  1  0.081900  0.578200  0.698200  1.0  -0.1403
  C  C19  1  0.236900  0.648600  0.474900  1.0  -0.0167
  C  C20  1  0.158300  0.734300  0.425700  1.0  0.6249
  N  N21  1  0.621100  0.929600  0.478700  1.0  -0.3761
  N  N22  1  0.878900  0.070400  0.978700  1.0  -0.3755
  N  N23  1  0.378900  0.429600  0.021300  1.0  -0.3748
  N  N24  1  0.121100  0.570400  0.521300  1.0  -0.373
  O  O25  1  0.335900  0.000200  0.372000  1.0  -0.6551
  O  O26  1  0.428900  0.015200  0.124500  1.0  -0.661
  O  O27  1  0.722600  0.684400  0.561300  1.0  -0.7591
  O  O28  1  0.513900  0.771400  0.627100  1.0  -0.7164
  O  O29  1  0.164100  0.999800  0.872000  1.0  -0.6539
  O  O30  1  0.071100  0.984800  0.624500  1.0  -0.6616
  O  O31  1  0.777400  0.315600  0.061300  1.0  -0.7569
  O  O32  1  0.986100  0.228600  0.127100  1.0  -0.7169
  O  O33  1  0.664100  0.500200  0.128000  1.0  -0.6557
  O  O34  1  0.571100  0.515200  0.375500  1.0  -0.6607
  O  O35  1  0.277400  0.184400  0.938700  1.0  -0.7588
  O  O36  1  0.486100  0.271400  0.872900  1.0  -0.7172
  O  O37  1  0.835900  0.499800  0.628000  1.0  -0.6525
  O  O38  1  0.928900  0.484800  0.875500  1.0  -0.66
  O  O39  1  0.222600  0.815600  0.438700  1.0  -0.7572
  O  O40  1  0.013900  0.728600  0.372900  1.0  -0.7163
