# generated using pymatgen
data_ZnH18(C7N2)2
_symmetry_space_group_name_H-M   'P 1'
_cell_length_a   9.43400000
_cell_length_b   16.59900000
_cell_length_c   18.56200000
_cell_angle_alpha   90.00000000
_cell_angle_beta   97.73100000
_cell_angle_gamma   90.00000000
_symmetry_Int_Tables_number   1
_chemical_formula_structural   ZnH18(C7N2)2
_chemical_formula_sum   'Zn4 H72 C56 N16'
_cell_volume   2880.29534380
_cell_formula_units_Z   4
loop_
 _symmetry_equiv_pos_site_id
 _symmetry_equiv_pos_as_xyz
  1  'x, y, z'
loop_
 _atom_site_type_symbol
 _atom_site_label
 _atom_site_symmetry_multiplicity
 _atom_site_fract_x
 _atom_site_fract_y
 _atom_site_fract_z
 _atom_site_occupancy
 _atom_site_charge
  Zn  Zn1  1  0.338200  0.036870  0.983210  1.0  0.6051
  Zn  Zn2  1  0.838200  0.536870  0.983210  1.0  0.6051
  Zn  Zn3  1  0.338200  0.963130  0.483210  1.0  0.6066
  Zn  Zn4  1  0.838200  0.463130  0.483210  1.0  0.6066
  H  H5  1  0.553200  0.081800  0.126200  1.0  0.0519
  H  H6  1  0.448700  0.123900  0.173700  1.0  0.0481
  H  H7  1  0.355400  0.203600  0.074800  1.0  0.045
  H  H8  1  0.521400  0.216600  0.090800  1.0  0.0514
  H  H9  1  0.325600  0.236200  0.949500  1.0  0.0714
  H  H10  1  0.428600  0.200300  0.898200  1.0  0.0784
  H  H11  1  0.390100  0.366200  0.005800  1.0  0.0849
  H  H12  1  0.538800  0.476300  0.018500  1.0  0.049
  H  H13  1  0.689700  0.247600  0.918400  1.0  0.1025
  H  H14  1  0.830000  0.359400  0.935100  1.0  0.0458
  H  H15  1  0.461300  0.948100  0.130900  1.0  0.067
  H  H16  1  0.296500  0.931800  0.117400  1.0  0.0863
  H  H17  1  0.560200  0.930000  0.251300  1.0  0.099
  H  H18  1  0.546100  0.932200  0.373000  1.0  0.0458
  H  H19  1  0.165900  0.017400  0.217100  1.0  0.0876
  H  H20  1  0.157200  0.011000  0.339400  1.0  0.0551
  H  H21  1  0.261700  0.067100  0.108600  1.0  0.2158
  H  H22  1  0.555500  0.141500  0.998200  1.0  0.2033
  H  H23  1  0.053200  0.581800  0.126200  1.0  0.0519
  H  H24  1  0.948700  0.623900  0.173700  1.0  0.0481
  H  H25  1  0.855400  0.703600  0.074800  1.0  0.045
  H  H26  1  0.021400  0.716600  0.090800  1.0  0.0514
  H  H27  1  0.825600  0.736200  0.949500  1.0  0.0714
  H  H28  1  0.928600  0.700300  0.898200  1.0  0.0784
  H  H29  1  0.890100  0.866200  0.005800  1.0  0.0849
  H  H30  1  0.038800  0.976300  0.018500  1.0  0.049
  H  H31  1  0.189700  0.747600  0.918400  1.0  0.1025
  H  H32  1  0.330000  0.859400  0.935100  1.0  0.0458
  H  H33  1  0.961300  0.448100  0.130900  1.0  0.067
  H  H34  1  0.796500  0.431800  0.117400  1.0  0.0863
  H  H35  1  0.060200  0.430000  0.251300  1.0  0.099
  H  H36  1  0.046100  0.432200  0.373000  1.0  0.0458
  H  H37  1  0.665900  0.517400  0.217100  1.0  0.0876
  H  H38  1  0.657200  0.511000  0.339400  1.0  0.0551
  H  H39  1  0.761700  0.567100  0.108600  1.0  0.2158
  H  H40  1  0.055500  0.641500  0.998200  1.0  0.2033
  H  H41  1  0.553200  0.918200  0.626200  1.0  0.0522
  H  H42  1  0.448700  0.876100  0.673700  1.0  0.049
  H  H43  1  0.355400  0.796400  0.574800  1.0  0.0458
  H  H44  1  0.521400  0.783400  0.590800  1.0  0.053
  H  H45  1  0.325600  0.763800  0.449500  1.0  0.0713
  H  H46  1  0.428600  0.799700  0.398200  1.0  0.0784
  H  H47  1  0.390100  0.633800  0.505800  1.0  0.0853
  H  H48  1  0.538800  0.523700  0.518500  1.0  0.0486
  H  H49  1  0.689700  0.752400  0.418400  1.0  0.1025
  H  H50  1  0.830000  0.640600  0.435100  1.0  0.0454
  H  H51  1  0.461300  0.051900  0.630900  1.0  0.067
  H  H52  1  0.296500  0.068200  0.617400  1.0  0.0859
  H  H53  1  0.560200  0.070000  0.751300  1.0  0.0996
  H  H54  1  0.546100  0.067800  0.873000  1.0  0.0454
  H  H55  1  0.165900  0.982600  0.717100  1.0  0.0879
  H  H56  1  0.157200  0.989000  0.839400  1.0  0.055
  H  H57  1  0.261700  0.932900  0.608600  1.0  0.2167
  H  H58  1  0.555500  0.858500  0.498200  1.0  0.2034
  H  H59  1  0.053200  0.418200  0.626200  1.0  0.0522
  H  H60  1  0.948700  0.376100  0.673700  1.0  0.049
  H  H61  1  0.855400  0.296400  0.574800  1.0  0.0458
  H  H62  1  0.021400  0.283400  0.590800  1.0  0.053
  H  H63  1  0.825600  0.263800  0.449500  1.0  0.0713
  H  H64  1  0.928600  0.299700  0.398200  1.0  0.0784
  H  H65  1  0.890100  0.133800  0.505800  1.0  0.0853
  H  H66  1  0.038800  0.023700  0.518500  1.0  0.0486
  H  H67  1  0.189700  0.252400  0.418400  1.0  0.1025
  H  H68  1  0.330000  0.140600  0.435100  1.0  0.0454
  H  H69  1  0.961300  0.551900  0.630900  1.0  0.067
  H  H70  1  0.796500  0.568200  0.617400  1.0  0.0858
  H  H71  1  0.060200  0.570000  0.751300  1.0  0.0996
  H  H72  1  0.046100  0.567800  0.873000  1.0  0.0454
  H  H73  1  0.665900  0.482600  0.717100  1.0  0.0879
  H  H74  1  0.657200  0.489000  0.839400  1.0  0.055
  H  H75  1  0.761700  0.432900  0.608600  1.0  0.2167
  H  H76  1  0.055500  0.358500  0.498200  1.0  0.2034
  C  C77  1  0.459600  0.106400  0.124900  1.0  -0.0623
  C  C78  1  0.447400  0.177800  0.074100  1.0  -0.0547
  C  C79  1  0.423600  0.220100  0.947000  1.0  -0.1221
  C  C80  1  0.520300  0.294000  0.960600  1.0  0.1088
  C  C81  1  0.479800  0.362900  0.990500  1.0  -0.2045
  C  C82  1  0.570900  0.429300  0.998600  1.0  0.106
  C  C83  1  0.655900  0.293400  0.939400  1.0  -0.2445
  C  C84  1  0.739600  0.361200  0.949800  1.0  0.1273
  C  C85  1  0.368800  0.969500  0.138600  1.0  -0.0903
  C  C86  1  0.363200  0.973500  0.219500  1.0  0.0871
  C  C87  1  0.476900  0.947800  0.267900  1.0  -0.2839
  C  C88  1  0.466800  0.948600  0.341100  1.0  0.143
  C  C89  1  0.244800  0.998300  0.247900  1.0  -0.2374
  C  C90  1  0.240800  0.995400  0.321800  1.0  0.141
  C  C91  1  0.959600  0.606400  0.124900  1.0  -0.0623
  C  C92  1  0.947400  0.677800  0.074100  1.0  -0.0547
  C  C93  1  0.923600  0.720100  0.947000  1.0  -0.1221
  C  C94  1  0.020300  0.794000  0.960600  1.0  0.1088
  C  C95  1  0.979800  0.862900  0.990500  1.0  -0.2045
  C  C96  1  0.070900  0.929300  0.998600  1.0  0.106
  C  C97  1  0.155900  0.793400  0.939400  1.0  -0.2445
  C  C98  1  0.239600  0.861200  0.949800  1.0  0.1273
  C  C99  1  0.868800  0.469500  0.138600  1.0  -0.0903
  C  C100  1  0.863200  0.473500  0.219500  1.0  0.0871
  C  C101  1  0.976900  0.447800  0.267900  1.0  -0.2839
  C  C102  1  0.966800  0.448600  0.341100  1.0  0.143
  C  C103  1  0.744800  0.498300  0.247900  1.0  -0.2374
  C  C104  1  0.740800  0.495400  0.321800  1.0  0.141
  C  C105  1  0.459600  0.893600  0.624900  1.0  -0.0622
  C  C106  1  0.447400  0.822200  0.574100  1.0  -0.0532
  C  C107  1  0.423600  0.779900  0.447000  1.0  -0.1223
  C  C108  1  0.520300  0.706000  0.460600  1.0  0.1087
  C  C109  1  0.479800  0.637100  0.490500  1.0  -0.203
  C  C110  1  0.570900  0.570700  0.498600  1.0  0.1051
  C  C111  1  0.655900  0.706600  0.439400  1.0  -0.2453
  C  C112  1  0.739600  0.638800  0.449800  1.0  0.1276
  C  C113  1  0.368800  0.030500  0.638600  1.0  -0.0911
  C  C114  1  0.363200  0.026500  0.719500  1.0  0.087
  C  C115  1  0.476900  0.052200  0.767900  1.0  -0.2854
  C  C116  1  0.466800  0.051400  0.841100  1.0  0.1426
  C  C117  1  0.244800  0.001700  0.747900  1.0  -0.2374
  C  C118  1  0.240800  0.004600  0.821800  1.0  0.141
  C  C119  1  0.959600  0.393600  0.624900  1.0  -0.0622
  C  C120  1  0.947400  0.322200  0.574100  1.0  -0.0532
  C  C121  1  0.923600  0.279900  0.447000  1.0  -0.1223
  C  C122  1  0.020300  0.206000  0.460600  1.0  0.1087
  C  C123  1  0.979800  0.137100  0.490500  1.0  -0.203
  C  C124  1  0.070900  0.070700  0.498600  1.0  0.1051
  C  C125  1  0.155900  0.206600  0.439400  1.0  -0.2453
  C  C126  1  0.239600  0.138800  0.449800  1.0  0.1276
  C  C127  1  0.868800  0.530500  0.638600  1.0  -0.0911
  C  C128  1  0.863200  0.526500  0.719500  1.0  0.087
  C  C129  1  0.976900  0.552200  0.767900  1.0  -0.2854
  C  C130  1  0.966800  0.551400  0.841100  1.0  0.1426
  C  C131  1  0.744800  0.501700  0.747900  1.0  -0.2374
  C  C132  1  0.740800  0.504600  0.821800  1.0  0.141
  N  N133  1  0.346800  0.046600  0.099310  1.0  -0.3991
  N  N134  1  0.461700  0.153440  0.999410  1.0  -0.3953
  N  N135  1  0.350500  0.971400  0.368800  1.0  -0.3558
  N  N136  1  0.701100  0.428700  0.979260  1.0  -0.3579
  N  N137  1  0.846800  0.546600  0.099310  1.0  -0.3991
  N  N138  1  0.961700  0.653440  0.999410  1.0  -0.3953
  N  N139  1  0.850500  0.471400  0.368800  1.0  -0.3558
  N  N140  1  0.201100  0.928700  0.979260  1.0  -0.3579
  N  N141  1  0.346800  0.953400  0.599310  1.0  -0.3994
  N  N142  1  0.461700  0.846560  0.499410  1.0  -0.3972
  N  N143  1  0.350500  0.028600  0.868800  1.0  -0.3562
  N  N144  1  0.701100  0.571300  0.479260  1.0  -0.3576
  N  N145  1  0.846800  0.453400  0.599310  1.0  -0.3994
  N  N146  1  0.961700  0.346560  0.499410  1.0  -0.3972
  N  N147  1  0.850500  0.528600  0.868800  1.0  -0.3562
  N  N148  1  0.201100  0.071300  0.479260  1.0  -0.3576
