# generated using pymatgen
data_Cu3H32C46N9O8
_symmetry_space_group_name_H-M   'P 1'
_cell_length_a   19.11100000
_cell_length_b   19.11100000
_cell_length_c   19.91500000
_cell_angle_alpha   90.00000000
_cell_angle_beta   90.00000000
_cell_angle_gamma   90.00000000
_symmetry_Int_Tables_number   1
_chemical_formula_structural   Cu3H32C46N9O8
_chemical_formula_sum   'Cu12 H128 C184 N36 O32'
_cell_volume   7273.56184271
_cell_formula_units_Z   4
loop_
 _symmetry_equiv_pos_site_id
 _symmetry_equiv_pos_as_xyz
  1  'x, y, z'
loop_
 _atom_site_type_symbol
 _atom_site_label
 _atom_site_symmetry_multiplicity
 _atom_site_fract_x
 _atom_site_fract_y
 _atom_site_fract_z
 _atom_site_occupancy
 _atom_site_charge
  Cu  Cu1  1  0.631260  0.631260  0.500000  1.0  0.822
  Cu  Cu2  1  0.728470  0.728470  0.500000  1.0  0.8528
  Cu  Cu3  1  0.368740  0.368740  0.500000  1.0  0.8224
  Cu  Cu4  1  0.271530  0.271530  0.500000  1.0  0.8503
  Cu  Cu5  1  0.500000  0.000000  0.000000  1.0  0.4484
  Cu  Cu6  1  0.000000  0.500000  0.000000  1.0  0.4484
  Cu  Cu7  1  0.868740  0.131260  0.000000  1.0  0.8229
  Cu  Cu8  1  0.771530  0.228470  0.000000  1.0  0.8506
  Cu  Cu9  1  0.131260  0.868740  0.000000  1.0  0.8215
  Cu  Cu10  1  0.228470  0.771530  0.000000  1.0  0.8517
  Cu  Cu11  1  0.500000  0.000000  0.500000  1.0  0.4484
  Cu  Cu12  1  0.000000  0.500000  0.500000  1.0  0.4484
  H  H13  1  0.554900  0.952000  0.852000  1.0  0.0941
  H  H14  1  0.450700  0.773100  0.886000  1.0  0.1178
  H  H15  1  0.456900  0.757000  0.761600  1.0  0.1025
  H  H16  1  0.498500  0.714000  0.660000  1.0  0.0934
  H  H17  1  0.667100  0.840500  0.673600  1.0  0.0982
  H  H18  1  0.625100  0.884000  0.775300  1.0  0.0947
  H  H19  1  0.589400  0.494100  0.425700  1.0  0.0853
  H  H20  1  0.445100  0.048000  0.852000  1.0  0.0946
  H  H21  1  0.549300  0.226900  0.886000  1.0  0.1175
  H  H22  1  0.543100  0.243000  0.761600  1.0  0.1029
  H  H23  1  0.501500  0.286000  0.660000  1.0  0.0939
  H  H24  1  0.332900  0.159500  0.673600  1.0  0.098
  H  H25  1  0.374900  0.116000  0.775300  1.0  0.0945
  H  H26  1  0.410600  0.505900  0.425700  1.0  0.084
  H  H27  1  0.952000  0.554900  0.148000  1.0  0.0939
  H  H28  1  0.773100  0.450700  0.114000  1.0  0.1167
  H  H29  1  0.757000  0.456900  0.238400  1.0  0.1035
  H  H30  1  0.714000  0.498500  0.340000  1.0  0.094
  H  H31  1  0.840500  0.667100  0.326400  1.0  0.0982
  H  H32  1  0.884000  0.625100  0.224700  1.0  0.0943
  H  H33  1  0.494100  0.589400  0.574300  1.0  0.0865
  H  H34  1  0.048000  0.445100  0.148000  1.0  0.0947
  H  H35  1  0.226900  0.549300  0.114000  1.0  0.1158
  H  H36  1  0.243000  0.543100  0.238400  1.0  0.1042
  H  H37  1  0.286000  0.501500  0.340000  1.0  0.094
  H  H38  1  0.159500  0.332900  0.326400  1.0  0.0982
  H  H39  1  0.116000  0.374900  0.224700  1.0  0.0944
  H  H40  1  0.505900  0.410600  0.574300  1.0  0.0863
  H  H41  1  0.445100  0.048000  0.148000  1.0  0.0946
  H  H42  1  0.549300  0.226900  0.114000  1.0  0.1174
  H  H43  1  0.543100  0.243000  0.238400  1.0  0.103
  H  H44  1  0.501500  0.286000  0.340000  1.0  0.0938
  H  H45  1  0.332900  0.159500  0.326400  1.0  0.0977
  H  H46  1  0.374900  0.116000  0.224700  1.0  0.094
  H  H47  1  0.410600  0.505900  0.574300  1.0  0.0827
  H  H48  1  0.554900  0.952000  0.148000  1.0  0.0938
  H  H49  1  0.450700  0.773100  0.114000  1.0  0.1176
  H  H50  1  0.456900  0.757000  0.238400  1.0  0.1026
  H  H51  1  0.498500  0.714000  0.340000  1.0  0.0938
  H  H52  1  0.667100  0.840500  0.326400  1.0  0.0979
  H  H53  1  0.625100  0.884000  0.224700  1.0  0.0947
  H  H54  1  0.589400  0.494100  0.574300  1.0  0.0833
  H  H55  1  0.048000  0.445100  0.852000  1.0  0.0948
  H  H56  1  0.226900  0.549300  0.886000  1.0  0.116
  H  H57  1  0.243000  0.543100  0.761600  1.0  0.1039
  H  H58  1  0.286000  0.501500  0.660000  1.0  0.0942
  H  H59  1  0.159500  0.332900  0.673600  1.0  0.0985
  H  H60  1  0.116000  0.374900  0.775300  1.0  0.095
  H  H61  1  0.505900  0.410600  0.425700  1.0  0.0845
  H  H62  1  0.952000  0.554900  0.852000  1.0  0.0942
  H  H63  1  0.773100  0.450700  0.886000  1.0  0.1169
  H  H64  1  0.757000  0.456900  0.761600  1.0  0.1033
  H  H65  1  0.714000  0.498500  0.660000  1.0  0.0936
  H  H66  1  0.840500  0.667100  0.673600  1.0  0.0984
  H  H67  1  0.884000  0.625100  0.775300  1.0  0.0949
  H  H68  1  0.494100  0.589400  0.425700  1.0  0.0843
  H  H69  1  0.376500  0.888400  0.000000  1.0  0.1077
  H  H70  1  0.395100  0.806500  0.000000  1.0  0.0942
  H  H71  1  0.623500  0.111600  0.000000  1.0  0.1075
  H  H72  1  0.604900  0.193500  0.000000  1.0  0.094
  H  H73  1  0.888400  0.376500  0.000000  1.0  0.1074
  H  H74  1  0.806500  0.395100  0.000000  1.0  0.0937
  H  H75  1  0.111600  0.623500  0.000000  1.0  0.1086
  H  H76  1  0.193500  0.604900  0.000000  1.0  0.0938
  H  H77  1  0.548000  0.054900  0.352000  1.0  0.0946
  H  H78  1  0.726900  0.950700  0.386000  1.0  0.116
  H  H79  1  0.743000  0.956900  0.261600  1.0  0.104
  H  H80  1  0.786000  0.998500  0.160000  1.0  0.0938
  H  H81  1  0.659500  0.167100  0.173600  1.0  0.0981
  H  H82  1  0.616000  0.125100  0.275300  1.0  0.0948
  H  H83  1  0.005900  0.089400  0.925700  1.0  0.086
  H  H84  1  0.452000  0.945100  0.352000  1.0  0.0946
  H  H85  1  0.273100  0.049300  0.386000  1.0  0.1173
  H  H86  1  0.257000  0.043100  0.261600  1.0  0.1036
  H  H87  1  0.214000  0.001500  0.160000  1.0  0.0942
  H  H88  1  0.340500  0.832900  0.173600  1.0  0.0983
  H  H89  1  0.384000  0.874900  0.275300  1.0  0.0953
  H  H90  1  0.994100  0.910600  0.925700  1.0  0.0859
  H  H91  1  0.945100  0.452000  0.648000  1.0  0.0942
  H  H92  1  0.049300  0.273100  0.614000  1.0  0.1185
  H  H93  1  0.043100  0.257000  0.738400  1.0  0.1026
  H  H94  1  0.001500  0.214000  0.840000  1.0  0.0941
  H  H95  1  0.832900  0.340500  0.826400  1.0  0.0972
  H  H96  1  0.874900  0.384000  0.724700  1.0  0.0944
  H  H97  1  0.910600  0.994100  0.074300  1.0  0.084
  H  H98  1  0.054900  0.548000  0.648000  1.0  0.0947
  H  H99  1  0.950700  0.726900  0.614000  1.0  0.1167
  H  H100  1  0.956900  0.743000  0.738400  1.0  0.1028
  H  H101  1  0.998500  0.786000  0.840000  1.0  0.0935
  H  H102  1  0.167100  0.659500  0.826400  1.0  0.0979
  H  H103  1  0.125100  0.616000  0.724700  1.0  0.0946
  H  H104  1  0.089400  0.005900  0.074300  1.0  0.0844
  H  H105  1  0.452000  0.945100  0.648000  1.0  0.0945
  H  H106  1  0.273100  0.049300  0.614000  1.0  0.117
  H  H107  1  0.257000  0.043100  0.738400  1.0  0.1038
  H  H108  1  0.214000  0.001500  0.840000  1.0  0.0942
  H  H109  1  0.340500  0.832900  0.826400  1.0  0.0981
  H  H110  1  0.384000  0.874900  0.724700  1.0  0.0945
  H  H111  1  0.994100  0.910600  0.074300  1.0  0.0856
  H  H112  1  0.548000  0.054900  0.648000  1.0  0.0944
  H  H113  1  0.726900  0.950700  0.614000  1.0  0.1158
  H  H114  1  0.743000  0.956900  0.738400  1.0  0.1044
  H  H115  1  0.786000  0.998500  0.840000  1.0  0.0941
  H  H116  1  0.659500  0.167100  0.826400  1.0  0.0978
  H  H117  1  0.616000  0.125100  0.724700  1.0  0.0945
  H  H118  1  0.005900  0.089400  0.074300  1.0  0.084
  H  H119  1  0.054900  0.548000  0.352000  1.0  0.0948
  H  H120  1  0.950700  0.726900  0.386000  1.0  0.1169
  H  H121  1  0.956900  0.743000  0.261600  1.0  0.1028
  H  H122  1  0.998500  0.786000  0.160000  1.0  0.0936
  H  H123  1  0.167100  0.659500  0.173600  1.0  0.0981
  H  H124  1  0.125100  0.616000  0.275300  1.0  0.0945
  H  H125  1  0.089400  0.005900  0.925700  1.0  0.0843
  H  H126  1  0.945100  0.452000  0.352000  1.0  0.0945
  H  H127  1  0.049300  0.273100  0.386000  1.0  0.1188
  H  H128  1  0.043100  0.257000  0.261600  1.0  0.1024
  H  H129  1  0.001500  0.214000  0.160000  1.0  0.0938
  H  H130  1  0.832900  0.340500  0.173600  1.0  0.0976
  H  H131  1  0.874900  0.384000  0.275300  1.0  0.0951
  H  H132  1  0.910600  0.994100  0.925700  1.0  0.0821
  H  H133  1  0.611600  0.876500  0.500000  1.0  0.1092
  H  H134  1  0.693500  0.895100  0.500000  1.0  0.0939
  H  H135  1  0.388400  0.123500  0.500000  1.0  0.1068
  H  H136  1  0.306500  0.104900  0.500000  1.0  0.0939
  H  H137  1  0.123500  0.388400  0.500000  1.0  0.1066
  H  H138  1  0.104900  0.306500  0.500000  1.0  0.0946
  H  H139  1  0.876500  0.611600  0.500000  1.0  0.1082
  H  H140  1  0.895100  0.693500  0.500000  1.0  0.094
  C  C141  1  0.525600  0.917600  0.871900  1.0  0.0061
  C  C142  1  0.511800  0.851800  0.844400  1.0  -0.1188
  C  C143  1  0.469100  0.819100  0.889800  1.0  -0.0956
  C  C144  1  0.537300  0.824700  0.779100  1.0  -0.0314
  C  C145  1  0.499800  0.774000  0.744000  1.0  -0.1074
  C  C146  1  0.524700  0.748300  0.683700  1.0  -0.0551
  C  C147  1  0.587400  0.772200  0.657600  1.0  -0.1398
  C  C148  1  0.624500  0.823200  0.691600  1.0  -0.0322
  C  C149  1  0.599300  0.849000  0.752100  1.0  -0.1194
  C  C150  1  0.617500  0.742500  0.594200  1.0  0.6542
  C  C151  1  0.552200  0.497300  0.457200  1.0  0.0703
  C  C152  1  0.474400  0.082400  0.871900  1.0  0.0062
  C  C153  1  0.488200  0.148200  0.844400  1.0  -0.1199
  C  C154  1  0.530900  0.180900  0.889800  1.0  -0.0952
  C  C155  1  0.462700  0.175300  0.779100  1.0  -0.0314
  C  C156  1  0.500200  0.226000  0.744000  1.0  -0.111
  C  C157  1  0.475300  0.251700  0.683700  1.0  -0.0552
  C  C158  1  0.412600  0.227800  0.657600  1.0  -0.1396
  C  C159  1  0.375500  0.176800  0.691600  1.0  -0.0329
  C  C160  1  0.400700  0.151000  0.752100  1.0  -0.1192
  C  C161  1  0.382500  0.257500  0.594200  1.0  0.6552
  C  C162  1  0.447800  0.502700  0.457200  1.0  0.0715
  C  C163  1  0.917600  0.525600  0.128100  1.0  0.0039
  C  C164  1  0.851800  0.511800  0.155600  1.0  -0.1199
  C  C165  1  0.819100  0.469100  0.110200  1.0  -0.0964
  C  C166  1  0.824700  0.537300  0.220900  1.0  -0.0314
  C  C167  1  0.774000  0.499800  0.256000  1.0  -0.1074
  C  C168  1  0.748300  0.524700  0.316300  1.0  -0.0545
  C  C169  1  0.772200  0.587400  0.342400  1.0  -0.1405
  C  C170  1  0.823200  0.624500  0.308400  1.0  -0.0334
  C  C171  1  0.849000  0.599300  0.247900  1.0  -0.1196
  C  C172  1  0.742500  0.617500  0.405800  1.0  0.6568
  C  C173  1  0.497300  0.552200  0.542800  1.0  0.0716
  C  C174  1  0.082400  0.474400  0.128100  1.0  0.0056
  C  C175  1  0.148200  0.488200  0.155600  1.0  -0.1196
  C  C176  1  0.180900  0.530900  0.110200  1.0  -0.0969
  C  C177  1  0.175300  0.462700  0.220900  1.0  -0.0319
  C  C178  1  0.226000  0.500200  0.256000  1.0  -0.1076
  C  C179  1  0.251700  0.475300  0.316300  1.0  -0.054
  C  C180  1  0.227800  0.412600  0.342400  1.0  -0.1424
  C  C181  1  0.176800  0.375500  0.308400  1.0  -0.0328
  C  C182  1  0.151000  0.400700  0.247900  1.0  -0.1184
  C  C183  1  0.257500  0.382500  0.405800  1.0  0.6565
  C  C184  1  0.502700  0.447800  0.542800  1.0  0.0707
  C  C185  1  0.474400  0.082400  0.128100  1.0  0.0037
  C  C186  1  0.488200  0.148200  0.155600  1.0  -0.121
  C  C187  1  0.530900  0.180900  0.110200  1.0  -0.0958
  C  C188  1  0.462700  0.175300  0.220900  1.0  -0.0325
  C  C189  1  0.500200  0.226000  0.256000  1.0  -0.1102
  C  C190  1  0.475300  0.251700  0.316300  1.0  -0.0548
  C  C191  1  0.412600  0.227800  0.342400  1.0  -0.1395
  C  C192  1  0.375500  0.176800  0.308400  1.0  -0.033
  C  C193  1  0.400700  0.151000  0.247900  1.0  -0.1185
  C  C194  1  0.382500  0.257500  0.405800  1.0  0.6555
  C  C195  1  0.447800  0.502700  0.542800  1.0  0.0714
  C  C196  1  0.525600  0.917600  0.128100  1.0  0.0083
  C  C197  1  0.511800  0.851800  0.155600  1.0  -0.1201
  C  C198  1  0.469100  0.819100  0.110200  1.0  -0.0955
  C  C199  1  0.537300  0.824700  0.220900  1.0  -0.0318
  C  C200  1  0.499800  0.774000  0.256000  1.0  -0.1068
  C  C201  1  0.524700  0.748300  0.316300  1.0  -0.0539
  C  C202  1  0.587400  0.772200  0.342400  1.0  -0.1402
  C  C203  1  0.624500  0.823200  0.308400  1.0  -0.0325
  C  C204  1  0.599300  0.849000  0.247900  1.0  -0.1194
  C  C205  1  0.617500  0.742500  0.405800  1.0  0.6541
  C  C206  1  0.552200  0.497300  0.542800  1.0  0.0702
  C  C207  1  0.082400  0.474400  0.871900  1.0  0.0034
  C  C208  1  0.148200  0.488200  0.844400  1.0  -0.1184
  C  C209  1  0.180900  0.530900  0.889800  1.0  -0.097
  C  C210  1  0.175300  0.462700  0.779100  1.0  -0.0317
  C  C211  1  0.226000  0.500200  0.744000  1.0  -0.1084
  C  C212  1  0.251700  0.475300  0.683700  1.0  -0.0547
  C  C213  1  0.227800  0.412600  0.657600  1.0  -0.1413
  C  C214  1  0.176800  0.375500  0.691600  1.0  -0.0326
  C  C215  1  0.151000  0.400700  0.752100  1.0  -0.1184
  C  C216  1  0.257500  0.382500  0.594200  1.0  0.6562
  C  C217  1  0.502700  0.447800  0.457200  1.0  0.0715
  C  C218  1  0.917600  0.525600  0.871900  1.0  0.0059
  C  C219  1  0.851800  0.511800  0.844400  1.0  -0.1191
  C  C220  1  0.819100  0.469100  0.889800  1.0  -0.0961
  C  C221  1  0.824700  0.537300  0.779100  1.0  -0.0298
  C  C222  1  0.774000  0.499800  0.744000  1.0  -0.1077
  C  C223  1  0.748300  0.524700  0.683700  1.0  -0.0551
  C  C224  1  0.772200  0.587400  0.657600  1.0  -0.1409
  C  C225  1  0.823200  0.624500  0.691600  1.0  -0.0331
  C  C226  1  0.849000  0.599300  0.752100  1.0  -0.1203
  C  C227  1  0.742500  0.617500  0.594200  1.0  0.657
  C  C228  1  0.497300  0.552200  0.457200  1.0  0.0718
  C  C229  1  0.415400  0.854200  0.000000  1.0  0.0074
  C  C230  1  0.584600  0.145800  0.000000  1.0  0.0106
  C  C231  1  0.854200  0.415400  0.000000  1.0  0.0093
  C  C232  1  0.145800  0.584600  0.000000  1.0  0.0102
  C  C233  1  0.582400  0.025600  0.371900  1.0  0.0041
  C  C234  1  0.648200  0.011800  0.344400  1.0  -0.1186
  C  C235  1  0.680900  0.969100  0.389800  1.0  -0.0968
  C  C236  1  0.675300  0.037300  0.279100  1.0  -0.0318
  C  C237  1  0.726000  0.999800  0.244000  1.0  -0.1088
  C  C238  1  0.751700  0.024700  0.183700  1.0  -0.0556
  C  C239  1  0.727800  0.087400  0.157600  1.0  -0.1411
  C  C240  1  0.676800  0.124500  0.191600  1.0  -0.0323
  C  C241  1  0.651000  0.099300  0.252100  1.0  -0.1192
  C  C242  1  0.757500  0.117500  0.094200  1.0  0.6569
  C  C243  1  0.002700  0.052200  0.957200  1.0  0.0703
  C  C244  1  0.417600  0.974400  0.371900  1.0  0.0051
  C  C245  1  0.351800  0.988200  0.344400  1.0  -0.1189
  C  C246  1  0.319100  0.030900  0.389800  1.0  -0.0959
  C  C247  1  0.324700  0.962700  0.279100  1.0  -0.0295
  C  C248  1  0.274000  0.000200  0.244000  1.0  -0.1078
  C  C249  1  0.248300  0.975300  0.183700  1.0  -0.0544
  C  C250  1  0.272200  0.912600  0.157600  1.0  -0.1411
  C  C251  1  0.323200  0.875500  0.191600  1.0  -0.0333
  C  C252  1  0.349000  0.900700  0.252100  1.0  -0.1199
  C  C253  1  0.242500  0.882500  0.094200  1.0  0.656
  C  C254  1  0.997300  0.947800  0.957200  1.0  0.0709
  C  C255  1  0.974400  0.417600  0.628100  1.0  0.0046
  C  C256  1  0.988200  0.351800  0.655600  1.0  -0.1203
  C  C257  1  0.030900  0.319100  0.610200  1.0  -0.0957
  C  C258  1  0.962700  0.324700  0.720900  1.0  -0.0314
  C  C259  1  0.000200  0.274000  0.756000  1.0  -0.1095
  C  C260  1  0.975300  0.248300  0.816300  1.0  -0.0555
  C  C261  1  0.912600  0.272200  0.842400  1.0  -0.1408
  C  C262  1  0.875500  0.323200  0.808400  1.0  -0.0326
  C  C263  1  0.900700  0.349000  0.747900  1.0  -0.1177
  C  C264  1  0.882500  0.242500  0.905800  1.0  0.6551
  C  C265  1  0.947800  0.997300  0.042800  1.0  0.0715
  C  C266  1  0.025600  0.582400  0.628100  1.0  0.0078
  C  C267  1  0.011800  0.648200  0.655600  1.0  -0.1212
  C  C268  1  0.969100  0.680900  0.610200  1.0  -0.0963
  C  C269  1  0.037300  0.675300  0.720900  1.0  -0.0322
  C  C270  1  0.999800  0.726000  0.756000  1.0  -0.1089
  C  C271  1  0.024700  0.751700  0.816300  1.0  -0.0541
  C  C272  1  0.087400  0.727800  0.842400  1.0  -0.1391
  C  C273  1  0.124500  0.676800  0.808400  1.0  -0.0325
  C  C274  1  0.099300  0.651000  0.747900  1.0  -0.1202
  C  C275  1  0.117500  0.757500  0.905800  1.0  0.6545
  C  C276  1  0.052200  0.002700  0.042800  1.0  0.0697
  C  C277  1  0.417600  0.974400  0.628100  1.0  0.0029
  C  C278  1  0.351800  0.988200  0.655600  1.0  -0.1198
  C  C279  1  0.319100  0.030900  0.610200  1.0  -0.0962
  C  C280  1  0.324700  0.962700  0.720900  1.0  -0.0308
  C  C281  1  0.274000  0.000200  0.756000  1.0  -0.1071
  C  C282  1  0.248300  0.975300  0.816300  1.0  -0.0541
  C  C283  1  0.272200  0.912600  0.842400  1.0  -0.1406
  C  C284  1  0.323200  0.875500  0.808400  1.0  -0.0335
  C  C285  1  0.349000  0.900700  0.747900  1.0  -0.1195
  C  C286  1  0.242500  0.882500  0.905800  1.0  0.6561
  C  C287  1  0.997300  0.947800  0.042800  1.0  0.0716
  C  C288  1  0.582400  0.025600  0.628100  1.0  0.0064
  C  C289  1  0.648200  0.011800  0.655600  1.0  -0.1197
  C  C290  1  0.680900  0.969100  0.610200  1.0  -0.0969
  C  C291  1  0.675300  0.037300  0.720900  1.0  -0.0319
  C  C292  1  0.726000  0.999800  0.756000  1.0  -0.1082
  C  C293  1  0.751700  0.024700  0.816300  1.0  -0.0546
  C  C294  1  0.727800  0.087400  0.842400  1.0  -0.1423
  C  C295  1  0.676800  0.124500  0.808400  1.0  -0.0327
  C  C296  1  0.651000  0.099300  0.747900  1.0  -0.1189
  C  C297  1  0.757500  0.117500  0.905800  1.0  0.6569
  C  C298  1  0.002700  0.052200  0.042800  1.0  0.0697
  C  C299  1  0.025600  0.582400  0.371900  1.0  0.0055
  C  C300  1  0.011800  0.648200  0.344400  1.0  -0.12
  C  C301  1  0.969100  0.680900  0.389800  1.0  -0.096
  C  C302  1  0.037300  0.675300  0.279100  1.0  -0.0316
  C  C303  1  0.999800  0.726000  0.244000  1.0  -0.1099
  C  C304  1  0.024700  0.751700  0.183700  1.0  -0.0546
  C  C305  1  0.087400  0.727800  0.157600  1.0  -0.139
  C  C306  1  0.124500  0.676800  0.191600  1.0  -0.0324
  C  C307  1  0.099300  0.651000  0.252100  1.0  -0.1201
  C  C308  1  0.117500  0.757500  0.094200  1.0  0.6546
  C  C309  1  0.052200  0.002700  0.957200  1.0  0.0701
  C  C310  1  0.974400  0.417600  0.371900  1.0  0.0071
  C  C311  1  0.988200  0.351800  0.344400  1.0  -0.1189
  C  C312  1  0.030900  0.319100  0.389800  1.0  -0.0956
  C  C313  1  0.962700  0.324700  0.279100  1.0  -0.0308
  C  C314  1  0.000200  0.274000  0.244000  1.0  -0.1103
  C  C315  1  0.975300  0.248300  0.183700  1.0  -0.0566
  C  C316  1  0.912600  0.272200  0.157600  1.0  -0.1403
  C  C317  1  0.875500  0.323200  0.191600  1.0  -0.0321
  C  C318  1  0.900700  0.349000  0.252100  1.0  -0.1187
  C  C319  1  0.882500  0.242500  0.094200  1.0  0.6548
  C  C320  1  0.947800  0.997300  0.957200  1.0  0.0699
  C  C321  1  0.645800  0.915400  0.500000  1.0  0.009
  C  C322  1  0.354200  0.084600  0.500000  1.0  0.0109
  C  C323  1  0.084600  0.354200  0.500000  1.0  0.0098
  C  C324  1  0.915400  0.645800  0.500000  1.0  0.0083
  N  N325  1  0.458000  0.863900  0.940510  1.0  0.176
  N  N326  1  0.492000  0.925300  0.929650  1.0  -0.3634
  N  N327  1  0.542000  0.136100  0.940510  1.0  0.1745
  N  N328  1  0.508000  0.074700  0.929650  1.0  -0.3629
  N  N329  1  0.863900  0.458000  0.059490  1.0  0.1749
  N  N330  1  0.925300  0.492000  0.070350  1.0  -0.3634
  N  N331  1  0.136100  0.542000  0.059490  1.0  0.1755
  N  N332  1  0.074700  0.508000  0.070350  1.0  -0.3624
  N  N333  1  0.542000  0.136100  0.059490  1.0  0.1743
  N  N334  1  0.508000  0.074700  0.070350  1.0  -0.3633
  N  N335  1  0.458000  0.863900  0.059490  1.0  0.1758
  N  N336  1  0.492000  0.925300  0.070350  1.0  -0.3632
  N  N337  1  0.136100  0.542000  0.940510  1.0  0.1759
  N  N338  1  0.074700  0.508000  0.929650  1.0  -0.3621
  N  N339  1  0.863900  0.458000  0.940510  1.0  0.1751
  N  N340  1  0.925300  0.492000  0.929650  1.0  -0.3628
  N  N341  1  0.551100  0.551100  0.500000  1.0  -0.0126
  N  N342  1  0.448900  0.448900  0.500000  1.0  -0.0199
  N  N343  1  0.636100  0.958000  0.440510  1.0  0.1759
  N  N344  1  0.574700  0.992000  0.429650  1.0  -0.3624
  N  N345  1  0.363900  0.042000  0.440510  1.0  0.1747
  N  N346  1  0.425300  0.008000  0.429650  1.0  -0.3618
  N  N347  1  0.042000  0.363900  0.559490  1.0  0.1747
  N  N348  1  0.008000  0.425300  0.570350  1.0  -0.3639
  N  N349  1  0.958000  0.636100  0.559490  1.0  0.1749
  N  N350  1  0.992000  0.574700  0.570350  1.0  -0.3626
  N  N351  1  0.363900  0.042000  0.559490  1.0  0.1743
  N  N352  1  0.425300  0.008000  0.570350  1.0  -0.3629
  N  N353  1  0.636100  0.958000  0.559490  1.0  0.1755
  N  N354  1  0.574700  0.992000  0.570350  1.0  -0.3621
  N  N355  1  0.958000  0.636100  0.440510  1.0  0.1751
  N  N356  1  0.992000  0.574700  0.429650  1.0  -0.3626
  N  N357  1  0.042000  0.363900  0.440510  1.0  0.1751
  N  N358  1  0.008000  0.425300  0.429650  1.0  -0.3635
  N  N359  1  0.948900  0.051100  0.000000  1.0  -0.0189
  N  N360  1  0.051100  0.948900  0.000000  1.0  -0.0133
  O  O361  1  0.587760  0.687980  0.570550  1.0  -0.5866
  O  O362  1  0.670920  0.771540  0.570400  1.0  -0.5718
  O  O363  1  0.412240  0.312020  0.570550  1.0  -0.5848
  O  O364  1  0.329080  0.228460  0.570400  1.0  -0.5722
  O  O365  1  0.687980  0.587760  0.429450  1.0  -0.5873
  O  O366  1  0.771540  0.670920  0.429600  1.0  -0.5734
  O  O367  1  0.312020  0.412240  0.429450  1.0  -0.5874
  O  O368  1  0.228460  0.329080  0.429600  1.0  -0.5734
  O  O369  1  0.412240  0.312020  0.429450  1.0  -0.5855
  O  O370  1  0.329080  0.228460  0.429600  1.0  -0.5722
  O  O371  1  0.587760  0.687980  0.429450  1.0  -0.5872
  O  O372  1  0.670920  0.771540  0.429600  1.0  -0.5721
  O  O373  1  0.312020  0.412240  0.570550  1.0  -0.5868
  O  O374  1  0.228460  0.329080  0.570400  1.0  -0.5731
  O  O375  1  0.687980  0.587760  0.570550  1.0  -0.5862
  O  O376  1  0.771540  0.670920  0.570400  1.0  -0.5733
  O  O377  1  0.812020  0.087760  0.070550  1.0  -0.5865
  O  O378  1  0.728460  0.170920  0.070400  1.0  -0.5735
  O  O379  1  0.187980  0.912240  0.070550  1.0  -0.5861
  O  O380  1  0.271540  0.829080  0.070400  1.0  -0.573
  O  O381  1  0.912240  0.187980  0.929450  1.0  -0.5858
  O  O382  1  0.829080  0.271540  0.929600  1.0  -0.5722
  O  O383  1  0.087760  0.812020  0.929450  1.0  -0.5872
  O  O384  1  0.170920  0.728460  0.929600  1.0  -0.5719
  O  O385  1  0.187980  0.912240  0.929450  1.0  -0.5867
  O  O386  1  0.271540  0.829080  0.929600  1.0  -0.5732
  O  O387  1  0.812020  0.087760  0.929450  1.0  -0.5874
  O  O388  1  0.728460  0.170920  0.929600  1.0  -0.5736
  O  O389  1  0.087760  0.812020  0.070550  1.0  -0.5864
  O  O390  1  0.170920  0.728460  0.070400  1.0  -0.5718
  O  O391  1  0.912240  0.187980  0.070550  1.0  -0.5852
  O  O392  1  0.829080  0.271540  0.070400  1.0  -0.5721
