# generated using pymatgen
data_ZnH6(C3N2)2
_symmetry_space_group_name_H-M   'P 1'
_cell_length_a   14.57550000
_cell_length_b   14.57550000
_cell_length_c   14.57550000
_cell_angle_alpha   109.47100000
_cell_angle_beta   109.47100000
_cell_angle_gamma   109.47100000
_symmetry_Int_Tables_number   1
_chemical_formula_structural   ZnH6(C3N2)2
_chemical_formula_sum   'Zn6 H36 C36 N24'
_cell_volume   2383.70244647
_cell_formula_units_Z   6
loop_
 _symmetry_equiv_pos_site_id
 _symmetry_equiv_pos_as_xyz
  1  'x, y, z'
loop_
 _atom_site_type_symbol
 _atom_site_label
 _atom_site_symmetry_multiplicity
 _atom_site_fract_x
 _atom_site_fract_y
 _atom_site_fract_z
 _atom_site_occupancy
 _atom_site_charge
  Zn  Zn1  1  0.750000  0.500000  0.250000  1.0  0.704
  Zn  Zn2  1  0.250000  0.500000  0.750000  1.0  0.7045
  Zn  Zn3  1  0.250000  0.750000  0.500000  1.0  0.7043
  Zn  Zn4  1  0.750000  0.250000  0.500000  1.0  0.704
  Zn  Zn5  1  0.500000  0.750000  0.250000  1.0  0.7043
  Zn  Zn6  1  0.500000  0.250000  0.750000  1.0  0.7045
  H  H7  1  0.669000  0.537300  0.434900  1.0  0.1005
  H  H8  1  0.102400  0.234100  0.565100  1.0  0.1008
  H  H9  1  0.897600  0.462700  0.131700  1.0  0.0984
  H  H10  1  0.331000  0.765900  0.868300  1.0  0.1004
  H  H11  1  0.131700  0.897600  0.462700  1.0  0.099
  H  H12  1  0.868300  0.331000  0.765900  1.0  0.1019
  H  H13  1  0.434900  0.669000  0.537300  1.0  0.0998
  H  H14  1  0.565100  0.102400  0.234100  1.0  0.1009
  H  H15  1  0.234100  0.565100  0.102400  1.0  0.1009
  H  H16  1  0.537300  0.434900  0.669000  1.0  0.1008
  H  H17  1  0.765900  0.868300  0.331000  1.0  0.1011
  H  H18  1  0.462700  0.131700  0.897600  1.0  0.0996
  H  H19  1  0.234100  0.102400  0.565100  1.0  0.1012
  H  H20  1  0.537300  0.669000  0.434900  1.0  0.1005
  H  H21  1  0.765900  0.331000  0.868300  1.0  0.1009
  H  H22  1  0.462700  0.897600  0.131700  1.0  0.0989
  H  H23  1  0.669000  0.434900  0.537300  1.0  0.1003
  H  H24  1  0.102400  0.565100  0.234100  1.0  0.1011
  H  H25  1  0.897600  0.131700  0.462700  1.0  0.098
  H  H26  1  0.331000  0.868300  0.765900  1.0  0.1024
  H  H27  1  0.131700  0.462700  0.897600  1.0  0.0988
  H  H28  1  0.868300  0.765900  0.331000  1.0  0.1014
  H  H29  1  0.434900  0.537300  0.669000  1.0  0.1003
  H  H30  1  0.565100  0.234100  0.102400  1.0  0.1002
  H  H31  1  0.803000  0.358400  0.358400  1.0  0.0506
  H  H32  1  0.000000  0.444600  0.641600  1.0  0.0523
  H  H33  1  0.000000  0.641600  0.444600  1.0  0.0493
  H  H34  1  0.197000  0.555400  0.555400  1.0  0.0501
  H  H35  1  0.444600  0.000000  0.641600  1.0  0.0519
  H  H36  1  0.555400  0.197000  0.555400  1.0  0.0492
  H  H37  1  0.358400  0.803000  0.358400  1.0  0.0513
  H  H38  1  0.641600  0.000000  0.444600  1.0  0.0501
  H  H39  1  0.444600  0.641600  0.000000  1.0  0.0495
  H  H40  1  0.358400  0.358400  0.803000  1.0  0.0514
  H  H41  1  0.555400  0.555400  0.197000  1.0  0.0516
  H  H42  1  0.641600  0.444600  0.000000  1.0  0.0505
  C  C43  1  0.691200  0.482000  0.425800  1.0  -0.0271
  C  C44  1  0.056200  0.265400  0.574200  1.0  -0.0321
  C  C45  1  0.943800  0.518000  0.209200  1.0  -0.0319
  C  C46  1  0.308800  0.734600  0.790800  1.0  -0.0268
  C  C47  1  0.209200  0.943800  0.518000  1.0  -0.033
  C  C48  1  0.790800  0.308800  0.734600  1.0  -0.0276
  C  C49  1  0.425800  0.691200  0.482000  1.0  -0.0255
  C  C50  1  0.574200  0.056200  0.265400  1.0  -0.032
  C  C51  1  0.265400  0.574200  0.056200  1.0  -0.0308
  C  C52  1  0.482000  0.425800  0.691200  1.0  -0.027
  C  C53  1  0.734600  0.790800  0.308800  1.0  -0.0271
  C  C54  1  0.518000  0.209200  0.943800  1.0  -0.0302
  C  C55  1  0.265400  0.056200  0.574200  1.0  -0.0318
  C  C56  1  0.482000  0.691200  0.425800  1.0  -0.0269
  C  C57  1  0.734600  0.308800  0.790800  1.0  -0.0257
  C  C58  1  0.518000  0.943800  0.209200  1.0  -0.0299
  C  C59  1  0.691200  0.425800  0.482000  1.0  -0.0255
  C  C60  1  0.056200  0.574200  0.265400  1.0  -0.0301
  C  C61  1  0.943800  0.209200  0.518000  1.0  -0.0297
  C  C62  1  0.308800  0.790800  0.734600  1.0  -0.0264
  C  C63  1  0.209200  0.518000  0.943800  1.0  -0.0291
  C  C64  1  0.790800  0.734600  0.308800  1.0  -0.0272
  C  C65  1  0.425800  0.482000  0.691200  1.0  -0.0279
  C  C66  1  0.574200  0.265400  0.056200  1.0  -0.0297
  C  C67  1  0.758740  0.383270  0.383270  1.0  0.2316
  C  C68  1  0.000000  0.375470  0.616730  1.0  0.235
  C  C69  1  0.000000  0.616730  0.375470  1.0  0.2331
  C  C70  1  0.241260  0.624530  0.624530  1.0  0.2297
  C  C71  1  0.375470  0.000000  0.616730  1.0  0.2367
  C  C72  1  0.624530  0.241260  0.624530  1.0  0.2319
  C  C73  1  0.383270  0.758740  0.383270  1.0  0.2322
  C  C74  1  0.616730  0.000000  0.375470  1.0  0.2349
  C  C75  1  0.375470  0.616730  0.000000  1.0  0.2362
  C  C76  1  0.383270  0.383270  0.758740  1.0  0.229
  C  C77  1  0.624530  0.624530  0.241260  1.0  0.2312
  C  C78  1  0.616730  0.375470  0.000000  1.0  0.2347
  N  N79  1  0.727810  0.447440  0.353730  1.0  -0.3896
  N  N80  1  0.093710  0.374080  0.646270  1.0  -0.3881
  N  N81  1  0.906290  0.552560  0.280370  1.0  -0.3907
  N  N82  1  0.272190  0.625920  0.719630  1.0  -0.3889
  N  N83  1  0.280370  0.906290  0.552560  1.0  -0.391
  N  N84  1  0.719630  0.272190  0.625920  1.0  -0.3879
  N  N85  1  0.353730  0.727810  0.447440  1.0  -0.3887
  N  N86  1  0.646270  0.093710  0.374080  1.0  -0.3911
  N  N87  1  0.374080  0.646270  0.093710  1.0  -0.3883
  N  N88  1  0.447440  0.353730  0.727810  1.0  -0.3903
  N  N89  1  0.625920  0.719630  0.272190  1.0  -0.3896
  N  N90  1  0.552560  0.280370  0.906290  1.0  -0.388
  N  N91  1  0.374080  0.093710  0.646270  1.0  -0.3913
  N  N92  1  0.447440  0.727810  0.353730  1.0  -0.3881
  N  N93  1  0.625920  0.272190  0.719630  1.0  -0.3889
  N  N94  1  0.552560  0.906290  0.280370  1.0  -0.3913
  N  N95  1  0.727810  0.353730  0.447440  1.0  -0.3897
  N  N96  1  0.093710  0.646270  0.374080  1.0  -0.3898
  N  N97  1  0.906290  0.280370  0.552560  1.0  -0.3896
  N  N98  1  0.272190  0.719630  0.625920  1.0  -0.3891
  N  N99  1  0.280370  0.552560  0.906290  1.0  -0.3886
  N  N100  1  0.719630  0.625920  0.272190  1.0  -0.3896
  N  N101  1  0.353730  0.447440  0.727810  1.0  -0.3914
  N  N102  1  0.646270  0.374080  0.093710  1.0  -0.3871
