# generated using pymatgen
data_Cu10SiH48W12C48N24(ClO17)2
_symmetry_space_group_name_H-M   'P 1'
_cell_length_a   11.71520000
_cell_length_b   13.59220000
_cell_length_c   20.65320000
_cell_angle_alpha   89.21800000
_cell_angle_beta   76.35800000
_cell_angle_gamma   67.39300000
_symmetry_Int_Tables_number   1
_chemical_formula_structural   Cu10SiH48W12C48N24(ClO17)2
_chemical_formula_sum   'Cu10 Si1 H48 W12 C48 N24 Cl2 O34'
_cell_volume   2939.48149191
_cell_formula_units_Z   1
loop_
 _symmetry_equiv_pos_site_id
 _symmetry_equiv_pos_as_xyz
  1  'x, y, z'
loop_
 _atom_site_type_symbol
 _atom_site_label
 _atom_site_symmetry_multiplicity
 _atom_site_fract_x
 _atom_site_fract_y
 _atom_site_fract_z
 _atom_site_occupancy
 _atom_site_charge
  Cu  Cu1  1  0.683600  0.939200  0.763400  1.0  0.3988
  Cu  Cu2  1  0.292900  0.851100  0.608900  1.0  0.4034
  Cu  Cu3  1  0.509900  0.316200  0.719600  1.0  0.3698
  Cu  Cu4  1  0.870500  0.520600  0.845100  1.0  0.3694
  Cu  Cu5  1  0.524300  0.191600  0.871800  1.0  0.3523
  Cu  Cu6  1  0.316400  0.060800  0.236600  1.0  0.398
  Cu  Cu7  1  0.707100  0.148900  0.391100  1.0  0.4032
  Cu  Cu8  1  0.490100  0.683800  0.280400  1.0  0.3699
  Cu  Cu9  1  0.129500  0.479400  0.154900  1.0  0.3709
  Cu  Cu10  1  0.475700  0.808400  0.128200  1.0  0.3525
  Si  Si11  1  0.000000  0.000000  0.000000  1.0  1.4301
  H  H12  1  0.584100  0.771800  0.764000  1.0  0.0776
  H  H13  1  0.468600  0.725100  0.691500  1.0  0.1131
  H  H14  1  0.323600  0.030000  0.668900  1.0  0.0485
  H  H15  1  0.457100  0.066600  0.719300  1.0  0.0964
  H  H16  1  0.456000  0.643500  0.514900  1.0  0.0978
  H  H17  1  0.535300  0.605200  0.403400  1.0  0.0841
  H  H18  1  0.383100  0.885000  0.364100  1.0  0.0756
  H  H19  1  0.309200  0.952900  0.483900  1.0  0.1216
  H  H20  1  0.788000  0.262800  0.716200  1.0  0.0935
  H  H21  1  0.899400  0.323100  0.768500  1.0  0.0524
  H  H22  1  0.488600  0.523000  0.783300  1.0  0.0691
  H  H23  1  0.595800  0.579200  0.837700  1.0  0.0826
  H  H24  1  0.313200  0.256700  0.109900  1.0  0.0606
  H  H25  1  0.464500  0.151900  0.021100  1.0  0.1104
  H  H26  1  0.362200  0.413500  0.919400  1.0  0.1003
  H  H27  1  0.190700  0.505400  0.022700  1.0  0.0866
  H  H28  1  0.943800  0.797300  0.772200  1.0  0.0546
  H  H29  1  0.826300  0.986300  0.644100  1.0  0.0738
  H  H30  1  0.038700  0.942100  0.581100  1.0  0.0923
  H  H31  1  0.156200  0.764700  0.716100  1.0  0.062
  H  H32  1  0.315700  0.250800  0.804600  1.0  0.0618
  H  H33  1  0.293600  0.519600  0.738400  1.0  0.0824
  H  H34  1  0.085000  0.595000  0.782300  1.0  0.0941
  H  H35  1  0.092600  0.315900  0.850700  1.0  0.0965
  H  H36  1  0.415900  0.228200  0.236000  1.0  0.0779
  H  H37  1  0.531400  0.274900  0.308500  1.0  0.1134
  H  H38  1  0.676400  0.970000  0.331100  1.0  0.047
  H  H39  1  0.542900  0.933400  0.280700  1.0  0.0974
  H  H40  1  0.544000  0.356500  0.485100  1.0  0.0977
  H  H41  1  0.464700  0.394800  0.596600  1.0  0.0845
  H  H42  1  0.616900  0.115000  0.635900  1.0  0.0753
  H  H43  1  0.690800  0.047100  0.516100  1.0  0.1218
  H  H44  1  0.212000  0.737200  0.283800  1.0  0.0943
  H  H45  1  0.100600  0.676900  0.231500  1.0  0.0533
  H  H46  1  0.511400  0.477000  0.216700  1.0  0.0691
  H  H47  1  0.404200  0.420800  0.162300  1.0  0.0827
  H  H48  1  0.686800  0.743300  0.890100  1.0  0.0626
  H  H49  1  0.535500  0.848100  0.978900  1.0  0.11
  H  H50  1  0.637800  0.586500  0.080600  1.0  0.1005
  H  H51  1  0.809300  0.494600  0.977300  1.0  0.0871
  H  H52  1  0.056200  0.202700  0.227800  1.0  0.0545
  H  H53  1  0.173700  0.013700  0.355900  1.0  0.075
  H  H54  1  0.961300  0.057900  0.418900  1.0  0.0923
  H  H55  1  0.843800  0.235300  0.283900  1.0  0.0622
  H  H56  1  0.684300  0.749200  0.195400  1.0  0.0624
  H  H57  1  0.706400  0.480400  0.261600  1.0  0.0819
  H  H58  1  0.915000  0.405000  0.217700  1.0  0.0946
  H  H59  1  0.907400  0.684100  0.149300  1.0  0.097
  W  W60  1  0.795620  0.967240  0.910060  1.0  1.8415
  W  W61  1  0.002120  0.742450  0.971590  1.0  1.3864
  W  W62  1  0.737150  0.940490  0.083010  1.0  1.2873
  W  W63  1  0.256450  0.808190  0.882670  1.0  1.3284
  W  W64  1  0.781630  0.226240  0.944850  1.0  1.3353
  W  W65  1  0.048300  0.041320  0.827930  1.0  1.335
  W  W66  1  0.204380  0.032760  0.089940  1.0  1.8449
  W  W67  1  0.997880  0.257550  0.028410  1.0  1.3893
  W  W68  1  0.262850  0.059510  0.916990  1.0  1.2887
  W  W69  1  0.743550  0.191810  0.117330  1.0  1.3232
  W  W70  1  0.218370  0.773760  0.055150  1.0  1.3283
  W  W71  1  0.951700  0.958680  0.172070  1.0  1.3327
  C  C72  1  0.539000  0.823000  0.739000  1.0  0.1085
  C  C73  1  0.464000  0.794000  0.698000  1.0  0.0803
  C  C74  1  0.384000  0.973000  0.683000  1.0  0.1546
  C  C75  1  0.461000  0.997000  0.715000  1.0  0.0806
  C  C76  1  0.439000  0.699000  0.487000  1.0  0.0783
  C  C77  1  0.479000  0.675000  0.419000  1.0  0.1566
  C  C78  1  0.394000  0.837000  0.397000  1.0  0.112
  C  C79  1  0.349000  0.880000  0.470000  1.0  0.0896
  C  C80  1  0.746000  0.327000  0.743000  1.0  0.0807
  C  C81  1  0.814000  0.366000  0.773000  1.0  0.1712
  C  C82  1  0.572000  0.478000  0.783000  1.0  0.1581
  C  C83  1  0.638000  0.514000  0.812000  1.0  0.1114
  C  C84  1  0.322000  0.290000  0.070000  1.0  0.1418
  C  C85  1  0.413000  0.222000  0.017000  1.0  0.0827
  C  C86  1  0.351000  0.376000  0.957000  1.0  0.13
  C  C87  1  0.250000  0.436000  0.022000  1.0  0.1125
  C  C88  1  0.958000  0.833000  0.734000  1.0  0.1838
  C  C89  1  0.893000  0.938000  0.660000  1.0  0.1206
  C  C90  1  0.023000  0.916000  0.623000  1.0  0.0864
  C  C91  1  0.091000  0.813000  0.700000  1.0  0.1407
  C  C92  1  0.266000  0.321000  0.800000  1.0  0.1629
  C  C93  1  0.253000  0.479000  0.762000  1.0  0.1587
  C  C94  1  0.129000  0.523000  0.787000  1.0  0.0961
  C  C95  1  0.130000  0.360000  0.828000  1.0  0.1248
  C  C96  1  0.461000  0.177000  0.261000  1.0  0.1076
  C  C97  1  0.536000  0.206000  0.302000  1.0  0.0821
  C  C98  1  0.616000  0.027000  0.317000  1.0  0.1568
  C  C99  1  0.539000  0.003000  0.285000  1.0  0.0798
  C  C100  1  0.561000  0.301000  0.513000  1.0  0.0772
  C  C101  1  0.521000  0.325000  0.581000  1.0  0.1553
  C  C102  1  0.606000  0.163000  0.603000  1.0  0.1116
  C  C103  1  0.651000  0.120000  0.530000  1.0  0.088
  C  C104  1  0.254000  0.673000  0.257000  1.0  0.0787
  C  C105  1  0.186000  0.634000  0.227000  1.0  0.1712
  C  C106  1  0.428000  0.522000  0.217000  1.0  0.1604
  C  C107  1  0.362000  0.486000  0.188000  1.0  0.1119
  C  C108  1  0.678000  0.710000  0.930000  1.0  0.1415
  C  C109  1  0.587000  0.778000  0.983000  1.0  0.0816
  C  C110  1  0.649000  0.624000  0.043000  1.0  0.1312
  C  C111  1  0.750000  0.564000  0.978000  1.0  0.1119
  C  C112  1  0.042000  0.167000  0.266000  1.0  0.1826
  C  C113  1  0.107000  0.062000  0.340000  1.0  0.1203
  C  C114  1  0.977000  0.084000  0.377000  1.0  0.0844
  C  C115  1  0.909000  0.187000  0.300000  1.0  0.1394
  C  C116  1  0.734000  0.679000  0.200000  1.0  0.1632
  C  C117  1  0.747000  0.521000  0.238000  1.0  0.1596
  C  C118  1  0.871000  0.477000  0.213000  1.0  0.0956
  C  C119  1  0.870000  0.640000  0.172000  1.0  0.1256
  N  N120  1  0.541000  0.919000  0.740100  1.0  -0.2935
  N  N121  1  0.389000  0.880000  0.671500  1.0  -0.2987
  N  N122  1  0.373000  0.803000  0.514800  1.0  -0.341
  N  N123  1  0.446000  0.736000  0.380300  1.0  -0.1069
  N  N124  1  0.619000  0.379000  0.752300  1.0  -0.337
  N  N125  1  0.770000  0.458000  0.807400  1.0  -0.3621
  N  N126  1  0.251000  0.386000  0.076200  1.0  -0.2185
  N  N127  1  0.422000  0.269000  0.952800  1.0  -0.3055
  N  N128  1  0.864000  0.893000  0.716000  1.0  -0.2519
  N  N129  1  0.121000  0.858000  0.648800  1.0  -0.2357
  N  N130  1  0.323000  0.377000  0.768800  1.0  -0.2972
  N  N131  1  0.060000  0.460000  0.820900  1.0  -0.3214
  N  N132  1  0.459000  0.081000  0.259900  1.0  -0.293
  N  N133  1  0.611000  0.120000  0.328500  1.0  -0.2967
  N  N134  1  0.627000  0.197000  0.485200  1.0  -0.3416
  N  N135  1  0.554000  0.264000  0.619700  1.0  -0.1033
  N  N136  1  0.381000  0.621000  0.247700  1.0  -0.3363
  N  N137  1  0.230000  0.542000  0.192600  1.0  -0.365
  N  N138  1  0.749000  0.614000  0.923800  1.0  -0.2194
  N  N139  1  0.578000  0.731000  0.047200  1.0  -0.3051
  N  N140  1  0.136000  0.107000  0.284000  1.0  -0.2536
  N  N141  1  0.879000  0.142000  0.351200  1.0  -0.2368
  N  N142  1  0.677000  0.623000  0.231200  1.0  -0.299
  N  N143  1  0.940000  0.540000  0.179100  1.0  -0.3209
  Cl  Cl144  1  0.616100  0.141800  0.768600  1.0  -0.4668
  Cl  Cl145  1  0.383900  0.858200  0.231400  1.0  -0.4684
  O  O146  1  0.913000  0.925000  0.993000  1.0  -0.7499
  O  O147  1  0.935000  0.042000  0.945000  1.0  -0.5578
  O  O148  1  0.098000  0.873000  0.983000  1.0  -0.7031
  O  O149  1  0.900000  0.020000  0.072000  1.0  -0.6937
  O  O150  1  0.855000  0.799000  0.044400  1.0  -0.6907
  O  O151  1  0.112000  0.710000  0.026100  1.0  -0.7373
  O  O152  1  0.699000  0.948000  0.867500  1.0  -0.755
  O  O153  1  0.701000  0.969000  0.999500  1.0  -0.7236
  O  O154  1  0.899000  0.822000  0.914800  1.0  -0.7426
  O  O155  1  0.724000  0.117000  0.924000  1.0  -0.7464
  O  O156  1  0.918000  0.983000  0.839500  1.0  -0.7495
  O  O157  1  0.162000  0.898000  0.827000  1.0  -0.74
  O  O158  1  0.149000  0.734000  0.898800  1.0  -0.7075
  O  O159  1  0.676000  0.086000  0.107900  1.0  -0.7061
  O  O160  1  0.703000  0.237000  0.036300  1.0  -0.7845
  O  O161  1  0.837000  0.910000  0.145600  1.0  -0.7088
  O  O162  1  0.911000  0.179000  0.863400  1.0  -0.6991
  O  O163  1  0.087000  0.075000  0.007000  1.0  -0.7492
  O  O164  1  0.065000  0.958000  0.055000  1.0  -0.5586
  O  O165  1  0.902000  0.127000  0.017000  1.0  -0.7034
  O  O166  1  0.100000  0.980000  0.928000  1.0  -0.6911
  O  O167  1  0.145000  0.201000  0.955600  1.0  -0.6898
  O  O168  1  0.888000  0.290000  0.973900  1.0  -0.741
  O  O169  1  0.301000  0.052000  0.132500  1.0  -0.7546
  O  O170  1  0.299000  0.031000  0.000500  1.0  -0.7243
  O  O171  1  0.101000  0.178000  0.085200  1.0  -0.7463
  O  O172  1  0.276000  0.883000  0.076000  1.0  -0.7458
  O  O173  1  0.082000  0.017000  0.160500  1.0  -0.7452
  O  O174  1  0.838000  0.102000  0.173000  1.0  -0.7395
  O  O175  1  0.851000  0.266000  0.101200  1.0  -0.7101
  O  O176  1  0.324000  0.914000  0.892100  1.0  -0.7042
  O  O177  1  0.297000  0.763000  0.963700  1.0  -0.7789
  O  O178  1  0.163000  0.090000  0.854400  1.0  -0.7095
  O  O179  1  0.089000  0.821000  0.136600  1.0  -0.6995
