# generated using pymatgen
data_CuH5C5IN3
_symmetry_space_group_name_H-M   'P 1'
_cell_length_a   20.01350000
_cell_length_b   20.01350000
_cell_length_c   20.01350000
_cell_angle_alpha   109.47100000
_cell_angle_beta   109.47100000
_cell_angle_gamma   109.47100000
_symmetry_Int_Tables_number   1
_chemical_formula_structural   CuH5C5IN3
_chemical_formula_sum   'Cu24 H120 C120 I24 N72'
_cell_volume   6170.93246487
_cell_formula_units_Z   24
loop_
 _symmetry_equiv_pos_site_id
 _symmetry_equiv_pos_as_xyz
  1  'x, y, z'
loop_
 _atom_site_type_symbol
 _atom_site_label
 _atom_site_symmetry_multiplicity
 _atom_site_fract_x
 _atom_site_fract_y
 _atom_site_fract_z
 _atom_site_occupancy
 _atom_site_charge
  Cu  Cu1  1  0.208000  0.876960  0.248100  1.0  0.1182
  Cu  Cu2  1  0.128860  0.959900  0.251900  1.0  0.1172
  Cu  Cu3  1  0.371140  0.623040  0.831040  1.0  0.1175
  Cu  Cu4  1  0.292000  0.540100  0.668960  1.0  0.1171
  Cu  Cu5  1  0.331040  0.371140  0.123040  1.0  0.1175
  Cu  Cu6  1  0.168960  0.292000  0.040100  1.0  0.1175
  Cu  Cu7  1  0.748100  0.208000  0.376960  1.0  0.1177
  Cu  Cu8  1  0.751900  0.128860  0.459900  1.0  0.1177
  Cu  Cu9  1  0.959900  0.751900  0.628860  1.0  0.1187
  Cu  Cu10  1  0.876960  0.748100  0.708000  1.0  0.1181
  Cu  Cu11  1  0.540100  0.168960  0.792000  1.0  0.1182
  Cu  Cu12  1  0.623040  0.331040  0.871140  1.0  0.1188
  Cu  Cu13  1  0.459900  0.628860  0.751900  1.0  0.1176
  Cu  Cu14  1  0.376960  0.708000  0.748100  1.0  0.1179
  Cu  Cu15  1  0.040100  0.792000  0.168960  1.0  0.1176
  Cu  Cu16  1  0.123040  0.871140  0.331040  1.0  0.1179
  Cu  Cu17  1  0.708000  0.248100  0.876960  1.0  0.1187
  Cu  Cu18  1  0.628860  0.251900  0.959900  1.0  0.1179
  Cu  Cu19  1  0.871140  0.831040  0.623040  1.0  0.1185
  Cu  Cu20  1  0.792000  0.668960  0.540100  1.0  0.1185
  Cu  Cu21  1  0.831040  0.123040  0.371140  1.0  0.1179
  Cu  Cu22  1  0.668960  0.040100  0.292000  1.0  0.1169
  Cu  Cu23  1  0.248100  0.376960  0.208000  1.0  0.1175
  Cu  Cu24  1  0.251900  0.459900  0.128860  1.0  0.1173
  H  H25  1  0.295500  0.977600  0.196900  1.0  0.0301
  H  H26  1  0.446000  0.852600  0.225800  1.0  0.0829
  H  H27  1  0.547200  0.018000  0.133200  1.0  0.1029
  H  H28  1  0.451500  0.977300  0.072000  1.0  0.1011
  H  H29  1  0.492600  0.046600  0.165000  1.0  0.0908
  H  H30  1  0.280700  0.098600  0.303100  1.0  0.0271
  H  H31  1  0.126800  0.220200  0.274200  1.0  0.0829
  H  H32  1  0.384800  0.414000  0.366800  1.0  0.1034
  H  H33  1  0.405300  0.379500  0.428000  1.0  0.1026
  H  H34  1  0.381600  0.327600  0.335000  1.0  0.0906
  H  H35  1  0.219300  0.522400  0.817900  1.0  0.0277
  H  H36  1  0.373200  0.647400  0.093400  1.0  0.0819
  H  H37  1  0.115200  0.482000  0.029200  1.0  0.1037
  H  H38  1  0.094700  0.522700  0.974200  1.0  0.0999
  H  H39  1  0.118400  0.453400  0.946000  1.0  0.0916
  H  H40  1  0.204500  0.401400  0.682100  1.0  0.028
  H  H41  1  0.054000  0.279800  0.406600  1.0  0.0819
  H  H42  1  0.952800  0.086000  0.470800  1.0  0.1002
  H  H43  1  0.048500  0.120500  0.525800  1.0  0.0946
  H  H44  1  0.007400  0.172400  0.554000  1.0  0.0911
  H  H45  1  0.317900  0.219300  0.022400  1.0  0.0292
  H  H46  1  0.593400  0.373200  0.147400  1.0  0.0811
  H  H47  1  0.529200  0.115200  0.982000  1.0  0.1027
  H  H48  1  0.474200  0.094700  0.022700  1.0  0.1021
  H  H49  1  0.446000  0.118400  0.953400  1.0  0.0903
  H  H50  1  0.182100  0.204500  0.901400  1.0  0.0287
  H  H51  1  0.906600  0.054000  0.779800  1.0  0.0815
  H  H52  1  0.970800  0.952800  0.586000  1.0  0.1007
  H  H53  1  0.025800  0.048500  0.620500  1.0  0.0999
  H  H54  1  0.054000  0.007400  0.672400  1.0  0.0894
  H  H55  1  0.696900  0.295500  0.477600  1.0  0.0304
  H  H56  1  0.725800  0.446000  0.352600  1.0  0.0815
  H  H57  1  0.633200  0.547200  0.518000  1.0  0.1046
  H  H58  1  0.572000  0.451500  0.477300  1.0  0.1015
  H  H59  1  0.665000  0.492600  0.546600  1.0  0.0902
  H  H60  1  0.803100  0.280700  0.598600  1.0  0.0266
  H  H61  1  0.774200  0.126800  0.720200  1.0  0.0815
  H  H62  1  0.866800  0.384800  0.914000  1.0  0.1023
  H  H63  1  0.928000  0.405300  0.879500  1.0  0.1013
  H  H64  1  0.835000  0.381600  0.827600  1.0  0.0901
  H  H65  1  0.098600  0.803100  0.780700  1.0  0.027
  H  H66  1  0.220200  0.774200  0.626800  1.0  0.0816
  H  H67  1  0.414000  0.866800  0.884800  1.0  0.1018
  H  H68  1  0.379500  0.928000  0.905300  1.0  0.1012
  H  H69  1  0.327600  0.835000  0.881600  1.0  0.0908
  H  H70  1  0.977600  0.696900  0.795500  1.0  0.0281
  H  H71  1  0.852600  0.725800  0.946000  1.0  0.0821
  H  H72  1  0.018000  0.633200  0.047200  1.0  0.1032
  H  H73  1  0.977300  0.572000  0.951500  1.0  0.0992
  H  H74  1  0.046600  0.665000  0.992600  1.0  0.0908
  H  H75  1  0.401400  0.182100  0.704500  1.0  0.0278
  H  H76  1  0.279800  0.906600  0.554000  1.0  0.0821
  H  H77  1  0.086000  0.970800  0.452800  1.0  0.0999
  H  H78  1  0.120500  0.025800  0.548500  1.0  0.1022
  H  H79  1  0.172400  0.054000  0.507400  1.0  0.0922
  H  H80  1  0.522400  0.317900  0.719300  1.0  0.0307
  H  H81  1  0.647400  0.593400  0.873200  1.0  0.0816
  H  H82  1  0.482000  0.529200  0.615200  1.0  0.1047
  H  H83  1  0.522700  0.474200  0.594700  1.0  0.0991
  H  H84  1  0.453400  0.446000  0.618400  1.0  0.0907
  H  H85  1  0.598600  0.780700  0.803100  1.0  0.0275
  H  H86  1  0.720200  0.626800  0.774200  1.0  0.081
  H  H87  1  0.914000  0.884800  0.866800  1.0  0.1019
  H  H88  1  0.879500  0.905300  0.928000  1.0  0.1028
  H  H89  1  0.827600  0.881600  0.835000  1.0  0.0903
  H  H90  1  0.477600  0.795500  0.696900  1.0  0.0299
  H  H91  1  0.352600  0.946000  0.725800  1.0  0.0815
  H  H92  1  0.518000  0.047200  0.633200  1.0  0.1047
  H  H93  1  0.477300  0.951500  0.572000  1.0  0.1001
  H  H94  1  0.546600  0.992600  0.665000  1.0  0.0897
  H  H95  1  0.901400  0.704500  0.182100  1.0  0.0279
  H  H96  1  0.779800  0.554000  0.906600  1.0  0.0819
  H  H97  1  0.586000  0.452800  0.970800  1.0  0.0999
  H  H98  1  0.620500  0.548500  0.025800  1.0  0.0999
  H  H99  1  0.672400  0.507400  0.054000  1.0  0.0902
  H  H100  1  0.022400  0.719300  0.317900  1.0  0.0285
  H  H101  1  0.147400  0.873200  0.593400  1.0  0.0815
  H  H102  1  0.982000  0.615200  0.529200  1.0  0.1036
  H  H103  1  0.022700  0.594700  0.474200  1.0  0.1003
  H  H104  1  0.953400  0.618400  0.446000  1.0  0.0904
  H  H105  1  0.795500  0.196900  0.977600  1.0  0.0304
  H  H106  1  0.946000  0.225800  0.852600  1.0  0.0817
  H  H107  1  0.047200  0.133200  0.018000  1.0  0.1024
  H  H108  1  0.951500  0.072000  0.977300  1.0  0.0989
  H  H109  1  0.992600  0.165000  0.046600  1.0  0.0904
  H  H110  1  0.780700  0.303100  0.098600  1.0  0.0259
  H  H111  1  0.626800  0.274200  0.220200  1.0  0.082
  H  H112  1  0.884800  0.366800  0.414000  1.0  0.1026
  H  H113  1  0.905300  0.428000  0.379500  1.0  0.1017
  H  H114  1  0.881600  0.335000  0.327600  1.0  0.0909
  H  H115  1  0.719300  0.817900  0.522400  1.0  0.0299
  H  H116  1  0.873200  0.093400  0.647400  1.0  0.0822
  H  H117  1  0.615200  0.029200  0.482000  1.0  0.1051
  H  H118  1  0.594700  0.974200  0.522700  1.0  0.1022
  H  H119  1  0.618400  0.946000  0.453400  1.0  0.092
  H  H120  1  0.704500  0.682100  0.401400  1.0  0.029
  H  H121  1  0.554000  0.406600  0.279800  1.0  0.0818
  H  H122  1  0.452800  0.470800  0.086000  1.0  0.0992
  H  H123  1  0.548500  0.525800  0.120500  1.0  0.0993
  H  H124  1  0.507400  0.554000  0.172400  1.0  0.091
  H  H125  1  0.817900  0.022400  0.219300  1.0  0.0294
  H  H126  1  0.093400  0.147400  0.373200  1.0  0.0825
  H  H127  1  0.029200  0.982000  0.115200  1.0  0.1024
  H  H128  1  0.974200  0.022700  0.094700  1.0  0.1002
  H  H129  1  0.946000  0.953400  0.118400  1.0  0.0902
  H  H130  1  0.682100  0.901400  0.204500  1.0  0.0282
  H  H131  1  0.406600  0.779800  0.054000  1.0  0.083
  H  H132  1  0.470800  0.586000  0.952800  1.0  0.1002
  H  H133  1  0.525800  0.620500  0.048500  1.0  0.1012
  H  H134  1  0.554000  0.672400  0.007400  1.0  0.0909
  H  H135  1  0.196900  0.477600  0.295500  1.0  0.0287
  H  H136  1  0.225800  0.352600  0.446000  1.0  0.0822
  H  H137  1  0.133200  0.518000  0.547200  1.0  0.1028
  H  H138  1  0.072000  0.477300  0.451500  1.0  0.1009
  H  H139  1  0.165000  0.546600  0.492600  1.0  0.0924
  H  H140  1  0.303100  0.598600  0.280700  1.0  0.0271
  H  H141  1  0.274200  0.720200  0.126800  1.0  0.0817
  H  H142  1  0.366800  0.914000  0.384800  1.0  0.1043
  H  H143  1  0.428000  0.879500  0.405300  1.0  0.0964
  H  H144  1  0.335000  0.827600  0.381600  1.0  0.0916
  C  C145  1  0.327200  0.951600  0.203200  1.0  0.2888
  C  C146  1  0.419600  0.926000  0.183600  1.0  0.2993
  C  C147  1  0.412800  0.877100  0.218700  1.0  -0.1847
  C  C148  1  0.354600  0.865800  0.242800  1.0  0.3748
  C  C149  1  0.493100  0.999900  0.128600  1.0  -0.1899
  C  C150  1  0.248400  0.124000  0.296800  1.0  0.2894
  C  C151  1  0.242400  0.236000  0.316400  1.0  0.2989
  C  C152  1  0.158400  0.194100  0.281300  1.0  -0.1856
  C  C153  1  0.123000  0.111800  0.257200  1.0  0.375
  C  C154  1  0.371300  0.364500  0.371400  1.0  -0.1897
  C  C155  1  0.251600  0.548400  0.875600  1.0  0.2898
  C  C156  1  0.257600  0.574000  0.993600  1.0  0.2998
  C  C157  1  0.341600  0.622900  0.035700  1.0  -0.1835
  C  C158  1  0.377000  0.634200  0.988800  1.0  0.3772
  C  C159  1  0.128700  0.500100  0.993200  1.0  -0.1887
  C  C160  1  0.172800  0.376000  0.624400  1.0  0.29
  C  C161  1  0.080400  0.264000  0.506400  1.0  0.3027
  C  C162  1  0.087200  0.305900  0.464300  1.0  -0.1864
  C  C163  1  0.145400  0.388200  0.511200  1.0  0.3761
  C  C164  1  0.006900  0.135500  0.506800  1.0  -0.1907
  C  C165  1  0.375600  0.251600  0.048400  1.0  0.2894
  C  C166  1  0.493600  0.257600  0.074000  1.0  0.2996
  C  C167  1  0.535700  0.341600  0.122900  1.0  -0.1831
  C  C168  1  0.488800  0.377000  0.134200  1.0  0.3754
  C  C169  1  0.493200  0.128700  0.000100  1.0  -0.1894
  C  C170  1  0.124400  0.172800  0.876000  1.0  0.2899
  C  C171  1  0.006400  0.080400  0.764000  1.0  0.2985
  C  C172  1  0.964300  0.087200  0.805900  1.0  -0.1831
  C  C173  1  0.011200  0.145400  0.888200  1.0  0.3742
  C  C174  1  0.006800  0.006900  0.635500  1.0  -0.1901
  C  C175  1  0.703200  0.327200  0.451600  1.0  0.2929
  C  C176  1  0.683600  0.419600  0.426000  1.0  0.3012
  C  C177  1  0.718700  0.412800  0.377100  1.0  -0.1838
  C  C178  1  0.742800  0.354600  0.365800  1.0  0.3759
  C  C179  1  0.628600  0.493100  0.499900  1.0  -0.1912
  C  C180  1  0.796800  0.248400  0.624000  1.0  0.2878
  C  C181  1  0.816400  0.242400  0.736000  1.0  0.3007
  C  C182  1  0.781300  0.158400  0.694100  1.0  -0.1822
  C  C183  1  0.757200  0.123000  0.611800  1.0  0.3763
  C  C184  1  0.871400  0.371300  0.864500  1.0  -0.1911
  C  C185  1  0.124000  0.796800  0.748400  1.0  0.2902
  C  C186  1  0.236000  0.816400  0.742400  1.0  0.3001
  C  C187  1  0.194100  0.781300  0.658400  1.0  -0.1851
  C  C188  1  0.111800  0.757200  0.623000  1.0  0.3765
  C  C189  1  0.364500  0.871400  0.871300  1.0  -0.1912
  C  C190  1  0.951600  0.703200  0.827200  1.0  0.2903
  C  C191  1  0.926000  0.683600  0.919600  1.0  0.2999
  C  C192  1  0.877100  0.718700  0.912800  1.0  -0.1827
  C  C193  1  0.865800  0.742800  0.854600  1.0  0.3758
  C  C194  1  0.999900  0.628600  0.993100  1.0  -0.1889
  C  C195  1  0.376000  0.124400  0.672800  1.0  0.2915
  C  C196  1  0.264000  0.006400  0.580400  1.0  0.2995
  C  C197  1  0.305900  0.964300  0.587200  1.0  -0.1839
  C  C198  1  0.388200  0.011200  0.645400  1.0  0.3765
  C  C199  1  0.135500  0.006800  0.506900  1.0  -0.1872
  C  C200  1  0.548400  0.375600  0.751600  1.0  0.2898
  C  C201  1  0.574000  0.493600  0.757600  1.0  0.2986
  C  C202  1  0.622900  0.535700  0.841600  1.0  -0.1844
  C  C203  1  0.634200  0.488800  0.877000  1.0  0.3752
  C  C204  1  0.500100  0.493200  0.628700  1.0  -0.1893
  C  C205  1  0.624000  0.748400  0.796800  1.0  0.2885
  C  C206  1  0.736000  0.742400  0.816400  1.0  0.2991
  C  C207  1  0.694100  0.658400  0.781300  1.0  -0.1835
  C  C208  1  0.611800  0.623000  0.757200  1.0  0.375
  C  C209  1  0.864500  0.871300  0.871400  1.0  -0.1893
  C  C210  1  0.451600  0.827200  0.703200  1.0  0.2901
  C  C211  1  0.426000  0.919600  0.683600  1.0  0.2985
  C  C212  1  0.377100  0.912800  0.718700  1.0  -0.1832
  C  C213  1  0.365800  0.854600  0.742800  1.0  0.374
  C  C214  1  0.499900  0.993100  0.628600  1.0  -0.19
  C  C215  1  0.876000  0.672800  0.124400  1.0  0.2919
  C  C216  1  0.764000  0.580400  0.006400  1.0  0.3012
  C  C217  1  0.805900  0.587200  0.964300  1.0  -0.1839
  C  C218  1  0.888200  0.645400  0.011200  1.0  0.3761
  C  C219  1  0.635500  0.506900  0.006800  1.0  -0.1913
  C  C220  1  0.048400  0.751600  0.375600  1.0  0.2886
  C  C221  1  0.074000  0.757600  0.493600  1.0  0.3007
  C  C222  1  0.122900  0.841600  0.535700  1.0  -0.1823
  C  C223  1  0.134200  0.877000  0.488800  1.0  0.3766
  C  C224  1  0.000100  0.628700  0.493200  1.0  -0.1911
  C  C225  1  0.827200  0.203200  0.951600  1.0  0.2907
  C  C226  1  0.919600  0.183600  0.926000  1.0  0.3001
  C  C227  1  0.912800  0.218700  0.877100  1.0  -0.1853
  C  C228  1  0.854600  0.242800  0.865800  1.0  0.3761
  C  C229  1  0.993100  0.128600  0.999900  1.0  -0.1907
  C  C230  1  0.748400  0.296800  0.124000  1.0  0.2905
  C  C231  1  0.742400  0.316400  0.236000  1.0  0.3
  C  C232  1  0.658400  0.281300  0.194100  1.0  -0.1821
  C  C233  1  0.623000  0.257200  0.111800  1.0  0.3764
  C  C234  1  0.871300  0.371400  0.364500  1.0  -0.1893
  C  C235  1  0.751600  0.875600  0.548400  1.0  0.2916
  C  C236  1  0.757600  0.993600  0.574000  1.0  0.2981
  C  C237  1  0.841600  0.035700  0.622900  1.0  -0.1839
  C  C238  1  0.877000  0.988800  0.634200  1.0  0.3762
  C  C239  1  0.628700  0.993200  0.500100  1.0  -0.1876
  C  C240  1  0.672800  0.624400  0.376000  1.0  0.29
  C  C241  1  0.580400  0.506400  0.264000  1.0  0.2999
  C  C242  1  0.587200  0.464300  0.305900  1.0  -0.1849
  C  C243  1  0.645400  0.511200  0.388200  1.0  0.3754
  C  C244  1  0.506900  0.506800  0.135500  1.0  -0.1887
  C  C245  1  0.875600  0.048400  0.251600  1.0  0.2893
  C  C246  1  0.993600  0.074000  0.257600  1.0  0.2992
  C  C247  1  0.035700  0.122900  0.341600  1.0  -0.1851
  C  C248  1  0.988800  0.134200  0.377000  1.0  0.3749
  C  C249  1  0.993200  0.000100  0.128700  1.0  -0.1904
  C  C250  1  0.624400  0.876000  0.172800  1.0  0.2896
  C  C251  1  0.506400  0.764000  0.080400  1.0  0.2991
  C  C252  1  0.464300  0.805900  0.087200  1.0  -0.1854
  C  C253  1  0.511200  0.888200  0.145400  1.0  0.3746
  C  C254  1  0.506800  0.635500  0.006900  1.0  -0.1895
  C  C255  1  0.203200  0.451600  0.327200  1.0  0.289
  C  C256  1  0.183600  0.426000  0.419600  1.0  0.3002
  C  C257  1  0.218700  0.377100  0.412800  1.0  -0.1838
  C  C258  1  0.242800  0.365800  0.354600  1.0  0.3772
  C  C259  1  0.128600  0.499900  0.493100  1.0  -0.1885
  C  C260  1  0.296800  0.624000  0.248400  1.0  0.2903
  C  C261  1  0.316400  0.736000  0.242400  1.0  0.3025
  C  C262  1  0.281300  0.694100  0.158400  1.0  -0.1858
  C  C263  1  0.257200  0.611800  0.123000  1.0  0.3766
  C  C264  1  0.371400  0.864500  0.371300  1.0  -0.1907
  I  I265  1  0.132100  0.738640  0.240280  1.0  -0.3191
  I  I266  1  0.998360  0.891820  0.259720  1.0  -0.3475
  I  I267  1  0.501640  0.761360  0.893460  1.0  -0.3336
  I  I268  1  0.367900  0.608180  0.606540  1.0  -0.3162
  I  I269  1  0.393460  0.501640  0.261360  1.0  -0.3317
  I  I270  1  0.106540  0.367900  0.108180  1.0  -0.3132
  I  I271  1  0.740280  0.132100  0.238640  1.0  -0.3231
  I  I272  1  0.759720  0.998360  0.391820  1.0  -0.348
  I  I273  1  0.891820  0.759720  0.498360  1.0  -0.3487
  I  I274  1  0.738640  0.740280  0.632100  1.0  -0.3198
  I  I275  1  0.608180  0.106540  0.867900  1.0  -0.3157
  I  I276  1  0.761360  0.393460  0.001640  1.0  -0.333
  I  I277  1  0.391820  0.498360  0.759720  1.0  -0.3469
  I  I278  1  0.238640  0.632100  0.740280  1.0  -0.3198
  I  I279  1  0.108180  0.867900  0.106540  1.0  -0.3167
  I  I280  1  0.261360  0.001640  0.393460  1.0  -0.3333
  I  I281  1  0.632100  0.240280  0.738640  1.0  -0.3224
  I  I282  1  0.498360  0.259720  0.891820  1.0  -0.3467
  I  I283  1  0.001640  0.893460  0.761360  1.0  -0.3338
  I  I284  1  0.867900  0.606540  0.608180  1.0  -0.315
  I  I285  1  0.893460  0.261360  0.501640  1.0  -0.3304
  I  I286  1  0.606540  0.108180  0.367900  1.0  -0.3142
  I  I287  1  0.240280  0.238640  0.132100  1.0  -0.3218
  I  I288  1  0.259720  0.391820  0.998360  1.0  -0.3476
  N  N289  1  0.380600  0.966300  0.176700  1.0  -0.3023
  N  N290  1  0.312000  0.905000  0.237600  1.0  -0.2893
  N  N291  1  0.475300  0.937000  0.151900  1.0  -0.1929
  N  N292  1  0.289600  0.203900  0.323300  1.0  -0.3011
  N  N293  1  0.167400  0.074400  0.262400  1.0  -0.2875
  N  N294  1  0.285100  0.323400  0.348100  1.0  -0.1934
  N  N295  1  0.210400  0.533700  0.914300  1.0  -0.3017
  N  N296  1  0.332600  0.595000  0.907000  1.0  -0.2913
  N  N297  1  0.214900  0.563000  0.038300  1.0  -0.1936
  N  N298  1  0.119400  0.296100  0.585700  1.0  -0.2976
  N  N299  1  0.188000  0.425600  0.593000  1.0  -0.2915
  N  N300  1  0.024700  0.176600  0.461700  1.0  -0.1907
  N  N301  1  0.414300  0.210400  0.033700  1.0  -0.3017
  N  N302  1  0.407000  0.332600  0.095000  1.0  -0.2878
  N  N303  1  0.538300  0.214900  0.063000  1.0  -0.1932
  N  N304  1  0.085700  0.119400  0.796100  1.0  -0.3045
  N  N305  1  0.093000  0.188000  0.925600  1.0  -0.2917
  N  N306  1  0.961700  0.024700  0.676600  1.0  -0.1918
  N  N307  1  0.676700  0.380600  0.466300  1.0  -0.2988
  N  N308  1  0.737600  0.312000  0.405000  1.0  -0.2894
  N  N309  1  0.651900  0.475300  0.437000  1.0  -0.192
  N  N310  1  0.823300  0.289600  0.703900  1.0  -0.302
  N  N311  1  0.762400  0.167400  0.574400  1.0  -0.2937
  N  N312  1  0.848100  0.285100  0.823400  1.0  -0.195
  N  N313  1  0.203900  0.823300  0.789600  1.0  -0.3009
  N  N314  1  0.074400  0.762400  0.667400  1.0  -0.2916
  N  N315  1  0.323400  0.848100  0.785100  1.0  -0.1913
  N  N316  1  0.966300  0.676700  0.880600  1.0  -0.3019
  N  N317  1  0.905000  0.737600  0.812000  1.0  -0.2927
  N  N318  1  0.937000  0.651900  0.975300  1.0  -0.1926
  N  N319  1  0.296100  0.085700  0.619400  1.0  -0.3023
  N  N320  1  0.425600  0.093000  0.688000  1.0  -0.2872
  N  N321  1  0.176600  0.961700  0.524700  1.0  -0.1943
  N  N322  1  0.533700  0.414300  0.710400  1.0  -0.3029
  N  N323  1  0.595000  0.407000  0.832600  1.0  -0.2891
  N  N324  1  0.563000  0.538300  0.714900  1.0  -0.1925
  N  N325  1  0.703900  0.789600  0.823300  1.0  -0.3035
  N  N326  1  0.574400  0.667400  0.762400  1.0  -0.2889
  N  N327  1  0.823400  0.785100  0.848100  1.0  -0.1948
  N  N328  1  0.466300  0.880600  0.676700  1.0  -0.3042
  N  N329  1  0.405000  0.812000  0.737600  1.0  -0.2905
  N  N330  1  0.437000  0.975300  0.651900  1.0  -0.1919
  N  N331  1  0.796100  0.619400  0.085700  1.0  -0.2994
  N  N332  1  0.925600  0.688000  0.093000  1.0  -0.2908
  N  N333  1  0.676600  0.524700  0.961700  1.0  -0.1917
  N  N334  1  0.033700  0.710400  0.414300  1.0  -0.3011
  N  N335  1  0.095000  0.832600  0.407000  1.0  -0.2921
  N  N336  1  0.063000  0.714900  0.538300  1.0  -0.1934
  N  N337  1  0.880600  0.176700  0.966300  1.0  -0.3005
  N  N338  1  0.812000  0.237600  0.905000  1.0  -0.2916
  N  N339  1  0.975300  0.151900  0.937000  1.0  -0.191
  N  N340  1  0.789600  0.323300  0.203900  1.0  -0.3016
  N  N341  1  0.667400  0.262400  0.074400  1.0  -0.2932
  N  N342  1  0.785100  0.348100  0.323400  1.0  -0.193
  N  N343  1  0.710400  0.914300  0.533700  1.0  -0.3019
  N  N344  1  0.832600  0.907000  0.595000  1.0  -0.2858
  N  N345  1  0.714900  0.038300  0.563000  1.0  -0.1932
  N  N346  1  0.619400  0.585700  0.296100  1.0  -0.3037
  N  N347  1  0.688000  0.593000  0.425600  1.0  -0.2897
  N  N348  1  0.524700  0.461700  0.176600  1.0  -0.1936
  N  N349  1  0.914300  0.033700  0.210400  1.0  -0.3028
  N  N350  1  0.907000  0.095000  0.332600  1.0  -0.2893
  N  N351  1  0.038300  0.063000  0.214900  1.0  -0.1919
  N  N352  1  0.585700  0.796100  0.119400  1.0  -0.301
  N  N353  1  0.593000  0.925600  0.188000  1.0  -0.2889
  N  N354  1  0.461700  0.676600  0.024700  1.0  -0.1928
  N  N355  1  0.176700  0.466300  0.380600  1.0  -0.3012
  N  N356  1  0.237600  0.405000  0.312000  1.0  -0.2921
  N  N357  1  0.151900  0.437000  0.475300  1.0  -0.1947
  N  N358  1  0.323300  0.703900  0.289600  1.0  -0.2987
  N  N359  1  0.262400  0.574400  0.167400  1.0  -0.2894
  N  N360  1  0.348100  0.823400  0.285100  1.0  -0.1914
