# generated using pymatgen
data_In9H24(C36O25)2
_symmetry_space_group_name_H-M   'P 1'
_cell_length_a   22.26900000
_cell_length_b   22.26900000
_cell_length_c   22.26900000
_cell_angle_alpha   109.47120000
_cell_angle_beta   109.47120000
_cell_angle_gamma   109.47120000
_symmetry_Int_Tables_number   1
_chemical_formula_structural   In9H24(C36O25)2
_chemical_formula_sum   'In18 H48 C144 O100'
_cell_volume   8501.20691585
_cell_formula_units_Z   2
loop_
 _symmetry_equiv_pos_site_id
 _symmetry_equiv_pos_as_xyz
  1  'x, y, z'
loop_
 _atom_site_type_symbol
 _atom_site_label
 _atom_site_symmetry_multiplicity
 _atom_site_fract_x
 _atom_site_fract_y
 _atom_site_fract_z
 _atom_site_occupancy
 _atom_site_charge
  In  In1  1  0.694370  0.902830  0.000000  1.0  1.599
  In  In2  1  0.902830  0.694370  0.000000  1.0  1.5984
  In  In3  1  0.097170  0.097170  0.791540  1.0  1.6047
  In  In4  1  0.305630  0.305630  0.208460  1.0  1.5976
  In  In5  1  0.000000  0.694370  0.902830  1.0  1.5953
  In  In6  1  0.000000  0.902830  0.694370  1.0  1.5997
  In  In7  1  0.791540  0.097170  0.097170  1.0  1.6031
  In  In8  1  0.208460  0.305630  0.305630  1.0  1.6037
  In  In9  1  0.902830  0.000000  0.694370  1.0  1.6007
  In  In10  1  0.694370  0.000000  0.902830  1.0  1.5977
  In  In11  1  0.097170  0.791540  0.097170  1.0  1.6021
  In  In12  1  0.305630  0.208460  0.305630  1.0  1.6018
  In  In13  1  0.500000  0.750000  0.250000  1.0  1.4728
  In  In14  1  0.500000  0.250000  0.750000  1.0  1.4728
  In  In15  1  0.250000  0.500000  0.750000  1.0  1.473
  In  In16  1  0.750000  0.500000  0.250000  1.0  1.473
  In  In17  1  0.750000  0.250000  0.500000  1.0  1.4729
  In  In18  1  0.250000  0.750000  0.500000  1.0  1.4731
  H  H19  1  0.600010  0.873570  0.133490  1.0  0.1375
  H  H20  1  0.740080  0.466530  0.866510  1.0  0.1355
  H  H21  1  0.259920  0.126430  0.726450  1.0  0.1382
  H  H22  1  0.399990  0.533470  0.273550  1.0  0.1369
  H  H23  1  0.133490  0.600010  0.873570  1.0  0.1361
  H  H24  1  0.866510  0.740080  0.466530  1.0  0.1356
  H  H25  1  0.726450  0.259920  0.126430  1.0  0.1358
  H  H26  1  0.273550  0.399990  0.533470  1.0  0.1365
  H  H27  1  0.873570  0.133490  0.600010  1.0  0.1387
  H  H28  1  0.466530  0.866510  0.740080  1.0  0.1393
  H  H29  1  0.126430  0.726450  0.259920  1.0  0.1366
  H  H30  1  0.533470  0.273550  0.399990  1.0  0.1383
  H  H31  1  0.873570  0.600010  0.133490  1.0  0.1365
  H  H32  1  0.466530  0.740080  0.866510  1.0  0.1353
  H  H33  1  0.126430  0.259920  0.726450  1.0  0.1363
  H  H34  1  0.533470  0.399990  0.273550  1.0  0.1363
  H  H35  1  0.600010  0.133490  0.873570  1.0  0.1381
  H  H36  1  0.740080  0.866510  0.466530  1.0  0.1371
  H  H37  1  0.259920  0.726450  0.126430  1.0  0.137
  H  H38  1  0.399990  0.273550  0.533470  1.0  0.1374
  H  H39  1  0.133490  0.873570  0.600010  1.0  0.1387
  H  H40  1  0.866510  0.466530  0.740080  1.0  0.136
  H  H41  1  0.726450  0.126430  0.259920  1.0  0.1391
  H  H42  1  0.273550  0.533470  0.399990  1.0  0.1366
  H  H43  1  0.998750  0.119560  0.211200  1.0  0.1227
  H  H44  1  0.908360  0.787550  0.788800  1.0  0.1204
  H  H45  1  0.091640  0.880440  0.879190  1.0  0.1187
  H  H46  1  0.001250  0.212450  0.120810  1.0  0.1209
  H  H47  1  0.211200  0.998750  0.119560  1.0  0.1199
  H  H48  1  0.788800  0.908360  0.787550  1.0  0.1211
  H  H49  1  0.879190  0.091640  0.880440  1.0  0.1215
  H  H50  1  0.120810  0.001250  0.212450  1.0  0.1204
  H  H51  1  0.120810  0.212450  0.001250  1.0  0.1206
  H  H52  1  0.788800  0.787550  0.908360  1.0  0.1207
  H  H53  1  0.879190  0.880440  0.091640  1.0  0.121
  H  H54  1  0.211200  0.119560  0.998750  1.0  0.12
  H  H55  1  0.605690  0.000330  0.340940  1.0  0.1231
  H  H56  1  0.659060  0.264740  0.659390  1.0  0.1273
  H  H57  1  0.340610  0.999670  0.605360  1.0  0.1222
  H  H58  1  0.394640  0.735260  0.394310  1.0  0.1273
  H  H59  1  0.340940  0.605690  0.000330  1.0  0.1251
  H  H60  1  0.659390  0.659060  0.264740  1.0  0.1236
  H  H61  1  0.605690  0.340940  0.000330  1.0  0.1241
  H  H62  1  0.394640  0.394310  0.735260  1.0  0.1247
  H  H63  1  0.999670  0.340610  0.605360  1.0  0.1221
  H  H64  1  0.264740  0.659060  0.659390  1.0  0.1245
  H  H65  1  0.999670  0.605360  0.340610  1.0  0.1247
  H  H66  1  0.735260  0.394640  0.394310  1.0  0.1247
  C  C67  1  0.559700  0.868400  0.236100  1.0  0.6601
  C  C68  1  0.620600  0.929400  0.181200  1.0  0.0963
  C  C69  1  0.601000  0.933600  0.239600  1.0  -0.159
  C  C70  1  0.632300  0.323600  0.763900  1.0  0.6664
  C  C71  1  0.748200  0.439400  0.818800  1.0  0.0969
  C  C72  1  0.694000  0.361400  0.760400  1.0  -0.162
  C  C73  1  0.367700  0.131600  0.691300  1.0  0.6615
  C  C74  1  0.251800  0.070600  0.691200  1.0  0.0964
  C  C75  1  0.306000  0.066400  0.667400  1.0  -0.1555
  C  C76  1  0.440300  0.676400  0.308700  1.0  0.6663
  C  C77  1  0.379400  0.560600  0.308800  1.0  0.0624
  C  C78  1  0.399000  0.638600  0.332600  1.0  -0.1623
  C  C79  1  0.236100  0.559700  0.868400  1.0  0.6618
  C  C80  1  0.181200  0.620600  0.929400  1.0  0.0959
  C  C81  1  0.239600  0.601000  0.933600  1.0  -0.1588
  C  C82  1  0.763900  0.632300  0.323600  1.0  0.6666
  C  C83  1  0.818800  0.748200  0.439400  1.0  0.0961
  C  C84  1  0.760400  0.694000  0.361400  1.0  -0.1634
  C  C85  1  0.691300  0.367700  0.131600  1.0  0.6687
  C  C86  1  0.691200  0.251800  0.070600  1.0  0.0992
  C  C87  1  0.667400  0.306000  0.066400  1.0  -0.1623
  C  C88  1  0.308700  0.440300  0.676400  1.0  0.6595
  C  C89  1  0.308800  0.379400  0.560600  1.0  0.0609
  C  C90  1  0.332600  0.399000  0.638600  1.0  -0.156
  C  C91  1  0.868400  0.236100  0.559700  1.0  0.6668
  C  C92  1  0.929400  0.181200  0.620600  1.0  0.0961
  C  C93  1  0.933600  0.239600  0.601000  1.0  -0.1637
  C  C94  1  0.323600  0.763900  0.632300  1.0  0.6607
  C  C95  1  0.439400  0.818800  0.748200  1.0  0.0972
  C  C96  1  0.361400  0.760400  0.694000  1.0  -0.1551
  C  C97  1  0.131600  0.691300  0.367700  1.0  0.6605
  C  C98  1  0.070600  0.691200  0.251800  1.0  0.0979
  C  C99  1  0.066400  0.667400  0.306000  1.0  -0.1557
  C  C100  1  0.676400  0.308700  0.440300  1.0  0.6609
  C  C101  1  0.560600  0.308800  0.379400  1.0  0.0634
  C  C102  1  0.638600  0.332600  0.399000  1.0  -0.1552
  C  C103  1  0.868400  0.559700  0.236100  1.0  0.666
  C  C104  1  0.929400  0.620600  0.181200  1.0  0.0956
  C  C105  1  0.933600  0.601000  0.239600  1.0  -0.1638
  C  C106  1  0.323600  0.632300  0.763900  1.0  0.6692
  C  C107  1  0.439400  0.748200  0.818800  1.0  0.0972
  C  C108  1  0.361400  0.694000  0.760400  1.0  -0.1622
  C  C109  1  0.131600  0.367700  0.691300  1.0  0.6598
  C  C110  1  0.070600  0.251800  0.691200  1.0  0.0979
  C  C111  1  0.066400  0.306000  0.667400  1.0  -0.1557
  C  C112  1  0.676400  0.440300  0.308700  1.0  0.6686
  C  C113  1  0.560600  0.379400  0.308800  1.0  0.0611
  C  C114  1  0.638600  0.399000  0.332600  1.0  -0.1639
  C  C115  1  0.559700  0.236100  0.868400  1.0  0.6613
  C  C116  1  0.620600  0.181200  0.929400  1.0  0.097
  C  C117  1  0.601000  0.239600  0.933600  1.0  -0.1583
  C  C118  1  0.632300  0.763900  0.323600  1.0  0.6597
  C  C119  1  0.748200  0.818800  0.439400  1.0  0.0952
  C  C120  1  0.694000  0.760400  0.361400  1.0  -0.1554
  C  C121  1  0.367700  0.691300  0.131600  1.0  0.6679
  C  C122  1  0.251800  0.691200  0.070600  1.0  0.098
  C  C123  1  0.306000  0.667400  0.066400  1.0  -0.1628
  C  C124  1  0.440300  0.308700  0.676400  1.0  0.6675
  C  C125  1  0.379400  0.308800  0.560600  1.0  0.0619
  C  C126  1  0.399000  0.332600  0.638600  1.0  -0.1629
  C  C127  1  0.236100  0.868400  0.559700  1.0  0.668
  C  C128  1  0.181200  0.929400  0.620600  1.0  0.0959
  C  C129  1  0.239600  0.933600  0.601000  1.0  -0.1641
  C  C130  1  0.763900  0.323600  0.632300  1.0  0.6588
  C  C131  1  0.818800  0.439400  0.748200  1.0  0.0967
  C  C132  1  0.760400  0.361400  0.694000  1.0  -0.1554
  C  C133  1  0.691300  0.131600  0.367700  1.0  0.6664
  C  C134  1  0.691200  0.070600  0.251800  1.0  0.0979
  C  C135  1  0.667400  0.066400  0.306000  1.0  -0.163
  C  C136  1  0.308700  0.676400  0.440300  1.0  0.659
  C  C137  1  0.308800  0.560600  0.379400  1.0  0.0645
  C  C138  1  0.332600  0.638600  0.399000  1.0  -0.155
  C  C139  1  0.000000  0.065900  0.193300  1.0  -0.0447
  C  C140  1  0.872600  0.806700  0.806700  1.0  -0.041
  C  C141  1  0.127400  0.934100  0.934100  1.0  -0.0309
  C  C142  1  0.000000  0.193300  0.065900  1.0  -0.0392
  C  C143  1  0.193300  0.000000  0.065900  1.0  -0.0382
  C  C144  1  0.806700  0.872600  0.806700  1.0  -0.0425
  C  C145  1  0.934100  0.127400  0.934100  1.0  -0.0336
  C  C146  1  0.065900  0.000000  0.193300  1.0  -0.0393
  C  C147  1  0.065900  0.193300  0.000000  1.0  -0.04
  C  C148  1  0.806700  0.806700  0.872600  1.0  -0.04
  C  C149  1  0.934100  0.934100  0.127400  1.0  -0.0355
  C  C150  1  0.193300  0.065900  0.000000  1.0  -0.0403
  C  C151  1  0.935600  0.000000  0.149600  1.0  -0.1004
  C  C152  1  0.691400  0.000000  0.138400  1.0  0.7499
  C  C153  1  0.861200  0.000000  0.123000  1.0  0.693
  C  C154  1  0.623400  0.000000  0.298400  1.0  -0.0554
  C  C155  1  0.664700  0.000000  0.194700  1.0  -0.1586
  C  C156  1  0.850400  0.786000  0.850400  1.0  -0.1053
  C  C157  1  0.861600  0.553000  0.861600  1.0  0.7496
  C  C158  1  0.877000  0.738200  0.877000  1.0  0.6891
  C  C159  1  0.701600  0.325000  0.701600  1.0  -0.0536
  C  C160  1  0.805300  0.470000  0.805300  1.0  -0.1554
  C  C161  1  0.149600  0.000000  0.935600  1.0  -0.1009
  C  C162  1  0.138400  0.000000  0.691400  1.0  0.7479
  C  C163  1  0.123000  0.000000  0.861200  1.0  0.6999
  C  C164  1  0.298400  0.000000  0.623400  1.0  -0.0583
  C  C165  1  0.194700  0.000000  0.664700  1.0  -0.1576
  C  C166  1  0.064400  0.214000  0.064400  1.0  -0.1003
  C  C167  1  0.308600  0.447000  0.308600  1.0  0.7455
  C  C168  1  0.138800  0.261800  0.138800  1.0  0.6976
  C  C169  1  0.376600  0.675000  0.376600  1.0  -0.0542
  C  C170  1  0.335300  0.530000  0.335300  1.0  -0.1555
  C  C171  1  0.149600  0.935600  0.000000  1.0  -0.0946
  C  C172  1  0.138400  0.691400  0.000000  1.0  0.7484
  C  C173  1  0.123000  0.861200  0.000000  1.0  0.703
  C  C174  1  0.298400  0.623400  0.000000  1.0  -0.0557
  C  C175  1  0.194700  0.664700  0.000000  1.0  -0.1571
  C  C176  1  0.850400  0.850400  0.786000  1.0  -0.1019
  C  C177  1  0.861600  0.861600  0.553000  1.0  0.7481
  C  C178  1  0.877000  0.877000  0.738200  1.0  0.6997
  C  C179  1  0.701600  0.701600  0.325000  1.0  -0.0557
  C  C180  1  0.805300  0.805300  0.470000  1.0  -0.1554
  C  C181  1  0.935600  0.149600  0.000000  1.0  -0.0946
  C  C182  1  0.691400  0.138400  0.000000  1.0  0.7468
  C  C183  1  0.861200  0.123000  0.000000  1.0  0.6997
  C  C184  1  0.623400  0.298400  0.000000  1.0  -0.0581
  C  C185  1  0.664700  0.194700  0.000000  1.0  -0.1571
  C  C186  1  0.064400  0.064400  0.214000  1.0  -0.0956
  C  C187  1  0.308600  0.308600  0.447000  1.0  0.7458
  C  C188  1  0.138800  0.138800  0.261800  1.0  0.7051
  C  C189  1  0.376600  0.376600  0.675000  1.0  -0.0525
  C  C190  1  0.335300  0.335300  0.530000  1.0  -0.1562
  C  C191  1  0.000000  0.149600  0.935600  1.0  -0.0973
  C  C192  1  0.000000  0.138400  0.691400  1.0  0.7483
  C  C193  1  0.000000  0.123000  0.861200  1.0  0.7012
  C  C194  1  0.000000  0.298400  0.623400  1.0  -0.0557
  C  C195  1  0.000000  0.194700  0.664700  1.0  -0.1576
  C  C196  1  0.786000  0.850400  0.850400  1.0  -0.1081
  C  C197  1  0.553000  0.861600  0.861600  1.0  0.7467
  C  C198  1  0.738200  0.877000  0.877000  1.0  0.6948
  C  C199  1  0.325000  0.701600  0.701600  1.0  -0.0568
  C  C200  1  0.470000  0.805300  0.805300  1.0  -0.155
  C  C201  1  0.000000  0.935600  0.149600  1.0  -0.0951
  C  C202  1  0.000000  0.691400  0.138400  1.0  0.7509
  C  C203  1  0.000000  0.861200  0.123000  1.0  0.6977
  C  C204  1  0.000000  0.623400  0.298400  1.0  -0.0529
  C  C205  1  0.000000  0.664700  0.194700  1.0  -0.1586
  C  C206  1  0.214000  0.064400  0.064400  1.0  -0.1031
  C  C207  1  0.447000  0.308600  0.308600  1.0  0.7435
  C  C208  1  0.261800  0.138800  0.138800  1.0  0.7058
  C  C209  1  0.675000  0.376600  0.376600  1.0  -0.0542
  C  C210  1  0.530000  0.335300  0.335300  1.0  -0.1552
  O  O211  1  0.546500  0.810600  0.191500  1.0  -0.5665
  O  O212  1  0.670200  0.940200  0.088000  1.0  -0.6042
  O  O213  1  0.803600  0.937900  0.079300  1.0  -0.6501
  O  O214  1  0.536900  0.866100  0.279600  1.0  -0.5696
  O  O215  1  0.619100  0.355000  0.808500  1.0  -0.5628
  O  O216  1  0.852200  0.582200  0.912000  1.0  -0.6049
  O  O217  1  0.858600  0.724300  0.920700  1.0  -0.6462
  O  O218  1  0.586500  0.257300  0.720400  1.0  -0.5693
  O  O219  1  0.380900  0.189400  0.735900  1.0  -0.5671
  O  O220  1  0.147800  0.059800  0.730000  1.0  -0.6038
  O  O221  1  0.141400  0.062100  0.865700  1.0  -0.6476
  O  O222  1  0.413500  0.133900  0.670800  1.0  -0.5716
  O  O223  1  0.453500  0.645000  0.264100  1.0  -0.5656
  O  O224  1  0.329800  0.417800  0.270000  1.0  -0.6006
  O  O225  1  0.196400  0.275700  0.134300  1.0  -0.6464
  O  O226  1  0.463100  0.742700  0.329200  1.0  -0.5688
  O  O227  1  0.191500  0.546500  0.810600  1.0  -0.5678
  O  O228  1  0.088000  0.670200  0.940200  1.0  -0.6033
  O  O229  1  0.079300  0.803600  0.937900  1.0  -0.6603
  O  O230  1  0.279600  0.536900  0.866100  1.0  -0.573
  O  O231  1  0.808500  0.619100  0.355000  1.0  -0.5675
  O  O232  1  0.912000  0.852200  0.582200  1.0  -0.6068
  O  O233  1  0.920700  0.858600  0.724300  1.0  -0.6547
  O  O234  1  0.720400  0.586500  0.257300  1.0  -0.5725
  O  O235  1  0.735900  0.380900  0.189400  1.0  -0.5669
  O  O236  1  0.730000  0.147800  0.059800  1.0  -0.6025
  O  O237  1  0.865700  0.141400  0.062100  1.0  -0.6539
  O  O238  1  0.670800  0.413500  0.133900  1.0  -0.5747
  O  O239  1  0.264100  0.453500  0.645000  1.0  -0.5672
  O  O240  1  0.270000  0.329800  0.417800  1.0  -0.6012
  O  O241  1  0.134300  0.196400  0.275700  1.0  -0.6534
  O  O242  1  0.329200  0.463100  0.742700  1.0  -0.5698
  O  O243  1  0.810600  0.191500  0.546500  1.0  -0.5662
  O  O244  1  0.940200  0.088000  0.670200  1.0  -0.6063
  O  O245  1  0.937900  0.079300  0.803600  1.0  -0.6589
  O  O246  1  0.866100  0.279600  0.536900  1.0  -0.5721
  O  O247  1  0.355000  0.808500  0.619100  1.0  -0.5673
  O  O248  1  0.582200  0.912000  0.852200  1.0  -0.604
  O  O249  1  0.724300  0.920700  0.858600  1.0  -0.654
  O  O250  1  0.257300  0.720400  0.586500  1.0  -0.5706
  O  O251  1  0.189400  0.735900  0.380900  1.0  -0.5635
  O  O252  1  0.059800  0.730000  0.147800  1.0  -0.6048
  O  O253  1  0.062100  0.865700  0.141400  1.0  -0.6546
  O  O254  1  0.133900  0.670800  0.413500  1.0  -0.5691
  O  O255  1  0.645000  0.264100  0.453500  1.0  -0.5644
  O  O256  1  0.417800  0.270000  0.329800  1.0  -0.6032
  O  O257  1  0.275700  0.134300  0.196400  1.0  -0.6542
  O  O258  1  0.742700  0.329200  0.463100  1.0  -0.5736
  O  O259  1  0.810600  0.546500  0.191500  1.0  -0.5676
  O  O260  1  0.940200  0.670200  0.088000  1.0  -0.6058
  O  O261  1  0.937900  0.803600  0.079300  1.0  -0.6586
  O  O262  1  0.866100  0.536900  0.279600  1.0  -0.5695
  O  O263  1  0.355000  0.619100  0.808500  1.0  -0.5665
  O  O264  1  0.582200  0.852200  0.912000  1.0  -0.6043
  O  O265  1  0.724300  0.858600  0.920700  1.0  -0.655
  O  O266  1  0.257300  0.586500  0.720400  1.0  -0.5736
  O  O267  1  0.189400  0.380900  0.735900  1.0  -0.5662
  O  O268  1  0.059800  0.147800  0.730000  1.0  -0.6053
  O  O269  1  0.062100  0.141400  0.865700  1.0  -0.6548
  O  O270  1  0.133900  0.413500  0.670800  1.0  -0.5727
  O  O271  1  0.645000  0.453500  0.264100  1.0  -0.5717
  O  O272  1  0.417800  0.329800  0.270000  1.0  -0.5979
  O  O273  1  0.275700  0.196400  0.134300  1.0  -0.6566
  O  O274  1  0.742700  0.463100  0.329200  1.0  -0.5735
  O  O275  1  0.546500  0.191500  0.810600  1.0  -0.5658
  O  O276  1  0.670200  0.088000  0.940200  1.0  -0.6055
  O  O277  1  0.803600  0.079300  0.937900  1.0  -0.6518
  O  O278  1  0.536900  0.279600  0.866100  1.0  -0.5714
  O  O279  1  0.619100  0.808500  0.355000  1.0  -0.5648
  O  O280  1  0.852200  0.912000  0.582200  1.0  -0.6053
  O  O281  1  0.858600  0.920700  0.724300  1.0  -0.6451
  O  O282  1  0.586500  0.720400  0.257300  1.0  -0.5712
  O  O283  1  0.380900  0.735900  0.189400  1.0  -0.5675
  O  O284  1  0.147800  0.730000  0.059800  1.0  -0.6046
  O  O285  1  0.141400  0.865700  0.062100  1.0  -0.6467
  O  O286  1  0.413500  0.670800  0.133900  1.0  -0.5739
  O  O287  1  0.453500  0.264100  0.645000  1.0  -0.5673
  O  O288  1  0.329800  0.270000  0.417800  1.0  -0.603
  O  O289  1  0.196400  0.134300  0.275700  1.0  -0.6451
  O  O290  1  0.463100  0.329200  0.742700  1.0  -0.5695
  O  O291  1  0.191500  0.810600  0.546500  1.0  -0.5644
  O  O292  1  0.088000  0.940200  0.670200  1.0  -0.606
  O  O293  1  0.079300  0.937900  0.803600  1.0  -0.6534
  O  O294  1  0.279600  0.866100  0.536900  1.0  -0.572
  O  O295  1  0.808500  0.355000  0.619100  1.0  -0.57
  O  O296  1  0.912000  0.582200  0.852200  1.0  -0.6055
  O  O297  1  0.920700  0.724300  0.858600  1.0  -0.6452
  O  O298  1  0.720400  0.257300  0.586500  1.0  -0.5669
  O  O299  1  0.735900  0.189400  0.380900  1.0  -0.5628
  O  O300  1  0.730000  0.059800  0.147800  1.0  -0.6027
  O  O301  1  0.865700  0.062100  0.141400  1.0  -0.6434
  O  O302  1  0.670800  0.133900  0.413500  1.0  -0.57
  O  O303  1  0.264100  0.645000  0.453500  1.0  -0.5654
  O  O304  1  0.270000  0.417800  0.329800  1.0  -0.601
  O  O305  1  0.134300  0.275700  0.196400  1.0  -0.6467
  O  O306  1  0.329200  0.742700  0.463100  1.0  -0.5704
  O  O307  1  0.731400  0.000000  0.000000  1.0  -1.0521
  O  O308  1  0.000000  0.731400  0.000000  1.0  -1.0534
  O  O309  1  0.000000  0.000000  0.731400  1.0  -1.0536
  O  O310  1  0.268600  0.268600  0.268600  1.0  -1.0527
