# generated using pymatgen
data_Co2H42C49(N3O4)2
_symmetry_space_group_name_H-M   'P 1'
_cell_length_a   11.16600000
_cell_length_b   11.63800000
_cell_length_c   20.95000000
_cell_angle_alpha   96.25000000
_cell_angle_beta   90.68000000
_cell_angle_gamma   108.49000000
_symmetry_Int_Tables_number   1
_chemical_formula_structural   Co2H42C49(N3O4)2
_chemical_formula_sum   'Co4 H84 C98 N12 O16'
_cell_volume   2563.45925269
_cell_formula_units_Z   2
loop_
 _symmetry_equiv_pos_site_id
 _symmetry_equiv_pos_as_xyz
  1  'x, y, z'
loop_
 _atom_site_type_symbol
 _atom_site_label
 _atom_site_symmetry_multiplicity
 _atom_site_fract_x
 _atom_site_fract_y
 _atom_site_fract_z
 _atom_site_occupancy
 _atom_site_charge
  Co  Co1  1  0.865520  0.520780  0.759370  1.0  0.8807
  Co  Co2  1  0.134480  0.479220  0.240630  1.0  0.8776
  Co  Co3  1  0.000000  0.000000  0.500000  1.0  0.8488
  Co  Co4  1  0.500000  0.500000  0.000000  1.0  0.8017
  H  H5  1  0.127200  0.674400  0.961600  1.0  0.1059
  H  H6  1  0.903100  0.353500  0.565100  1.0  0.1078
  H  H7  1  0.672600  0.131500  0.629600  1.0  0.1321
  H  H8  1  0.793900  0.114100  0.544200  1.0  0.0809
  H  H9  1  0.912100  0.877800  0.621400  1.0  0.0754
  H  H10  1  0.249500  0.053900  0.810100  1.0  0.0976
  H  H11  1  0.238600  0.183900  0.830000  1.0  0.0971
  H  H12  1  0.243500  0.142800  0.696300  1.0  0.1477
  H  H13  1  0.441800  0.263000  0.650300  1.0  0.1223
  H  H14  1  0.109800  0.604500  0.846600  1.0  0.0754
  H  H15  1  0.246000  0.866800  0.696700  1.0  0.1258
  H  H16  1  0.044900  0.732900  0.690600  1.0  0.0755
  H  H17  1  0.036100  0.019400  0.817700  1.0  0.1181
  H  H18  1  0.055000  0.008600  0.743400  1.0  0.0973
  H  H19  1  0.482500  0.890900  0.820400  1.0  0.1112
  H  H20  1  0.429100  0.993300  0.803100  1.0  0.093
  H  H21  1  0.517000  0.846600  0.712500  1.0  0.0917
  H  H22  1  0.462400  0.948200  0.694800  1.0  0.082
  H  H23  1  0.632100  0.099300  0.745200  1.0  0.084
  H  H24  1  0.681800  0.004100  0.775200  1.0  0.0943
  H  H25  1  0.790800  0.886200  0.708100  1.0  0.1356
  H  H26  1  0.801400  0.592200  0.196100  1.0  0.1087
  H  H27  1  0.735800  0.592400  0.092800  1.0  0.0804
  H  H28  1  0.393500  0.396600  0.125000  1.0  0.0858
  H  H29  1  0.449700  0.389300  0.229100  1.0  0.1269
  H  H30  1  0.765300  0.532600  0.307900  1.0  0.1454
  H  H31  1  0.519900  0.458200  0.344000  1.0  0.0903
  H  H32  1  0.547100  0.337900  0.317800  1.0  0.0898
  H  H33  1  0.676500  0.499900  0.425400  1.0  0.1102
  H  H34  1  0.715600  0.387200  0.397300  1.0  0.1061
  H  H35  1  0.658700  0.238100  0.470100  1.0  0.1252
  H  H36  1  0.514800  0.118800  0.531900  1.0  0.0746
  H  H37  1  0.270300  0.279700  0.497700  1.0  0.0753
  H  H38  1  0.407700  0.405400  0.435700  1.0  0.1186
  H  H39  1  0.038200  0.177800  0.681400  1.0  0.121
  H  H40  1  0.908300  0.354800  0.860700  1.0  0.0757
  H  H41  1  0.309800  0.741900  0.859700  1.0  0.1272
  H  H42  1  0.975200  0.345800  0.678400  1.0  0.1025
  H  H43  1  0.975800  0.190700  0.869400  1.0  0.1369
  H  H44  1  0.646700  0.387100  0.659500  1.0  0.0892
  H  H45  1  0.666800  0.357900  0.842300  1.0  0.0763
  H  H46  1  0.461000  0.231800  0.838100  1.0  0.1304
  H  H47  1  0.872800  0.325600  0.038400  1.0  0.1059
  H  H48  1  0.096900  0.646500  0.434900  1.0  0.1085
  H  H49  1  0.327400  0.868500  0.370400  1.0  0.1317
  H  H50  1  0.206100  0.885900  0.455800  1.0  0.0805
  H  H51  1  0.087900  0.122200  0.378600  1.0  0.0747
  H  H52  1  0.750500  0.946100  0.189900  1.0  0.0984
  H  H53  1  0.761400  0.816100  0.170000  1.0  0.0974
  H  H54  1  0.756500  0.857200  0.303700  1.0  0.1471
  H  H55  1  0.558200  0.737000  0.349700  1.0  0.1213
  H  H56  1  0.890200  0.395500  0.153400  1.0  0.0761
  H  H57  1  0.754000  0.133200  0.303300  1.0  0.125
  H  H58  1  0.955100  0.267100  0.309400  1.0  0.0732
  H  H59  1  0.963900  0.980600  0.182300  1.0  0.1168
  H  H60  1  0.945000  0.991400  0.256600  1.0  0.0972
  H  H61  1  0.517500  0.109100  0.179600  1.0  0.1047
  H  H62  1  0.570900  0.006700  0.196900  1.0  0.0932
  H  H63  1  0.483000  0.153400  0.287500  1.0  0.0918
  H  H64  1  0.537600  0.051800  0.305200  1.0  0.0825
  H  H65  1  0.367900  0.900700  0.254800  1.0  0.0843
  H  H66  1  0.318200  0.995900  0.224800  1.0  0.0943
  H  H67  1  0.209200  0.113800  0.291900  1.0  0.1372
  H  H68  1  0.198600  0.407800  0.803900  1.0  0.1085
  H  H69  1  0.264200  0.407600  0.907200  1.0  0.0798
  H  H70  1  0.606500  0.603400  0.875000  1.0  0.0853
  H  H71  1  0.550300  0.610700  0.770900  1.0  0.128
  H  H72  1  0.234700  0.467400  0.692100  1.0  0.1455
  H  H73  1  0.480100  0.541800  0.656000  1.0  0.092
  H  H74  1  0.452900  0.662100  0.682200  1.0  0.0897
  H  H75  1  0.323500  0.500100  0.574600  1.0  0.111
  H  H76  1  0.284400  0.612800  0.602700  1.0  0.1094
  H  H77  1  0.341300  0.761900  0.529900  1.0  0.1266
  H  H78  1  0.485200  0.881200  0.468100  1.0  0.0746
  H  H79  1  0.729700  0.720300  0.502300  1.0  0.0767
  H  H80  1  0.592300  0.594600  0.564300  1.0  0.1184
  H  H81  1  0.961800  0.822200  0.318600  1.0  0.1205
  H  H82  1  0.091700  0.645200  0.139300  1.0  0.0758
  H  H83  1  0.690200  0.258100  0.140300  1.0  0.1278
  H  H84  1  0.024800  0.654200  0.321600  1.0  0.1026
  H  H85  1  0.024200  0.809300  0.130600  1.0  0.1386
  H  H86  1  0.353300  0.612900  0.340500  1.0  0.0885
  H  H87  1  0.333200  0.642100  0.157700  1.0  0.0748
  H  H88  1  0.539000  0.768200  0.161900  1.0  0.1312
  C  C89  1  0.727420  0.415900  0.972860  1.0  0.677
  C  C90  1  0.869920  0.457230  0.983840  1.0  -0.0969
  C  C91  1  0.947190  0.561580  0.959730  1.0  -0.0901
  C  C92  1  0.898490  0.621100  0.908830  1.0  0.6774
  C  C93  1  0.076150  0.603900  0.976850  1.0  -0.0376
  C  C94  1  0.884320  0.562100  0.616430  1.0  0.6859
  C  C95  1  0.946010  0.532690  0.556220  1.0  -0.1274
  C  C96  1  0.029600  0.758270  0.535210  1.0  0.6726
  C  C97  1  0.006020  0.622560  0.517150  1.0  -0.087
  C  C98  1  0.941900  0.412340  0.538640  1.0  -0.0397
  C  C99  1  0.720700  0.079300  0.629140  1.0  -0.1993
  C  C100  1  0.794800  0.069000  0.578100  1.0  0.18
  C  C101  1  0.863800  0.930000  0.623180  1.0  0.1637
  C  C102  1  0.219000  0.116600  0.795800  1.0  -0.2827
  C  C103  1  0.286400  0.160700  0.736270  1.0  -0.0941
  C  C104  1  0.424500  0.234290  0.743780  1.0  0.0477
  C  C105  1  0.485200  0.281800  0.690250  1.0  -0.1596
  C  C106  1  0.136700  0.659200  0.816520  1.0  0.1704
  C  C107  1  0.220000  0.815800  0.728520  1.0  -0.2045
  C  C108  1  0.099200  0.733600  0.724740  1.0  0.1791
  C  C109  1  0.074100  0.064500  0.782780  1.0  -0.2648
  C  C110  1  0.303200  0.822500  0.779830  1.0  0.1577
  C  C111  1  0.435300  0.913900  0.787580  1.0  -0.1882
  C  C112  1  0.509200  0.925500  0.727840  1.0  -0.0853
  C  C113  1  0.639500  0.018100  0.737490  1.0  -0.1896
  C  C114  1  0.718400  0.011430  0.679920  1.0  0.1216
  C  C115  1  0.791000  0.934700  0.675620  1.0  -0.2035
  C  C116  1  0.717500  0.551200  0.182810  1.0  -0.1773
  C  C117  1  0.677400  0.551100  0.120560  1.0  0.1853
  C  C118  1  0.477000  0.436200  0.139500  1.0  0.1767
  C  C119  1  0.510100  0.431600  0.202460  1.0  -0.2254
  C  C120  1  0.633600  0.490230  0.226200  1.0  0.0529
  C  C121  1  0.681700  0.491300  0.293970  1.0  -0.154
  C  C122  1  0.585900  0.420800  0.338100  1.0  -0.2387
  C  C123  1  0.644500  0.417500  0.403420  1.0  -0.2329
  C  C124  1  0.551600  0.337800  0.445330  1.0  0.1388
  C  C125  1  0.580400  0.249500  0.475070  1.0  -0.2047
  C  C126  1  0.492800  0.177700  0.512330  1.0  0.1895
  C  C127  1  0.350000  0.271600  0.492600  1.0  0.1851
  C  C128  1  0.432300  0.347500  0.454870  1.0  -0.2025
  C  C129  1  0.014600  0.213700  0.718900  1.0  -0.1834
  C  C130  1  0.936800  0.320100  0.824350  1.0  0.1762
  C  C131  1  0.019100  0.165640  0.776840  1.0  0.1278
  C  C132  1  0.258300  0.741300  0.824430  1.0  -0.2058
  C  C133  1  0.975200  0.314300  0.717350  1.0  0.1809
  C  C134  1  0.977000  0.220700  0.829900  1.0  -0.2212
  C  C135  1  0.608800  0.356300  0.696050  1.0  0.1856
  C  C136  1  0.620700  0.339200  0.803210  1.0  0.1803
  C  C137  1  0.496100  0.263100  0.801150  1.0  -0.2266
  C  C138  1  0.272580  0.584100  0.027140  1.0  0.6773
  C  C139  1  0.130080  0.542770  0.016160  1.0  -0.0956
  C  C140  1  0.052810  0.438420  0.040270  1.0  -0.0906
  C  C141  1  0.101510  0.378900  0.091170  1.0  0.686
  C  C142  1  0.923850  0.396100  0.023150  1.0  -0.0384
  C  C143  1  0.115680  0.437900  0.383570  1.0  0.6872
  C  C144  1  0.053990  0.467310  0.443780  1.0  -0.1278
  C  C145  1  0.970400  0.241730  0.464790  1.0  0.6696
  C  C146  1  0.993980  0.377440  0.482850  1.0  -0.088
  C  C147  1  0.058100  0.587660  0.461360  1.0  -0.0394
  C  C148  1  0.279300  0.920700  0.370860  1.0  -0.1987
  C  C149  1  0.205200  0.931000  0.421900  1.0  0.1789
  C  C150  1  0.136200  0.070000  0.376820  1.0  0.1643
  C  C151  1  0.781000  0.883400  0.204200  1.0  -0.2809
  C  C152  1  0.713600  0.839300  0.263730  1.0  -0.0954
  C  C153  1  0.575500  0.765710  0.256220  1.0  0.0491
  C  C154  1  0.514800  0.718200  0.309750  1.0  -0.1575
  C  C155  1  0.863300  0.340800  0.183480  1.0  0.1695
  C  C156  1  0.780000  0.184200  0.271480  1.0  -0.2074
  C  C157  1  0.900800  0.266400  0.275260  1.0  0.1797
  C  C158  1  0.925900  0.935500  0.217220  1.0  -0.2646
  C  C159  1  0.696800  0.177500  0.220170  1.0  0.1588
  C  C160  1  0.564700  0.086100  0.212420  1.0  -0.1865
  C  C161  1  0.490800  0.074500  0.272160  1.0  -0.0909
  C  C162  1  0.360500  0.981900  0.262510  1.0  -0.1897
  C  C163  1  0.281600  0.988570  0.320080  1.0  0.12
  C  C164  1  0.209000  0.065300  0.324380  1.0  -0.1956
  C  C165  1  0.282500  0.448800  0.817190  1.0  -0.1759
  C  C166  1  0.322600  0.448900  0.879440  1.0  0.1864
  C  C167  1  0.523000  0.563800  0.860500  1.0  0.1759
  C  C168  1  0.489900  0.568400  0.797540  1.0  -0.2231
  C  C169  1  0.366400  0.509770  0.773800  1.0  0.0527
  C  C170  1  0.318300  0.508700  0.706030  1.0  -0.1547
  C  C171  1  0.414100  0.579200  0.661900  1.0  -0.2367
  C  C172  1  0.355500  0.582500  0.596580  1.0  -0.2329
  C  C173  1  0.448400  0.662200  0.554670  1.0  0.1388
  C  C174  1  0.419600  0.750500  0.524930  1.0  -0.216
  C  C175  1  0.507200  0.822300  0.487670  1.0  0.1895
  C  C176  1  0.650000  0.728400  0.507400  1.0  0.1856
  C  C177  1  0.567700  0.652500  0.545130  1.0  -0.2056
  C  C178  1  0.985400  0.786300  0.281100  1.0  -0.1849
  C  C179  1  0.063200  0.679900  0.175650  1.0  0.1763
  C  C180  1  0.980900  0.834360  0.223160  1.0  0.1283
  C  C181  1  0.741700  0.258700  0.175570  1.0  -0.207
  C  C182  1  0.024800  0.685700  0.282650  1.0  0.1798
  C  C183  1  0.023000  0.779300  0.170100  1.0  -0.2126
  C  C184  1  0.391200  0.643700  0.303950  1.0  0.1857
  C  C185  1  0.379300  0.660800  0.196790  1.0  0.181
  C  C186  1  0.503900  0.736900  0.198850  1.0  -0.228
  N  N187  1  0.056040  0.654580  0.767840  1.0  -0.3524
  N  N188  1  0.868100  0.997130  0.574820  1.0  -0.3679
  N  N189  1  0.557800  0.494330  0.097850  1.0  -0.3648
  N  N190  1  0.378900  0.187800  0.521880  1.0  -0.4529
  N  N191  1  0.936730  0.369200  0.769420  1.0  -0.3362
  N  N192  1  0.677800  0.386830  0.752150  1.0  -0.3416
  N  N193  1  0.943960  0.345420  0.232160  1.0  -0.3504
  N  N194  1  0.131900  0.002870  0.425180  1.0  -0.3679
  N  N195  1  0.442200  0.505670  0.902150  1.0  -0.3675
  N  N196  1  0.621100  0.812200  0.478120  1.0  -0.4522
  N  N197  1  0.063270  0.630800  0.230580  1.0  -0.3346
  N  N198  1  0.322200  0.613170  0.247850  1.0  -0.3414
  O  O199  1  0.850310  0.552260  0.858580  1.0  -0.6193
  O  O200  1  0.914330  0.733050  0.918920  1.0  -0.5794
  O  O201  1  0.678930  0.499580  0.972750  1.0  -0.6076
  O  O202  1  0.668320  0.304560  0.966330  1.0  -0.5712
  O  O203  1  0.881180  0.494460  0.660510  1.0  -0.5992
  O  O204  1  0.841710  0.649150  0.619700  1.0  -0.5605
  O  O205  1  0.972280  0.809990  0.501510  1.0  -0.6096
  O  O206  1  0.111390  0.809970  0.579280  1.0  -0.58
  O  O207  1  0.149690  0.447740  0.141420  1.0  -0.6203
  O  O208  1  0.085670  0.266950  0.081080  1.0  -0.578
  O  O209  1  0.321070  0.500420  0.027250  1.0  -0.6072
  O  O210  1  0.331680  0.695440  0.033670  1.0  -0.575
  O  O211  1  0.118820  0.505540  0.339490  1.0  -0.599
  O  O212  1  0.158290  0.350850  0.380300  1.0  -0.5607
  O  O213  1  0.027720  0.190010  0.498490  1.0  -0.6102
  O  O214  1  0.888610  0.190030  0.420720  1.0  -0.581
