# generated using pymatgen
data_Zn5H12C26(N7O8)2
_symmetry_space_group_name_H-M   'P 1'
_cell_length_a   11.36050000
_cell_length_b   18.31200000
_cell_length_c   12.44630000
_cell_angle_alpha   90.00000000
_cell_angle_beta   108.49100000
_cell_angle_gamma   90.00000000
_symmetry_Int_Tables_number   1
_chemical_formula_structural   Zn5H12C26(N7O8)2
_chemical_formula_sum   'Zn10 H24 C52 N28 O32'
_cell_volume   2455.57325212
_cell_formula_units_Z   2
loop_
 _symmetry_equiv_pos_site_id
 _symmetry_equiv_pos_as_xyz
  1  'x, y, z'
loop_
 _atom_site_type_symbol
 _atom_site_label
 _atom_site_symmetry_multiplicity
 _atom_site_fract_x
 _atom_site_fract_y
 _atom_site_fract_z
 _atom_site_occupancy
 _atom_site_charge
  Zn  Zn1  1  0.266290  0.478200  0.909060  1.0  0.9184
  Zn  Zn2  1  0.082760  0.327570  0.440640  1.0  0.8925
  Zn  Zn3  1  0.733710  0.978200  0.590940  1.0  0.9186
  Zn  Zn4  1  0.917240  0.827570  0.059360  1.0  0.8928
  Zn  Zn5  1  0.733710  0.521800  0.090940  1.0  0.9184
  Zn  Zn6  1  0.917240  0.672430  0.559360  1.0  0.8929
  Zn  Zn7  1  0.266290  0.021800  0.409060  1.0  0.9182
  Zn  Zn8  1  0.082760  0.172430  0.940640  1.0  0.8923
  Zn  Zn9  1  0.000000  0.500000  0.000000  1.0  0.7599
  Zn  Zn10  1  0.000000  0.000000  0.500000  1.0  0.7599
  H  H11  1  0.832000  0.413300  0.306900  1.0  0.092
  H  H12  1  0.128900  0.389900  0.220400  1.0  0.0763
  H  H13  1  0.947900  0.322600  0.969600  1.0  0.0872
  H  H14  1  0.250900  0.298300  0.891300  1.0  0.0864
  H  H15  1  0.455300  0.384400  0.463700  1.0  0.1139
  H  H16  1  0.764400  0.464400  0.688200  1.0  0.1127
  H  H17  1  0.168000  0.913300  0.193100  1.0  0.0916
  H  H18  1  0.871100  0.889900  0.279600  1.0  0.0774
  H  H19  1  0.052100  0.822600  0.530400  1.0  0.087
  H  H20  1  0.749100  0.798300  0.608700  1.0  0.0863
  H  H21  1  0.544700  0.884400  0.036300  1.0  0.1149
  H  H22  1  0.235600  0.964400  0.811800  1.0  0.1127
  H  H23  1  0.168000  0.586700  0.693100  1.0  0.0918
  H  H24  1  0.871100  0.610100  0.779600  1.0  0.0775
  H  H25  1  0.052100  0.677400  0.030400  1.0  0.0871
  H  H26  1  0.749100  0.701700  0.108700  1.0  0.0856
  H  H27  1  0.544700  0.615600  0.536300  1.0  0.1144
  H  H28  1  0.235600  0.535600  0.311800  1.0  0.1125
  H  H29  1  0.832000  0.086700  0.806900  1.0  0.0927
  H  H30  1  0.128900  0.110100  0.720400  1.0  0.0765
  H  H31  1  0.947900  0.177400  0.469600  1.0  0.0873
  H  H32  1  0.250900  0.201700  0.391300  1.0  0.0864
  H  H33  1  0.455300  0.115600  0.963700  1.0  0.1139
  H  H34  1  0.764400  0.035600  0.188200  1.0  0.1128
  C  C35  1  0.889300  0.416500  0.267800  1.0  0.2649
  C  C36  1  0.050300  0.403900  0.220600  1.0  0.2516
  C  C37  1  0.020700  0.332500  0.953200  1.0  0.2425
  C  C38  1  0.185600  0.318900  0.910600  1.0  0.245
  C  C39  1  0.312200  0.363700  0.591500  1.0  0.6818
  C  C40  1  0.441100  0.395100  0.622000  1.0  -0.1364
  C  C41  1  0.497500  0.399400  0.537300  1.0  -0.0644
  C  C42  1  0.616600  0.426100  0.564600  1.0  0.0102
  C  C43  1  0.683300  0.447800  0.671800  1.0  -0.0452
  C  C44  1  0.625800  0.444200  0.756400  1.0  -0.1475
  C  C45  1  0.504000  0.419600  0.731400  1.0  -0.088
  C  C46  1  0.437200  0.421800  0.820000  1.0  0.6435
  C  C47  1  0.702300  0.470100  0.874500  1.0  0.6999
  C  C48  1  0.110700  0.916500  0.232200  1.0  0.266
  C  C49  1  0.949700  0.903900  0.279400  1.0  0.2515
  C  C50  1  0.979300  0.832500  0.546800  1.0  0.2406
  C  C51  1  0.814400  0.818900  0.589400  1.0  0.2444
  C  C52  1  0.687800  0.863700  0.908500  1.0  0.6826
  C  C53  1  0.558900  0.895100  0.878000  1.0  -0.137
  C  C54  1  0.502500  0.899400  0.962700  1.0  -0.0644
  C  C55  1  0.383400  0.926100  0.935400  1.0  0.0085
  C  C56  1  0.316700  0.947800  0.828200  1.0  -0.0443
  C  C57  1  0.374200  0.944200  0.743600  1.0  -0.146
  C  C58  1  0.496000  0.919600  0.768600  1.0  -0.0896
  C  C59  1  0.562800  0.921800  0.680000  1.0  0.6425
  C  C60  1  0.297700  0.970100  0.625500  1.0  0.7011
  C  C61  1  0.110700  0.583500  0.732200  1.0  0.2658
  C  C62  1  0.949700  0.596100  0.779400  1.0  0.2506
  C  C63  1  0.979300  0.667500  0.046800  1.0  0.2414
  C  C64  1  0.814400  0.681100  0.089400  1.0  0.2437
  C  C65  1  0.687800  0.636300  0.408500  1.0  0.6836
  C  C66  1  0.558900  0.604900  0.378000  1.0  -0.1376
  C  C67  1  0.502500  0.600600  0.462700  1.0  -0.0646
  C  C68  1  0.383400  0.573900  0.435400  1.0  0.0082
  C  C69  1  0.316700  0.552200  0.328200  1.0  -0.0448
  C  C70  1  0.374200  0.555800  0.243600  1.0  -0.146
  C  C71  1  0.496000  0.580400  0.268600  1.0  -0.0899
  C  C72  1  0.562800  0.578200  0.180000  1.0  0.6428
  C  C73  1  0.297700  0.529900  0.125500  1.0  0.7006
  C  C74  1  0.889300  0.083500  0.767800  1.0  0.2645
  C  C75  1  0.050300  0.096100  0.720600  1.0  0.2514
  C  C76  1  0.020700  0.167500  0.453200  1.0  0.2417
  C  C77  1  0.185600  0.181100  0.410600  1.0  0.2451
  C  C78  1  0.312200  0.136300  0.091500  1.0  0.6824
  C  C79  1  0.441100  0.104900  0.122000  1.0  -0.1371
  C  C80  1  0.497500  0.100600  0.037300  1.0  -0.0652
  C  C81  1  0.616600  0.073900  0.064600  1.0  0.0105
  C  C82  1  0.683300  0.052200  0.171800  1.0  -0.0453
  C  C83  1  0.625800  0.055800  0.256400  1.0  -0.1473
  C  C84  1  0.504000  0.080400  0.231400  1.0  -0.0884
  C  C85  1  0.437200  0.078200  0.320000  1.0  0.6431
  C  C86  1  0.702300  0.029900  0.374500  1.0  0.6994
  N  N87  1  0.870500  0.453790  0.173700  1.0  -0.2494
  N  N88  1  0.975300  0.445760  0.142600  1.0  -0.2195
  N  N89  1  0.000300  0.383530  0.301100  1.0  -0.436
  N  N90  1  0.065400  0.398280  0.952300  1.0  -0.2176
  N  N91  1  0.172600  0.389380  0.924800  1.0  -0.2248
  N  N92  1  0.092100  0.280580  0.927700  1.0  -0.4132
  N  N93  1  0.674000  0.430900  0.474600  1.0  0.6603
  N  N94  1  0.129500  0.953790  0.326300  1.0  -0.2491
  N  N95  1  0.024700  0.945760  0.357400  1.0  -0.2188
  N  N96  1  0.999700  0.883530  0.198900  1.0  -0.4351
  N  N97  1  0.934600  0.898280  0.547700  1.0  -0.217
  N  N98  1  0.827400  0.889380  0.575200  1.0  -0.2241
  N  N99  1  0.907900  0.780580  0.572300  1.0  -0.4135
  N  N100  1  0.326000  0.930900  0.025400  1.0  0.6598
  N  N101  1  0.129500  0.546210  0.826300  1.0  -0.2493
  N  N102  1  0.024700  0.554240  0.857400  1.0  -0.2187
  N  N103  1  0.999700  0.616470  0.698900  1.0  -0.4349
  N  N104  1  0.934600  0.601720  0.047700  1.0  -0.2179
  N  N105  1  0.827400  0.610620  0.075200  1.0  -0.2239
  N  N106  1  0.907900  0.719420  0.072300  1.0  -0.4129
  N  N107  1  0.326000  0.569100  0.525400  1.0  0.66
  N  N108  1  0.870500  0.046210  0.673700  1.0  -0.25
  N  N109  1  0.975300  0.054240  0.642600  1.0  -0.2194
  N  N110  1  0.000300  0.116470  0.801100  1.0  -0.4363
  N  N111  1  0.065400  0.101720  0.452300  1.0  -0.2179
  N  N112  1  0.172600  0.110620  0.424800  1.0  -0.2241
  N  N113  1  0.092100  0.219420  0.427700  1.0  -0.4123
  N  N114  1  0.674000  0.069100  0.974600  1.0  0.6614
  O  O115  1  0.368300  0.476840  0.810300  1.0  -0.5818
  O  O116  1  0.454000  0.373400  0.893100  1.0  -0.5373
  O  O117  1  0.641100  0.487030  0.939900  1.0  -0.5979
  O  O118  1  0.816400  0.472290  0.897200  1.0  -0.6295
  O  O119  1  0.775200  0.459600  0.497300  1.0  -0.3681
  O  O120  1  0.619700  0.407000  0.382500  1.0  -0.376
  O  O121  1  0.250400  0.364660  0.485600  1.0  -0.6144
  O  O122  1  0.273600  0.338300  0.664800  1.0  -0.5097
  O  O123  1  0.631700  0.976840  0.689700  1.0  -0.5809
  O  O124  1  0.546000  0.873400  0.606900  1.0  -0.5398
  O  O125  1  0.358900  0.987030  0.560100  1.0  -0.5985
  O  O126  1  0.183600  0.972290  0.602800  1.0  -0.6289
  O  O127  1  0.224800  0.959600  0.002700  1.0  -0.3704
  O  O128  1  0.380300  0.907000  0.117500  1.0  -0.3769
  O  O129  1  0.749600  0.864660  0.014400  1.0  -0.6154
  O  O130  1  0.726400  0.838300  0.835200  1.0  -0.5093
  O  O131  1  0.631700  0.523160  0.189700  1.0  -0.581
  O  O132  1  0.546000  0.626600  0.106900  1.0  -0.5377
  O  O133  1  0.358900  0.512970  0.060100  1.0  -0.5986
  O  O134  1  0.183600  0.527710  0.102800  1.0  -0.6285
  O  O135  1  0.224800  0.540400  0.502700  1.0  -0.3713
  O  O136  1  0.380300  0.593000  0.617500  1.0  -0.3762
  O  O137  1  0.749600  0.635340  0.514400  1.0  -0.6155
  O  O138  1  0.726400  0.661700  0.335200  1.0  -0.5088
  O  O139  1  0.368300  0.023160  0.310300  1.0  -0.5819
  O  O140  1  0.454000  0.126600  0.393100  1.0  -0.5373
  O  O141  1  0.641100  0.012970  0.439900  1.0  -0.5978
  O  O142  1  0.816400  0.027710  0.397200  1.0  -0.6291
  O  O143  1  0.775200  0.040400  0.997300  1.0  -0.3684
  O  O144  1  0.619700  0.093000  0.882500  1.0  -0.3774
  O  O145  1  0.250400  0.135340  0.985600  1.0  -0.6144
  O  O146  1  0.273600  0.161700  0.164800  1.0  -0.5109
