# generated using pymatgen
data_Ni7H104C132N22(ClO15)2
_symmetry_space_group_name_H-M   'P 1'
_cell_length_a   17.59100000
_cell_length_b   19.05800000
_cell_length_c   22.78100000
_cell_angle_alpha   90.00000000
_cell_angle_beta   90.00000000
_cell_angle_gamma   93.22500000
_symmetry_Int_Tables_number   1
_chemical_formula_structural   Ni7H104C132N22(ClO15)2
_chemical_formula_sum   'Ni14 H208 C264 N44 Cl4 O60'
_cell_volume   7625.21868304
_cell_formula_units_Z   2
loop_
 _symmetry_equiv_pos_site_id
 _symmetry_equiv_pos_as_xyz
  1  'x, y, z'
loop_
 _atom_site_type_symbol
 _atom_site_label
 _atom_site_symmetry_multiplicity
 _atom_site_fract_x
 _atom_site_fract_y
 _atom_site_fract_z
 _atom_site_occupancy
 _atom_site_charge
  Ni  Ni1  1  0.982160  0.175340  0.360960  1.0  0.7177
  Ni  Ni2  1  0.460640  0.450430  0.374810  1.0  1.0472
  Ni  Ni3  1  0.541180  0.619190  0.415270  1.0  1.0189
  Ni  Ni4  1  0.017840  0.324660  0.860960  1.0  0.7149
  Ni  Ni5  1  0.539360  0.049570  0.874810  1.0  1.0439
  Ni  Ni6  1  0.458820  0.880810  0.915270  1.0  1.0165
  Ni  Ni7  1  0.017840  0.824660  0.639040  1.0  0.7149
  Ni  Ni8  1  0.539360  0.549570  0.625190  1.0  1.0454
  Ni  Ni9  1  0.458820  0.380810  0.584730  1.0  1.0174
  Ni  Ni10  1  0.982160  0.675340  0.139040  1.0  0.7163
  Ni  Ni11  1  0.460640  0.950430  0.125190  1.0  1.0487
  Ni  Ni12  1  0.541180  0.119190  0.084730  1.0  1.0196
  Ni  Ni13  1  0.500000  0.500000  0.500000  1.0  0.9584
  Ni  Ni14  1  0.500000  0.000000  0.000000  1.0  0.9584
  H  H15  1  0.391600  0.012400  0.354400  1.0  0.1186
  H  H16  1  0.353900  0.109100  0.409000  1.0  0.1177
  H  H17  1  0.646000  0.907700  0.236300  1.0  0.1181
  H  H18  1  0.684700  0.222900  0.204400  1.0  0.1395
  H  H19  1  0.952800  0.256300  0.210800  1.0  0.1363
  H  H20  1  0.288600  0.397000  0.580100  1.0  0.1212
  H  H21  1  0.852300  0.019200  0.347100  1.0  0.1047
  H  H22  1  0.917800  0.992600  0.386800  1.0  0.0935
  H  H23  1  0.761300  0.876700  0.271100  1.0  0.119
  H  H24  1  0.223400  0.409700  0.411600  1.0  0.1205
  H  H25  1  0.925700  0.444900  0.515300  1.0  0.1419
  H  H26  1  0.043100  0.182100  0.517700  1.0  0.099
  H  H27  1  0.106400  0.224700  0.481800  1.0  0.0952
  H  H28  1  0.028300  0.040300  0.432500  1.0  0.0854
  H  H29  1  0.034100  0.070800  0.496700  1.0  0.091
  H  H30  1  0.099600  0.374200  0.439200  1.0  0.1079
  H  H31  1  0.882300  0.292900  0.131800  1.0  0.1049
  H  H32  1  0.321100  0.260100  0.383100  1.0  0.1347
  H  H33  1  0.280100  0.202300  0.422800  1.0  0.1059
  H  H34  1  0.783700  0.414700  0.377500  1.0  0.1021
  H  H35  1  0.121100  0.163600  0.240600  1.0  0.1283
  H  H36  1  0.752400  0.281000  0.130400  1.0  0.1126
  H  H37  1  0.916900  0.906600  0.227100  1.0  0.1242
  H  H38  1  0.894600  0.909300  0.293600  1.0  0.1131
  H  H39  1  0.829300  0.481000  0.456000  1.0  0.0979
  H  H40  1  0.628200  0.370000  0.379200  1.0  0.1178
  H  H41  1  0.167300  0.140700  0.439400  1.0  0.0934
  H  H42  1  0.131700  0.098300  0.385600  1.0  0.1055
  H  H43  1  0.586700  0.131600  0.412100  1.0  0.1307
  H  H44  1  0.014200  0.956400  0.155400  1.0  0.1343
  H  H45  1  0.686900  0.289800  0.321500  1.0  0.1046
  H  H46  1  0.036100  0.332400  0.263300  1.0  0.1352
  H  H47  1  0.114100  0.418000  0.221400  1.0  0.1056
  H  H48  1  0.523000  0.214000  0.467800  1.0  0.1218
  H  H49  1  0.297000  0.350100  0.303600  1.0  0.1403
  H  H50  1  0.164100  0.124000  0.151800  1.0  0.1139
  H  H51  1  0.112600  0.018600  0.110900  1.0  0.1112
  H  H52  1  0.332700  0.107400  0.213400  1.0  0.1115
  H  H53  1  0.288100  0.194300  0.268800  1.0  0.0847
  H  H54  1  0.241600  0.424800  0.238800  1.0  0.1073
  H  H55  1  0.918100  0.124800  0.483000  1.0  0.0954
  H  H56  1  0.905900  0.043100  0.474500  1.0  0.0913
  H  H57  1  0.786300  0.092200  0.399600  1.0  0.09
  H  H58  1  0.822700  0.162700  0.426200  1.0  0.1064
  H  H59  1  0.839300  0.310700  0.352600  1.0  0.1179
  H  H60  1  0.167300  0.359900  0.605800  1.0  0.1046
  H  H61  1  0.857100  0.059900  0.210800  1.0  0.1127
  H  H62  1  0.741600  0.089000  0.177200  1.0  0.1097
  H  H63  1  0.650300  0.142500  0.285700  1.0  0.1239
  H  H64  1  0.680500  0.105100  0.341700  1.0  0.109
  H  H65  1  0.019100  0.376500  0.567200  1.0  0.1225
  H  H66  1  0.046300  0.300000  0.574000  1.0  0.1189
  H  H67  1  0.608400  0.487600  0.854400  1.0  0.1191
  H  H68  1  0.646100  0.390900  0.909000  1.0  0.1189
  H  H69  1  0.354000  0.592300  0.736300  1.0  0.119
  H  H70  1  0.315300  0.277100  0.704400  1.0  0.1391
  H  H71  1  0.047200  0.243700  0.710800  1.0  0.1371
  H  H72  1  0.711400  0.103000  0.080100  1.0  0.1208
  H  H73  1  0.147700  0.480800  0.847100  1.0  0.1049
  H  H74  1  0.082200  0.507400  0.886800  1.0  0.0927
  H  H75  1  0.238700  0.623300  0.771100  1.0  0.1186
  H  H76  1  0.776600  0.090300  0.911600  1.0  0.1206
  H  H77  1  0.074300  0.055100  0.015300  1.0  0.1416
  H  H78  1  0.956900  0.317900  0.017700  1.0  0.0991
  H  H79  1  0.893600  0.275300  0.981800  1.0  0.0957
  H  H80  1  0.971700  0.459700  0.932500  1.0  0.0863
  H  H81  1  0.965900  0.429200  0.996700  1.0  0.0916
  H  H82  1  0.900400  0.125800  0.939200  1.0  0.1077
  H  H83  1  0.117700  0.207100  0.631800  1.0  0.1045
  H  H84  1  0.678900  0.239900  0.883100  1.0  0.1358
  H  H85  1  0.719900  0.297700  0.922800  1.0  0.1062
  H  H86  1  0.216300  0.085300  0.877500  1.0  0.1018
  H  H87  1  0.878900  0.336400  0.740600  1.0  0.1284
  H  H88  1  0.247600  0.219000  0.630400  1.0  0.1129
  H  H89  1  0.083100  0.593400  0.727100  1.0  0.1254
  H  H90  1  0.105400  0.590700  0.793600  1.0  0.1125
  H  H91  1  0.170700  0.019000  0.956000  1.0  0.0975
  H  H92  1  0.371800  0.130000  0.879200  1.0  0.1182
  H  H93  1  0.832700  0.359300  0.939400  1.0  0.0942
  H  H94  1  0.868300  0.401700  0.885600  1.0  0.107
  H  H95  1  0.413300  0.368400  0.912100  1.0  0.1299
  H  H96  1  0.985800  0.543600  0.655400  1.0  0.1342
  H  H97  1  0.313100  0.210200  0.821500  1.0  0.1048
  H  H98  1  0.963900  0.167600  0.763300  1.0  0.1343
  H  H99  1  0.885900  0.082000  0.721400  1.0  0.1047
  H  H100  1  0.477000  0.286000  0.967800  1.0  0.1227
  H  H101  1  0.703000  0.149900  0.803600  1.0  0.1402
  H  H102  1  0.835900  0.376000  0.651800  1.0  0.1136
  H  H103  1  0.887400  0.481400  0.610900  1.0  0.1111
  H  H104  1  0.667300  0.392600  0.713400  1.0  0.1113
  H  H105  1  0.711900  0.305700  0.768800  1.0  0.0842
  H  H106  1  0.758400  0.075200  0.738800  1.0  0.1073
  H  H107  1  0.081900  0.375200  0.983000  1.0  0.0951
  H  H108  1  0.094100  0.456900  0.974500  1.0  0.0901
  H  H109  1  0.213700  0.407800  0.899600  1.0  0.0879
  H  H110  1  0.177300  0.337300  0.926200  1.0  0.1063
  H  H111  1  0.160700  0.189300  0.852600  1.0  0.1186
  H  H112  1  0.832700  0.140100  0.105800  1.0  0.1049
  H  H113  1  0.142900  0.440100  0.710800  1.0  0.1122
  H  H114  1  0.258400  0.411000  0.677200  1.0  0.1094
  H  H115  1  0.349700  0.357500  0.785700  1.0  0.1237
  H  H116  1  0.319500  0.394900  0.841700  1.0  0.1085
  H  H117  1  0.980900  0.123500  0.067200  1.0  0.1238
  H  H118  1  0.953700  0.200000  0.074000  1.0  0.1175
  H  H119  1  0.608400  0.987600  0.645600  1.0  0.1188
  H  H120  1  0.646100  0.890900  0.591000  1.0  0.1191
  H  H121  1  0.354000  0.092300  0.763700  1.0  0.1188
  H  H122  1  0.315300  0.777100  0.795600  1.0  0.1389
  H  H123  1  0.047200  0.743700  0.789200  1.0  0.1371
  H  H124  1  0.711400  0.603000  0.419900  1.0  0.1212
  H  H125  1  0.147700  0.980800  0.652900  1.0  0.1049
  H  H126  1  0.082200  0.007400  0.613200  1.0  0.0931
  H  H127  1  0.238700  0.123300  0.728900  1.0  0.1194
  H  H128  1  0.776600  0.590300  0.588400  1.0  0.1199
  H  H129  1  0.074300  0.555100  0.484700  1.0  0.1415
  H  H130  1  0.956900  0.817900  0.482300  1.0  0.0997
  H  H131  1  0.893600  0.775300  0.518200  1.0  0.0955
  H  H132  1  0.971700  0.959700  0.567500  1.0  0.0857
  H  H133  1  0.965900  0.929200  0.503300  1.0  0.0921
  H  H134  1  0.900400  0.625800  0.560800  1.0  0.1079
  H  H135  1  0.117700  0.707100  0.868200  1.0  0.1042
  H  H136  1  0.678900  0.739900  0.616900  1.0  0.1358
  H  H137  1  0.719900  0.797700  0.577200  1.0  0.1057
  H  H138  1  0.216300  0.585300  0.622500  1.0  0.1017
  H  H139  1  0.878900  0.836400  0.759400  1.0  0.1287
  H  H140  1  0.247600  0.719000  0.869600  1.0  0.1121
  H  H141  1  0.083100  0.093400  0.772900  1.0  0.1241
  H  H142  1  0.105400  0.090700  0.706400  1.0  0.1134
  H  H143  1  0.170700  0.519000  0.544000  1.0  0.0973
  H  H144  1  0.371800  0.630000  0.620800  1.0  0.118
  H  H145  1  0.832700  0.859300  0.560600  1.0  0.0949
  H  H146  1  0.868300  0.901700  0.614400  1.0  0.1062
  H  H147  1  0.413300  0.868400  0.587900  1.0  0.1294
  H  H148  1  0.985800  0.043600  0.844600  1.0  0.1342
  H  H149  1  0.313100  0.710200  0.678500  1.0  0.1045
  H  H150  1  0.963900  0.667600  0.736700  1.0  0.1346
  H  H151  1  0.885900  0.582000  0.778600  1.0  0.1053
  H  H152  1  0.477000  0.786000  0.532200  1.0  0.1224
  H  H153  1  0.703000  0.649900  0.696400  1.0  0.14
  H  H154  1  0.835900  0.876000  0.848200  1.0  0.1142
  H  H155  1  0.887400  0.981400  0.889100  1.0  0.1115
  H  H156  1  0.667300  0.892600  0.786600  1.0  0.1115
  H  H157  1  0.711900  0.805700  0.731200  1.0  0.0846
  H  H158  1  0.758400  0.575200  0.761200  1.0  0.1076
  H  H159  1  0.081900  0.875200  0.517000  1.0  0.0946
  H  H160  1  0.094100  0.956900  0.525500  1.0  0.0908
  H  H161  1  0.213700  0.907800  0.600400  1.0  0.0888
  H  H162  1  0.177300  0.837300  0.573800  1.0  0.1055
  H  H163  1  0.160700  0.689300  0.647400  1.0  0.1187
  H  H164  1  0.832700  0.640100  0.394200  1.0  0.1053
  H  H165  1  0.142900  0.940100  0.789200  1.0  0.1127
  H  H166  1  0.258400  0.911000  0.822800  1.0  0.11
  H  H167  1  0.349700  0.857500  0.714300  1.0  0.1235
  H  H168  1  0.319500  0.894900  0.658300  1.0  0.1099
  H  H169  1  0.980900  0.623500  0.432800  1.0  0.123
  H  H170  1  0.953700  0.700000  0.426000  1.0  0.1187
  H  H171  1  0.391600  0.512400  0.145600  1.0  0.1182
  H  H172  1  0.353900  0.609100  0.091000  1.0  0.1199
  H  H173  1  0.646000  0.407700  0.263700  1.0  0.1173
  H  H174  1  0.684700  0.722900  0.295600  1.0  0.1392
  H  H175  1  0.952800  0.756300  0.289200  1.0  0.1361
  H  H176  1  0.288600  0.897000  0.919900  1.0  0.1203
  H  H177  1  0.852300  0.519200  0.152900  1.0  0.1041
  H  H178  1  0.917800  0.492600  0.113200  1.0  0.0928
  H  H179  1  0.761300  0.376700  0.228900  1.0  0.1186
  H  H180  1  0.223400  0.909700  0.088400  1.0  0.1202
  H  H181  1  0.925700  0.944900  0.984700  1.0  0.142
  H  H182  1  0.043100  0.682100  0.982300  1.0  0.0997
  H  H183  1  0.106400  0.724700  0.018200  1.0  0.0956
  H  H184  1  0.028300  0.540300  0.067500  1.0  0.0856
  H  H185  1  0.034100  0.570800  0.003300  1.0  0.0927
  H  H186  1  0.099600  0.874200  0.060800  1.0  0.1079
  H  H187  1  0.882300  0.792900  0.368200  1.0  0.1039
  H  H188  1  0.321100  0.760100  0.116900  1.0  0.1356
  H  H189  1  0.280100  0.702300  0.077200  1.0  0.1063
  H  H190  1  0.783700  0.914700  0.122500  1.0  0.1016
  H  H191  1  0.121100  0.663600  0.259400  1.0  0.1282
  H  H192  1  0.752400  0.781000  0.369600  1.0  0.1127
  H  H193  1  0.916900  0.406600  0.272900  1.0  0.1244
  H  H194  1  0.894600  0.409300  0.206400  1.0  0.1131
  H  H195  1  0.829300  0.981000  0.044000  1.0  0.0975
  H  H196  1  0.628200  0.870000  0.120800  1.0  0.1179
  H  H197  1  0.167300  0.640700  0.060600  1.0  0.0926
  H  H198  1  0.131700  0.598300  0.114400  1.0  0.1069
  H  H199  1  0.586700  0.631600  0.087900  1.0  0.13
  H  H200  1  0.014200  0.456400  0.344600  1.0  0.1345
  H  H201  1  0.686900  0.789800  0.178500  1.0  0.1043
  H  H202  1  0.036100  0.832400  0.236700  1.0  0.1352
  H  H203  1  0.114100  0.918000  0.278600  1.0  0.1053
  H  H204  1  0.523000  0.714000  0.032200  1.0  0.1212
  H  H205  1  0.297000  0.850100  0.196400  1.0  0.1401
  H  H206  1  0.164100  0.624000  0.348200  1.0  0.1137
  H  H207  1  0.112600  0.518600  0.389100  1.0  0.1109
  H  H208  1  0.332700  0.607400  0.286600  1.0  0.1111
  H  H209  1  0.288100  0.694300  0.231200  1.0  0.0832
  H  H210  1  0.241600  0.924800  0.261200  1.0  0.1068
  H  H211  1  0.918100  0.624800  0.017000  1.0  0.0965
  H  H212  1  0.905900  0.543100  0.025500  1.0  0.0911
  H  H213  1  0.786300  0.592200  0.100400  1.0  0.0881
  H  H214  1  0.822700  0.662700  0.073800  1.0  0.1056
  H  H215  1  0.839300  0.810700  0.147400  1.0  0.1182
  H  H216  1  0.167300  0.859900  0.894200  1.0  0.1053
  H  H217  1  0.857100  0.559900  0.289200  1.0  0.112
  H  H218  1  0.741600  0.589000  0.322800  1.0  0.1098
  H  H219  1  0.650300  0.642500  0.214300  1.0  0.1247
  H  H220  1  0.680500  0.605100  0.158300  1.0  0.1078
  H  H221  1  0.019100  0.876500  0.932800  1.0  0.1228
  H  H222  1  0.046300  0.800000  0.926000  1.0  0.1193
  C  C223  1  0.373200  0.050900  0.335100  1.0  -0.0947
  C  C224  1  0.347800  0.109400  0.368400  1.0  -0.109
  C  C225  1  0.780100  0.206400  0.253700  1.0  0.129
  C  C226  1  0.912100  0.314000  0.421700  1.0  0.1784
  C  C227  1  0.937000  0.352700  0.469700  1.0  0.155
  C  C228  1  0.643100  0.203000  0.360000  1.0  0.0492
  C  C229  1  0.120700  0.363400  0.526600  1.0  0.0868
  C  C230  1  0.822900  0.162800  0.335900  1.0  0.3819
  C  C231  1  0.000000  0.257400  0.465800  1.0  0.3941
  C  C232  1  0.688800  0.937800  0.230600  1.0  -0.0527
  C  C233  1  0.607900  0.018500  0.171600  1.0  0.7088
  C  C234  1  0.737400  0.229800  0.206000  1.0  -0.1578
  C  C235  1  0.900000  0.249400  0.210100  1.0  -0.1392
  C  C236  1  0.251300  0.391100  0.551300  1.0  -0.1057
  C  C237  1  0.197100  0.293900  0.321600  1.0  0.1117
  C  C238  1  0.903200  0.031000  0.361900  1.0  -0.0614
  C  C239  1  0.956200  0.038900  0.312500  1.0  0.3762
  C  C240  1  0.758100  0.918700  0.250900  1.0  -0.108
  C  C241  1  0.212100  0.399000  0.450600  1.0  -0.0403
  C  C242  1  0.011300  0.022000  0.227500  1.0  0.0993
  C  C243  1  0.316700  0.162500  0.344600  1.0  0.2361
  C  C244  1  0.142500  0.204100  0.370400  1.0  0.3571
  C  C245  1  0.907600  0.417800  0.483700  1.0  -0.1064
  C  C246  1  0.055300  0.202900  0.479700  1.0  -0.0775
  C  C247  1  0.015600  0.079300  0.457300  1.0  -0.0063
  C  C248  1  0.350900  0.424300  0.475300  1.0  0.7008
  C  C249  1  0.119000  0.287400  0.309600  1.0  0.1415
  C  C250  1  0.137900  0.378300  0.467300  1.0  -0.0736
  C  C251  1  0.857200  0.271500  0.163600  1.0  -0.0543
  C  C252  1  0.285500  0.219400  0.382800  1.0  -0.1115
  C  C253  1  0.823500  0.398900  0.399900  1.0  -0.0791
  C  C254  1  0.100600  0.122000  0.224300  1.0  -0.0954
  C  C255  1  0.778300  0.263200  0.162200  1.0  -0.0819
  C  C256  1  0.899500  0.937000  0.257900  1.0  -0.0321
  C  C257  1  0.850800  0.438600  0.448000  1.0  -0.0469
  C  C258  1  0.619500  0.322100  0.386100  1.0  -0.0636
  C  C259  1  0.535600  0.352200  0.469300  1.0  0.7171
  C  C260  1  0.129300  0.141100  0.408500  1.0  -0.0596
  C  C261  1  0.594700  0.179400  0.404700  1.0  -0.0845
  C  C262  1  0.370400  0.051800  0.277400  1.0  -0.0236
  C  C263  1  0.036400  0.996900  0.172500  1.0  -0.1273
  C  C264  1  0.654500  0.273700  0.351500  1.0  -0.0847
  C  C265  1  0.088000  0.335200  0.271500  1.0  -0.0752
  C  C266  1  0.134600  0.385700  0.246600  1.0  -0.0507
  C  C267  1  0.557600  0.229300  0.439000  1.0  -0.0418
  C  C268  1  0.245100  0.345900  0.295600  1.0  -0.1641
  C  C269  1  0.125600  0.098300  0.171600  1.0  -0.0851
  C  C270  1  0.093400  0.034300  0.146300  1.0  -0.0898
  C  C271  1  0.398200  0.993600  0.239800  1.0  0.7534
  C  C272  1  0.338000  0.105200  0.254000  1.0  -0.163
  C  C273  1  0.311600  0.158400  0.288100  1.0  -0.1196
  C  C274  1  0.211300  0.390200  0.257800  1.0  -0.0763
  C  C275  1  0.860000  0.216100  0.256100  1.0  0.1173
  C  C276  1  0.930600  0.085600  0.458300  1.0  -0.006
  C  C277  1  0.827000  0.128300  0.395200  1.0  -0.087
  C  C278  1  0.855400  0.336500  0.385400  1.0  -0.0911
  C  C279  1  0.269400  0.403500  0.493300  1.0  -0.1354
  C  C280  1  0.823300  0.961200  0.241600  1.0  0.1063
  C  C281  1  0.178100  0.370000  0.566700  1.0  -0.0884
  C  C282  1  0.815100  0.028400  0.214800  1.0  -0.1659
  C  C283  1  0.043500  0.082100  0.253000  1.0  0.1907
  C  C284  1  0.746000  0.045700  0.195400  1.0  -0.054
  C  C285  1  0.681600  0.001400  0.201600  1.0  -0.1591
  C  C286  1  0.571900  0.298900  0.430400  1.0  -0.1078
  C  C287  1  0.680500  0.149700  0.321100  1.0  -0.0914
  C  C288  1  0.042100  0.338600  0.546600  1.0  -0.089
  C  C289  1  0.626800  0.449100  0.835100  1.0  -0.0955
  C  C290  1  0.652200  0.390600  0.868400  1.0  -0.1092
  C  C291  1  0.219900  0.293600  0.753700  1.0  0.1282
  C  C292  1  0.087900  0.186000  0.921700  1.0  0.1777
  C  C293  1  0.063000  0.147300  0.969700  1.0  0.1552
  C  C294  1  0.356900  0.297000  0.860000  1.0  0.0484
  C  C295  1  0.879300  0.136600  0.026600  1.0  0.0867
  C  C296  1  0.177100  0.337200  0.835900  1.0  0.3814
  C  C297  1  0.000000  0.242600  0.965800  1.0  0.3941
  C  C298  1  0.311200  0.562200  0.730600  1.0  -0.0538
  C  C299  1  0.392100  0.481500  0.671600  1.0  0.7087
  C  C300  1  0.262600  0.270200  0.706000  1.0  -0.1579
  C  C301  1  0.100000  0.250600  0.710100  1.0  -0.1388
  C  C302  1  0.748700  0.108900  0.051300  1.0  -0.1049
  C  C303  1  0.802900  0.206100  0.821600  1.0  0.1105
  C  C304  1  0.096800  0.469000  0.861900  1.0  -0.0605
  C  C305  1  0.043800  0.461100  0.812500  1.0  0.3755
  C  C306  1  0.241900  0.581300  0.750900  1.0  -0.1119
  C  C307  1  0.787900  0.101000  0.950600  1.0  -0.0394
  C  C308  1  0.988700  0.478000  0.727500  1.0  0.0981
  C  C309  1  0.683300  0.337500  0.844600  1.0  0.2365
  C  C310  1  0.857500  0.295900  0.870400  1.0  0.3566
  C  C311  1  0.092400  0.082200  0.983700  1.0  -0.1071
  C  C312  1  0.944700  0.297100  0.979700  1.0  -0.0776
  C  C313  1  0.984400  0.420700  0.957300  1.0  -0.0065
  C  C314  1  0.649100  0.075700  0.975300  1.0  0.6999
  C  C315  1  0.881000  0.212600  0.809600  1.0  0.1419
  C  C316  1  0.862100  0.121700  0.967300  1.0  -0.0752
  C  C317  1  0.142800  0.228500  0.663600  1.0  -0.0521
  C  C318  1  0.714500  0.280600  0.882800  1.0  -0.1127
  C  C319  1  0.176500  0.101100  0.899900  1.0  -0.0799
  C  C320  1  0.899400  0.378000  0.724300  1.0  -0.0959
  C  C321  1  0.221700  0.236800  0.662200  1.0  -0.0801
  C  C322  1  0.100500  0.563000  0.757900  1.0  -0.0314
  C  C323  1  0.149200  0.061400  0.948000  1.0  -0.0458
  C  C324  1  0.380500  0.177900  0.886100  1.0  -0.0632
  C  C325  1  0.464400  0.147800  0.969300  1.0  0.7168
  C  C326  1  0.870700  0.358900  0.908500  1.0  -0.0614
  C  C327  1  0.405300  0.320600  0.904700  1.0  -0.0846
  C  C328  1  0.629600  0.448200  0.777400  1.0  -0.0241
  C  C329  1  0.963600  0.503100  0.672500  1.0  -0.1247
  C  C330  1  0.345500  0.226300  0.851500  1.0  -0.0832
  C  C331  1  0.912000  0.164800  0.771500  1.0  -0.0778
  C  C332  1  0.865400  0.114300  0.746600  1.0  -0.0523
  C  C333  1  0.442400  0.270700  0.939000  1.0  -0.0406
  C  C334  1  0.754900  0.154100  0.795600  1.0  -0.1648
  C  C335  1  0.874400  0.401700  0.671600  1.0  -0.0879
  C  C336  1  0.906600  0.465700  0.646300  1.0  -0.0907
  C  C337  1  0.601800  0.506400  0.739800  1.0  0.7532
  C  C338  1  0.662000  0.394800  0.754000  1.0  -0.1611
  C  C339  1  0.688400  0.341600  0.788100  1.0  -0.1222
  C  C340  1  0.788700  0.109800  0.757800  1.0  -0.077
  C  C341  1  0.140000  0.283900  0.756100  1.0  0.1179
  C  C342  1  0.069400  0.414400  0.958300  1.0  -0.0058
  C  C343  1  0.173000  0.371700  0.895200  1.0  -0.0879
  C  C344  1  0.144600  0.163500  0.885400  1.0  -0.0905
  C  C345  1  0.730600  0.096500  0.993300  1.0  -0.1373
  C  C346  1  0.176700  0.538800  0.741600  1.0  0.105
  C  C347  1  0.821900  0.130000  0.066700  1.0  -0.0873
  C  C348  1  0.184900  0.471600  0.714800  1.0  -0.1657
  C  C349  1  0.956500  0.417900  0.753000  1.0  0.1912
  C  C350  1  0.254000  0.454300  0.695400  1.0  -0.0546
  C  C351  1  0.318400  0.498600  0.701600  1.0  -0.1592
  C  C352  1  0.428100  0.201100  0.930400  1.0  -0.1074
  C  C353  1  0.319500  0.350300  0.821100  1.0  -0.0918
  C  C354  1  0.957900  0.161400  0.046600  1.0  -0.0881
  C  C355  1  0.626800  0.949100  0.664900  1.0  -0.0936
  C  C356  1  0.652200  0.890600  0.631600  1.0  -0.1112
  C  C357  1  0.219900  0.793600  0.746300  1.0  0.1273
  C  C358  1  0.087900  0.686000  0.578300  1.0  0.1764
  C  C359  1  0.063000  0.647300  0.530300  1.0  0.156
  C  C360  1  0.356900  0.797000  0.640000  1.0  0.0477
  C  C361  1  0.879300  0.636600  0.473400  1.0  0.0864
  C  C362  1  0.177100  0.837200  0.664100  1.0  0.3809
  C  C363  1  0.000000  0.742600  0.534200  1.0  0.3926
  C  C364  1  0.311200  0.062200  0.769400  1.0  -0.0547
  C  C365  1  0.392100  0.981500  0.828400  1.0  0.7085
  C  C366  1  0.262600  0.770200  0.794000  1.0  -0.1575
  C  C367  1  0.100000  0.750600  0.789900  1.0  -0.1388
  C  C368  1  0.748700  0.608900  0.448700  1.0  -0.1057
  C  C369  1  0.802900  0.706100  0.678400  1.0  0.1104
  C  C370  1  0.096800  0.969000  0.638100  1.0  -0.0608
  C  C371  1  0.043800  0.961100  0.687500  1.0  0.3756
  C  C372  1  0.241900  0.081300  0.749100  1.0  -0.1119
  C  C373  1  0.787900  0.601000  0.549400  1.0  -0.0405
  C  C374  1  0.988700  0.978000  0.772500  1.0  0.0975
  C  C375  1  0.683300  0.837500  0.655400  1.0  0.2359
  C  C376  1  0.857500  0.795900  0.629600  1.0  0.3564
  C  C377  1  0.092400  0.582200  0.516300  1.0  -0.1079
  C  C378  1  0.944700  0.797100  0.520300  1.0  -0.0755
  C  C379  1  0.984400  0.920700  0.542700  1.0  -0.0065
  C  C380  1  0.649100  0.575700  0.524700  1.0  0.7002
  C  C381  1  0.881000  0.712600  0.690400  1.0  0.1414
  C  C382  1  0.862100  0.621700  0.532700  1.0  -0.076
  C  C383  1  0.142800  0.728500  0.836400  1.0  -0.0517
  C  C384  1  0.714500  0.780600  0.617200  1.0  -0.1108
  C  C385  1  0.176500  0.601100  0.600100  1.0  -0.0796
  C  C386  1  0.899400  0.878000  0.775700  1.0  -0.0962
  C  C387  1  0.221700  0.736800  0.837800  1.0  -0.0784
  C  C388  1  0.100500  0.063000  0.742100  1.0  -0.0307
  C  C389  1  0.149200  0.561400  0.552000  1.0  -0.0452
  C  C390  1  0.380500  0.677900  0.613900  1.0  -0.0641
  C  C391  1  0.464400  0.647800  0.530700  1.0  0.7171
  C  C392  1  0.870700  0.858900  0.591500  1.0  -0.061
  C  C393  1  0.405300  0.820600  0.595300  1.0  -0.0846
  C  C394  1  0.629600  0.948200  0.722600  1.0  -0.0221
  C  C395  1  0.963600  0.003100  0.827500  1.0  -0.1242
  C  C396  1  0.345500  0.726300  0.648500  1.0  -0.0826
  C  C397  1  0.912000  0.664800  0.728500  1.0  -0.0771
  C  C398  1  0.865400  0.614300  0.753400  1.0  -0.0524
  C  C399  1  0.442400  0.770700  0.561000  1.0  -0.0435
  C  C400  1  0.754900  0.654100  0.704400  1.0  -0.1653
  C  C401  1  0.874400  0.901700  0.828400  1.0  -0.0874
  C  C402  1  0.906600  0.965700  0.853700  1.0  -0.0897
  C  C403  1  0.601800  0.006400  0.760200  1.0  0.7528
  C  C404  1  0.662000  0.894800  0.746000  1.0  -0.1617
  C  C405  1  0.688400  0.841600  0.711900  1.0  -0.1213
  C  C406  1  0.788700  0.609800  0.742200  1.0  -0.0778
  C  C407  1  0.140000  0.783900  0.743900  1.0  0.1181
  C  C408  1  0.069400  0.914400  0.541700  1.0  -0.0045
  C  C409  1  0.173000  0.871700  0.604800  1.0  -0.0856
  C  C410  1  0.144600  0.663500  0.614600  1.0  -0.0909
  C  C411  1  0.730600  0.596500  0.506700  1.0  -0.1367
  C  C412  1  0.176700  0.038800  0.758400  1.0  0.1052
  C  C413  1  0.821900  0.630000  0.433300  1.0  -0.087
  C  C414  1  0.184900  0.971600  0.785200  1.0  -0.1659
  C  C415  1  0.956500  0.917900  0.747000  1.0  0.1906
  C  C416  1  0.254000  0.954300  0.804600  1.0  -0.0551
  C  C417  1  0.318400  0.998600  0.798400  1.0  -0.1591
  C  C418  1  0.428100  0.701100  0.569600  1.0  -0.1079
  C  C419  1  0.319500  0.850300  0.678900  1.0  -0.0931
  C  C420  1  0.957900  0.661400  0.453400  1.0  -0.0876
  C  C421  1  0.373200  0.550900  0.164900  1.0  -0.0941
  C  C422  1  0.347800  0.609400  0.131600  1.0  -0.1111
  C  C423  1  0.780100  0.706400  0.246300  1.0  0.1281
  C  C424  1  0.912100  0.814000  0.078300  1.0  0.1763
  C  C425  1  0.937000  0.852700  0.030300  1.0  0.155
  C  C426  1  0.643100  0.703000  0.140000  1.0  0.049
  C  C427  1  0.120700  0.863400  0.973400  1.0  0.0865
  C  C428  1  0.822900  0.662800  0.164100  1.0  0.3815
  C  C429  1  0.000000  0.757400  0.034200  1.0  0.3924
  C  C430  1  0.688800  0.437800  0.269400  1.0  -0.0536
  C  C431  1  0.607900  0.518500  0.328400  1.0  0.7084
  C  C432  1  0.737400  0.729800  0.294000  1.0  -0.157
  C  C433  1  0.900000  0.749400  0.289900  1.0  -0.1392
  C  C434  1  0.251300  0.891100  0.948700  1.0  -0.1054
  C  C435  1  0.197100  0.793900  0.178400  1.0  0.1113
  C  C436  1  0.903200  0.531000  0.138100  1.0  -0.062
  C  C437  1  0.956200  0.538900  0.187500  1.0  0.3759
  C  C438  1  0.758100  0.418700  0.249100  1.0  -0.107
  C  C439  1  0.212100  0.899000  0.049400  1.0  -0.0395
  C  C440  1  0.011300  0.522000  0.272500  1.0  0.0977
  C  C441  1  0.316700  0.662500  0.155400  1.0  0.2356
  C  C442  1  0.142500  0.704100  0.129600  1.0  0.3563
  C  C443  1  0.907600  0.917800  0.016300  1.0  -0.1076
  C  C444  1  0.055300  0.702900  0.020300  1.0  -0.075
  C  C445  1  0.015600  0.579300  0.042700  1.0  -0.0065
  C  C446  1  0.350900  0.924300  0.024700  1.0  0.7008
  C  C447  1  0.119000  0.787400  0.190400  1.0  0.1414
  C  C448  1  0.137900  0.878300  0.032700  1.0  -0.074
  C  C449  1  0.857200  0.771500  0.336400  1.0  -0.0539
  C  C450  1  0.285500  0.719400  0.117200  1.0  -0.1105
  C  C451  1  0.823500  0.898900  0.100100  1.0  -0.0788
  C  C452  1  0.100600  0.622000  0.275700  1.0  -0.0955
  C  C453  1  0.778300  0.763200  0.337800  1.0  -0.0802
  C  C454  1  0.899500  0.437000  0.242100  1.0  -0.0318
  C  C455  1  0.850800  0.938600  0.052000  1.0  -0.0461
  C  C456  1  0.619500  0.822100  0.113900  1.0  -0.0646
  C  C457  1  0.535600  0.852200  0.030700  1.0  0.7173
  C  C458  1  0.129300  0.641100  0.091500  1.0  -0.0603
  C  C459  1  0.594700  0.679400  0.095300  1.0  -0.0842
  C  C460  1  0.370400  0.551800  0.222600  1.0  -0.0225
  C  C461  1  0.036400  0.496900  0.327500  1.0  -0.127
  C  C462  1  0.654500  0.773700  0.148500  1.0  -0.0849
  C  C463  1  0.088000  0.835200  0.228500  1.0  -0.0755
  C  C464  1  0.134600  0.885700  0.253400  1.0  -0.0506
  C  C465  1  0.557600  0.729300  0.061000  1.0  -0.0414
  C  C466  1  0.245100  0.845900  0.204400  1.0  -0.1654
  C  C467  1  0.125600  0.598300  0.328400  1.0  -0.0857
  C  C468  1  0.093400  0.534300  0.353700  1.0  -0.0891
  C  C469  1  0.398200  0.493600  0.260200  1.0  0.7533
  C  C470  1  0.338000  0.605200  0.246000  1.0  -0.1625
  C  C471  1  0.311600  0.658400  0.211900  1.0  -0.1183
  C  C472  1  0.211300  0.890200  0.242200  1.0  -0.0757
  C  C473  1  0.860000  0.716100  0.243900  1.0  0.1169
  C  C474  1  0.930600  0.585600  0.041700  1.0  -0.0041
  C  C475  1  0.827000  0.628300  0.104800  1.0  -0.0838
  C  C476  1  0.855400  0.836500  0.114600  1.0  -0.0911
  C  C477  1  0.269400  0.903500  0.006700  1.0  -0.1351
  C  C478  1  0.823300  0.461200  0.258400  1.0  0.1067
  C  C479  1  0.178100  0.870000  0.933300  1.0  -0.0881
  C  C480  1  0.815100  0.528400  0.285200  1.0  -0.1659
  C  C481  1  0.043500  0.582100  0.247000  1.0  0.1906
  C  C482  1  0.746000  0.545700  0.304600  1.0  -0.0542
  C  C483  1  0.681600  0.501400  0.298400  1.0  -0.1598
  C  C484  1  0.571900  0.798900  0.069600  1.0  -0.1069
  C  C485  1  0.680500  0.649700  0.178900  1.0  -0.0925
  C  C486  1  0.042100  0.838600  0.953400  1.0  -0.0868
  N  N487  1  0.992300  0.315200  0.497800  1.0  -0.0616
  N  N488  1  0.757700  0.171100  0.304900  1.0  -0.0671
  N  N489  1  0.884500  0.188600  0.309500  1.0  -0.4176
  N  N490  1  0.902400  0.096900  0.397600  1.0  -0.1366
  N  N491  1  0.956400  0.994500  0.267100  1.0  -0.0573
  N  N492  1  0.052300  0.146700  0.433800  1.0  -0.1405
  N  N493  1  0.953100  0.252500  0.419500  1.0  -0.4367
  N  N494  1  0.007300  0.092600  0.306300  1.0  -0.436
  N  N495  1  0.210700  0.240100  0.361200  1.0  -0.1108
  N  N496  1  0.086400  0.231300  0.340600  1.0  -0.424
  N  N497  1  0.007700  0.184800  0.997800  1.0  -0.0602
  N  N498  1  0.242300  0.328900  0.804900  1.0  -0.068
  N  N499  1  0.115500  0.311400  0.809500  1.0  -0.4167
  N  N500  1  0.097600  0.403100  0.897600  1.0  -0.1362
  N  N501  1  0.043600  0.505500  0.767100  1.0  -0.0579
  N  N502  1  0.947700  0.353300  0.933800  1.0  -0.1401
  N  N503  1  0.046900  0.247500  0.919500  1.0  -0.4371
  N  N504  1  0.992700  0.407400  0.806300  1.0  -0.4352
  N  N505  1  0.789300  0.259900  0.861200  1.0  -0.1117
  N  N506  1  0.913600  0.268700  0.840600  1.0  -0.4255
  N  N507  1  0.007700  0.684800  0.502200  1.0  -0.06
  N  N508  1  0.242300  0.828900  0.695100  1.0  -0.0679
  N  N509  1  0.115500  0.811400  0.690500  1.0  -0.4166
  N  N510  1  0.097600  0.903100  0.602400  1.0  -0.1377
  N  N511  1  0.043600  0.005500  0.732900  1.0  -0.0576
  N  N512  1  0.947700  0.853300  0.566200  1.0  -0.1394
  N  N513  1  0.046900  0.747500  0.580500  1.0  -0.4366
  N  N514  1  0.992700  0.907400  0.693700  1.0  -0.4343
  N  N515  1  0.789300  0.759900  0.638800  1.0  -0.1117
  N  N516  1  0.913600  0.768700  0.659400  1.0  -0.4243
  N  N517  1  0.992300  0.815200  0.002200  1.0  -0.0618
  N  N518  1  0.757700  0.671100  0.195100  1.0  -0.0673
  N  N519  1  0.884500  0.688600  0.190500  1.0  -0.418
  N  N520  1  0.902400  0.596900  0.102400  1.0  -0.1372
  N  N521  1  0.956400  0.494500  0.232900  1.0  -0.0572
  N  N522  1  0.052300  0.646700  0.066200  1.0  -0.1402
  N  N523  1  0.953100  0.752500  0.080500  1.0  -0.4363
  N  N524  1  0.007300  0.592600  0.193700  1.0  -0.4352
  N  N525  1  0.210700  0.740100  0.138800  1.0  -0.1109
  N  N526  1  0.086400  0.731300  0.159400  1.0  -0.4241
  N  N527  1  0.957800  0.617200  0.890700  1.0  -0.2701
  N  N528  1  0.042200  0.882800  0.390700  1.0  -0.2708
  N  N529  1  0.042200  0.382800  0.109300  1.0  -0.2706
  N  N530  1  0.957800  0.117200  0.609300  1.0  -0.2696
  Cl  Cl531  1  0.780600  0.913180  0.455790  1.0  -0.4654
  Cl  Cl532  1  0.219400  0.586820  0.955790  1.0  -0.4633
  Cl  Cl533  1  0.219400  0.086820  0.544210  1.0  -0.4635
  Cl  Cl534  1  0.780600  0.413180  0.044210  1.0  -0.4651
  O  O535  1  0.529800  0.414000  0.450000  1.0  -0.6333
  O  O536  1  0.469100  0.538900  0.422330  1.0  -0.8472
  O  O537  1  0.448400  0.355600  0.327500  1.0  -0.2556
  O  O538  1  0.512700  0.330200  0.518800  1.0  -0.5911
  O  O539  1  0.400000  0.001700  0.186500  1.0  -0.5605
  O  O540  1  0.609300  0.710500  0.407000  1.0  -0.3066
  O  O541  1  0.470300  0.661700  0.353500  1.0  -0.2695
  O  O542  1  0.365500  0.420000  0.421400  1.0  -0.5756
  O  O543  1  0.397400  0.442500  0.515400  1.0  -0.6118
  O  O544  1  0.556400  0.969400  0.170400  1.0  -0.5989
  O  O545  1  0.604400  0.078800  0.149700  1.0  -0.5885
  O  O546  1  0.414100  0.937200  0.264100  1.0  -0.5102
  O  O547  1  0.470200  0.086000  0.950000  1.0  -0.6333
  O  O548  1  0.530900  0.961100  0.922330  1.0  -0.8486
  O  O549  1  0.551600  0.144400  0.827500  1.0  -0.2567
  O  O550  1  0.487300  0.169800  0.018800  1.0  -0.5911
  O  O551  1  0.600000  0.498300  0.686500  1.0  -0.5606
  O  O552  1  0.390700  0.789500  0.907000  1.0  -0.306
  O  O553  1  0.529700  0.838300  0.853500  1.0  -0.2671
  O  O554  1  0.634500  0.080000  0.921400  1.0  -0.5753
  O  O555  1  0.602600  0.057500  0.015400  1.0  -0.6112
  O  O556  1  0.443600  0.530600  0.670400  1.0  -0.5987
  O  O557  1  0.395600  0.421200  0.649700  1.0  -0.5889
  O  O558  1  0.585900  0.562800  0.764100  1.0  -0.5105
  O  O559  1  0.470200  0.586000  0.550000  1.0  -0.6334
  O  O560  1  0.530900  0.461100  0.577670  1.0  -0.8494
  O  O561  1  0.551600  0.644400  0.672500  1.0  -0.256
  O  O562  1  0.487300  0.669800  0.481200  1.0  -0.5906
  O  O563  1  0.600000  0.998300  0.813500  1.0  -0.56
  O  O564  1  0.390700  0.289500  0.593000  1.0  -0.306
  O  O565  1  0.529700  0.338300  0.646500  1.0  -0.2674
  O  O566  1  0.634500  0.580000  0.578600  1.0  -0.5755
  O  O567  1  0.602600  0.557500  0.484600  1.0  -0.6123
  O  O568  1  0.443600  0.030600  0.829600  1.0  -0.5986
  O  O569  1  0.395600  0.921200  0.850300  1.0  -0.5887
  O  O570  1  0.585900  0.062800  0.735900  1.0  -0.5107
  O  O571  1  0.529800  0.914000  0.050000  1.0  -0.6335
  O  O572  1  0.469100  0.038900  0.077670  1.0  -0.8475
  O  O573  1  0.448400  0.855600  0.172500  1.0  -0.2554
  O  O574  1  0.512700  0.830200  0.981200  1.0  -0.5896
  O  O575  1  0.400000  0.501700  0.313500  1.0  -0.5606
  O  O576  1  0.609300  0.210500  0.093000  1.0  -0.3069
  O  O577  1  0.470300  0.161700  0.146500  1.0  -0.2694
  O  O578  1  0.365500  0.920000  0.078600  1.0  -0.576
  O  O579  1  0.397400  0.942500  0.984600  1.0  -0.6125
  O  O580  1  0.556400  0.469400  0.329600  1.0  -0.5998
  O  O581  1  0.604400  0.578800  0.350300  1.0  -0.5887
  O  O582  1  0.414100  0.437200  0.235900  1.0  -0.5117
  O  O583  1  0.904300  0.575100  0.895800  1.0  -0.5658
  O  O584  1  0.925400  0.670200  0.904900  1.0  -0.5944
  O  O585  1  0.011300  0.615000  0.883000  1.0  -0.5474
  O  O586  1  0.095700  0.924900  0.395800  1.0  -0.5635
  O  O587  1  0.074600  0.829800  0.404900  1.0  -0.596
  O  O588  1  0.988700  0.885000  0.383000  1.0  -0.5464
  O  O589  1  0.095700  0.424900  0.104200  1.0  -0.5632
  O  O590  1  0.074600  0.329800  0.095100  1.0  -0.5966
  O  O591  1  0.988700  0.385000  0.117000  1.0  -0.5449
  O  O592  1  0.904300  0.075100  0.604200  1.0  -0.5658
  O  O593  1  0.925400  0.170200  0.595100  1.0  -0.5952
  O  O594  1  0.011300  0.115000  0.617000  1.0  -0.546
