# generated using pymatgen
data_Ni7H104C132(N10O9)2
_symmetry_space_group_name_H-M   'P 1'
_cell_length_a   17.59100000
_cell_length_b   22.78100000
_cell_length_c   19.05800000
_cell_angle_alpha   90.00000000
_cell_angle_beta   93.22500000
_cell_angle_gamma   90.00000000
_symmetry_Int_Tables_number   1
_chemical_formula_structural   Ni7H104C132(N10O9)2
_chemical_formula_sum   'Ni14 H208 C264 N40 O36'
_cell_volume   7625.21868304
_cell_formula_units_Z   2
loop_
 _symmetry_equiv_pos_site_id
 _symmetry_equiv_pos_as_xyz
  1  'x, y, z'
loop_
 _atom_site_type_symbol
 _atom_site_label
 _atom_site_symmetry_multiplicity
 _atom_site_fract_x
 _atom_site_fract_y
 _atom_site_fract_z
 _atom_site_occupancy
 _atom_site_charge
  Ni  Ni1  1  0.982250  0.360900  0.175330  1.0  0.6592
  Ni  Ni2  1  0.460630  0.374710  0.450410  1.0  0.9509
  Ni  Ni3  1  0.541150  0.415200  0.619210  1.0  0.7428
  Ni  Ni4  1  0.017750  0.860900  0.324670  1.0  0.6585
  Ni  Ni5  1  0.539370  0.874710  0.049590  1.0  0.9478
  Ni  Ni6  1  0.458850  0.915200  0.880790  1.0  0.7453
  Ni  Ni7  1  0.017750  0.639100  0.824670  1.0  0.6614
  Ni  Ni8  1  0.539370  0.625290  0.549590  1.0  0.9474
  Ni  Ni9  1  0.458850  0.584800  0.380790  1.0  0.7452
  Ni  Ni10  1  0.982250  0.139100  0.675330  1.0  0.6605
  Ni  Ni11  1  0.460630  0.125290  0.950410  1.0  0.9508
  Ni  Ni12  1  0.541150  0.084800  0.119210  1.0  0.7435
  Ni  Ni13  1  0.500000  0.500000  0.500000  1.0  0.9271
  Ni  Ni14  1  0.500000  0.000000  0.000000  1.0  0.9271
  H  H15  1  0.393200  0.354700  0.014000  1.0  0.0935
  H  H16  1  0.348400  0.408500  0.108900  1.0  0.08
  H  H17  1  0.645800  0.236500  0.908300  1.0  0.0988
  H  H18  1  0.685300  0.204700  0.223300  1.0  0.1275
  H  H19  1  0.952600  0.209700  0.255000  1.0  0.1142
  H  H20  1  0.288500  0.580000  0.397200  1.0  0.0845
  H  H21  1  0.852100  0.347400  0.019800  1.0  0.0776
  H  H22  1  0.917400  0.386800  0.992600  1.0  0.0822
  H  H23  1  0.761300  0.270800  0.877500  1.0  0.0895
  H  H24  1  0.223500  0.411700  0.408700  1.0  0.0976
  H  H25  1  0.925600  0.515000  0.445400  1.0  0.1218
  H  H26  1  0.104800  0.482300  0.224600  1.0  0.0783
  H  H27  1  0.041000  0.517300  0.181600  1.0  0.0854
  H  H28  1  0.028100  0.431800  0.040400  1.0  0.0666
  H  H29  1  0.034100  0.496100  0.070000  1.0  0.0661
  H  H30  1  0.100100  0.439100  0.374100  1.0  0.0839
  H  H31  1  0.881900  0.131800  0.293400  1.0  0.0962
  H  H32  1  0.320200  0.382600  0.261300  1.0  0.1104
  H  H33  1  0.279800  0.422700  0.203600  1.0  0.088
  H  H34  1  0.783700  0.377600  0.415100  1.0  0.0775
  H  H35  1  0.120800  0.238600  0.163800  1.0  0.1026
  H  H36  1  0.753300  0.129800  0.279500  1.0  0.1022
  H  H37  1  0.917100  0.227200  0.906400  1.0  0.1007
  H  H38  1  0.894400  0.293700  0.909500  1.0  0.0917
  H  H39  1  0.827800  0.457600  0.480000  1.0  0.0646
  H  H40  1  0.628400  0.379300  0.369900  1.0  0.0952
  H  H41  1  0.167200  0.438800  0.139500  1.0  0.0739
  H  H42  1  0.130500  0.385100  0.097900  1.0  0.0809
  H  H43  1  0.583300  0.410100  0.132200  1.0  0.1042
  H  H44  1  0.013200  0.155800  0.956300  1.0  0.1037
  H  H45  1  0.685500  0.320000  0.289500  1.0  0.085
  H  H46  1  0.035500  0.263100  0.332500  1.0  0.1134
  H  H47  1  0.113900  0.219900  0.416700  1.0  0.0945
  H  H48  1  0.527800  0.471100  0.214100  1.0  0.0981
  H  H49  1  0.297600  0.303700  0.349100  1.0  0.122
  H  H50  1  0.165400  0.152200  0.121600  1.0  0.096
  H  H51  1  0.112200  0.111600  0.019700  1.0  0.081
  H  H52  1  0.329700  0.214500  0.105100  1.0  0.0759
  H  H53  1  0.291700  0.268300  0.197400  1.0  0.0701
  H  H54  1  0.242600  0.239700  0.425200  1.0  0.0857
  H  H55  1  0.917500  0.483300  0.123900  1.0  0.0643
  H  H56  1  0.905700  0.474300  0.042200  1.0  0.0756
  H  H57  1  0.786000  0.399500  0.091500  1.0  0.0701
  H  H58  1  0.821900  0.426300  0.162100  1.0  0.0837
  H  H59  1  0.838500  0.353100  0.310400  1.0  0.0938
  H  H60  1  0.167500  0.606200  0.359500  1.0  0.0834
  H  H61  1  0.856600  0.210800  0.057900  1.0  0.0858
  H  H62  1  0.741700  0.177900  0.089300  1.0  0.0959
  H  H63  1  0.649900  0.285600  0.142700  1.0  0.1133
  H  H64  1  0.679700  0.341500  0.105100  1.0  0.0975
  H  H65  1  0.018800  0.566900  0.377000  1.0  0.1059
  H  H66  1  0.045500  0.574100  0.300400  1.0  0.096
  H  H67  1  0.606800  0.854700  0.486000  1.0  0.0936
  H  H68  1  0.651600  0.908500  0.391100  1.0  0.0796
  H  H69  1  0.354200  0.736500  0.591700  1.0  0.0989
  H  H70  1  0.314700  0.704700  0.276700  1.0  0.1289
  H  H71  1  0.047400  0.709700  0.245000  1.0  0.1147
  H  H72  1  0.711500  0.080000  0.102800  1.0  0.0853
  H  H73  1  0.147900  0.847400  0.480200  1.0  0.0777
  H  H74  1  0.082600  0.886800  0.507400  1.0  0.0811
  H  H75  1  0.238700  0.770800  0.622500  1.0  0.0885
  H  H76  1  0.776500  0.911700  0.091300  1.0  0.0973
  H  H77  1  0.074400  0.015000  0.054600  1.0  0.1216
  H  H78  1  0.895200  0.982300  0.275400  1.0  0.0779
  H  H79  1  0.959000  0.017300  0.318400  1.0  0.0851
  H  H80  1  0.971900  0.931800  0.459600  1.0  0.0681
  H  H81  1  0.965900  0.996100  0.430000  1.0  0.0658
  H  H82  1  0.899900  0.939100  0.125900  1.0  0.084
  H  H83  1  0.118100  0.631800  0.206600  1.0  0.096
  H  H84  1  0.679800  0.882600  0.238700  1.0  0.1106
  H  H85  1  0.720200  0.922700  0.296400  1.0  0.0878
  H  H86  1  0.216300  0.877600  0.084900  1.0  0.0775
  H  H87  1  0.879200  0.738600  0.336200  1.0  0.1032
  H  H88  1  0.246700  0.629800  0.220500  1.0  0.1021
  H  H89  1  0.082900  0.727200  0.593600  1.0  0.1017
  H  H90  1  0.105600  0.793700  0.590500  1.0  0.0903
  H  H91  1  0.172200  0.957600  0.020000  1.0  0.0641
  H  H92  1  0.371600  0.879300  0.130100  1.0  0.0952
  H  H93  1  0.832800  0.938800  0.360500  1.0  0.0734
  H  H94  1  0.869500  0.885100  0.402100  1.0  0.0824
  H  H95  1  0.416700  0.910100  0.367800  1.0  0.1045
  H  H96  1  0.986800  0.655800  0.543700  1.0  0.1035
  H  H97  1  0.314500  0.820000  0.210500  1.0  0.085
  H  H98  1  0.964500  0.763100  0.167500  1.0  0.1136
  H  H99  1  0.886100  0.719900  0.083300  1.0  0.0942
  H  H100  1  0.472200  0.971100  0.285900  1.0  0.0982
  H  H101  1  0.702400  0.803700  0.150900  1.0  0.1196
  H  H102  1  0.834600  0.652200  0.378400  1.0  0.0952
  H  H103  1  0.887800  0.611600  0.480300  1.0  0.0814
  H  H104  1  0.670300  0.714500  0.394900  1.0  0.075
  H  H105  1  0.708300  0.768300  0.302600  1.0  0.0694
  H  H106  1  0.757400  0.739700  0.074800  1.0  0.0856
  H  H107  1  0.082500  0.983300  0.376100  1.0  0.0647
  H  H108  1  0.094300  0.974300  0.457800  1.0  0.0755
  H  H109  1  0.214000  0.899500  0.408500  1.0  0.0707
  H  H110  1  0.178100  0.926300  0.337900  1.0  0.0836
  H  H111  1  0.161500  0.853100  0.189600  1.0  0.0944
  H  H112  1  0.832500  0.106200  0.140500  1.0  0.0829
  H  H113  1  0.143400  0.710800  0.442100  1.0  0.0836
  H  H114  1  0.258300  0.677900  0.410700  1.0  0.0954
  H  H115  1  0.350100  0.785600  0.357300  1.0  0.1132
  H  H116  1  0.320300  0.841500  0.394900  1.0  0.0964
  H  H117  1  0.981200  0.066900  0.123000  1.0  0.1058
  H  H118  1  0.954500  0.074100  0.199600  1.0  0.0943
  H  H119  1  0.606800  0.645300  0.986000  1.0  0.0936
  H  H120  1  0.651600  0.591500  0.891100  1.0  0.082
  H  H121  1  0.354200  0.763500  0.091700  1.0  0.0989
  H  H122  1  0.314700  0.795300  0.776700  1.0  0.1288
  H  H123  1  0.047400  0.790300  0.745000  1.0  0.1152
  H  H124  1  0.711500  0.420000  0.602800  1.0  0.0854
  H  H125  1  0.147900  0.652600  0.980200  1.0  0.0784
  H  H126  1  0.082600  0.613200  0.007400  1.0  0.0824
  H  H127  1  0.238700  0.729200  0.122500  1.0  0.0882
  H  H128  1  0.776500  0.588300  0.591300  1.0  0.0976
  H  H129  1  0.074400  0.485000  0.554600  1.0  0.1211
  H  H130  1  0.895200  0.517700  0.775400  1.0  0.0774
  H  H131  1  0.959000  0.482700  0.818400  1.0  0.0853
  H  H132  1  0.971900  0.568200  0.959600  1.0  0.067
  H  H133  1  0.965900  0.503900  0.930000  1.0  0.0679
  H  H134  1  0.899900  0.560900  0.625900  1.0  0.0839
  H  H135  1  0.118100  0.868200  0.706600  1.0  0.0965
  H  H136  1  0.679800  0.617400  0.738700  1.0  0.1105
  H  H137  1  0.720200  0.577300  0.796400  1.0  0.0863
  H  H138  1  0.216300  0.622400  0.584900  1.0  0.0774
  H  H139  1  0.879200  0.761400  0.836200  1.0  0.102
  H  H140  1  0.246700  0.870200  0.720500  1.0  0.102
  H  H141  1  0.082900  0.772800  0.093600  1.0  0.1011
  H  H142  1  0.105600  0.706300  0.090500  1.0  0.0912
  H  H143  1  0.172200  0.542400  0.520000  1.0  0.0642
  H  H144  1  0.371600  0.620700  0.630100  1.0  0.0949
  H  H145  1  0.832800  0.561200  0.860500  1.0  0.0739
  H  H146  1  0.869500  0.614900  0.902100  1.0  0.0816
  H  H147  1  0.416700  0.589900  0.867800  1.0  0.1049
  H  H148  1  0.986800  0.844200  0.043700  1.0  0.1032
  H  H149  1  0.314500  0.680000  0.710500  1.0  0.0847
  H  H150  1  0.964500  0.736900  0.667500  1.0  0.1134
  H  H151  1  0.886100  0.780100  0.583300  1.0  0.0947
  H  H152  1  0.472200  0.528900  0.785900  1.0  0.098
  H  H153  1  0.702400  0.696300  0.650900  1.0  0.1194
  H  H154  1  0.834600  0.847800  0.878400  1.0  0.0949
  H  H155  1  0.887800  0.888400  0.980300  1.0  0.0815
  H  H156  1  0.670300  0.785500  0.894900  1.0  0.0739
  H  H157  1  0.708300  0.731700  0.802600  1.0  0.0696
  H  H158  1  0.757400  0.760300  0.574800  1.0  0.0858
  H  H159  1  0.082500  0.516700  0.876100  1.0  0.0649
  H  H160  1  0.094300  0.525700  0.957800  1.0  0.0759
  H  H161  1  0.214000  0.600500  0.908500  1.0  0.0709
  H  H162  1  0.178100  0.573700  0.837900  1.0  0.0831
  H  H163  1  0.161500  0.646900  0.689600  1.0  0.0944
  H  H164  1  0.832500  0.393800  0.640500  1.0  0.0833
  H  H165  1  0.143400  0.789200  0.942100  1.0  0.0858
  H  H166  1  0.258300  0.822100  0.910700  1.0  0.0955
  H  H167  1  0.350100  0.714400  0.857300  1.0  0.1122
  H  H168  1  0.320300  0.658500  0.894900  1.0  0.0964
  H  H169  1  0.981200  0.433100  0.623000  1.0  0.1061
  H  H170  1  0.954500  0.425900  0.699600  1.0  0.0943
  H  H171  1  0.393200  0.145300  0.514000  1.0  0.0932
  H  H172  1  0.348400  0.091500  0.608900  1.0  0.0824
  H  H173  1  0.645800  0.263500  0.408300  1.0  0.0986
  H  H174  1  0.685300  0.295300  0.723300  1.0  0.127
  H  H175  1  0.952600  0.290300  0.755000  1.0  0.1145
  H  H176  1  0.288500  0.920000  0.897200  1.0  0.0854
  H  H177  1  0.852100  0.152600  0.519800  1.0  0.0772
  H  H178  1  0.917400  0.113200  0.492600  1.0  0.0819
  H  H179  1  0.761300  0.229200  0.377500  1.0  0.0889
  H  H180  1  0.223500  0.088300  0.908700  1.0  0.0978
  H  H181  1  0.925600  0.985000  0.945400  1.0  0.1219
  H  H182  1  0.104800  0.017700  0.724600  1.0  0.0781
  H  H183  1  0.041000  0.982700  0.681600  1.0  0.0847
  H  H184  1  0.028100  0.068200  0.540400  1.0  0.0665
  H  H185  1  0.034100  0.003900  0.570000  1.0  0.0678
  H  H186  1  0.100100  0.060900  0.874100  1.0  0.0838
  H  H187  1  0.881900  0.368200  0.793400  1.0  0.096
  H  H188  1  0.320200  0.117400  0.761300  1.0  0.1109
  H  H189  1  0.279800  0.077300  0.703600  1.0  0.0881
  H  H190  1  0.783700  0.122400  0.915100  1.0  0.0778
  H  H191  1  0.120800  0.261400  0.663800  1.0  0.1015
  H  H192  1  0.753300  0.370200  0.779500  1.0  0.1025
  H  H193  1  0.917100  0.272800  0.406400  1.0  0.1008
  H  H194  1  0.894400  0.206300  0.409500  1.0  0.0908
  H  H195  1  0.827800  0.042400  0.980000  1.0  0.0648
  H  H196  1  0.628400  0.120700  0.869900  1.0  0.0954
  H  H197  1  0.167200  0.061200  0.639500  1.0  0.0733
  H  H198  1  0.130500  0.114900  0.597900  1.0  0.0807
  H  H199  1  0.583300  0.089900  0.632200  1.0  0.1046
  H  H200  1  0.013200  0.344200  0.456300  1.0  0.104
  H  H201  1  0.685500  0.180000  0.789500  1.0  0.0843
  H  H202  1  0.035500  0.236900  0.832500  1.0  0.1139
  H  H203  1  0.113900  0.280100  0.916700  1.0  0.0946
  H  H204  1  0.527800  0.028900  0.714100  1.0  0.0973
  H  H205  1  0.297600  0.196300  0.849100  1.0  0.1218
  H  H206  1  0.165400  0.347800  0.621600  1.0  0.0962
  H  H207  1  0.112200  0.388400  0.519700  1.0  0.0809
  H  H208  1  0.329700  0.285500  0.605100  1.0  0.0733
  H  H209  1  0.291700  0.231700  0.697400  1.0  0.0705
  H  H210  1  0.242600  0.260300  0.925200  1.0  0.0859
  H  H211  1  0.917500  0.016700  0.623900  1.0  0.0669
  H  H212  1  0.905700  0.025700  0.542200  1.0  0.0765
  H  H213  1  0.786000  0.100500  0.591500  1.0  0.0699
  H  H214  1  0.821900  0.073700  0.662100  1.0  0.0846
  H  H215  1  0.838500  0.146900  0.810400  1.0  0.0934
  H  H216  1  0.167500  0.893800  0.859500  1.0  0.0833
  H  H217  1  0.856600  0.289200  0.557900  1.0  0.0833
  H  H218  1  0.741700  0.322100  0.589300  1.0  0.0951
  H  H219  1  0.649900  0.214400  0.642700  1.0  0.1136
  H  H220  1  0.679700  0.158500  0.605100  1.0  0.0968
  H  H221  1  0.018800  0.933100  0.877000  1.0  0.1065
  H  H222  1  0.045500  0.925900  0.800400  1.0  0.0954
  C  C223  1  0.373700  0.334900  0.051700  1.0  -0.1131
  C  C224  1  0.345300  0.367800  0.110400  1.0  -0.1498
  C  C225  1  0.780300  0.253930  0.206400  1.0  0.1205
  C  C226  1  0.912400  0.421870  0.313500  1.0  0.1335
  C  C227  1  0.937200  0.470120  0.351800  1.0  0.1337
  C  C228  1  0.643000  0.359900  0.203300  1.0  0.053
  C  C229  1  0.120600  0.526190  0.363100  1.0  0.0786
  C  C230  1  0.822500  0.335560  0.162700  1.0  0.3541
  C  C231  1  0.999300  0.465530  0.256500  1.0  0.3497
  C  C232  1  0.688700  0.230600  0.938400  1.0  -0.0988
  C  C233  1  0.608000  0.171460  0.019700  1.0  0.6801
  C  C234  1  0.738100  0.206200  0.229700  1.0  -0.1855
  C  C235  1  0.899800  0.209500  0.248900  1.0  -0.158
  C  C236  1  0.251200  0.551240  0.391000  1.0  -0.0975
  C  C237  1  0.197200  0.321700  0.293700  1.0  0.0871
  C  C238  1  0.903000  0.362100  0.031200  1.0  -0.0999
  C  C239  1  0.956800  0.312010  0.039300  1.0  0.3663
  C  C240  1  0.758000  0.250500  0.919600  1.0  -0.1308
  C  C241  1  0.212200  0.450700  0.398400  1.0  -0.0729
  C  C242  1  0.011900  0.227400  0.021800  1.0  0.1029
  C  C243  1  0.316800  0.344700  0.163200  1.0  0.218
  C  C244  1  0.142900  0.370200  0.203800  1.0  0.3381
  C  C245  1  0.907100  0.483800  0.417900  1.0  -0.1322
  C  C246  1  0.053800  0.479500  0.202500  1.0  -0.1051
  C  C247  1  0.015500  0.456900  0.079100  1.0  -0.0465
  C  C248  1  0.349800  0.475200  0.423900  1.0  0.6724
  C  C249  1  0.118900  0.310100  0.287200  1.0  0.1289
  C  C250  1  0.138300  0.467300  0.377900  1.0  -0.0908
  C  C251  1  0.857000  0.163300  0.271400  1.0  -0.0863
  C  C252  1  0.284900  0.382600  0.220300  1.0  -0.132
  C  C253  1  0.823100  0.400200  0.398900  1.0  -0.0946
  C  C254  1  0.100600  0.223100  0.121600  1.0  -0.0804
  C  C255  1  0.779200  0.161900  0.262600  1.0  -0.1066
  C  C256  1  0.899600  0.257900  0.936900  1.0  -0.0597
  C  C257  1  0.850200  0.449000  0.438200  1.0  -0.0686
  C  C258  1  0.619500  0.385900  0.322000  1.0  -0.0667
  C  C259  1  0.535600  0.469400  0.353300  1.0  0.678
  C  C260  1  0.128900  0.408200  0.140600  1.0  -0.0977
  C  C261  1  0.593700  0.404200  0.180100  1.0  -0.1001
  C  C262  1  0.371800  0.277800  0.051800  1.0  0.069
  C  C263  1  0.035600  0.173000  0.996700  1.0  -0.1814
  C  C264  1  0.654100  0.350600  0.273500  1.0  -0.1126
  C  C265  1  0.087400  0.271200  0.335200  1.0  -0.1182
  C  C266  1  0.134100  0.245900  0.385000  1.0  -0.0982
  C  C267  1  0.559300  0.440400  0.229500  1.0  -0.0624
  C  C268  1  0.245600  0.295700  0.345400  1.0  -0.1781
  C  C269  1  0.125800  0.171700  0.097000  1.0  -0.0958
  C  C270  1  0.093300  0.147200  0.035100  1.0  -0.0881
  C  C271  1  0.398200  0.240500  0.993400  1.0  0.7339
  C  C272  1  0.337600  0.254800  0.104700  1.0  -0.1313
  C  C273  1  0.312600  0.288000  0.160300  1.0  -0.1816
  C  C274  1  0.212300  0.258000  0.390100  1.0  -0.0835
  C  C275  1  0.860100  0.256080  0.216400  1.0  0.0945
  C  C276  1  0.930200  0.458400  0.085000  1.0  -0.04
  C  C277  1  0.826600  0.395270  0.127800  1.0  -0.1032
  C  C278  1  0.855000  0.385800  0.336300  1.0  -0.0957
  C  C279  1  0.269700  0.493400  0.403400  1.0  -0.1586
  C  C280  1  0.823400  0.241080  0.962100  1.0  0.0896
  C  C281  1  0.178300  0.567100  0.369700  1.0  -0.1276
  C  C282  1  0.814400  0.215100  0.026700  1.0  -0.1185
  C  C283  1  0.043400  0.252600  0.082200  1.0  0.1147
  C  C284  1  0.745800  0.195630  0.045700  1.0  -0.1255
  C  C285  1  0.681600  0.201910  0.000900  1.0  -0.1641
  C  C286  1  0.572100  0.430500  0.298600  1.0  -0.1039
  C  C287  1  0.680000  0.321000  0.149700  1.0  -0.1257
  C  C288  1  0.041600  0.546500  0.338700  1.0  -0.1142
  C  C289  1  0.626300  0.834900  0.448300  1.0  -0.1128
  C  C290  1  0.654700  0.867800  0.389600  1.0  -0.1501
  C  C291  1  0.219700  0.753930  0.293600  1.0  0.121
  C  C292  1  0.087600  0.921870  0.186500  1.0  0.1335
  C  C293  1  0.062800  0.970120  0.148200  1.0  0.1336
  C  C294  1  0.357000  0.859900  0.296700  1.0  0.0539
  C  C295  1  0.879400  0.026190  0.136900  1.0  0.0783
  C  C296  1  0.177500  0.835560  0.337300  1.0  0.3541
  C  C297  1  0.000700  0.965530  0.243500  1.0  0.3496
  C  C298  1  0.311300  0.730600  0.561600  1.0  -0.0988
  C  C299  1  0.392000  0.671460  0.480300  1.0  0.6802
  C  C300  1  0.261900  0.706200  0.270300  1.0  -0.1846
  C  C301  1  0.100200  0.709500  0.251100  1.0  -0.1572
  C  C302  1  0.748800  0.051240  0.109000  1.0  -0.0964
  C  C303  1  0.802800  0.821700  0.206300  1.0  0.0877
  C  C304  1  0.097000  0.862100  0.468800  1.0  -0.1026
  C  C305  1  0.043200  0.812010  0.460700  1.0  0.366
  C  C306  1  0.242000  0.750500  0.580400  1.0  -0.1353
  C  C307  1  0.787800  0.950700  0.101600  1.0  -0.0734
  C  C308  1  0.988100  0.727400  0.478200  1.0  0.1021
  C  C309  1  0.683200  0.844700  0.336800  1.0  0.2183
  C  C310  1  0.857100  0.870200  0.296200  1.0  0.3386
  C  C311  1  0.092900  0.983800  0.082100  1.0  -0.1322
  C  C312  1  0.946200  0.979500  0.297500  1.0  -0.105
  C  C313  1  0.984500  0.956900  0.420900  1.0  -0.0455
  C  C314  1  0.650200  0.975200  0.076100  1.0  0.673
  C  C315  1  0.881100  0.810100  0.212800  1.0  0.1296
  C  C316  1  0.861700  0.967300  0.122100  1.0  -0.092
  C  C317  1  0.143000  0.663300  0.228600  1.0  -0.0858
  C  C318  1  0.715100  0.882600  0.279700  1.0  -0.1332
  C  C319  1  0.176900  0.900200  0.101100  1.0  -0.0947
  C  C320  1  0.899400  0.723100  0.378400  1.0  -0.0815
  C  C321  1  0.220800  0.661900  0.237400  1.0  -0.1093
  C  C322  1  0.100400  0.757900  0.563100  1.0  -0.0619
  C  C323  1  0.149800  0.949000  0.061800  1.0  -0.068
  C  C324  1  0.380500  0.885900  0.178000  1.0  -0.0657
  C  C325  1  0.464400  0.969400  0.146700  1.0  0.678
  C  C326  1  0.871100  0.908200  0.359400  1.0  -0.1006
  C  C327  1  0.406300  0.904200  0.319900  1.0  -0.0956
  C  C328  1  0.628200  0.777800  0.448200  1.0  0.0722
  C  C329  1  0.964400  0.673000  0.503300  1.0  -0.1809
  C  C330  1  0.345900  0.850600  0.226500  1.0  -0.1097
  C  C331  1  0.912600  0.771200  0.164800  1.0  -0.1184
  C  C332  1  0.865900  0.745900  0.115000  1.0  -0.0989
  C  C333  1  0.440700  0.940400  0.270500  1.0  -0.0618
  C  C334  1  0.754400  0.795700  0.154600  1.0  -0.1777
  C  C335  1  0.874200  0.671700  0.403000  1.0  -0.0989
  C  C336  1  0.906700  0.647200  0.464900  1.0  -0.0896
  C  C337  1  0.601800  0.740500  0.506600  1.0  0.7346
  C  C338  1  0.662400  0.754800  0.395300  1.0  -0.1307
  C  C339  1  0.687400  0.788000  0.339700  1.0  -0.1825
  C  C340  1  0.787700  0.758000  0.109900  1.0  -0.0843
  C  C341  1  0.139900  0.756080  0.283600  1.0  0.0954
  C  C342  1  0.069800  0.958400  0.415000  1.0  -0.0393
  C  C343  1  0.173400  0.895270  0.372200  1.0  -0.1031
  C  C344  1  0.145000  0.885800  0.163700  1.0  -0.0961
  C  C345  1  0.730300  0.993400  0.096600  1.0  -0.1606
  C  C346  1  0.176600  0.741080  0.537900  1.0  0.0903
  C  C347  1  0.821700  0.067100  0.130300  1.0  -0.1267
  C  C348  1  0.185600  0.715100  0.473300  1.0  -0.1172
  C  C349  1  0.956600  0.752600  0.417800  1.0  0.1165
  C  C350  1  0.254200  0.695630  0.454300  1.0  -0.1247
  C  C351  1  0.318400  0.701910  0.499100  1.0  -0.1635
  C  C352  1  0.427900  0.930500  0.201400  1.0  -0.1057
  C  C353  1  0.320000  0.821000  0.350300  1.0  -0.1267
  C  C354  1  0.958400  0.046500  0.161300  1.0  -0.1135
  C  C355  1  0.626300  0.665100  0.948300  1.0  -0.1114
  C  C356  1  0.654700  0.632200  0.889600  1.0  -0.1507
  C  C357  1  0.219700  0.746070  0.793600  1.0  0.121
  C  C358  1  0.087600  0.578130  0.686500  1.0  0.1336
  C  C359  1  0.062800  0.529880  0.648200  1.0  0.1343
  C  C360  1  0.357000  0.640100  0.796700  1.0  0.0542
  C  C361  1  0.879400  0.473810  0.636900  1.0  0.0789
  C  C362  1  0.177500  0.664440  0.837300  1.0  0.3541
  C  C363  1  0.000700  0.534470  0.743500  1.0  0.3485
  C  C364  1  0.311300  0.769400  0.061600  1.0  -0.0987
  C  C365  1  0.392000  0.828540  0.980300  1.0  0.6804
  C  C366  1  0.261900  0.793800  0.770300  1.0  -0.1855
  C  C367  1  0.100200  0.790500  0.751100  1.0  -0.1572
  C  C368  1  0.748800  0.448760  0.609000  1.0  -0.0966
  C  C369  1  0.802800  0.678300  0.706300  1.0  0.0882
  C  C370  1  0.097000  0.637900  0.968800  1.0  -0.1031
  C  C371  1  0.043200  0.687990  0.960700  1.0  0.3662
  C  C372  1  0.242000  0.749500  0.080400  1.0  -0.1365
  C  C373  1  0.787800  0.549300  0.601600  1.0  -0.0717
  C  C374  1  0.988100  0.772600  0.978200  1.0  0.1016
  C  C375  1  0.683200  0.655300  0.836800  1.0  0.2177
  C  C376  1  0.857100  0.629800  0.796200  1.0  0.3387
  C  C377  1  0.092900  0.516200  0.582100  1.0  -0.1333
  C  C378  1  0.946200  0.520500  0.797500  1.0  -0.1058
  C  C379  1  0.984500  0.543100  0.920900  1.0  -0.0456
  C  C380  1  0.650200  0.524800  0.576100  1.0  0.6731
  C  C381  1  0.881100  0.689900  0.712800  1.0  0.1301
  C  C382  1  0.861700  0.532700  0.622100  1.0  -0.092
  C  C383  1  0.143000  0.836700  0.728600  1.0  -0.0846
  C  C384  1  0.715100  0.617400  0.779700  1.0  -0.1344
  C  C385  1  0.176900  0.599800  0.601100  1.0  -0.0942
  C  C386  1  0.899400  0.776900  0.878400  1.0  -0.0817
  C  C387  1  0.220800  0.838100  0.737400  1.0  -0.1068
  C  C388  1  0.100400  0.742100  0.063100  1.0  -0.0618
  C  C389  1  0.149800  0.551000  0.561800  1.0  -0.0681
  C  C390  1  0.380500  0.614100  0.678000  1.0  -0.0657
  C  C391  1  0.464400  0.530600  0.646700  1.0  0.6773
  C  C392  1  0.871100  0.591800  0.859400  1.0  -0.1013
  C  C393  1  0.406300  0.595800  0.819900  1.0  -0.0963
  C  C394  1  0.628200  0.722200  0.948200  1.0  0.0724
  C  C395  1  0.964400  0.827000  0.003300  1.0  -0.1819
  C  C396  1  0.345900  0.649400  0.726500  1.0  -0.1095
  C  C397  1  0.912600  0.728800  0.664800  1.0  -0.1188
  C  C398  1  0.865900  0.754100  0.615000  1.0  -0.0972
  C  C399  1  0.440700  0.559600  0.770500  1.0  -0.0614
  C  C400  1  0.754400  0.704300  0.654600  1.0  -0.1781
  C  C401  1  0.874200  0.828300  0.903000  1.0  -0.0991
  C  C402  1  0.906700  0.852800  0.964900  1.0  -0.0869
  C  C403  1  0.601800  0.759500  0.006600  1.0  0.7358
  C  C404  1  0.662400  0.745200  0.895300  1.0  -0.131
  C  C405  1  0.687400  0.712000  0.839700  1.0  -0.1831
  C  C406  1  0.787700  0.742000  0.609900  1.0  -0.0838
  C  C407  1  0.139900  0.743920  0.783600  1.0  0.096
  C  C408  1  0.069800  0.541600  0.915000  1.0  -0.0397
  C  C409  1  0.173400  0.604730  0.872200  1.0  -0.1025
  C  C410  1  0.145000  0.614200  0.663700  1.0  -0.0956
  C  C411  1  0.730300  0.506600  0.596600  1.0  -0.1602
  C  C412  1  0.176600  0.758920  0.037900  1.0  0.0908
  C  C413  1  0.821700  0.432900  0.630300  1.0  -0.1266
  C  C414  1  0.185600  0.784900  0.973300  1.0  -0.1168
  C  C415  1  0.956600  0.747400  0.917800  1.0  0.1164
  C  C416  1  0.254200  0.804370  0.954300  1.0  -0.1248
  C  C417  1  0.318400  0.798090  0.999100  1.0  -0.1633
  C  C418  1  0.427900  0.569500  0.701400  1.0  -0.1057
  C  C419  1  0.320000  0.679000  0.850300  1.0  -0.1269
  C  C420  1  0.958400  0.453500  0.661300  1.0  -0.1127
  C  C421  1  0.373700  0.165100  0.551700  1.0  -0.1138
  C  C422  1  0.345300  0.132200  0.610400  1.0  -0.152
  C  C423  1  0.780300  0.246070  0.706400  1.0  0.12
  C  C424  1  0.912400  0.078130  0.813500  1.0  0.1333
  C  C425  1  0.937200  0.029880  0.851800  1.0  0.1341
  C  C426  1  0.643000  0.140100  0.703300  1.0  0.0529
  C  C427  1  0.120600  0.973810  0.863100  1.0  0.079
  C  C428  1  0.822500  0.164440  0.662700  1.0  0.3544
  C  C429  1  0.999300  0.034470  0.756500  1.0  0.3493
  C  C430  1  0.688700  0.269400  0.438400  1.0  -0.0996
  C  C431  1  0.608000  0.328540  0.519700  1.0  0.6805
  C  C432  1  0.738100  0.293800  0.729700  1.0  -0.1856
  C  C433  1  0.899800  0.290500  0.748900  1.0  -0.1581
  C  C434  1  0.251200  0.948760  0.891000  1.0  -0.0975
  C  C435  1  0.197200  0.178300  0.793700  1.0  0.0875
  C  C436  1  0.903000  0.137900  0.531200  1.0  -0.0998
  C  C437  1  0.956800  0.187990  0.539300  1.0  0.3665
  C  C438  1  0.758000  0.249500  0.419600  1.0  -0.1313
  C  C439  1  0.212200  0.049300  0.898400  1.0  -0.0727
  C  C440  1  0.011900  0.272600  0.521800  1.0  0.1025
  C  C441  1  0.316800  0.155300  0.663200  1.0  0.2177
  C  C442  1  0.142900  0.129800  0.703800  1.0  0.338
  C  C443  1  0.907100  0.016200  0.917900  1.0  -0.133
  C  C444  1  0.053800  0.020500  0.702500  1.0  -0.1059
  C  C445  1  0.015500  0.043100  0.579100  1.0  -0.0457
  C  C446  1  0.349800  0.024800  0.923900  1.0  0.6723
  C  C447  1  0.118900  0.189900  0.787200  1.0  0.1293
  C  C448  1  0.138300  0.032700  0.877900  1.0  -0.0907
  C  C449  1  0.857000  0.336700  0.771400  1.0  -0.0852
  C  C450  1  0.284900  0.117400  0.720300  1.0  -0.1325
  C  C451  1  0.823100  0.099800  0.898900  1.0  -0.0938
  C  C452  1  0.100600  0.276900  0.621600  1.0  -0.081
  C  C453  1  0.779200  0.338100  0.762600  1.0  -0.1035
  C  C454  1  0.899600  0.242100  0.436900  1.0  -0.0593
  C  C455  1  0.850200  0.051000  0.938200  1.0  -0.0686
  C  C456  1  0.619500  0.114100  0.822000  1.0  -0.0671
  C  C457  1  0.535600  0.030600  0.853300  1.0  0.6776
  C  C458  1  0.128900  0.091800  0.640600  1.0  -0.0976
  C  C459  1  0.593700  0.095800  0.680100  1.0  -0.0972
  C  C460  1  0.371800  0.222200  0.551800  1.0  0.069
  C  C461  1  0.035600  0.327000  0.496700  1.0  -0.1822
  C  C462  1  0.654100  0.149400  0.773500  1.0  -0.1121
  C  C463  1  0.087400  0.228800  0.835200  1.0  -0.118
  C  C464  1  0.134100  0.254100  0.885000  1.0  -0.0962
  C  C465  1  0.559300  0.059600  0.729500  1.0  -0.0608
  C  C466  1  0.245600  0.204300  0.845400  1.0  -0.1796
  C  C467  1  0.125800  0.328300  0.597000  1.0  -0.0967
  C  C468  1  0.093300  0.352800  0.535100  1.0  -0.0875
  C  C469  1  0.398200  0.259500  0.493400  1.0  0.7351
  C  C470  1  0.337600  0.245200  0.604700  1.0  -0.1317
  C  C471  1  0.312600  0.212000  0.660300  1.0  -0.183
  C  C472  1  0.212300  0.242000  0.890100  1.0  -0.0833
  C  C473  1  0.860100  0.243920  0.716400  1.0  0.0946
  C  C474  1  0.930200  0.041600  0.585000  1.0  -0.039
  C  C475  1  0.826600  0.104730  0.627800  1.0  -0.1028
  C  C476  1  0.855000  0.114200  0.836300  1.0  -0.0961
  C  C477  1  0.269700  0.006600  0.903400  1.0  -0.1589
  C  C478  1  0.823400  0.258920  0.462100  1.0  0.0899
  C  C479  1  0.178300  0.932900  0.869700  1.0  -0.1274
  C  C480  1  0.814400  0.284900  0.526700  1.0  -0.1183
  C  C481  1  0.043400  0.247400  0.582200  1.0  0.1147
  C  C482  1  0.745800  0.304370  0.545700  1.0  -0.1256
  C  C483  1  0.681600  0.298090  0.500900  1.0  -0.1649
  C  C484  1  0.572100  0.069500  0.798600  1.0  -0.1041
  C  C485  1  0.680000  0.179000  0.649700  1.0  -0.1259
  C  C486  1  0.041600  0.953500  0.838700  1.0  -0.1136
  N  N487  1  0.991700  0.497840  0.315270  1.0  -0.0527
  N  N488  1  0.758000  0.304620  0.170880  1.0  -0.0729
  N  N489  1  0.884500  0.309100  0.188700  1.0  -0.4498
  N  N490  1  0.902800  0.397800  0.096540  1.0  -0.1638
  N  N491  1  0.956300  0.266980  0.994540  1.0  -0.0747
  N  N492  1  0.052600  0.434000  0.146700  1.0  -0.1571
  N  N493  1  0.953000  0.419860  0.252590  1.0  -0.4592
  N  N494  1  0.007400  0.306600  0.092400  1.0  -0.4612
  N  N495  1  0.210800  0.361100  0.240000  1.0  -0.0913
  N  N496  1  0.086100  0.341230  0.231000  1.0  -0.4606
  N  N497  1  0.008300  0.997840  0.184730  1.0  -0.0539
  N  N498  1  0.242000  0.804620  0.329120  1.0  -0.0718
  N  N499  1  0.115500  0.809100  0.311300  1.0  -0.45
  N  N500  1  0.097200  0.897800  0.403460  1.0  -0.1646
  N  N501  1  0.043700  0.766980  0.505460  1.0  -0.0758
  N  N502  1  0.947400  0.934000  0.353300  1.0  -0.1543
  N  N503  1  0.047000  0.919860  0.247410  1.0  -0.4613
  N  N504  1  0.992600  0.806600  0.407600  1.0  -0.463
  N  N505  1  0.789200  0.861100  0.260000  1.0  -0.0921
  N  N506  1  0.913900  0.841230  0.269000  1.0  -0.4601
  N  N507  1  0.008300  0.502160  0.684730  1.0  -0.054
  N  N508  1  0.242000  0.695380  0.829120  1.0  -0.0717
  N  N509  1  0.115500  0.690900  0.811300  1.0  -0.4495
  N  N510  1  0.097200  0.602200  0.903460  1.0  -0.1649
  N  N511  1  0.043700  0.733020  0.005460  1.0  -0.0762
  N  N512  1  0.947400  0.566000  0.853300  1.0  -0.155
  N  N513  1  0.047000  0.580140  0.747410  1.0  -0.4618
  N  N514  1  0.992600  0.693400  0.907600  1.0  -0.4626
  N  N515  1  0.789200  0.638900  0.760000  1.0  -0.0922
  N  N516  1  0.913900  0.658770  0.769000  1.0  -0.4616
  N  N517  1  0.991700  0.002160  0.815270  1.0  -0.0534
  N  N518  1  0.758000  0.195380  0.670880  1.0  -0.0725
  N  N519  1  0.884500  0.190900  0.688700  1.0  -0.4498
  N  N520  1  0.902800  0.102200  0.596540  1.0  -0.1647
  N  N521  1  0.956300  0.233020  0.494540  1.0  -0.0752
  N  N522  1  0.052600  0.066000  0.646700  1.0  -0.1574
  N  N523  1  0.953000  0.080140  0.752590  1.0  -0.4599
  N  N524  1  0.007400  0.193400  0.592400  1.0  -0.4612
  N  N525  1  0.210800  0.138900  0.740000  1.0  -0.0914
  N  N526  1  0.086100  0.158770  0.731000  1.0  -0.4616
  O  O527  1  0.530010  0.450060  0.413640  1.0  -0.6359
  O  O528  1  0.469600  0.421950  0.539400  1.0  -0.7969
  O  O529  1  0.512100  0.518720  0.330690  1.0  -0.6612
  O  O530  1  0.400200  0.186800  0.002700  1.0  -0.5926
  O  O531  1  0.365000  0.421060  0.420100  1.0  -0.6036
  O  O532  1  0.397830  0.515680  0.442720  1.0  -0.6572
  O  O533  1  0.556300  0.170180  0.969480  1.0  -0.636
  O  O534  1  0.604300  0.149300  0.078550  1.0  -0.6118
  O  O535  1  0.415500  0.264900  0.938700  1.0  -0.5158
  O  O536  1  0.469990  0.950060  0.086360  1.0  -0.6357
  O  O537  1  0.530400  0.921950  0.960600  1.0  -0.7946
  O  O538  1  0.487900  0.018720  0.169310  1.0  -0.6608
  O  O539  1  0.599800  0.686800  0.497300  1.0  -0.5921
  O  O540  1  0.635000  0.921060  0.079900  1.0  -0.604
  O  O541  1  0.602170  0.015680  0.057280  1.0  -0.6567
  O  O542  1  0.443700  0.670180  0.530520  1.0  -0.635
  O  O543  1  0.395700  0.649300  0.421450  1.0  -0.6126
  O  O544  1  0.584500  0.764900  0.561300  1.0  -0.519
  O  O545  1  0.469990  0.549940  0.586360  1.0  -0.6355
  O  O546  1  0.530400  0.578050  0.460600  1.0  -0.7952
  O  O547  1  0.487900  0.481280  0.669310  1.0  -0.664
  O  O548  1  0.599800  0.813200  0.997300  1.0  -0.5918
  O  O549  1  0.635000  0.578940  0.579900  1.0  -0.6037
  O  O550  1  0.602170  0.484320  0.557280  1.0  -0.657
  O  O551  1  0.443700  0.829820  0.030520  1.0  -0.6355
  O  O552  1  0.395700  0.850700  0.921450  1.0  -0.6118
  O  O553  1  0.584500  0.735100  0.061300  1.0  -0.5169
  O  O554  1  0.530010  0.049940  0.913640  1.0  -0.635
  O  O555  1  0.469600  0.078050  0.039400  1.0  -0.7958
  O  O556  1  0.512100  0.981280  0.830690  1.0  -0.6597
  O  O557  1  0.400200  0.313200  0.502700  1.0  -0.5924
  O  O558  1  0.365000  0.078940  0.920100  1.0  -0.6029
  O  O559  1  0.397830  0.984320  0.942720  1.0  -0.6574
  O  O560  1  0.556300  0.329820  0.469480  1.0  -0.6373
  O  O561  1  0.604300  0.350700  0.578550  1.0  -0.6121
  O  O562  1  0.415500  0.235100  0.438700  1.0  -0.514
