# generated using pymatgen
data_Ni2H16C24N4O9
_symmetry_space_group_name_H-M   'P 1'
_cell_length_a   10.72800000
_cell_length_b   13.79000000
_cell_length_c   19.57600000
_cell_angle_alpha   90.00000000
_cell_angle_beta   90.00000000
_cell_angle_gamma   104.49000000
_symmetry_Int_Tables_number   1
_chemical_formula_structural   Ni2H16C24N4O9
_chemical_formula_sum   'Ni8 H64 C96 N16 O36'
_cell_volume   2803.93650280
_cell_formula_units_Z   4
loop_
 _symmetry_equiv_pos_site_id
 _symmetry_equiv_pos_as_xyz
  1  'x, y, z'
loop_
 _atom_site_type_symbol
 _atom_site_label
 _atom_site_symmetry_multiplicity
 _atom_site_fract_x
 _atom_site_fract_y
 _atom_site_fract_z
 _atom_site_occupancy
 _atom_site_charge
  Ni  Ni1  1  0.754090  0.204760  0.974390  1.0  0.8602
  Ni  Ni2  1  0.594940  0.360620  0.881750  1.0  0.8578
  Ni  Ni3  1  0.245910  0.295240  0.474390  1.0  0.8601
  Ni  Ni4  1  0.405060  0.139380  0.381750  1.0  0.8581
  Ni  Ni5  1  0.245910  0.795240  0.025610  1.0  0.86
  Ni  Ni6  1  0.405060  0.639380  0.118250  1.0  0.8578
  Ni  Ni7  1  0.754090  0.704760  0.525610  1.0  0.8601
  Ni  Ni8  1  0.594940  0.860620  0.618250  1.0  0.8579
  H  H9  1  0.682000  0.904600  0.910300  1.0  0.1011
  H  H10  1  0.594300  0.748500  0.863200  1.0  0.1234
  H  H11  1  0.560900  0.733200  0.747700  1.0  0.0805
  H  H12  1  0.692400  0.020500  0.723400  1.0  0.0769
  H  H13  1  0.130200  0.948300  0.806000  1.0  0.1268
  H  H14  1  0.112400  0.828500  0.888100  1.0  0.0783
  H  H15  1  0.400800  0.993900  0.987500  1.0  0.0701
  H  H16  1  0.288500  0.098200  0.815400  1.0  0.1124
  H  H17  1  0.840400  0.461800  0.119600  1.0  0.1142
  H  H18  1  0.848000  0.604700  0.183700  1.0  0.1279
  H  H19  1  0.673900  0.672000  0.187200  1.0  0.0863
  H  H20  1  0.488200  0.471700  0.059000  1.0  0.075
  H  H21  1  0.302000  0.338600  0.032800  1.0  0.1039
  H  H22  1  0.220700  0.193100  0.970700  1.0  0.1137
  H  H23  1  0.006300  0.145100  0.944700  1.0  0.0856
  H  H24  1  0.948200  0.381200  0.035200  1.0  0.0725
  H  H25  1  0.318000  0.595400  0.410300  1.0  0.1015
  H  H26  1  0.405700  0.751500  0.363200  1.0  0.123
  H  H27  1  0.439100  0.766800  0.247700  1.0  0.0803
  H  H28  1  0.307600  0.479500  0.223400  1.0  0.0762
  H  H29  1  0.869800  0.551700  0.306000  1.0  0.127
  H  H30  1  0.887600  0.671500  0.388100  1.0  0.0788
  H  H31  1  0.599200  0.506100  0.487500  1.0  0.0699
  H  H32  1  0.711500  0.401800  0.315400  1.0  0.1122
  H  H33  1  0.159600  0.038200  0.619600  1.0  0.1134
  H  H34  1  0.152000  0.895300  0.683700  1.0  0.1278
  H  H35  1  0.326100  0.828000  0.687200  1.0  0.0862
  H  H36  1  0.511800  0.028300  0.559000  1.0  0.0751
  H  H37  1  0.698000  0.161400  0.532800  1.0  0.1032
  H  H38  1  0.779300  0.306900  0.470700  1.0  0.1146
  H  H39  1  0.993700  0.354900  0.444700  1.0  0.0859
  H  H40  1  0.051800  0.118800  0.535200  1.0  0.0725
  H  H41  1  0.318000  0.095400  0.089700  1.0  0.1013
  H  H42  1  0.405700  0.251500  0.136800  1.0  0.1234
  H  H43  1  0.439100  0.266800  0.252300  1.0  0.0803
  H  H44  1  0.307600  0.979500  0.276600  1.0  0.0762
  H  H45  1  0.869800  0.051700  0.194000  1.0  0.1281
  H  H46  1  0.887600  0.171500  0.111900  1.0  0.0788
  H  H47  1  0.599200  0.006100  0.012500  1.0  0.0696
  H  H48  1  0.711500  0.901800  0.184600  1.0  0.1122
  H  H49  1  0.159600  0.538200  0.880400  1.0  0.1137
  H  H50  1  0.152000  0.395300  0.816300  1.0  0.1275
  H  H51  1  0.326100  0.328000  0.812800  1.0  0.0863
  H  H52  1  0.511800  0.528300  0.941000  1.0  0.0754
  H  H53  1  0.698000  0.661400  0.967200  1.0  0.1035
  H  H54  1  0.779300  0.806900  0.029300  1.0  0.1146
  H  H55  1  0.993700  0.854900  0.055300  1.0  0.0857
  H  H56  1  0.051800  0.618800  0.964800  1.0  0.0724
  H  H57  1  0.682000  0.404600  0.589700  1.0  0.1006
  H  H58  1  0.594300  0.248500  0.636800  1.0  0.1233
  H  H59  1  0.560900  0.233200  0.752300  1.0  0.0802
  H  H60  1  0.692400  0.520500  0.776600  1.0  0.0762
  H  H61  1  0.130200  0.448300  0.694000  1.0  0.1282
  H  H62  1  0.112400  0.328500  0.611900  1.0  0.0787
  H  H63  1  0.400800  0.493900  0.512500  1.0  0.0696
  H  H64  1  0.288500  0.598200  0.684600  1.0  0.1124
  H  H65  1  0.840400  0.961800  0.380400  1.0  0.1146
  H  H66  1  0.848000  0.104700  0.316300  1.0  0.1278
  H  H67  1  0.673900  0.172000  0.312800  1.0  0.0869
  H  H68  1  0.488200  0.971700  0.441000  1.0  0.0751
  H  H69  1  0.302000  0.838600  0.467200  1.0  0.1036
  H  H70  1  0.220700  0.693100  0.529300  1.0  0.1141
  H  H71  1  0.006300  0.645100  0.555300  1.0  0.0855
  H  H72  1  0.948200  0.881200  0.464800  1.0  0.0727
  C  C73  1  0.752200  0.084000  0.848490  1.0  0.664
  C  C74  1  0.698700  0.980100  0.820790  1.0  -0.2084
  C  C75  1  0.667500  0.897600  0.863500  1.0  0.0478
  C  C76  1  0.616500  0.804900  0.835500  1.0  -0.1778
  C  C77  1  0.596600  0.796300  0.766100  1.0  0.1778
  C  C78  1  0.674200  0.964900  0.752020  1.0  0.1919
  C  C79  1  0.186500  0.959200  0.842900  1.0  -0.195
  C  C80  1  0.177800  0.887100  0.891800  1.0  0.175
  C  C81  1  0.347200  0.984000  0.949440  1.0  0.202
  C  C82  1  0.282700  0.047500  0.847500  1.0  0.045
  C  C83  1  0.367300  0.059500  0.901640  1.0  -0.2232
  C  C84  1  0.477700  0.150100  0.909650  1.0  0.6843
  C  C85  1  0.649800  0.364600  0.033130  1.0  0.6862
  C  C86  1  0.660200  0.449900  0.082240  1.0  -0.2153
  C  C87  1  0.770700  0.490600  0.120200  1.0  0.0539
  C  C88  1  0.774600  0.575100  0.158800  1.0  -0.173
  C  C89  1  0.670000  0.615600  0.160400  1.0  0.1467
  C  C90  1  0.560800  0.497000  0.085620  1.0  0.1997
  C  C91  1  0.174400  0.471200  0.081200  1.0  0.6638
  C  C92  1  0.131300  0.374600  0.041860  1.0  -0.2117
  C  C93  1  0.215000  0.318700  0.021700  1.0  0.048
  C  C94  1  0.166500  0.232200  0.984900  1.0  -0.1792
  C  C95  1  0.037300  0.203500  0.969600  1.0  0.1651
  C  C96  1  0.003700  0.342000  0.022960  1.0  0.2042
  C  C97  1  0.247800  0.416000  0.348490  1.0  0.6622
  C  C98  1  0.301300  0.519900  0.320790  1.0  -0.2083
  C  C99  1  0.332500  0.602400  0.363500  1.0  0.048
  C  C100  1  0.383500  0.695100  0.335500  1.0  -0.1788
  C  C101  1  0.403400  0.703700  0.266100  1.0  0.1783
  C  C102  1  0.325800  0.535100  0.252020  1.0  0.192
  C  C103  1  0.813500  0.540800  0.342900  1.0  -0.1923
  C  C104  1  0.822200  0.612900  0.391800  1.0  0.1737
  C  C105  1  0.652800  0.516000  0.449440  1.0  0.2028
  C  C106  1  0.717300  0.452500  0.347500  1.0  0.0448
  C  C107  1  0.632700  0.440500  0.401640  1.0  -0.2233
  C  C108  1  0.522300  0.349900  0.409650  1.0  0.6843
  C  C109  1  0.350200  0.135400  0.533130  1.0  0.6856
  C  C110  1  0.339800  0.050100  0.582240  1.0  -0.2172
  C  C111  1  0.229300  0.009400  0.620200  1.0  0.0524
  C  C112  1  0.225400  0.924900  0.658800  1.0  -0.1743
  C  C113  1  0.330000  0.884400  0.660400  1.0  0.1479
  C  C114  1  0.439200  0.003000  0.585620  1.0  0.1995
  C  C115  1  0.825600  0.028800  0.581200  1.0  0.6653
  C  C116  1  0.868700  0.125400  0.541860  1.0  -0.2119
  C  C117  1  0.785000  0.181300  0.521700  1.0  0.0494
  C  C118  1  0.833500  0.267800  0.484900  1.0  -0.1805
  C  C119  1  0.962700  0.296500  0.469600  1.0  0.1665
  C  C120  1  0.996300  0.158000  0.522960  1.0  0.2039
  C  C121  1  0.247800  0.916000  0.151510  1.0  0.6614
  C  C122  1  0.301300  0.019900  0.179210  1.0  -0.2077
  C  C123  1  0.332500  0.102400  0.136500  1.0  0.047
  C  C124  1  0.383500  0.195100  0.164500  1.0  -0.1769
  C  C125  1  0.403400  0.203700  0.233900  1.0  0.1783
  C  C126  1  0.325800  0.035100  0.247980  1.0  0.1916
  C  C127  1  0.813500  0.040800  0.157100  1.0  -0.194
  C  C128  1  0.822200  0.112900  0.108200  1.0  0.1742
  C  C129  1  0.652800  0.016000  0.050560  1.0  0.2023
  C  C130  1  0.717300  0.952500  0.152500  1.0  0.0459
  C  C131  1  0.632700  0.940500  0.098360  1.0  -0.2229
  C  C132  1  0.522300  0.849900  0.090350  1.0  0.6844
  C  C133  1  0.350200  0.635400  0.966870  1.0  0.6858
  C  C134  1  0.339800  0.550100  0.917760  1.0  -0.2168
  C  C135  1  0.229300  0.509400  0.879800  1.0  0.0532
  C  C136  1  0.225400  0.424900  0.841200  1.0  -0.1726
  C  C137  1  0.330000  0.384400  0.839600  1.0  0.1466
  C  C138  1  0.439200  0.503000  0.914380  1.0  0.1998
  C  C139  1  0.825600  0.528800  0.918800  1.0  0.6663
  C  C140  1  0.868700  0.625400  0.958140  1.0  -0.212
  C  C141  1  0.785000  0.681300  0.978300  1.0  0.05
  C  C142  1  0.833500  0.767800  0.015100  1.0  -0.1803
  C  C143  1  0.962700  0.796500  0.030400  1.0  0.1662
  C  C144  1  0.996300  0.658000  0.977040  1.0  0.2031
  C  C145  1  0.752200  0.584000  0.651510  1.0  0.662
  C  C146  1  0.698700  0.480100  0.679210  1.0  -0.2082
  C  C147  1  0.667500  0.397600  0.636500  1.0  0.0474
  C  C148  1  0.616500  0.304900  0.664500  1.0  -0.1769
  C  C149  1  0.596600  0.296300  0.733900  1.0  0.1781
  C  C150  1  0.674200  0.464900  0.747980  1.0  0.1913
  C  C151  1  0.186500  0.459200  0.657100  1.0  -0.1962
  C  C152  1  0.177800  0.387100  0.608200  1.0  0.1764
  C  C153  1  0.347200  0.484000  0.550560  1.0  0.2017
  C  C154  1  0.282700  0.547500  0.652500  1.0  0.0467
  C  C155  1  0.367300  0.559500  0.598360  1.0  -0.223
  C  C156  1  0.477700  0.650100  0.590350  1.0  0.6844
  C  C157  1  0.649800  0.864600  0.466870  1.0  0.6863
  C  C158  1  0.660200  0.949900  0.417760  1.0  -0.2153
  C  C159  1  0.770700  0.990600  0.379800  1.0  0.0547
  C  C160  1  0.774600  0.075100  0.341200  1.0  -0.172
  C  C161  1  0.670000  0.115600  0.339600  1.0  0.1458
  C  C162  1  0.560800  0.997000  0.414380  1.0  0.1998
  C  C163  1  0.174400  0.971200  0.418800  1.0  0.6647
  C  C164  1  0.131300  0.874600  0.458140  1.0  -0.2108
  C  C165  1  0.215000  0.818700  0.478300  1.0  0.049
  C  C166  1  0.166500  0.732200  0.515100  1.0  -0.1789
  C  C167  1  0.037300  0.703500  0.530400  1.0  0.1654
  C  C168  1  0.003700  0.842000  0.477040  1.0  0.2031
  N  N169  1  0.625600  0.874740  0.724180  1.0  -0.3021
  N  N170  1  0.257400  0.897740  0.945350  1.0  -0.298
  N  N171  1  0.562300  0.576930  0.124550  1.0  -0.2975
  N  N172  1  0.955000  0.257290  0.988510  1.0  -0.3012
  N  N173  1  0.374400  0.625260  0.224180  1.0  -0.3022
  N  N174  1  0.742600  0.602260  0.445350  1.0  -0.2991
  N  N175  1  0.437700  0.923070  0.624550  1.0  -0.2961
  N  N176  1  0.045000  0.242710  0.488510  1.0  -0.3007
  N  N177  1  0.374400  0.125260  0.275820  1.0  -0.3009
  N  N178  1  0.742600  0.102260  0.054650  1.0  -0.2982
  N  N179  1  0.437700  0.423070  0.875450  1.0  -0.2962
  N  N180  1  0.045000  0.742710  0.011490  1.0  -0.3024
  N  N181  1  0.625600  0.374740  0.775820  1.0  -0.3006
  N  N182  1  0.257400  0.397740  0.554650  1.0  -0.2969
  N  N183  1  0.562300  0.076930  0.375450  1.0  -0.2965
  N  N184  1  0.955000  0.757290  0.511490  1.0  -0.3021
  O  O185  1  0.776100  0.090380  0.911260  1.0  -0.5835
  O  O186  1  0.764700  0.155740  0.807560  1.0  -0.527
  O  O187  1  0.557900  0.145210  0.955000  1.0  -0.5497
  O  O188  1  0.478900  0.221850  0.869810  1.0  -0.5612
  O  O189  1  0.565100  0.355360  0.987620  1.0  -0.5746
  O  O190  1  0.728900  0.312230  0.040250  1.0  -0.5571
  O  O191  1  0.092700  0.518830  0.094400  1.0  -0.517
  O  O192  1  0.291200  0.496990  0.097740  1.0  -0.5738
  O  O193  1  0.760000  0.302150  0.890520  1.0  -0.3997
  O  O194  1  0.223900  0.409620  0.411260  1.0  -0.5839
  O  O195  1  0.235300  0.344260  0.307560  1.0  -0.5308
  O  O196  1  0.442100  0.354790  0.455000  1.0  -0.5495
  O  O197  1  0.521100  0.278150  0.369810  1.0  -0.5613
  O  O198  1  0.434900  0.144640  0.487620  1.0  -0.5748
  O  O199  1  0.271100  0.187770  0.540250  1.0  -0.5568
  O  O200  1  0.907300  0.981170  0.594400  1.0  -0.5163
  O  O201  1  0.708800  0.003010  0.597740  1.0  -0.5726
  O  O202  1  0.240000  0.197850  0.390520  1.0  -0.4007
  O  O203  1  0.223900  0.909620  0.088740  1.0  -0.5848
  O  O204  1  0.235300  0.844260  0.192440  1.0  -0.5252
  O  O205  1  0.442100  0.854790  0.045000  1.0  -0.5494
  O  O206  1  0.521100  0.778150  0.130190  1.0  -0.5608
  O  O207  1  0.434900  0.644640  0.012380  1.0  -0.5742
  O  O208  1  0.271100  0.687770  0.959750  1.0  -0.5568
  O  O209  1  0.907300  0.481170  0.905600  1.0  -0.5173
  O  O210  1  0.708800  0.503010  0.902260  1.0  -0.5724
  O  O211  1  0.240000  0.697850  0.109480  1.0  -0.3974
  O  O212  1  0.776100  0.590380  0.588740  1.0  -0.5842
  O  O213  1  0.764700  0.655740  0.692440  1.0  -0.5245
  O  O214  1  0.557900  0.645210  0.545000  1.0  -0.5495
  O  O215  1  0.478900  0.721850  0.630190  1.0  -0.5607
  O  O216  1  0.565100  0.855360  0.512380  1.0  -0.5739
  O  O217  1  0.728900  0.812230  0.459750  1.0  -0.5572
  O  O218  1  0.092700  0.018830  0.405600  1.0  -0.5175
  O  O219  1  0.291200  0.996990  0.402260  1.0  -0.5737
  O  O220  1  0.760000  0.802150  0.609480  1.0  -0.3963
