# generated using pymatgen
data_Co2H9C23O10
_symmetry_space_group_name_H-M   'P 1'
_cell_length_a   10.23000000
_cell_length_b   9.46800000
_cell_length_c   28.00600000
_cell_angle_alpha   90.00000000
_cell_angle_beta   98.04800000
_cell_angle_gamma   90.00000000
_symmetry_Int_Tables_number   1
_chemical_formula_structural   Co2H9C23O10
_chemical_formula_sum   'Co8 H36 C92 O40'
_cell_volume   2685.87906389
_cell_formula_units_Z   4
loop_
 _symmetry_equiv_pos_site_id
 _symmetry_equiv_pos_as_xyz
  1  'x, y, z'
loop_
 _atom_site_type_symbol
 _atom_site_label
 _atom_site_symmetry_multiplicity
 _atom_site_fract_x
 _atom_site_fract_y
 _atom_site_fract_z
 _atom_site_occupancy
 _atom_site_charge
  Co  Co1  1  0.779730  0.383360  0.693520  1.0  1.0655
  Co  Co2  1  0.556440  0.439700  0.597200  1.0  1.0978
  Co  Co3  1  0.220270  0.883360  0.806480  1.0  1.0666
  Co  Co4  1  0.443560  0.939700  0.902800  1.0  1.0947
  Co  Co5  1  0.220270  0.616640  0.306480  1.0  1.0663
  Co  Co6  1  0.443560  0.560300  0.402800  1.0  1.094
  Co  Co7  1  0.779730  0.116640  0.193520  1.0  1.065
  Co  Co8  1  0.556440  0.060300  0.097200  1.0  1.0969
  H  H9  1  0.725500  0.914400  0.677000  1.0  0.1328
  H  H10  1  0.414900  0.651300  0.660100  1.0  0.1246
  H  H11  1  0.360300  0.059100  0.629300  1.0  0.1143
  H  H12  1  0.938900  0.792600  0.671000  1.0  0.1077
  H  H13  1  0.862000  0.733100  0.591600  1.0  0.1356
  H  H14  1  0.227800  0.795600  0.561200  1.0  0.1179
  H  H15  1  0.800000  0.696500  0.521200  1.0  0.1346
  H  H16  1  0.884300  0.572600  0.392600  1.0  0.1277
  H  H17  1  0.174100  0.705500  0.494400  1.0  0.1345
  H  H18  1  0.274500  0.414400  0.823000  1.0  0.1336
  H  H19  1  0.585100  0.151300  0.839900  1.0  0.1249
  H  H20  1  0.639700  0.559100  0.870700  1.0  0.1139
  H  H21  1  0.061100  0.292600  0.829000  1.0  0.1071
  H  H22  1  0.138000  0.233100  0.908400  1.0  0.1354
  H  H23  1  0.772200  0.295600  0.938800  1.0  0.1183
  H  H24  1  0.200000  0.196500  0.978800  1.0  0.1355
  H  H25  1  0.115700  0.072600  0.107400  1.0  0.1265
  H  H26  1  0.825900  0.205500  0.005600  1.0  0.1341
  H  H27  1  0.274500  0.085600  0.323000  1.0  0.1334
  H  H28  1  0.585100  0.348700  0.339900  1.0  0.1247
  H  H29  1  0.639700  0.940900  0.370700  1.0  0.1141
  H  H30  1  0.061100  0.207400  0.329000  1.0  0.1071
  H  H31  1  0.138000  0.266900  0.408400  1.0  0.1356
  H  H32  1  0.772200  0.204400  0.438800  1.0  0.1183
  H  H33  1  0.200000  0.303500  0.478800  1.0  0.1353
  H  H34  1  0.115700  0.427400  0.607400  1.0  0.1269
  H  H35  1  0.825900  0.294500  0.505600  1.0  0.1345
  H  H36  1  0.725500  0.585600  0.177000  1.0  0.1329
  H  H37  1  0.414900  0.848700  0.160100  1.0  0.1244
  H  H38  1  0.360300  0.440900  0.129300  1.0  0.1141
  H  H39  1  0.938900  0.707400  0.171000  1.0  0.1078
  H  H40  1  0.862000  0.766900  0.091600  1.0  0.1356
  H  H41  1  0.227800  0.704400  0.061200  1.0  0.1179
  H  H42  1  0.800000  0.803500  0.021200  1.0  0.1347
  H  H43  1  0.884300  0.927400  0.892600  1.0  0.1274
  H  H44  1  0.174100  0.794500  0.994400  1.0  0.1346
  C  C45  1  0.603000  0.159000  0.652000  1.0  0.7746
  C  C46  1  0.551800  0.010100  0.653300  1.0  -0.1327
  C  C47  1  0.635700  0.898800  0.667800  1.0  -0.0086
  C  C48  1  0.583700  0.762900  0.668700  1.0  -0.1282
  C  C49  1  0.449100  0.741700  0.657900  1.0  -0.0604
  C  C50  1  0.363900  0.853700  0.643700  1.0  0.0649
  C  C51  1  0.415700  0.984600  0.640300  1.0  -0.011
  C  C52  1  0.673900  0.639500  0.681100  1.0  0.7075
  C  C53  1  0.219000  0.824600  0.631400  1.0  0.0214
  C  C54  1  0.130700  0.825200  0.664900  1.0  -0.1233
  C  C55  1  0.998200  0.791500  0.648700  1.0  -0.045
  C  C56  1  0.950300  0.756300  0.600800  1.0  -0.1916
  C  C57  1  0.039200  0.757200  0.567400  1.0  0.0201
  C  C58  1  0.169200  0.792800  0.583800  1.0  -0.0569
  C  C59  1  0.171200  0.852800  0.718000  1.0  0.6649
  C  C60  1  0.994800  0.713000  0.516600  1.0  0.0446
  C  C61  1  0.862300  0.681900  0.500500  1.0  -0.0874
  C  C62  1  0.822100  0.630800  0.455300  1.0  -0.1266
  C  C63  1  0.912500  0.608700  0.423200  1.0  0.0188
  C  C64  1  0.044400  0.640500  0.437000  1.0  -0.1423
  C  C65  1  0.084900  0.689000  0.484400  1.0  -0.0498
  C  C66  1  0.146600  0.615900  0.404200  1.0  0.7154
  C  C67  1  0.679100  0.595100  0.437900  1.0  0.6586
  C  C68  1  0.397000  0.659000  0.848000  1.0  0.7743
  C  C69  1  0.448200  0.510100  0.846700  1.0  -0.1323
  C  C70  1  0.364300  0.398800  0.832200  1.0  -0.0083
  C  C71  1  0.416300  0.262900  0.831300  1.0  -0.1274
  C  C72  1  0.550900  0.241700  0.842100  1.0  -0.0599
  C  C73  1  0.636100  0.353700  0.856300  1.0  0.0657
  C  C74  1  0.584300  0.484600  0.859700  1.0  -0.0101
  C  C75  1  0.326100  0.139500  0.818900  1.0  0.7072
  C  C76  1  0.781000  0.324600  0.868600  1.0  0.0211
  C  C77  1  0.869300  0.325200  0.835100  1.0  -0.1225
  C  C78  1  0.001800  0.291500  0.851300  1.0  -0.048
  C  C79  1  0.049700  0.256300  0.899200  1.0  -0.1902
  C  C80  1  0.960800  0.257200  0.932600  1.0  0.0206
  C  C81  1  0.830800  0.292800  0.916200  1.0  -0.0593
  C  C82  1  0.828800  0.352800  0.782000  1.0  0.6667
  C  C83  1  0.005200  0.213000  0.983400  1.0  0.0436
  C  C84  1  0.137700  0.181900  0.999500  1.0  -0.0886
  C  C85  1  0.177900  0.130800  0.044700  1.0  -0.1255
  C  C86  1  0.087500  0.108700  0.076800  1.0  0.0204
  C  C87  1  0.955600  0.140500  0.063000  1.0  -0.1414
  C  C88  1  0.915100  0.189000  0.015600  1.0  -0.0492
  C  C89  1  0.853400  0.115900  0.095800  1.0  0.7133
  C  C90  1  0.320900  0.095100  0.062100  1.0  0.659
  C  C91  1  0.397000  0.841000  0.348000  1.0  0.7742
  C  C92  1  0.448200  0.989900  0.346700  1.0  -0.1333
  C  C93  1  0.364300  0.101200  0.332200  1.0  -0.0084
  C  C94  1  0.416300  0.237100  0.331300  1.0  -0.1274
  C  C95  1  0.550900  0.258300  0.342100  1.0  -0.0602
  C  C96  1  0.636100  0.146300  0.356300  1.0  0.0655
  C  C97  1  0.584300  0.015400  0.359700  1.0  -0.0106
  C  C98  1  0.326100  0.360500  0.318900  1.0  0.7068
  C  C99  1  0.781000  0.175400  0.368600  1.0  0.0205
  C  C100  1  0.869300  0.174800  0.335100  1.0  -0.1233
  C  C101  1  0.001800  0.208500  0.351300  1.0  -0.0482
  C  C102  1  0.049700  0.243700  0.399200  1.0  -0.1913
  C  C103  1  0.960800  0.242800  0.432600  1.0  0.0212
  C  C104  1  0.830800  0.207200  0.416200  1.0  -0.0589
  C  C105  1  0.828800  0.147200  0.282000  1.0  0.6666
  C  C106  1  0.005200  0.287000  0.483400  1.0  0.045
  C  C107  1  0.137700  0.318100  0.499500  1.0  -0.0882
  C  C108  1  0.177900  0.369200  0.544700  1.0  -0.126
  C  C109  1  0.087500  0.391300  0.576800  1.0  0.0188
  C  C110  1  0.955600  0.359500  0.563000  1.0  -0.1417
  C  C111  1  0.915100  0.311000  0.515600  1.0  -0.0479
  C  C112  1  0.853400  0.384100  0.595800  1.0  0.7141
  C  C113  1  0.320900  0.404900  0.562100  1.0  0.6593
  C  C114  1  0.603000  0.341000  0.152000  1.0  0.7745
  C  C115  1  0.551800  0.489900  0.153300  1.0  -0.1331
  C  C116  1  0.635700  0.601200  0.167800  1.0  -0.0082
  C  C117  1  0.583700  0.737100  0.168700  1.0  -0.1284
  C  C118  1  0.449100  0.758300  0.157900  1.0  -0.0608
  C  C119  1  0.363900  0.646300  0.143700  1.0  0.0644
  C  C120  1  0.415700  0.515400  0.140300  1.0  -0.0112
  C  C121  1  0.673900  0.860500  0.181100  1.0  0.7073
  C  C122  1  0.219000  0.675400  0.131400  1.0  0.021
  C  C123  1  0.130700  0.674800  0.164900  1.0  -0.1232
  C  C124  1  0.998200  0.708500  0.148700  1.0  -0.045
  C  C125  1  0.950300  0.743700  0.100800  1.0  -0.1917
  C  C126  1  0.039200  0.742800  0.067400  1.0  0.0201
  C  C127  1  0.169200  0.707200  0.083800  1.0  -0.0574
  C  C128  1  0.171200  0.647200  0.218000  1.0  0.6651
  C  C129  1  0.994800  0.787000  0.016600  1.0  0.0457
  C  C130  1  0.862300  0.818100  0.000500  1.0  -0.0861
  C  C131  1  0.822100  0.869200  0.955300  1.0  -0.1278
  C  C132  1  0.912500  0.891300  0.923200  1.0  0.0183
  C  C133  1  0.044400  0.859500  0.937000  1.0  -0.1429
  C  C134  1  0.084900  0.811000  0.984400  1.0  -0.0497
  C  C135  1  0.146600  0.884100  0.904200  1.0  0.7155
  C  C136  1  0.679100  0.904900  0.937900  1.0  0.659
  O  O137  1  0.532700  0.246300  0.626400  1.0  -0.6044
  O  O138  1  0.709900  0.186900  0.677800  1.0  -0.5603
  O  O139  1  0.782500  0.652700  0.705900  1.0  -0.5771
  O  O140  1  0.632600  0.518300  0.666000  1.0  -0.6781
  O  O141  1  0.287700  0.878000  0.735000  1.0  -0.5268
  O  O142  1  0.081200  0.848600  0.745200  1.0  -0.565
  O  O143  1  0.589700  0.625900  0.464200  1.0  -0.5656
  O  O144  1  0.652100  0.538800  0.399200  1.0  -0.5541
  O  O145  1  0.100600  0.607800  0.359000  1.0  -0.5965
  O  O146  1  0.262600  0.610800  0.421900  1.0  -0.5895
  O  O147  1  0.467300  0.746300  0.873600  1.0  -0.6047
  O  O148  1  0.290100  0.686900  0.822200  1.0  -0.5585
  O  O149  1  0.217500  0.152700  0.794100  1.0  -0.5765
  O  O150  1  0.367400  0.018300  0.834000  1.0  -0.679
  O  O151  1  0.712300  0.378000  0.765000  1.0  -0.5263
  O  O152  1  0.918800  0.348600  0.754800  1.0  -0.567
  O  O153  1  0.410300  0.125900  0.035800  1.0  -0.5653
  O  O154  1  0.347900  0.038800  0.100800  1.0  -0.5539
  O  O155  1  0.899400  0.107800  0.141000  1.0  -0.5939
  O  O156  1  0.737400  0.110800  0.078100  1.0  -0.5897
  O  O157  1  0.467300  0.753700  0.373600  1.0  -0.6049
  O  O158  1  0.290100  0.813100  0.322200  1.0  -0.5599
  O  O159  1  0.217500  0.347300  0.294100  1.0  -0.5767
  O  O160  1  0.367400  0.481700  0.334000  1.0  -0.6792
  O  O161  1  0.712300  0.122000  0.265000  1.0  -0.527
  O  O162  1  0.918800  0.151400  0.254800  1.0  -0.566
  O  O163  1  0.410300  0.374100  0.535800  1.0  -0.5666
  O  O164  1  0.347900  0.461200  0.600800  1.0  -0.5552
  O  O165  1  0.899400  0.392200  0.641000  1.0  -0.5943
  O  O166  1  0.737400  0.389200  0.578100  1.0  -0.5894
  O  O167  1  0.532700  0.253700  0.126400  1.0  -0.6049
  O  O168  1  0.709900  0.313100  0.177800  1.0  -0.5601
  O  O169  1  0.782500  0.847300  0.205900  1.0  -0.5764
  O  O170  1  0.632600  0.981700  0.166000  1.0  -0.6788
  O  O171  1  0.287700  0.622000  0.235000  1.0  -0.5271
  O  O172  1  0.081200  0.651400  0.245200  1.0  -0.5669
  O  O173  1  0.589700  0.874100  0.964200  1.0  -0.5666
  O  O174  1  0.652100  0.961200  0.899200  1.0  -0.556
  O  O175  1  0.100600  0.892200  0.859000  1.0  -0.5961
  O  O176  1  0.262600  0.889200  0.921900  1.0  -0.5887
