# generated using pymatgen
data_Mn2H9C23O10
_symmetry_space_group_name_H-M   'P 1'
_cell_length_a   10.61500000
_cell_length_b   9.64190000
_cell_length_c   28.48000000
_cell_angle_alpha   90.00000000
_cell_angle_beta   94.81900000
_cell_angle_gamma   90.00000000
_symmetry_Int_Tables_number   1
_chemical_formula_structural   Mn2H9C23O10
_chemical_formula_sum   'Mn8 H36 C92 O40'
_cell_volume   2904.58894314
_cell_formula_units_Z   4
loop_
 _symmetry_equiv_pos_site_id
 _symmetry_equiv_pos_as_xyz
  1  'x, y, z'
loop_
 _atom_site_type_symbol
 _atom_site_label
 _atom_site_symmetry_multiplicity
 _atom_site_fract_x
 _atom_site_fract_y
 _atom_site_fract_z
 _atom_site_occupancy
 _atom_site_charge
  Mn  Mn1  1  0.552120  0.194680  0.094250  1.0  1.148
  Mn  Mn2  1  0.767700  0.260410  0.690870  1.0  1.1457
  Mn  Mn3  1  0.447880  0.694680  0.405750  1.0  1.148
  Mn  Mn4  1  0.232300  0.760410  0.809130  1.0  1.1465
  Mn  Mn5  1  0.447880  0.805320  0.905750  1.0  1.1474
  Mn  Mn6  1  0.232300  0.739590  0.309130  1.0  1.1462
  Mn  Mn7  1  0.552120  0.305320  0.594250  1.0  1.1484
  Mn  Mn8  1  0.767700  0.239590  0.190870  1.0  1.1451
  H  H9  1  0.108900  0.163600  0.107100  1.0  0.1227
  H  H10  1  0.828100  0.229300  0.006100  1.0  0.1198
  H  H11  1  0.170600  0.116400  0.971100  1.0  0.1275
  H  H12  1  0.763200  0.216900  0.935600  1.0  0.1234
  H  H13  1  0.049500  0.173500  0.823700  1.0  0.1117
  H  H14  1  0.117900  0.158500  0.901600  1.0  0.128
  H  H15  1  0.636100  0.441700  0.863400  1.0  0.1192
  H  H16  1  0.291900  0.284800  0.825100  1.0  0.1131
  H  H17  1  0.593700  0.032800  0.843100  1.0  0.1138
  H  H18  1  0.891100  0.663600  0.392900  1.0  0.1237
  H  H19  1  0.171900  0.729300  0.493900  1.0  0.1202
  H  H20  1  0.829400  0.616400  0.528900  1.0  0.1265
  H  H21  1  0.236800  0.716900  0.564400  1.0  0.1236
  H  H22  1  0.950500  0.673500  0.676300  1.0  0.1119
  H  H23  1  0.882100  0.658500  0.598400  1.0  0.1301
  H  H24  1  0.363900  0.941700  0.636600  1.0  0.1196
  H  H25  1  0.708100  0.784800  0.674900  1.0  0.1133
  H  H26  1  0.406300  0.532800  0.656900  1.0  0.1133
  H  H27  1  0.891100  0.836400  0.892900  1.0  0.1234
  H  H28  1  0.171900  0.770700  0.993900  1.0  0.1208
  H  H29  1  0.829400  0.883600  0.028900  1.0  0.1271
  H  H30  1  0.236800  0.783100  0.064400  1.0  0.124
  H  H31  1  0.950500  0.826500  0.176300  1.0  0.1118
  H  H32  1  0.882100  0.841500  0.098400  1.0  0.1303
  H  H33  1  0.363900  0.558300  0.136600  1.0  0.1194
  H  H34  1  0.708100  0.715200  0.174900  1.0  0.1134
  H  H35  1  0.406300  0.967200  0.156900  1.0  0.1138
  H  H36  1  0.108900  0.336400  0.607100  1.0  0.1229
  H  H37  1  0.828100  0.270700  0.506100  1.0  0.1201
  H  H38  1  0.170600  0.383600  0.471100  1.0  0.1277
  H  H39  1  0.763200  0.283100  0.435600  1.0  0.124
  H  H40  1  0.049500  0.326500  0.323700  1.0  0.1116
  H  H41  1  0.117900  0.341500  0.401600  1.0  0.1279
  H  H42  1  0.636100  0.058300  0.363400  1.0  0.1192
  H  H43  1  0.291900  0.215200  0.325100  1.0  0.1129
  H  H44  1  0.593700  0.467200  0.343100  1.0  0.1138
  C  C45  1  0.295100  0.092200  0.054340  1.0  0.734
  C  C46  1  0.160900  0.134400  0.040840  1.0  -0.1051
  C  C47  1  0.079200  0.164800  0.075460  1.0  0.0255
  C  C48  1  0.954000  0.196700  0.062520  1.0  -0.134
  C  C49  1  0.911800  0.205300  0.014610  1.0  -0.0581
  C  C50  1  0.991600  0.179000  0.979570  1.0  -0.0068
  C  C51  1  0.116400  0.139600  0.993860  1.0  -0.0774
  C  C52  1  0.861900  0.217100  0.099470  1.0  0.7181
  C  C53  1  0.948700  0.187900  0.928230  1.0  0.0574
  C  C54  1  0.821200  0.208200  0.913090  1.0  -0.0748
  C  C55  1  0.777300  0.215900  0.865450  1.0  -0.0012
  C  C56  1  0.864200  0.206200  0.831390  1.0  -0.1207
  C  C57  1  0.991400  0.183000  0.846210  1.0  -0.0269
  C  C58  1  0.032600  0.174100  0.893010  1.0  -0.1039
  C  C59  1  0.637900  0.234300  0.853980  1.0  0.0263
  C  C60  1  0.584600  0.365900  0.855240  1.0  -0.0365
  C  C61  1  0.454800  0.386500  0.844400  1.0  -0.1555
  C  C62  1  0.377900  0.272300  0.833030  1.0  0.0212
  C  C63  1  0.429600  0.139700  0.833560  1.0  -0.1339
  C  C64  1  0.559400  0.121500  0.843510  1.0  -0.0491
  C  C65  1  0.403800  0.531400  0.845370  1.0  0.7565
  C  C66  1  0.346900  0.015700  0.822230  1.0  0.7153
  C  C67  1  0.828700  0.224700  0.779520  1.0  0.6627
  C  C68  1  0.704900  0.592200  0.445660  1.0  0.7353
  C  C69  1  0.839100  0.634400  0.459160  1.0  -0.1046
  C  C70  1  0.920800  0.664800  0.424540  1.0  0.0243
  C  C71  1  0.046000  0.696700  0.437480  1.0  -0.1356
  C  C72  1  0.088200  0.705300  0.485390  1.0  -0.0581
  C  C73  1  0.008400  0.679000  0.520430  1.0  -0.0063
  C  C74  1  0.883600  0.639600  0.506140  1.0  -0.0759
  C  C75  1  0.138100  0.717100  0.400530  1.0  0.7185
  C  C76  1  0.051300  0.687900  0.571770  1.0  0.0585
  C  C77  1  0.178800  0.708200  0.586910  1.0  -0.0743
  C  C78  1  0.222700  0.715900  0.634550  1.0  -0.0008
  C  C79  1  0.135800  0.706200  0.668610  1.0  -0.1201
  C  C80  1  0.008600  0.683000  0.653790  1.0  -0.0276
  C  C81  1  0.967400  0.674100  0.606990  1.0  -0.1044
  C  C82  1  0.362100  0.734300  0.646020  1.0  0.0264
  C  C83  1  0.415400  0.865900  0.644760  1.0  -0.0374
  C  C84  1  0.545200  0.886500  0.655600  1.0  -0.1559
  C  C85  1  0.622100  0.772300  0.666970  1.0  0.0228
  C  C86  1  0.570400  0.639700  0.666440  1.0  -0.1339
  C  C87  1  0.440600  0.621500  0.656490  1.0  -0.0489
  C  C88  1  0.596200  0.031400  0.654630  1.0  0.7563
  C  C89  1  0.653100  0.515700  0.677770  1.0  0.7165
  C  C90  1  0.171300  0.724700  0.720480  1.0  0.6624
  C  C91  1  0.704900  0.907800  0.945660  1.0  0.7346
  C  C92  1  0.839100  0.865600  0.959160  1.0  -0.104
  C  C93  1  0.920800  0.835200  0.924540  1.0  0.0269
  C  C94  1  0.046000  0.803300  0.937480  1.0  -0.1362
  C  C95  1  0.088200  0.794700  0.985390  1.0  -0.057
  C  C96  1  0.008400  0.821000  0.020430  1.0  -0.0058
  C  C97  1  0.883600  0.860400  0.006140  1.0  -0.0748
  C  C98  1  0.138100  0.782900  0.900530  1.0  0.7178
  C  C99  1  0.051300  0.812100  0.071770  1.0  0.0585
  C  C100  1  0.178800  0.791800  0.086910  1.0  -0.076
  C  C101  1  0.222700  0.784100  0.134550  1.0  -0.0014
  C  C102  1  0.135800  0.793800  0.168610  1.0  -0.1203
  C  C103  1  0.008600  0.817000  0.153790  1.0  -0.027
  C  C104  1  0.967400  0.825900  0.106990  1.0  -0.1036
  C  C105  1  0.362100  0.765700  0.146020  1.0  0.0263
  C  C106  1  0.415400  0.634100  0.144760  1.0  -0.038
  C  C107  1  0.545200  0.613500  0.155600  1.0  -0.1556
  C  C108  1  0.622100  0.727700  0.166970  1.0  0.0233
  C  C109  1  0.570400  0.860300  0.166440  1.0  -0.134
  C  C110  1  0.440600  0.878500  0.156490  1.0  -0.0494
  C  C111  1  0.596200  0.468600  0.154630  1.0  0.7564
  C  C112  1  0.653100  0.984300  0.177770  1.0  0.7163
  C  C113  1  0.171300  0.775300  0.220480  1.0  0.6623
  C  C114  1  0.295100  0.407800  0.554340  1.0  0.7337
  C  C115  1  0.160900  0.365600  0.540840  1.0  -0.1043
  C  C116  1  0.079200  0.335200  0.575460  1.0  0.0264
  C  C117  1  0.954000  0.303300  0.562520  1.0  -0.134
  C  C118  1  0.911800  0.294700  0.514610  1.0  -0.0556
  C  C119  1  0.991600  0.321000  0.479570  1.0  -0.0049
  C  C120  1  0.116400  0.360400  0.493860  1.0  -0.0782
  C  C121  1  0.861900  0.282900  0.599470  1.0  0.7191
  C  C122  1  0.948700  0.312100  0.428230  1.0  0.0569
  C  C123  1  0.821200  0.291800  0.413090  1.0  -0.0754
  C  C124  1  0.777300  0.284100  0.365450  1.0  -0.0018
  C  C125  1  0.864200  0.293800  0.331390  1.0  -0.1203
  C  C126  1  0.991400  0.317000  0.346210  1.0  -0.0269
  C  C127  1  0.032600  0.325900  0.393010  1.0  -0.1042
  C  C128  1  0.637900  0.265700  0.353980  1.0  0.0266
  C  C129  1  0.584600  0.134100  0.355240  1.0  -0.0377
  C  C130  1  0.454800  0.113500  0.344400  1.0  -0.1556
  C  C131  1  0.377900  0.227700  0.333030  1.0  0.021
  C  C132  1  0.429600  0.360300  0.333560  1.0  -0.1335
  C  C133  1  0.559400  0.378500  0.343510  1.0  -0.0494
  C  C134  1  0.403800  0.968600  0.345370  1.0  0.7567
  C  C135  1  0.346900  0.484300  0.322230  1.0  0.715
  C  C136  1  0.828700  0.275300  0.279520  1.0  0.6628
  O  O137  1  0.351430  0.148700  0.090540  1.0  -0.5858
  O  O138  1  0.343800  0.005100  0.028780  1.0  -0.5757
  O  O139  1  0.904400  0.215300  0.141980  1.0  -0.5676
  O  O140  1  0.748400  0.234300  0.085710  1.0  -0.6768
  O  O141  1  0.472800  0.620100  0.867200  1.0  -0.6258
  O  O142  1  0.297500  0.555700  0.824180  1.0  -0.5782
  O  O143  1  0.387700  0.895800  0.835690  1.0  -0.6479
  O  O144  1  0.241400  0.029900  0.800410  1.0  -0.6295
  O  O145  1  0.910700  0.209900  0.750570  1.0  -0.6021
  O  O146  1  0.719000  0.257100  0.764770  1.0  -0.5199
  O  O147  1  0.648570  0.648700  0.409460  1.0  -0.5867
  O  O148  1  0.656200  0.505100  0.471220  1.0  -0.5764
  O  O149  1  0.095600  0.715300  0.358020  1.0  -0.5716
  O  O150  1  0.251600  0.734300  0.414290  1.0  -0.6778
  O  O151  1  0.527200  0.120100  0.632800  1.0  -0.6267
  O  O152  1  0.702500  0.055700  0.675820  1.0  -0.5781
  O  O153  1  0.612300  0.395800  0.664310  1.0  -0.647
  O  O154  1  0.758600  0.529900  0.699590  1.0  -0.6297
  O  O155  1  0.089300  0.709900  0.749430  1.0  -0.5986
  O  O156  1  0.281000  0.757100  0.735230  1.0  -0.5214
  O  O157  1  0.648570  0.851300  0.909460  1.0  -0.5856
  O  O158  1  0.656200  0.994900  0.971220  1.0  -0.5771
  O  O159  1  0.095600  0.784700  0.858020  1.0  -0.5695
  O  O160  1  0.251600  0.765700  0.914290  1.0  -0.6803
  O  O161  1  0.527200  0.379900  0.132800  1.0  -0.6266
  O  O162  1  0.702500  0.444300  0.175820  1.0  -0.5782
  O  O163  1  0.612300  0.104200  0.164310  1.0  -0.6481
  O  O164  1  0.758600  0.970100  0.199590  1.0  -0.6295
  O  O165  1  0.089300  0.790100  0.249430  1.0  -0.5989
  O  O166  1  0.281000  0.742900  0.235230  1.0  -0.5205
  O  O167  1  0.351430  0.351300  0.590540  1.0  -0.585
  O  O168  1  0.343800  0.494900  0.528780  1.0  -0.5763
  O  O169  1  0.904400  0.284700  0.641980  1.0  -0.5671
  O  O170  1  0.748400  0.265700  0.585710  1.0  -0.6784
  O  O171  1  0.472800  0.879900  0.367200  1.0  -0.6263
  O  O172  1  0.297500  0.944300  0.324180  1.0  -0.5781
  O  O173  1  0.387700  0.604200  0.335690  1.0  -0.6488
  O  O174  1  0.241400  0.470100  0.300410  1.0  -0.6295
  O  O175  1  0.910700  0.290100  0.250570  1.0  -0.5999
  O  O176  1  0.719000  0.242900  0.264770  1.0  -0.52
