# generated using pymatgen
data_Ga3P3(O6F)2
_symmetry_space_group_name_H-M   'P 1'
_cell_length_a   16.02060000
_cell_length_b   10.10700000
_cell_length_c   18.53300000
_cell_angle_alpha   90.00000000
_cell_angle_beta   90.00000000
_cell_angle_gamma   90.00000000
_symmetry_Int_Tables_number   1
_chemical_formula_structural   Ga3P3(O6F)2
_chemical_formula_sum   'Ga24 P24 O96 F16'
_cell_volume   3000.86714444
_cell_formula_units_Z   8
loop_
 _symmetry_equiv_pos_site_id
 _symmetry_equiv_pos_as_xyz
  1  'x, y, z'
loop_
 _atom_site_type_symbol
 _atom_site_label
 _atom_site_symmetry_multiplicity
 _atom_site_fract_x
 _atom_site_fract_y
 _atom_site_fract_z
 _atom_site_occupancy
 _atom_site_charge
  Ga  Ga1  1  0.038400  0.681680  0.282050  1.0  1.6507
  Ga  Ga2  1  0.849710  0.833230  0.324000  1.0  1.7373
  Ga  Ga3  1  0.009140  0.652380  0.092280  1.0  1.6248
  Ga  Ga4  1  0.461600  0.318320  0.782050  1.0  1.6512
  Ga  Ga5  1  0.650290  0.166770  0.824000  1.0  1.7374
  Ga  Ga6  1  0.490860  0.347620  0.592280  1.0  1.6233
  Ga  Ga7  1  0.961600  0.181680  0.217950  1.0  1.6521
  Ga  Ga8  1  0.150290  0.333230  0.176000  1.0  1.7369
  Ga  Ga9  1  0.990860  0.152380  0.407720  1.0  1.6264
  Ga  Ga10  1  0.538400  0.818320  0.717950  1.0  1.6503
  Ga  Ga11  1  0.349710  0.666770  0.676000  1.0  1.7351
  Ga  Ga12  1  0.509140  0.847620  0.907720  1.0  1.6257
  Ga  Ga13  1  0.961600  0.318320  0.717950  1.0  1.6518
  Ga  Ga14  1  0.150290  0.166770  0.676000  1.0  1.7362
  Ga  Ga15  1  0.990860  0.347620  0.907720  1.0  1.6257
  Ga  Ga16  1  0.538400  0.681680  0.217950  1.0  1.6508
  Ga  Ga17  1  0.349710  0.833230  0.176000  1.0  1.7358
  Ga  Ga18  1  0.509140  0.652380  0.407720  1.0  1.6262
  Ga  Ga19  1  0.038400  0.818320  0.782050  1.0  1.6502
  Ga  Ga20  1  0.849710  0.666770  0.824000  1.0  1.7366
  Ga  Ga21  1  0.009140  0.847620  0.592280  1.0  1.6239
  Ga  Ga22  1  0.461600  0.181680  0.282050  1.0  1.6516
  Ga  Ga23  1  0.650290  0.333230  0.324000  1.0  1.7382
  Ga  Ga24  1  0.490860  0.152380  0.092280  1.0  1.6243
  P  P25  1  0.060940  0.378500  0.316040  1.0  1.8664
  P  P26  1  0.183860  0.648300  0.168420  1.0  1.8418
  P  P27  1  0.011950  0.857900  0.422630  1.0  1.8407
  P  P28  1  0.439060  0.621500  0.816040  1.0  1.8651
  P  P29  1  0.316140  0.351700  0.668420  1.0  1.8377
  P  P30  1  0.488050  0.142100  0.922630  1.0  1.8397
  P  P31  1  0.939060  0.878500  0.183960  1.0  1.8634
  P  P32  1  0.816140  0.148300  0.331580  1.0  1.8381
  P  P33  1  0.988050  0.357900  0.077370  1.0  1.8382
  P  P34  1  0.560940  0.121500  0.683960  1.0  1.8643
  P  P35  1  0.683860  0.851700  0.831580  1.0  1.8416
  P  P36  1  0.511950  0.642100  0.577370  1.0  1.8403
  P  P37  1  0.939060  0.621500  0.683960  1.0  1.8634
  P  P38  1  0.816140  0.351700  0.831580  1.0  1.8381
  P  P39  1  0.988050  0.142100  0.577370  1.0  1.8388
  P  P40  1  0.560940  0.378500  0.183960  1.0  1.8643
  P  P41  1  0.683860  0.648300  0.331580  1.0  1.8414
  P  P42  1  0.511950  0.857900  0.077370  1.0  1.8401
  P  P43  1  0.060940  0.121500  0.816040  1.0  1.8667
  P  P44  1  0.183860  0.851700  0.668420  1.0  1.8419
  P  P45  1  0.011950  0.642100  0.922630  1.0  1.8409
  P  P46  1  0.439060  0.878500  0.316040  1.0  1.8649
  P  P47  1  0.316140  0.148300  0.168420  1.0  1.8376
  P  P48  1  0.488050  0.357900  0.422630  1.0  1.8392
  O  O49  1  0.059100  0.524000  0.339300  1.0  -0.7299
  O  O50  1  0.143700  0.350500  0.276300  1.0  -0.7872
  O  O51  1  0.986600  0.346100  0.268100  1.0  -0.7853
  O  O52  1  0.059900  0.295800  0.385700  1.0  -0.7421
  O  O53  1  0.151200  0.689600  0.242600  1.0  -0.7291
  O  O54  1  0.207800  0.501600  0.167400  1.0  -0.7806
  O  O55  1  0.121800  0.679700  0.107400  1.0  -0.842
  O  O56  1  0.261600  0.728600  0.149600  1.0  -0.9723
  O  O57  1  0.065200  0.784400  0.366800  1.0  -0.7486
  O  O58  1  0.920200  0.871700  0.400300  1.0  -0.8553
  O  O59  1  0.017700  0.783700  0.494200  1.0  -0.756
  O  O60  1  0.047900  0.998400  0.432000  1.0  -0.7903
  O  O61  1  0.440900  0.476000  0.839300  1.0  -0.7301
  O  O62  1  0.356300  0.649500  0.776300  1.0  -0.7862
  O  O63  1  0.513400  0.653900  0.768100  1.0  -0.7844
  O  O64  1  0.440100  0.704200  0.885700  1.0  -0.7422
  O  O65  1  0.348800  0.310400  0.742600  1.0  -0.7309
  O  O66  1  0.292200  0.498400  0.667400  1.0  -0.7818
  O  O67  1  0.378200  0.320300  0.607400  1.0  -0.8403
  O  O68  1  0.238400  0.271400  0.649600  1.0  -0.9731
  O  O69  1  0.434800  0.215600  0.866800  1.0  -0.7481
  O  O70  1  0.579800  0.128300  0.900300  1.0  -0.856
  O  O71  1  0.482300  0.216300  0.994200  1.0  -0.7552
  O  O72  1  0.452100  0.001600  0.932000  1.0  -0.7889
  O  O73  1  0.940900  0.024000  0.160700  1.0  -0.7298
  O  O74  1  0.856300  0.850500  0.223700  1.0  -0.7873
  O  O75  1  0.013400  0.846100  0.231900  1.0  -0.7839
  O  O76  1  0.940100  0.795800  0.114300  1.0  -0.7438
  O  O77  1  0.848800  0.189600  0.257400  1.0  -0.7312
  O  O78  1  0.792200  0.001600  0.332600  1.0  -0.7816
  O  O79  1  0.878200  0.179700  0.392600  1.0  -0.8388
  O  O80  1  0.738400  0.228600  0.350400  1.0  -0.9736
  O  O81  1  0.934800  0.284400  0.133200  1.0  -0.7487
  O  O82  1  0.079800  0.371700  0.099700  1.0  -0.856
  O  O83  1  0.982300  0.283700  0.005800  1.0  -0.7557
  O  O84  1  0.952100  0.498400  0.068000  1.0  -0.7891
  O  O85  1  0.559100  0.976000  0.660700  1.0  -0.7311
  O  O86  1  0.643700  0.149500  0.723700  1.0  -0.7878
  O  O87  1  0.486600  0.153900  0.731900  1.0  -0.7851
  O  O88  1  0.559900  0.204200  0.614300  1.0  -0.7435
  O  O89  1  0.651200  0.810400  0.757400  1.0  -0.7301
  O  O90  1  0.707800  0.998400  0.832600  1.0  -0.7812
  O  O91  1  0.621800  0.820300  0.892600  1.0  -0.8383
  O  O92  1  0.761600  0.771400  0.850400  1.0  -0.9726
  O  O93  1  0.565200  0.715600  0.633200  1.0  -0.7485
  O  O94  1  0.420200  0.628300  0.599700  1.0  -0.8568
  O  O95  1  0.517700  0.716300  0.505800  1.0  -0.7546
  O  O96  1  0.547900  0.501600  0.568000  1.0  -0.7901
  O  O97  1  0.940900  0.476000  0.660700  1.0  -0.7297
  O  O98  1  0.856300  0.649500  0.723700  1.0  -0.7869
  O  O99  1  0.013400  0.653900  0.731900  1.0  -0.7842
  O  O100  1  0.940100  0.704200  0.614300  1.0  -0.7433
  O  O101  1  0.848800  0.310400  0.757400  1.0  -0.7312
  O  O102  1  0.792200  0.498400  0.832600  1.0  -0.782
  O  O103  1  0.878200  0.320300  0.892600  1.0  -0.838
  O  O104  1  0.738400  0.271400  0.850400  1.0  -0.9735
  O  O105  1  0.934800  0.215600  0.633200  1.0  -0.7486
  O  O106  1  0.079800  0.128300  0.599700  1.0  -0.8566
  O  O107  1  0.982300  0.216300  0.505800  1.0  -0.755
  O  O108  1  0.952100  0.001600  0.568000  1.0  -0.7891
  O  O109  1  0.559100  0.524000  0.160700  1.0  -0.7312
  O  O110  1  0.643700  0.350500  0.223700  1.0  -0.7867
  O  O111  1  0.486600  0.346100  0.231900  1.0  -0.7849
  O  O112  1  0.559900  0.295800  0.114300  1.0  -0.7442
  O  O113  1  0.651200  0.689600  0.257400  1.0  -0.7298
  O  O114  1  0.707800  0.501600  0.332600  1.0  -0.7812
  O  O115  1  0.621800  0.679700  0.392600  1.0  -0.8386
  O  O116  1  0.761600  0.728600  0.350400  1.0  -0.9727
  O  O117  1  0.565200  0.784400  0.133200  1.0  -0.7489
  O  O118  1  0.420200  0.871700  0.099700  1.0  -0.8565
  O  O119  1  0.517700  0.783700  0.005800  1.0  -0.7554
  O  O120  1  0.547900  0.998400  0.068000  1.0  -0.7901
  O  O121  1  0.059100  0.976000  0.839300  1.0  -0.73
  O  O122  1  0.143700  0.149500  0.776300  1.0  -0.7869
  O  O123  1  0.986600  0.153900  0.768100  1.0  -0.7853
  O  O124  1  0.059900  0.204200  0.885700  1.0  -0.7415
  O  O125  1  0.151200  0.810400  0.742600  1.0  -0.7289
  O  O126  1  0.207800  0.998400  0.667400  1.0  -0.7811
  O  O127  1  0.121800  0.820300  0.607400  1.0  -0.8412
  O  O128  1  0.261600  0.771400  0.649600  1.0  -0.9726
  O  O129  1  0.065200  0.715600  0.866800  1.0  -0.7482
  O  O130  1  0.920200  0.628300  0.900300  1.0  -0.8558
  O  O131  1  0.017700  0.716300  0.994200  1.0  -0.7549
  O  O132  1  0.047900  0.501600  0.932000  1.0  -0.7904
  O  O133  1  0.440900  0.024000  0.339300  1.0  -0.7301
  O  O134  1  0.356300  0.850500  0.276300  1.0  -0.7863
  O  O135  1  0.513400  0.846100  0.268100  1.0  -0.784
  O  O136  1  0.440100  0.795800  0.385700  1.0  -0.7425
  O  O137  1  0.348800  0.189600  0.242600  1.0  -0.7316
  O  O138  1  0.292200  0.001600  0.167400  1.0  -0.7817
  O  O139  1  0.378200  0.179700  0.107400  1.0  -0.8414
  O  O140  1  0.238400  0.228600  0.149600  1.0  -0.9729
  O  O141  1  0.434800  0.284400  0.366800  1.0  -0.7481
  O  O142  1  0.579800  0.371700  0.400300  1.0  -0.8551
  O  O143  1  0.482300  0.283700  0.494200  1.0  -0.7564
  O  O144  1  0.452100  0.498400  0.432000  1.0  -0.7889
  F  F145  1  0.003100  0.588500  0.195200  1.0  -0.5421
  F  F146  1  0.919900  0.669200  0.310500  1.0  -0.4982
  F  F147  1  0.496900  0.411500  0.695200  1.0  -0.5411
  F  F148  1  0.580100  0.330800  0.810500  1.0  -0.4948
  F  F149  1  0.996900  0.088500  0.304800  1.0  -0.5434
  F  F150  1  0.080100  0.169200  0.189500  1.0  -0.4971
  F  F151  1  0.503100  0.911500  0.804800  1.0  -0.5411
  F  F152  1  0.419900  0.830800  0.689500  1.0  -0.4961
  F  F153  1  0.996900  0.411500  0.804800  1.0  -0.5414
  F  F154  1  0.080100  0.330800  0.689500  1.0  -0.4946
  F  F155  1  0.503100  0.588500  0.304800  1.0  -0.5424
  F  F156  1  0.419900  0.669200  0.189500  1.0  -0.4984
  F  F157  1  0.003100  0.911500  0.695200  1.0  -0.5409
  F  F158  1  0.919900  0.830800  0.810500  1.0  -0.496
  F  F159  1  0.496900  0.088500  0.195200  1.0  -0.5432
  F  F160  1  0.580100  0.169200  0.310500  1.0  -0.4973
