# generated using pymatgen
data_NiMo2H14C22N3O5
_symmetry_space_group_name_H-M   'P 1'
_cell_length_a   8.98640000
_cell_length_b   27.78850000
_cell_length_c   10.95300000
_cell_angle_alpha   90.00000000
_cell_angle_beta   99.19600000
_cell_angle_gamma   90.00000000
_symmetry_Int_Tables_number   1
_chemical_formula_structural   NiMo2H14C22N3O5
_chemical_formula_sum   'Ni4 Mo8 H56 C88 N12 O20'
_cell_volume   2700.01361959
_cell_formula_units_Z   4
loop_
 _symmetry_equiv_pos_site_id
 _symmetry_equiv_pos_as_xyz
  1  'x, y, z'
loop_
 _atom_site_type_symbol
 _atom_site_label
 _atom_site_symmetry_multiplicity
 _atom_site_fract_x
 _atom_site_fract_y
 _atom_site_fract_z
 _atom_site_occupancy
 _atom_site_charge
  Ni  Ni1  1  0.250000  0.617220  0.000000  1.0  0.8804
  Ni  Ni2  1  0.750000  0.117220  0.500000  1.0  0.8804
  Ni  Ni3  1  0.750000  0.382780  0.000000  1.0  0.8805
  Ni  Ni4  1  0.250000  0.882780  0.500000  1.0  0.8805
  Mo  Mo5  1  0.585690  0.649030  0.874050  1.0  0.5597
  Mo  Mo6  1  0.085690  0.149030  0.374050  1.0  0.5597
  Mo  Mo7  1  0.914310  0.649030  0.125950  1.0  0.5579
  Mo  Mo8  1  0.414310  0.149030  0.625950  1.0  0.5579
  Mo  Mo9  1  0.414310  0.350970  0.125950  1.0  0.5563
  Mo  Mo10  1  0.914310  0.850970  0.625950  1.0  0.5563
  Mo  Mo11  1  0.085690  0.350970  0.874050  1.0  0.5574
  Mo  Mo12  1  0.585690  0.850970  0.374050  1.0  0.5574
  H  H13  1  0.251400  0.513300  0.116200  1.0  0.0721
  H  H14  1  0.397700  0.467600  0.262100  1.0  0.1288
  H  H15  1  0.669100  0.581600  0.340600  1.0  0.1282
  H  H16  1  0.521400  0.622600  0.186200  1.0  0.087
  H  H17  1  0.581400  0.424700  0.355800  1.0  0.1265
  H  H18  1  0.704700  0.352500  0.314600  1.0  0.1119
  H  H19  1  0.691400  0.269500  0.315200  1.0  0.1063
  H  H20  1  0.751400  0.013300  0.616200  1.0  0.0721
  H  H21  1  0.897700  0.967600  0.762100  1.0  0.1288
  H  H22  1  0.169100  0.081600  0.840600  1.0  0.1282
  H  H23  1  0.021400  0.122600  0.686200  1.0  0.087
  H  H24  1  0.081400  0.924700  0.855800  1.0  0.1265
  H  H25  1  0.204700  0.852500  0.814600  1.0  0.1119
  H  H26  1  0.191400  0.769500  0.815200  1.0  0.1063
  H  H27  1  0.248600  0.513300  0.883800  1.0  0.0728
  H  H28  1  0.102300  0.467600  0.737900  1.0  0.1291
  H  H29  1  0.830900  0.581600  0.659400  1.0  0.1288
  H  H30  1  0.978600  0.622600  0.813800  1.0  0.0875
  H  H31  1  0.918600  0.424700  0.644200  1.0  0.1256
  H  H32  1  0.795300  0.352500  0.685400  1.0  0.1116
  H  H33  1  0.808600  0.269500  0.684800  1.0  0.1057
  H  H34  1  0.748600  0.013300  0.383800  1.0  0.0728
  H  H35  1  0.602300  0.967600  0.237900  1.0  0.1291
  H  H36  1  0.330900  0.081600  0.159400  1.0  0.1288
  H  H37  1  0.478600  0.122600  0.313800  1.0  0.0875
  H  H38  1  0.418600  0.924700  0.144200  1.0  0.1256
  H  H39  1  0.295300  0.852500  0.185400  1.0  0.1116
  H  H40  1  0.308600  0.769500  0.184800  1.0  0.1057
  H  H41  1  0.748600  0.486700  0.883800  1.0  0.0725
  H  H42  1  0.602300  0.532400  0.737900  1.0  0.1285
  H  H43  1  0.330900  0.418400  0.659400  1.0  0.1285
  H  H44  1  0.478600  0.377400  0.813800  1.0  0.087
  H  H45  1  0.418600  0.575300  0.644200  1.0  0.1257
  H  H46  1  0.295300  0.647500  0.685400  1.0  0.1115
  H  H47  1  0.308600  0.730500  0.684800  1.0  0.1057
  H  H48  1  0.248600  0.986700  0.383800  1.0  0.0725
  H  H49  1  0.102300  0.032400  0.237900  1.0  0.1285
  H  H50  1  0.830900  0.918400  0.159400  1.0  0.1285
  H  H51  1  0.978600  0.877400  0.313800  1.0  0.087
  H  H52  1  0.918600  0.075300  0.144200  1.0  0.1257
  H  H53  1  0.795300  0.147500  0.185400  1.0  0.1115
  H  H54  1  0.808600  0.230500  0.184800  1.0  0.1057
  H  H55  1  0.751400  0.486700  0.116200  1.0  0.0723
  H  H56  1  0.897700  0.532400  0.262100  1.0  0.1293
  H  H57  1  0.169100  0.418400  0.340600  1.0  0.1283
  H  H58  1  0.021400  0.377400  0.186200  1.0  0.0868
  H  H59  1  0.081400  0.575300  0.355800  1.0  0.1268
  H  H60  1  0.204700  0.647500  0.314600  1.0  0.1123
  H  H61  1  0.191400  0.730500  0.315200  1.0  0.1066
  H  H62  1  0.251400  0.986700  0.616200  1.0  0.0723
  H  H63  1  0.397700  0.032400  0.762100  1.0  0.1293
  H  H64  1  0.669100  0.918400  0.840600  1.0  0.1283
  H  H65  1  0.521400  0.877400  0.686200  1.0  0.0868
  H  H66  1  0.581400  0.075300  0.855800  1.0  0.1268
  H  H67  1  0.704700  0.147500  0.814600  1.0  0.1123
  H  H68  1  0.691400  0.230500  0.815200  1.0  0.1066
  C  C69  1  0.338000  0.527010  0.160400  1.0  0.1881
  C  C70  1  0.424700  0.499320  0.249600  1.0  -0.1807
  C  C71  1  0.552400  0.519000  0.320700  1.0  0.0442
  C  C72  1  0.585800  0.566480  0.295100  1.0  -0.1399
  C  C73  1  0.495300  0.591080  0.202400  1.0  0.1679
  C  C74  1  0.653700  0.490930  0.416200  1.0  0.2424
  C  C75  1  0.650200  0.440840  0.414200  1.0  -0.0796
  C  C76  1  0.721200  0.335970  0.389300  1.0  -0.1097
  C  C77  1  0.716700  0.286100  0.389400  1.0  -0.0465
  C  C78  1  0.838000  0.027010  0.660400  1.0  0.1881
  C  C79  1  0.924700  0.999320  0.749600  1.0  -0.1807
  C  C80  1  0.052400  0.019000  0.820700  1.0  0.0442
  C  C81  1  0.085800  0.066480  0.795100  1.0  -0.1399
  C  C82  1  0.995300  0.091080  0.702400  1.0  0.1679
  C  C83  1  0.153700  0.990930  0.916200  1.0  0.2424
  C  C84  1  0.150200  0.940840  0.914200  1.0  -0.0796
  C  C85  1  0.221200  0.835970  0.889300  1.0  -0.1097
  C  C86  1  0.216700  0.786100  0.889400  1.0  -0.0465
  C  C87  1  0.162000  0.527010  0.839600  1.0  0.1881
  C  C88  1  0.075300  0.499320  0.750400  1.0  -0.1793
  C  C89  1  0.947600  0.519000  0.679300  1.0  0.0441
  C  C90  1  0.914200  0.566480  0.704900  1.0  -0.1393
  C  C91  1  0.004700  0.591080  0.797600  1.0  0.1675
  C  C92  1  0.846300  0.490930  0.583800  1.0  0.2428
  C  C93  1  0.849800  0.440840  0.585800  1.0  -0.0791
  C  C94  1  0.778800  0.335970  0.610700  1.0  -0.1106
  C  C95  1  0.783300  0.286100  0.610600  1.0  -0.0476
  C  C96  1  0.662000  0.027010  0.339600  1.0  0.1881
  C  C97  1  0.575300  0.999320  0.250400  1.0  -0.1793
  C  C98  1  0.447600  0.019000  0.179300  1.0  0.0441
  C  C99  1  0.414200  0.066480  0.204900  1.0  -0.1393
  C  C100  1  0.504700  0.091080  0.297600  1.0  0.1675
  C  C101  1  0.346300  0.990930  0.083800  1.0  0.2428
  C  C102  1  0.349800  0.940840  0.085800  1.0  -0.0791
  C  C103  1  0.278800  0.835970  0.110700  1.0  -0.1106
  C  C104  1  0.283300  0.786100  0.110600  1.0  -0.0476
  C  C105  1  0.750000  0.414990  0.500000  1.0  0.058
  C  C106  1  0.750000  0.361610  0.500000  1.0  0.053
  C  C107  1  0.750000  0.260700  0.500000  1.0  -0.1081
  C  C108  1  0.750000  0.206690  0.500000  1.0  0.6691
  C  C109  1  0.250000  0.914990  0.000000  1.0  0.058
  C  C110  1  0.250000  0.861610  0.000000  1.0  0.053
  C  C111  1  0.250000  0.760700  0.000000  1.0  -0.1081
  C  C112  1  0.250000  0.706690  0.000000  1.0  0.6691
  C  C113  1  0.662000  0.472990  0.839600  1.0  0.1878
  C  C114  1  0.575300  0.500680  0.750400  1.0  -0.1801
  C  C115  1  0.447600  0.481000  0.679300  1.0  0.0444
  C  C116  1  0.414200  0.433520  0.704900  1.0  -0.1369
  C  C117  1  0.504700  0.408920  0.797600  1.0  0.1682
  C  C118  1  0.346300  0.509070  0.583800  1.0  0.2424
  C  C119  1  0.349800  0.559160  0.585800  1.0  -0.0787
  C  C120  1  0.278800  0.664030  0.610700  1.0  -0.1112
  C  C121  1  0.283300  0.713900  0.610600  1.0  -0.0468
  C  C122  1  0.162000  0.972990  0.339600  1.0  0.1878
  C  C123  1  0.075300  0.000680  0.250400  1.0  -0.1801
  C  C124  1  0.947600  0.981000  0.179300  1.0  0.0444
  C  C125  1  0.914200  0.933520  0.204900  1.0  -0.1369
  C  C126  1  0.004700  0.908920  0.297600  1.0  0.1682
  C  C127  1  0.846300  0.009070  0.083800  1.0  0.2424
  C  C128  1  0.849800  0.059160  0.085800  1.0  -0.0787
  C  C129  1  0.778800  0.164030  0.110700  1.0  -0.1112
  C  C130  1  0.783300  0.213900  0.110600  1.0  -0.0468
  C  C131  1  0.838000  0.472990  0.160400  1.0  0.1878
  C  C132  1  0.924700  0.500680  0.249600  1.0  -0.1807
  C  C133  1  0.052400  0.481000  0.320700  1.0  0.0437
  C  C134  1  0.085800  0.433520  0.295100  1.0  -0.138
  C  C135  1  0.995300  0.408920  0.202400  1.0  0.1688
  C  C136  1  0.153700  0.509070  0.416200  1.0  0.2425
  C  C137  1  0.150200  0.559160  0.414200  1.0  -0.0793
  C  C138  1  0.221200  0.664030  0.389300  1.0  -0.1104
  C  C139  1  0.216700  0.713900  0.389400  1.0  -0.0471
  C  C140  1  0.338000  0.972990  0.660400  1.0  0.1878
  C  C141  1  0.424700  0.000680  0.749600  1.0  -0.1807
  C  C142  1  0.552400  0.981000  0.820700  1.0  0.0437
  C  C143  1  0.585800  0.933520  0.795100  1.0  -0.138
  C  C144  1  0.495300  0.908920  0.702400  1.0  0.1688
  C  C145  1  0.653700  0.009070  0.916200  1.0  0.2425
  C  C146  1  0.650200  0.059160  0.914200  1.0  -0.0793
  C  C147  1  0.721200  0.164030  0.889300  1.0  -0.1104
  C  C148  1  0.716700  0.213900  0.889400  1.0  -0.0471
  C  C149  1  0.250000  0.585010  0.500000  1.0  0.058
  C  C150  1  0.250000  0.638390  0.500000  1.0  0.0526
  C  C151  1  0.250000  0.739300  0.500000  1.0  -0.1077
  C  C152  1  0.250000  0.793310  0.500000  1.0  0.6694
  C  C153  1  0.750000  0.085010  0.000000  1.0  0.058
  C  C154  1  0.750000  0.138390  0.000000  1.0  0.0526
  C  C155  1  0.750000  0.239300  0.000000  1.0  -0.1077
  C  C156  1  0.750000  0.293310  0.000000  1.0  0.6694
  N  N157  1  0.371600  0.572320  0.133990  1.0  -0.3211
  N  N158  1  0.871600  0.072320  0.633990  1.0  -0.3211
  N  N159  1  0.128400  0.572320  0.866010  1.0  -0.3208
  N  N160  1  0.628400  0.072320  0.366010  1.0  -0.3208
  N  N161  1  0.750000  0.515900  0.500000  1.0  -0.4713
  N  N162  1  0.250000  0.015900  0.000000  1.0  -0.4713
  N  N163  1  0.628400  0.427680  0.866010  1.0  -0.3199
  N  N164  1  0.128400  0.927680  0.366010  1.0  -0.3199
  N  N165  1  0.871600  0.427680  0.133990  1.0  -0.322
  N  N166  1  0.371600  0.927680  0.633990  1.0  -0.322
  N  N167  1  0.250000  0.484100  0.500000  1.0  -0.4719
  N  N168  1  0.750000  0.984100  0.000000  1.0  -0.4719
  O  O169  1  0.669370  0.183960  0.413400  1.0  -0.5581
  O  O170  1  0.430900  0.615830  0.906570  1.0  -0.693
  O  O171  1  0.169370  0.683960  0.913400  1.0  -0.5581
  O  O172  1  0.930900  0.115830  0.406570  1.0  -0.693
  O  O173  1  0.830630  0.183960  0.586600  1.0  -0.559
  O  O174  1  0.069100  0.615830  0.093430  1.0  -0.6949
  O  O175  1  0.330630  0.683960  0.086600  1.0  -0.5589
  O  O176  1  0.569100  0.115830  0.593430  1.0  -0.6949
  O  O177  1  0.750000  0.637990  0.000000  1.0  -0.7462
  O  O178  1  0.250000  0.137990  0.500000  1.0  -0.7462
  O  O179  1  0.330630  0.816040  0.586600  1.0  -0.5585
  O  O180  1  0.569100  0.384170  0.093430  1.0  -0.6942
  O  O181  1  0.830630  0.316040  0.086600  1.0  -0.5585
  O  O182  1  0.069100  0.884170  0.593430  1.0  -0.6942
  O  O183  1  0.169370  0.816040  0.413400  1.0  -0.5587
  O  O184  1  0.930900  0.384170  0.906570  1.0  -0.6921
  O  O185  1  0.669370  0.316040  0.913400  1.0  -0.5585
  O  O186  1  0.430900  0.884170  0.406570  1.0  -0.6921
  O  O187  1  0.250000  0.362010  0.000000  1.0  -0.7481
  O  O188  1  0.750000  0.862010  0.500000  1.0  -0.7481
