# generated using pymatgen
data_Fe2Ni3H50(C10N7)3
_symmetry_space_group_name_H-M   'P 1'
_cell_length_a   14.02160000
_cell_length_b   14.02160000
_cell_length_c   16.68100000
_cell_angle_alpha   80.93100000
_cell_angle_beta   80.93100000
_cell_angle_gamma   61.52740000
_symmetry_Int_Tables_number   1
_chemical_formula_structural   Fe2Ni3H50(C10N7)3
_chemical_formula_sum   'Fe4 Ni6 H100 C60 N42'
_cell_volume   2833.97440545
_cell_formula_units_Z   2
loop_
 _symmetry_equiv_pos_site_id
 _symmetry_equiv_pos_as_xyz
  1  'x, y, z'
loop_
 _atom_site_type_symbol
 _atom_site_label
 _atom_site_symmetry_multiplicity
 _atom_site_fract_x
 _atom_site_fract_y
 _atom_site_fract_z
 _atom_site_occupancy
 _atom_site_charge
  Fe  Fe1  1  0.838520  0.780840  0.418540  1.0  -0.4599
  Fe  Fe2  1  0.219160  0.161480  0.081460  1.0  -0.4601
  Fe  Fe3  1  0.161480  0.219160  0.581460  1.0  -0.4607
  Fe  Fe4  1  0.780840  0.838520  0.918540  1.0  -0.4607
  Ni  Ni5  1  0.954210  0.590690  0.693270  1.0  0.7376
  Ni  Ni6  1  0.409310  0.045790  0.806730  1.0  0.7396
  Ni  Ni7  1  0.045790  0.409310  0.306730  1.0  0.7387
  Ni  Ni8  1  0.590690  0.954210  0.193270  1.0  0.7367
  Ni  Ni9  1  0.105950  0.894050  0.250000  1.0  0.6108
  Ni  Ni10  1  0.894050  0.105950  0.750000  1.0  0.611
  H  H11  1  0.076300  0.669500  0.717900  1.0  0.26
  H  H12  1  0.134700  0.594300  0.648000  1.0  0.3195
  H  H13  1  0.219700  0.545700  0.773600  1.0  0.052
  H  H14  1  0.225000  0.453400  0.729800  1.0  0.066
  H  H15  1  0.195200  0.429800  0.860600  1.0  0.1292
  H  H16  1  0.090700  0.541300  0.859600  1.0  0.0989
  H  H17  1  0.055500  0.405700  0.895800  1.0  0.0808
  H  H18  1  0.109200  0.359400  0.812600  1.0  0.0356
  H  H19  1  0.922600  0.521600  0.857700  1.0  0.2581
  H  H20  1  0.895900  0.433300  0.882500  1.0  0.0597
  H  H21  1  0.946900  0.370300  0.805500  1.0  0.0285
  H  H22  1  0.758500  0.528100  0.838900  1.0  0.1194
  H  H23  1  0.793300  0.415500  0.809600  1.0  0.1127
  H  H24  1  0.684000  0.579400  0.729700  1.0  0.0519
  H  H25  1  0.771200  0.478400  0.686800  1.0  0.0556
  H  H26  1  0.753700  0.674300  0.675500  1.0  0.2971
  H  H27  1  0.816500  0.584700  0.615900  1.0  0.2947
  H  H28  1  0.221800  0.931000  0.329700  1.0  0.2717
  H  H29  1  0.175000  0.862200  0.387700  1.0  0.3046
  H  H30  1  0.140600  0.044400  0.394900  1.0  0.0681
  H  H31  1  0.084700  0.979700  0.447000  1.0  0.0349
  H  H32  1  0.007800  0.156200  0.369800  1.0  0.0989
  H  H33  1  0.951600  0.094200  0.425600  1.0  0.0934
  H  H34  1  0.863600  0.116200  0.341000  1.0  0.0847
  H  H35  1  0.917500  0.180900  0.286100  1.0  0.0668
  H  H36  1  0.330500  0.923700  0.782100  1.0  0.2581
  H  H37  1  0.405700  0.865300  0.852000  1.0  0.3191
  H  H38  1  0.454300  0.780300  0.726400  1.0  0.0511
  H  H39  1  0.546600  0.775000  0.770200  1.0  0.0656
  H  H40  1  0.570200  0.804800  0.639400  1.0  0.1276
  H  H41  1  0.458700  0.909300  0.640400  1.0  0.1012
  H  H42  1  0.594300  0.944500  0.604200  1.0  0.0805
  H  H43  1  0.640600  0.890800  0.687400  1.0  0.0412
  H  H44  1  0.478400  0.077400  0.642300  1.0  0.2634
  H  H45  1  0.566700  0.104100  0.617500  1.0  0.0589
  H  H46  1  0.629700  0.053100  0.694500  1.0  0.0347
  H  H47  1  0.471900  0.241500  0.661100  1.0  0.1134
  H  H48  1  0.584500  0.206700  0.690400  1.0  0.1189
  H  H49  1  0.420600  0.316000  0.770300  1.0  0.054
  H  H50  1  0.521600  0.228800  0.813200  1.0  0.0545
  H  H51  1  0.325700  0.246300  0.824500  1.0  0.2983
  H  H52  1  0.415300  0.183500  0.884100  1.0  0.3067
  H  H53  1  0.069000  0.778200  0.170300  1.0  0.2505
  H  H54  1  0.137800  0.825000  0.112300  1.0  0.3145
  H  H55  1  0.955600  0.859400  0.105100  1.0  0.0628
  H  H56  1  0.020300  0.915300  0.053000  1.0  0.0349
  H  H57  1  0.843800  0.992200  0.130200  1.0  0.0998
  H  H58  1  0.905800  0.048400  0.074400  1.0  0.0932
  H  H59  1  0.883800  0.136400  0.159000  1.0  0.0843
  H  H60  1  0.819100  0.082500  0.213900  1.0  0.0647
  H  H61  1  0.923700  0.330500  0.282100  1.0  0.2638
  H  H62  1  0.865300  0.405700  0.352000  1.0  0.3198
  H  H63  1  0.780300  0.454300  0.226400  1.0  0.0524
  H  H64  1  0.775000  0.546600  0.270200  1.0  0.0737
  H  H65  1  0.804800  0.570200  0.139400  1.0  0.1301
  H  H66  1  0.909300  0.458700  0.140400  1.0  0.1021
  H  H67  1  0.944500  0.594300  0.104200  1.0  0.0814
  H  H68  1  0.890800  0.640600  0.187400  1.0  0.0362
  H  H69  1  0.077400  0.478400  0.142300  1.0  0.2748
  H  H70  1  0.104100  0.566700  0.117500  1.0  0.0591
  H  H71  1  0.053100  0.629700  0.194500  1.0  0.0398
  H  H72  1  0.241500  0.471900  0.161100  1.0  0.1144
  H  H73  1  0.206700  0.584500  0.190400  1.0  0.1137
  H  H74  1  0.316000  0.420600  0.270300  1.0  0.0514
  H  H75  1  0.228800  0.521600  0.313200  1.0  0.0562
  H  H76  1  0.246300  0.325700  0.324500  1.0  0.294
  H  H77  1  0.183500  0.415300  0.384100  1.0  0.3054
  H  H78  1  0.778200  0.069000  0.670300  1.0  0.2721
  H  H79  1  0.825000  0.137800  0.612300  1.0  0.303
  H  H80  1  0.859400  0.955600  0.605100  1.0  0.0671
  H  H81  1  0.915300  0.020300  0.553000  1.0  0.0354
  H  H82  1  0.992200  0.843800  0.630200  1.0  0.0988
  H  H83  1  0.048400  0.905800  0.574400  1.0  0.0905
  H  H84  1  0.136400  0.883800  0.659000  1.0  0.0837
  H  H85  1  0.082500  0.819100  0.713900  1.0  0.067
  H  H86  1  0.669500  0.076300  0.217900  1.0  0.2588
  H  H87  1  0.594300  0.134700  0.148000  1.0  0.317
  H  H88  1  0.545700  0.219700  0.273600  1.0  0.0518
  H  H89  1  0.453400  0.225000  0.229800  1.0  0.0754
  H  H90  1  0.429800  0.195200  0.360600  1.0  0.1303
  H  H91  1  0.541300  0.090700  0.359600  1.0  0.0945
  H  H92  1  0.405700  0.055500  0.395800  1.0  0.0802
  H  H93  1  0.359400  0.109200  0.312600  1.0  0.0392
  H  H94  1  0.521600  0.922600  0.357700  1.0  0.2754
  H  H95  1  0.433300  0.895900  0.382500  1.0  0.0584
  H  H96  1  0.370300  0.946900  0.305500  1.0  0.0343
  H  H97  1  0.528100  0.758500  0.338900  1.0  0.1145
  H  H98  1  0.415500  0.793300  0.309600  1.0  0.1181
  H  H99  1  0.579400  0.684000  0.229700  1.0  0.0628
  H  H100  1  0.478400  0.771200  0.186800  1.0  0.0526
  H  H101  1  0.674300  0.753700  0.175500  1.0  0.2966
  H  H102  1  0.584700  0.816500  0.115900  1.0  0.2916
  H  H103  1  0.931000  0.221800  0.829700  1.0  0.2627
  H  H104  1  0.862200  0.175000  0.887700  1.0  0.3083
  H  H105  1  0.044400  0.140600  0.894900  1.0  0.0641
  H  H106  1  0.979700  0.084700  0.947000  1.0  0.0344
  H  H107  1  0.156200  0.007800  0.869800  1.0  0.1009
  H  H108  1  0.094200  0.951600  0.925600  1.0  0.091
  H  H109  1  0.116200  0.863600  0.841000  1.0  0.0797
  H  H110  1  0.180900  0.917500  0.786100  1.0  0.0639
  C  C111  1  0.901400  0.728800  0.521200  1.0  0.224
  C  C112  1  0.958500  0.802300  0.365600  1.0  0.2498
  C  C113  1  0.914800  0.634400  0.387200  1.0  0.2238
  C  C114  1  0.765200  0.930400  0.445500  1.0  0.1986
  C  C115  1  0.716600  0.755000  0.465100  1.0  0.1996
  C  C116  1  0.771500  0.832900  0.318300  1.0  0.2247
  C  C117  1  0.175000  0.515000  0.758000  1.0  0.1458
  C  C118  1  0.141000  0.481000  0.827000  1.0  -0.2517
  C  C119  1  0.072000  0.432000  0.839000  1.0  0.0901
  C  C120  1  0.895300  0.443300  0.818000  1.0  0.0938
  C  C121  1  0.794000  0.486000  0.799000  1.0  -0.2277
  C  C122  1  0.761600  0.535600  0.722000  1.0  0.1161
  C  C123  1  0.088600  0.018600  0.391000  1.0  0.1727
  C  C124  1  0.992700  0.094700  0.374300  1.0  -0.2039
  C  C125  1  0.936300  0.108700  0.310100  1.0  0.0538
  C  C126  1  0.271200  0.098600  0.978800  1.0  0.2226
  C  C127  1  0.197700  0.041500  0.134400  1.0  0.2518
  C  C128  1  0.365600  0.085200  0.112800  1.0  0.2227
  C  C129  1  0.069600  0.234800  0.054500  1.0  0.1977
  C  C130  1  0.245000  0.283400  0.034900  1.0  0.1992
  C  C131  1  0.167100  0.228500  0.181700  1.0  0.2253
  C  C132  1  0.485000  0.825000  0.742000  1.0  0.143
  C  C133  1  0.519000  0.859000  0.673000  1.0  -0.2508
  C  C134  1  0.568000  0.928000  0.661000  1.0  0.0932
  C  C135  1  0.556700  0.104700  0.682000  1.0  0.0907
  C  C136  1  0.514000  0.206000  0.701000  1.0  -0.2272
  C  C137  1  0.464400  0.238400  0.778000  1.0  0.1375
  C  C138  1  0.981400  0.911400  0.109000  1.0  0.1674
  C  C139  1  0.905300  0.007300  0.125700  1.0  -0.2024
  C  C140  1  0.891300  0.063700  0.189900  1.0  0.0623
  C  C141  1  0.098600  0.271200  0.478800  1.0  0.2225
  C  C142  1  0.041500  0.197700  0.634400  1.0  0.2494
  C  C143  1  0.085200  0.365600  0.612800  1.0  0.2236
  C  C144  1  0.234800  0.069600  0.554500  1.0  0.1994
  C  C145  1  0.283400  0.245000  0.534900  1.0  0.1991
  C  C146  1  0.228500  0.167100  0.681700  1.0  0.2256
  C  C147  1  0.825000  0.485000  0.242000  1.0  0.145
  C  C148  1  0.859000  0.519000  0.173000  1.0  -0.2513
  C  C149  1  0.928000  0.568000  0.161000  1.0  0.0897
  C  C150  1  0.104700  0.556700  0.182000  1.0  0.0929
  C  C151  1  0.206000  0.514000  0.201000  1.0  -0.2305
  C  C152  1  0.238400  0.464400  0.278000  1.0  0.1418
  C  C153  1  0.911400  0.981400  0.609000  1.0  0.1721
  C  C154  1  0.007300  0.905300  0.625700  1.0  -0.2032
  C  C155  1  0.063700  0.891300  0.689900  1.0  0.0594
  C  C156  1  0.728800  0.901400  0.021200  1.0  0.2232
  C  C157  1  0.802300  0.958500  0.865600  1.0  0.2523
  C  C158  1  0.634400  0.914800  0.887200  1.0  0.2237
  C  C159  1  0.930400  0.765200  0.945500  1.0  0.1986
  C  C160  1  0.755000  0.716600  0.965100  1.0  0.1995
  C  C161  1  0.832900  0.771500  0.818300  1.0  0.2249
  C  C162  1  0.515000  0.175000  0.258000  1.0  0.1432
  C  C163  1  0.481000  0.141000  0.327000  1.0  -0.2518
  C  C164  1  0.432000  0.072000  0.339000  1.0  0.0914
  C  C165  1  0.443300  0.895300  0.318000  1.0  0.0925
  C  C166  1  0.486000  0.794000  0.299000  1.0  -0.2272
  C  C167  1  0.535600  0.761600  0.222000  1.0  0.1173
  C  C168  1  0.018600  0.088600  0.891000  1.0  0.1681
  C  C169  1  0.094700  0.992700  0.874300  1.0  -0.2026
  C  C170  1  0.108700  0.936300  0.810100  1.0  0.0617
  N  N171  1  0.936200  0.691600  0.582800  1.0  -0.4642
  N  N172  1  0.027700  0.818900  0.329000  1.0  -0.5218
  N  N173  1  0.961000  0.547800  0.366600  1.0  -0.4382
  N  N174  1  0.723700  0.020900  0.457500  1.0  -0.5425
  N  N175  1  0.646900  0.733500  0.490000  1.0  -0.5314
  N  N176  1  0.724600  0.867000  0.260600  1.0  -0.4923
  N  N177  1  0.098400  0.596600  0.700300  1.0  -0.5853
  N  N178  1  0.969100  0.488300  0.804800  1.0  -0.4073
  N  N179  1  0.807500  0.598500  0.672400  1.0  -0.5879
  N  N180  1  0.156000  0.927400  0.349400  1.0  -0.6006
  N  N181  1  0.308400  0.063800  0.917200  1.0  -0.4672
  N  N182  1  0.181100  0.972300  0.171000  1.0  -0.5233
  N  N183  1  0.452200  0.039000  0.133400  1.0  -0.4354
  N  N184  1  0.979100  0.276300  0.042500  1.0  -0.5425
  N  N185  1  0.266500  0.353100  0.010000  1.0  -0.532
  N  N186  1  0.133000  0.275400  0.239400  1.0  -0.4952
  N  N187  1  0.403400  0.901600  0.799700  1.0  -0.588
  N  N188  1  0.511700  0.030900  0.695200  1.0  -0.4075
  N  N189  1  0.401500  0.192500  0.827600  1.0  -0.593
  N  N190  1  0.072600  0.844000  0.150600  1.0  -0.6017
  N  N191  1  0.063800  0.308400  0.417200  1.0  -0.4646
  N  N192  1  0.972300  0.181100  0.671000  1.0  -0.523
  N  N193  1  0.039000  0.452200  0.633400  1.0  -0.4373
  N  N194  1  0.276300  0.979100  0.542500  1.0  -0.5423
  N  N195  1  0.353100  0.266500  0.510000  1.0  -0.5311
  N  N196  1  0.275400  0.133000  0.739400  1.0  -0.495
  N  N197  1  0.901600  0.403400  0.299700  1.0  -0.5909
  N  N198  1  0.030900  0.511700  0.195200  1.0  -0.4077
  N  N199  1  0.192500  0.401500  0.327600  1.0  -0.5902
  N  N200  1  0.844000  0.072600  0.650600  1.0  -0.6027
  N  N201  1  0.691600  0.936200  0.082800  1.0  -0.4667
  N  N202  1  0.818900  0.027700  0.829000  1.0  -0.5239
  N  N203  1  0.547800  0.961000  0.866600  1.0  -0.4366
  N  N204  1  0.020900  0.723700  0.957500  1.0  -0.544
  N  N205  1  0.733500  0.646900  0.990000  1.0  -0.5322
  N  N206  1  0.867000  0.724600  0.760600  1.0  -0.4949
  N  N207  1  0.596600  0.098400  0.200300  1.0  -0.5874
  N  N208  1  0.488300  0.969100  0.304800  1.0  -0.4082
  N  N209  1  0.598500  0.807500  0.172400  1.0  -0.5896
  N  N210  1  0.927400  0.156000  0.849400  1.0  -0.6019
  N  N211  1  0.958400  0.041600  0.250000  1.0  -0.1695
  N  N212  1  0.041600  0.958400  0.750000  1.0  -0.1658
