# generated using pymatgen
data_Co2Ni3H50(C10N7)3
_symmetry_space_group_name_H-M   'P 1'
_cell_length_a   13.93370000
_cell_length_b   13.93370000
_cell_length_c   16.59900000
_cell_angle_alpha   80.80410000
_cell_angle_beta   80.80410000
_cell_angle_gamma   61.25400000
_symmetry_Int_Tables_number   1
_chemical_formula_structural   Co2Ni3H50(C10N7)3
_chemical_formula_sum   'Co4 Ni6 H100 C60 N42'
_cell_volume   2776.34779488
_cell_formula_units_Z   2
loop_
 _symmetry_equiv_pos_site_id
 _symmetry_equiv_pos_as_xyz
  1  'x, y, z'
loop_
 _atom_site_type_symbol
 _atom_site_label
 _atom_site_symmetry_multiplicity
 _atom_site_fract_x
 _atom_site_fract_y
 _atom_site_fract_z
 _atom_site_occupancy
 _atom_site_charge
  Co  Co1  1  0.837510  0.781550  0.417690  1.0  -0.34
  Co  Co2  1  0.218450  0.162490  0.082310  1.0  -0.3419
  Co  Co3  1  0.162490  0.218450  0.582310  1.0  -0.3419
  Co  Co4  1  0.781550  0.837510  0.917690  1.0  -0.3402
  Ni  Ni5  1  0.955730  0.591630  0.691690  1.0  0.6992
  Ni  Ni6  1  0.408370  0.044270  0.808310  1.0  0.7001
  Ni  Ni7  1  0.044270  0.408370  0.308310  1.0  0.6995
  Ni  Ni8  1  0.591630  0.955730  0.191690  1.0  0.6988
  Ni  Ni9  1  0.108200  0.891800  0.250000  1.0  0.5835
  Ni  Ni10  1  0.891800  0.108200  0.750000  1.0  0.5832
  H  H11  1  0.136600  0.591800  0.645800  1.0  0.3182
  H  H12  1  0.077600  0.669600  0.714900  1.0  0.1324
  H  H13  1  0.228400  0.453800  0.728400  1.0  0.144
  H  H14  1  0.221700  0.549100  0.770200  1.0  0.0941
  H  H15  1  0.195600  0.433000  0.861500  1.0  0.2197
  H  H16  1  0.090500  0.545900  0.858900  1.0  0.1054
  H  H17  1  0.109200  0.364000  0.809000  1.0  0.1578
  H  H18  1  0.056500  0.406500  0.894200  1.0  0.0893
  H  H19  1  0.931200  0.548200  0.842900  1.0  0.1162
  H  H20  1  0.945200  0.373000  0.798500  1.0  0.0893
  H  H21  1  0.901300  0.423500  0.881800  1.0  0.1014
  H  H22  1  0.754800  0.541800  0.837900  1.0  0.217
  H  H23  1  0.777600  0.426800  0.818900  1.0  0.0999
  H  H24  1  0.683300  0.574900  0.723500  1.0  0.1944
  H  H25  1  0.780700  0.471900  0.687100  1.0  0.1719
  H  H26  1  0.815300  0.587100  0.616500  1.0  0.2023
  H  H27  1  0.753100  0.673700  0.679400  1.0  0.1521
  H  H28  1  0.174400  0.860000  0.389200  1.0  0.2224
  H  H29  1  0.225400  0.925800  0.331000  1.0  0.2075
  H  H30  1  0.084200  0.983400  0.446900  1.0  0.0564
  H  H31  1  0.138800  0.047600  0.391000  1.0  0.0937
  H  H32  1  0.947600  0.095200  0.423700  1.0  0.0867
  H  H33  1  0.002300  0.159300  0.367600  1.0  0.1113
  H  H34  1  0.862800  0.112800  0.338600  1.0  0.0978
  H  H35  1  0.915200  0.179600  0.283300  1.0  0.2064
  H  H36  1  0.408200  0.863400  0.854200  1.0  0.3206
  H  H37  1  0.330400  0.922400  0.785100  1.0  0.1317
  H  H38  1  0.546200  0.771600  0.771600  1.0  0.1428
  H  H39  1  0.450900  0.778300  0.729800  1.0  0.0946
  H  H40  1  0.567000  0.804400  0.638500  1.0  0.2191
  H  H41  1  0.454100  0.909500  0.641100  1.0  0.1133
  H  H42  1  0.636000  0.890800  0.691000  1.0  0.1545
  H  H43  1  0.593500  0.943500  0.605800  1.0  0.0874
  H  H44  1  0.451800  0.068800  0.657100  1.0  0.1178
  H  H45  1  0.627000  0.054800  0.701500  1.0  0.0908
  H  H46  1  0.576500  0.098700  0.618200  1.0  0.1006
  H  H47  1  0.458200  0.245200  0.662100  1.0  0.2158
  H  H48  1  0.573200  0.222400  0.681100  1.0  0.1033
  H  H49  1  0.425100  0.316700  0.776500  1.0  0.1945
  H  H50  1  0.528100  0.219300  0.812900  1.0  0.1774
  H  H51  1  0.412900  0.184700  0.883500  1.0  0.2065
  H  H52  1  0.326300  0.246900  0.820600  1.0  0.1491
  H  H53  1  0.140000  0.825600  0.110800  1.0  0.2336
  H  H54  1  0.074200  0.774600  0.169000  1.0  0.1968
  H  H55  1  0.016600  0.915800  0.053100  1.0  0.0572
  H  H56  1  0.952400  0.861200  0.109000  1.0  0.0898
  H  H57  1  0.904800  0.052400  0.076300  1.0  0.0873
  H  H58  1  0.840700  0.997700  0.132400  1.0  0.1092
  H  H59  1  0.887200  0.137200  0.161400  1.0  0.0962
  H  H60  1  0.820400  0.084800  0.216700  1.0  0.2071
  H  H61  1  0.863400  0.408200  0.354200  1.0  0.3215
  H  H62  1  0.922400  0.330400  0.285100  1.0  0.1347
  H  H63  1  0.771600  0.546200  0.271600  1.0  0.1446
  H  H64  1  0.778300  0.450900  0.229800  1.0  0.0944
  H  H65  1  0.804400  0.567000  0.138500  1.0  0.2194
  H  H66  1  0.909500  0.454100  0.141100  1.0  0.1084
  H  H67  1  0.890800  0.636000  0.191000  1.0  0.1562
  H  H68  1  0.943500  0.593500  0.105800  1.0  0.0877
  H  H69  1  0.068800  0.451800  0.157100  1.0  0.1172
  H  H70  1  0.054800  0.627000  0.201500  1.0  0.0905
  H  H71  1  0.098700  0.576500  0.118200  1.0  0.1016
  H  H72  1  0.245200  0.458200  0.162100  1.0  0.2163
  H  H73  1  0.222400  0.573200  0.181100  1.0  0.0984
  H  H74  1  0.316700  0.425100  0.276500  1.0  0.1951
  H  H75  1  0.219300  0.528100  0.312900  1.0  0.1736
  H  H76  1  0.184700  0.412900  0.383500  1.0  0.2041
  H  H77  1  0.246900  0.326300  0.320600  1.0  0.1511
  H  H78  1  0.825600  0.140000  0.610800  1.0  0.2203
  H  H79  1  0.774600  0.074200  0.669000  1.0  0.206
  H  H80  1  0.915800  0.016600  0.553100  1.0  0.0582
  H  H81  1  0.861200  0.952400  0.609000  1.0  0.0907
  H  H82  1  0.052400  0.904800  0.576300  1.0  0.0855
  H  H83  1  0.997700  0.840700  0.632400  1.0  0.1143
  H  H84  1  0.137200  0.887200  0.661400  1.0  0.0963
  H  H85  1  0.084800  0.820400  0.716700  1.0  0.203
  H  H86  1  0.591800  0.136600  0.145800  1.0  0.3171
  H  H87  1  0.669600  0.077600  0.214900  1.0  0.1312
  H  H88  1  0.453800  0.228400  0.228400  1.0  0.145
  H  H89  1  0.549100  0.221700  0.270200  1.0  0.0952
  H  H90  1  0.433000  0.195600  0.361500  1.0  0.2203
  H  H91  1  0.545900  0.090500  0.358900  1.0  0.107
  H  H92  1  0.364000  0.109200  0.309000  1.0  0.1532
  H  H93  1  0.406500  0.056500  0.394200  1.0  0.0891
  H  H94  1  0.548200  0.931200  0.342900  1.0  0.118
  H  H95  1  0.373000  0.945200  0.298500  1.0  0.0908
  H  H96  1  0.423500  0.901300  0.381800  1.0  0.0999
  H  H97  1  0.541800  0.754800  0.337900  1.0  0.2128
  H  H98  1  0.426800  0.777600  0.318900  1.0  0.1033
  H  H99  1  0.574900  0.683300  0.223500  1.0  0.1948
  H  H100  1  0.471900  0.780700  0.187100  1.0  0.1732
  H  H101  1  0.587100  0.815300  0.116500  1.0  0.2022
  H  H102  1  0.673700  0.753100  0.179400  1.0  0.1497
  H  H103  1  0.860000  0.174400  0.889200  1.0  0.2234
  H  H104  1  0.925800  0.225400  0.831000  1.0  0.2008
  H  H105  1  0.983400  0.084200  0.946900  1.0  0.0563
  H  H106  1  0.047600  0.138800  0.891000  1.0  0.0928
  H  H107  1  0.095200  0.947600  0.923700  1.0  0.0878
  H  H108  1  0.159300  0.002300  0.867600  1.0  0.1077
  H  H109  1  0.112800  0.862800  0.838600  1.0  0.0951
  H  H110  1  0.179600  0.915200  0.783300  1.0  0.2062
  C  C111  1  0.898900  0.730900  0.519100  1.0  0.2293
  C  C112  1  0.957500  0.801300  0.366400  1.0  0.2096
  C  C113  1  0.911900  0.636100  0.387800  1.0  0.2367
  C  C114  1  0.764700  0.930700  0.444500  1.0  0.2031
  C  C115  1  0.716200  0.756800  0.463800  1.0  0.118
  C  C116  1  0.772500  0.832900  0.318000  1.0  0.2217
  C  C117  1  0.183000  0.515000  0.756000  1.0  -0.0427
  C  C118  1  0.138000  0.480000  0.831000  1.0  -0.1543
  C  C119  1  0.074000  0.426000  0.837000  1.0  0.0002
  C  C120  1  0.900000  0.440000  0.822000  1.0  0.067
  C  C121  1  0.791000  0.491000  0.801000  1.0  -0.1197
  C  C122  1  0.755600  0.535600  0.712000  1.0  -0.0877
  C  C123  1  0.095000  0.013000  0.391000  1.0  0.012
  C  C124  1  0.993000  0.093000  0.374000  1.0  -0.1368
  C  C125  1  0.932900  0.110900  0.309000  1.0  -0.0041
  C  C126  1  0.269100  0.101100  0.980900  1.0  0.2285
  C  C127  1  0.198700  0.042500  0.133600  1.0  0.2098
  C  C128  1  0.363900  0.088100  0.112200  1.0  0.2386
  C  C129  1  0.069300  0.235300  0.055500  1.0  0.2036
  C  C130  1  0.243200  0.283800  0.036200  1.0  0.1175
  C  C131  1  0.167100  0.227500  0.182000  1.0  0.2215
  C  C132  1  0.485000  0.817000  0.744000  1.0  -0.0428
  C  C133  1  0.520000  0.862000  0.669000  1.0  -0.148
  C  C134  1  0.574000  0.926000  0.663000  1.0  0.0024
  C  C135  1  0.560000  0.100000  0.678000  1.0  0.0669
  C  C136  1  0.509000  0.209000  0.699000  1.0  -0.1185
  C  C137  1  0.464400  0.244400  0.788000  1.0  -0.0894
  C  C138  1  0.987000  0.905000  0.109000  1.0  0.0109
  C  C139  1  0.907000  0.007000  0.126000  1.0  -0.1367
  C  C140  1  0.889100  0.067100  0.191000  1.0  0.0004
  C  C141  1  0.101100  0.269100  0.480900  1.0  0.2281
  C  C142  1  0.042500  0.198700  0.633600  1.0  0.2073
  C  C143  1  0.088100  0.363900  0.612200  1.0  0.2376
  C  C144  1  0.235300  0.069300  0.555500  1.0  0.2051
  C  C145  1  0.283800  0.243200  0.536200  1.0  0.1175
  C  C146  1  0.227500  0.167100  0.682000  1.0  0.2212
  C  C147  1  0.817000  0.485000  0.244000  1.0  -0.0435
  C  C148  1  0.862000  0.520000  0.169000  1.0  -0.1481
  C  C149  1  0.926000  0.574000  0.163000  1.0  0.001
  C  C150  1  0.100000  0.560000  0.178000  1.0  0.0672
  C  C151  1  0.209000  0.509000  0.199000  1.0  -0.1188
  C  C152  1  0.244400  0.464400  0.288000  1.0  -0.0863
  C  C153  1  0.905000  0.987000  0.609000  1.0  0.0132
  C  C154  1  0.007000  0.907000  0.626000  1.0  -0.1367
  C  C155  1  0.067100  0.889100  0.691000  1.0  -0.0014
  C  C156  1  0.730900  0.898900  0.019100  1.0  0.2279
  C  C157  1  0.801300  0.957500  0.866400  1.0  0.2107
  C  C158  1  0.636100  0.911900  0.887800  1.0  0.2372
  C  C159  1  0.930700  0.764700  0.944500  1.0  0.204
  C  C160  1  0.756800  0.716200  0.963800  1.0  0.1194
  C  C161  1  0.832900  0.772500  0.818000  1.0  0.2205
  C  C162  1  0.515000  0.183000  0.256000  1.0  -0.041
  C  C163  1  0.480000  0.138000  0.331000  1.0  -0.1541
  C  C164  1  0.426000  0.074000  0.337000  1.0  0.0013
  C  C165  1  0.440000  0.900000  0.322000  1.0  0.0677
  C  C166  1  0.491000  0.791000  0.301000  1.0  -0.1162
  C  C167  1  0.535600  0.755600  0.212000  1.0  -0.0888
  C  C168  1  0.013000  0.095000  0.891000  1.0  0.0106
  C  C169  1  0.093000  0.993000  0.874000  1.0  -0.1389
  C  C170  1  0.110900  0.932900  0.809000  1.0  0.003
  N  N171  1  0.934400  0.694400  0.580500  1.0  -0.4813
  N  N172  1  0.028600  0.817400  0.329500  1.0  -0.4859
  N  N173  1  0.957300  0.550500  0.367000  1.0  -0.4148
  N  N174  1  0.721800  0.022000  0.456900  1.0  -0.535
  N  N175  1  0.643900  0.735100  0.489400  1.0  -0.4695
  N  N176  1  0.726700  0.868100  0.259900  1.0  -0.4407
  N  N177  1  0.100700  0.598700  0.697700  1.0  -0.5967
  N  N178  1  0.967700  0.491700  0.804400  1.0  -0.3374
  N  N179  1  0.806200  0.600800  0.671600  1.0  -0.5858
  N  N180  1  0.159700  0.921700  0.349500  1.0  -0.6322
  N  N181  1  0.305600  0.065600  0.919500  1.0  -0.4843
  N  N182  1  0.182600  0.971400  0.170500  1.0  -0.4861
  N  N183  1  0.449500  0.042700  0.133000  1.0  -0.4111
  N  N184  1  0.978000  0.278200  0.043100  1.0  -0.5358
  N  N185  1  0.264900  0.356100  0.010600  1.0  -0.4693
  N  N186  1  0.131900  0.273300  0.240100  1.0  -0.4416
  N  N187  1  0.401300  0.899300  0.802300  1.0  -0.5981
  N  N188  1  0.508300  0.032300  0.695600  1.0  -0.3385
  N  N189  1  0.399200  0.193800  0.828400  1.0  -0.5887
  N  N190  1  0.078300  0.840300  0.150500  1.0  -0.6307
  N  N191  1  0.065600  0.305600  0.419500  1.0  -0.4821
  N  N192  1  0.971400  0.182600  0.670500  1.0  -0.4887
  N  N193  1  0.042700  0.449500  0.633000  1.0  -0.4133
  N  N194  1  0.278200  0.978000  0.543100  1.0  -0.5336
  N  N195  1  0.356100  0.264900  0.510600  1.0  -0.4697
  N  N196  1  0.273300  0.131900  0.740100  1.0  -0.4404
  N  N197  1  0.899300  0.401300  0.302300  1.0  -0.5976
  N  N198  1  0.032300  0.508300  0.195600  1.0  -0.3385
  N  N199  1  0.193800  0.399200  0.328400  1.0  -0.588
  N  N200  1  0.840300  0.078300  0.650500  1.0  -0.632
  N  N201  1  0.694400  0.934400  0.080500  1.0  -0.4839
  N  N202  1  0.817400  0.028600  0.829500  1.0  -0.4856
  N  N203  1  0.550500  0.957300  0.867000  1.0  -0.4133
  N  N204  1  0.022000  0.721800  0.956900  1.0  -0.536
  N  N205  1  0.735100  0.643900  0.989400  1.0  -0.4714
  N  N206  1  0.868100  0.726700  0.759900  1.0  -0.4428
  N  N207  1  0.598700  0.100700  0.197700  1.0  -0.5976
  N  N208  1  0.491700  0.967700  0.304400  1.0  -0.3368
  N  N209  1  0.600800  0.806200  0.171600  1.0  -0.587
  N  N210  1  0.921700  0.159700  0.849500  1.0  -0.6317
  N  N211  1  0.958700  0.041300  0.250000  1.0  -0.23
  N  N212  1  0.041300  0.958700  0.750000  1.0  -0.2275
