# generated using pymatgen
data_Tb5Ge7H33C26N2O31
_symmetry_space_group_name_H-M   'P 1'
_cell_length_a   12.87120000
_cell_length_b   21.65520000
_cell_length_c   23.50520000
_cell_angle_alpha   106.27500000
_cell_angle_beta   101.46000000
_cell_angle_gamma   94.90900000
_symmetry_Int_Tables_number   1
_chemical_formula_structural   Tb5Ge7H33C26N2O31
_chemical_formula_sum   'Tb20 Ge28 H132 C104 N8 O124'
_cell_volume   6093.77971947
_cell_formula_units_Z   4
loop_
 _symmetry_equiv_pos_site_id
 _symmetry_equiv_pos_as_xyz
  1  'x, y, z'
loop_
 _atom_site_type_symbol
 _atom_site_label
 _atom_site_symmetry_multiplicity
 _atom_site_fract_x
 _atom_site_fract_y
 _atom_site_fract_z
 _atom_site_occupancy
 _atom_site_charge
  Tb  Tb1  1  0.443700  0.334800  0.831100  1.0  2.1947
  Tb  Tb2  1  0.789600  0.527800  0.982000  1.0  2.2542
  Tb  Tb3  1  0.704200  0.421400  0.071700  1.0  2.2493
  Tb  Tb4  1  0.419400  0.392300  0.086900  1.0  2.2477
  Tb  Tb5  1  0.367700  0.279200  0.180000  1.0  2.2458
  Tb  Tb6  1  0.090500  0.119400  0.241900  1.0  2.2227
  Tb  Tb7  1  0.062700  0.058400  0.374600  1.0  2.1986
  Tb  Tb8  1  0.285900  0.011400  0.469300  1.0  2.2442
  Tb  Tb9  1  0.783000  0.045900  0.401500  1.0  2.2216
  Tb  Tb10  1  0.055100  0.202700  0.625900  1.0  2.2138
  Tb  Tb11  1  0.556300  0.665200  0.168900  1.0  2.1943
  Tb  Tb12  1  0.210400  0.472200  0.018000  1.0  2.2538
  Tb  Tb13  1  0.295800  0.578600  0.928300  1.0  2.2499
  Tb  Tb14  1  0.580600  0.607700  0.913100  1.0  2.2466
  Tb  Tb15  1  0.632300  0.720800  0.820000  1.0  2.2466
  Tb  Tb16  1  0.909500  0.880600  0.758100  1.0  2.2249
  Tb  Tb17  1  0.937300  0.941600  0.625400  1.0  2.1999
  Tb  Tb18  1  0.714100  0.988600  0.530700  1.0  2.2419
  Tb  Tb19  1  0.217000  0.954100  0.598500  1.0  2.2212
  Tb  Tb20  1  0.944900  0.797300  0.374100  1.0  2.2138
  Ge  Ge21  1  0.700200  0.362300  0.909400  1.0  1.4811
  Ge  Ge22  1  0.518600  0.296600  0.961700  1.0  1.4406
  Ge  Ge23  1  0.269100  0.310800  0.937500  1.0  1.4955
  Ge  Ge24  1  0.191900  0.406400  0.857700  1.0  1.4743
  Ge  Ge25  1  0.367800  0.473900  0.807700  1.0  1.4491
  Ge  Ge26  1  0.619300  0.456700  0.826700  1.0  1.4912
  Ge  Ge27  1  0.152900  0.349100  0.113700  1.0  1.3906
  Ge  Ge28  1  0.318900  0.081200  0.327500  1.0  1.3807
  Ge  Ge29  1  0.219100  0.178200  0.505000  1.0  1.4862
  Ge  Ge30  1  0.968000  0.187200  0.477200  1.0  1.492
  Ge  Ge31  1  0.796900  0.153800  0.553400  1.0  1.4256
  Ge  Ge32  1  0.894700  0.102700  0.669800  1.0  1.4866
  Ge  Ge33  1  0.147000  0.089500  0.692900  1.0  1.4261
  Ge  Ge34  1  0.311900  0.122600  0.617400  1.0  1.4554
  Ge  Ge35  1  0.299800  0.637700  0.090600  1.0  1.4796
  Ge  Ge36  1  0.481400  0.703400  0.038300  1.0  1.4441
  Ge  Ge37  1  0.730900  0.689200  0.062500  1.0  1.4973
  Ge  Ge38  1  0.808100  0.593600  0.142300  1.0  1.4727
  Ge  Ge39  1  0.632200  0.526100  0.192300  1.0  1.4487
  Ge  Ge40  1  0.380700  0.543300  0.173300  1.0  1.4901
  Ge  Ge41  1  0.847100  0.650900  0.886300  1.0  1.3925
  Ge  Ge42  1  0.681100  0.918800  0.672500  1.0  1.3784
  Ge  Ge43  1  0.780900  0.821800  0.495000  1.0  1.4847
  Ge  Ge44  1  0.032000  0.812800  0.522800  1.0  1.4906
  Ge  Ge45  1  0.203100  0.846200  0.446600  1.0  1.4265
  Ge  Ge46  1  0.105300  0.897300  0.330200  1.0  1.4885
  Ge  Ge47  1  0.853000  0.910500  0.307100  1.0  1.4271
  Ge  Ge48  1  0.688100  0.877400  0.382600  1.0  1.4571
  H  H49  1  0.448500  0.157100  0.388200  1.0  0.4229
  H  H50  1  0.414600  0.018700  0.377100  1.0  0.3494
  H  H51  1  0.061100  0.425500  0.082700  1.0  0.3643
  H  H52  1  0.013000  0.280100  0.054300  1.0  0.3899
  H  H53  1  0.797300  0.270900  0.900100  1.0  0.1439
  H  H54  1  0.813700  0.303500  0.850300  1.0  0.0915
  H  H55  1  0.976500  0.323200  0.914800  1.0  0.0833
  H  H56  1  0.928500  0.342600  0.972400  1.0  0.0881
  H  H57  1  0.530300  0.213900  0.013100  1.0  0.0915
  H  H58  1  0.500200  0.179800  0.942600  1.0  0.1369
  H  H59  1  0.673500  0.167200  0.994400  1.0  0.0812
  H  H60  1  0.671600  0.188500  0.935800  1.0  0.0947
  H  H61  1  0.125000  0.247200  0.957800  1.0  0.0953
  H  H62  1  0.148300  0.208900  0.895600  1.0  0.1393
  H  H63  1  0.191700  0.159200  0.976500  1.0  0.0839
  H  H64  1  0.282400  0.164700  0.941600  1.0  0.0728
  H  H65  1  0.002600  0.368100  0.819600  1.0  0.0878
  H  H66  1  0.023200  0.442700  0.829100  1.0  0.0917
  H  H67  1  0.954100  0.398600  0.730500  1.0  0.0865
  H  H68  1  0.075600  0.419600  0.735700  1.0  0.0875
  H  H69  1  0.382800  0.513200  0.723000  1.0  0.138
  H  H70  1  0.308400  0.445900  0.698600  1.0  0.1617
  H  H71  1  0.247600  0.561800  0.714000  1.0  0.0858
  H  H72  1  0.173700  0.494300  0.686600  1.0  0.0784
  H  H73  1  0.769700  0.481400  0.785000  1.0  0.1091
  H  H74  1  0.695400  0.419000  0.739000  1.0  0.1544
  H  H75  1  0.701800  0.519900  0.708800  1.0  0.0654
  H  H76  1  0.589900  0.476300  0.692900  1.0  0.0791
  H  H77  1  0.168800  0.386000  0.222300  1.0  0.0701
  H  H78  1  0.062800  0.404300  0.189600  1.0  0.1139
  H  H79  1  0.021800  0.325600  0.235100  1.0  0.084
  H  H80  1  0.977300  0.298100  0.164400  1.0  0.0898
  H  H81  1  0.401700  0.006400  0.258500  1.0  0.1134
  H  H82  1  0.288500  0.012300  0.222700  1.0  0.0719
  H  H83  1  0.477500  0.101200  0.247500  1.0  0.0941
  H  H84  1  0.414400  0.057000  0.182800  1.0  0.0904
  H  H85  1  0.333400  0.278200  0.518700  1.0  0.1422
  H  H86  1  0.360800  0.222500  0.467600  1.0  0.0878
  H  H87  1  0.205500  0.303200  0.453700  1.0  0.0867
  H  H88  1  0.290100  0.285300  0.414600  1.0  0.0825
  H  H89  1  0.981700  0.291700  0.458400  1.0  0.1384
  H  H90  1  0.932400  0.237100  0.396400  1.0  0.077
  H  H91  1  0.818300  0.292300  0.485300  1.0  0.0765
  H  H92  1  0.796400  0.296400  0.418500  1.0  0.0691
  H  H93  1  0.676200  0.221400  0.597700  1.0  0.092
  H  H94  1  0.689900  0.236500  0.538000  1.0  0.1401
  H  H95  1  0.513800  0.186400  0.530300  1.0  0.0668
  H  H96  1  0.565400  0.149900  0.478000  1.0  0.0823
  H  H97  1  0.828100  0.169500  0.752100  1.0  0.1536
  H  H98  1  0.754500  0.101700  0.724800  1.0  0.1052
  H  H99  1  0.943500  0.135500  0.816200  1.0  0.09
  H  H100  1  0.835200  0.095900  0.815600  1.0  0.0732
  H  H101  1  0.184000  0.143200  0.801800  1.0  0.1402
  H  H102  1  0.160000  0.067800  0.789700  1.0  0.1017
  H  H103  1  0.358000  0.141900  0.803700  1.0  0.0875
  H  H104  1  0.334900  0.087200  0.833300  1.0  0.0854
  H  H105  1  0.460000  0.124900  0.700600  1.0  0.1096
  H  H106  1  0.496800  0.103200  0.639400  1.0  0.0952
  H  H107  1  0.600100  0.199900  0.690100  1.0  0.0587
  H  H108  1  0.512300  0.217100  0.642500  1.0  0.0698
  H  H109  1  0.799900  0.299700  0.196100  1.0  0.0752
  H  H110  1  0.726600  0.205000  0.309700  1.0  0.0599
  H  H111  1  0.554200  0.223200  0.285200  1.0  0.0366
  H  H112  1  0.905100  0.120800  0.110600  1.0  0.0356
  H  H113  1  0.726300  0.103900  0.063500  1.0  0.0771
  H  H114  1  0.658400  0.071500  0.211700  1.0  0.0698
  H  H115  1  0.551500  0.842900  0.611800  1.0  0.4241
  H  H116  1  0.585400  0.981300  0.622900  1.0  0.3516
  H  H117  1  0.938900  0.574500  0.917300  1.0  0.3641
  H  H118  1  0.987000  0.719900  0.945700  1.0  0.3899
  H  H119  1  0.202700  0.729100  0.099900  1.0  0.144
  H  H120  1  0.186300  0.696500  0.149700  1.0  0.093
  H  H121  1  0.023500  0.676800  0.085200  1.0  0.0837
  H  H122  1  0.071500  0.657400  0.027600  1.0  0.0876
  H  H123  1  0.469700  0.786100  0.986900  1.0  0.0902
  H  H124  1  0.499800  0.820200  0.057400  1.0  0.1371
  H  H125  1  0.326500  0.832800  0.005600  1.0  0.0799
  H  H126  1  0.328400  0.811500  0.064200  1.0  0.0974
  H  H127  1  0.875000  0.752800  0.042200  1.0  0.0937
  H  H128  1  0.851700  0.791100  0.104400  1.0  0.1372
  H  H129  1  0.808300  0.840800  0.023500  1.0  0.0844
  H  H130  1  0.717600  0.835300  0.058400  1.0  0.0716
  H  H131  1  0.997400  0.631900  0.180400  1.0  0.0874
  H  H132  1  0.976800  0.557300  0.170900  1.0  0.0918
  H  H133  1  0.045900  0.601400  0.269500  1.0  0.086
  H  H134  1  0.924400  0.580400  0.264300  1.0  0.0886
  H  H135  1  0.617200  0.486800  0.277000  1.0  0.1397
  H  H136  1  0.691600  0.554100  0.301400  1.0  0.1603
  H  H137  1  0.752400  0.438200  0.286000  1.0  0.086
  H  H138  1  0.826300  0.505700  0.313400  1.0  0.0784
  H  H139  1  0.230300  0.518600  0.215000  1.0  0.1101
  H  H140  1  0.304600  0.581000  0.261000  1.0  0.1543
  H  H141  1  0.298200  0.480100  0.291200  1.0  0.0658
  H  H142  1  0.410100  0.523700  0.307100  1.0  0.0809
  H  H143  1  0.831200  0.614000  0.777700  1.0  0.069
  H  H144  1  0.937200  0.595700  0.810400  1.0  0.1133
  H  H145  1  0.978200  0.674400  0.764900  1.0  0.0847
  H  H146  1  0.022700  0.701900  0.835600  1.0  0.089
  H  H147  1  0.598300  0.993600  0.741500  1.0  0.1134
  H  H148  1  0.711500  0.987700  0.777300  1.0  0.0721
  H  H149  1  0.522500  0.898800  0.752500  1.0  0.0939
  H  H150  1  0.585600  0.943000  0.817200  1.0  0.0905
  H  H151  1  0.666667  0.721800  0.481300  1.0  0.1441
  H  H152  1  0.639200  0.777500  0.532400  1.0  0.0892
  H  H153  1  0.794500  0.696800  0.546300  1.0  0.0863
  H  H154  1  0.709900  0.714700  0.585400  1.0  0.0829
  H  H155  1  0.018300  0.708300  0.541600  1.0  0.1388
  H  H156  1  0.067600  0.762900  0.603600  1.0  0.0767
  H  H157  1  0.181700  0.707700  0.514700  1.0  0.0762
  H  H158  1  0.203600  0.703600  0.581500  1.0  0.0701
  H  H159  1  0.323800  0.778600  0.402300  1.0  0.093
  H  H160  1  0.310100  0.763500  0.462000  1.0  0.1407
  H  H161  1  0.486200  0.813600  0.469700  1.0  0.0668
  H  H162  1  0.434600  0.850100  0.522000  1.0  0.0825
  H  H163  1  0.171900  0.830500  0.247900  1.0  0.1554
  H  H164  1  0.245500  0.898300  0.275200  1.0  0.1032
  H  H165  1  0.056500  0.864500  0.183800  1.0  0.0901
  H  H166  1  0.164800  0.904100  0.184400  1.0  0.0701
  H  H167  1  0.816000  0.856800  0.198200  1.0  0.1407
  H  H168  1  0.840000  0.932200  0.210300  1.0  0.1011
  H  H169  1  0.642000  0.858100  0.196300  1.0  0.0885
  H  H170  1  0.665100  0.912800  0.166700  1.0  0.0851
  H  H171  1  0.540000  0.875100  0.299400  1.0  0.1086
  H  H172  1  0.503200  0.896800  0.360600  1.0  0.0958
  H  H173  1  0.399900  0.800100  0.309900  1.0  0.0581
  H  H174  1  0.487700  0.782900  0.357500  1.0  0.07
  H  H175  1  0.200100  0.700300  0.803900  1.0  0.075
  H  H176  1  0.273400  0.795000  0.690300  1.0  0.0601
  H  H177  1  0.445800  0.776800  0.714800  1.0  0.0363
  H  H178  1  0.094900  0.879200  0.889400  1.0  0.0358
  H  H179  1  0.273700  0.896100  0.936500  1.0  0.0768
  H  H180  1  0.341600  0.928500  0.788300  1.0  0.0696
  C  C181  1  0.812700  0.312300  0.892900  1.0  -0.3541
  C  C182  1  0.922600  0.346000  0.931600  1.0  -0.4064
  C  C183  1  0.946700  0.417400  0.936000  1.0  0.6654
  C  C184  1  0.547500  0.214900  0.974900  1.0  -0.4309
  C  C185  1  0.661900  0.202500  0.977200  1.0  -0.3862
  C  C186  1  0.745600  0.260700  0.013900  1.0  0.7052
  C  C187  1  0.181800  0.233900  0.937500  1.0  -0.4351
  C  C188  1  0.242700  0.189600  0.968700  1.0  -0.3385
  C  C189  1  0.319200  0.228400  0.027800  1.0  0.7334
  C  C190  1  0.047500  0.401800  0.812000  1.0  -0.4138
  C  C191  1  0.025400  0.389000  0.743900  1.0  -0.3879
  C  C192  1  0.032000  0.322200  0.705500  1.0  0.712
  C  C193  1  0.323300  0.487800  0.729800  1.0  -0.4418
  C  C194  1  0.226800  0.521500  0.722100  1.0  -0.414
  C  C195  1  0.175600  0.537000  0.775400  1.0  0.6615
  C  C196  1  0.695700  0.462500  0.765300  1.0  -0.4945
  C  C197  1  0.647200  0.503600  0.726200  1.0  -0.3912
  C  C198  1  0.603200  0.560500  0.763100  1.0  0.7048
  C  C199  1  0.106500  0.369800  0.188500  1.0  -0.3805
  C  C200  1  0.042400  0.312000  0.196500  1.0  -0.3846
  C  C201  1  0.102000  0.255200  0.195100  1.0  0.7116
  C  C202  1  0.353800  0.037000  0.251300  1.0  -0.3659
  C  C203  1  0.406300  0.082400  0.222300  1.0  -0.4115
  C  C204  1  0.344400  0.137300  0.214300  1.0  0.7402
  C  C205  1  0.302200  0.241800  0.482500  1.0  -0.47
  C  C206  1  0.240000  0.267800  0.434100  1.0  -0.3799
  C  C207  1  0.155700  0.216500  0.385700  1.0  0.7286
  C  C208  1  0.929800  0.252500  0.439000  1.0  -0.3692
  C  C209  1  0.816800  0.268500  0.443400  1.0  -0.3726
  C  C210  1  0.733400  0.208100  0.422700  1.0  0.6577
  C  C211  1  0.678200  0.201700  0.555500  1.0  -0.3496
  C  C212  1  0.569600  0.160400  0.521400  1.0  -0.3638
  C  C213  1  0.547000  0.098300  0.535900  1.0  0.6905
  C  C214  1  0.828400  0.122900  0.738100  1.0  -0.4583
  C  C215  1  0.885100  0.101600  0.790900  1.0  -0.3867
  C  C216  1  0.929100  0.038600  0.769500  1.0  0.7043
  C  C217  1  0.198700  0.101500  0.778700  1.0  -0.4314
  C  C218  1  0.318400  0.099100  0.796100  1.0  -0.3862
  C  C219  1  0.352900  0.050100  0.745700  1.0  0.6823
  C  C220  1  0.460000  0.134700  0.662800  1.0  -0.4069
  C  C221  1  0.524200  0.202000  0.678100  1.0  -0.3451
  C  C222  1  0.490500  0.248000  0.728700  1.0  0.7013
  C  C223  1  0.607800  0.325800  0.155600  1.0  0.6124
  C  C224  1  0.645600  0.291100  0.200900  1.0  0.0983
  C  C225  1  0.751300  0.283600  0.214800  1.0  0.1396
  C  C226  1  0.708000  0.228100  0.282200  1.0  0.0717
  C  C227  1  0.604000  0.238400  0.266600  1.0  0.1288
  C  C228  1  0.854900  0.109700  0.131000  1.0  0.0955
  C  C229  1  0.747200  0.100000  0.102400  1.0  0.0754
  C  C230  1  0.707500  0.080700  0.189900  1.0  0.1345
  C  C231  1  0.815300  0.090200  0.215300  1.0  0.0717
  C  C232  1  0.857900  0.088600  0.278700  1.0  0.6213
  C  C233  1  0.187300  0.687700  0.107100  1.0  -0.3566
  C  C234  1  0.077400  0.654000  0.068400  1.0  -0.4073
  C  C235  1  0.053300  0.582600  0.064000  1.0  0.6648
  C  C236  1  0.452500  0.785100  0.025100  1.0  -0.4294
  C  C237  1  0.338100  0.797500  0.022800  1.0  -0.3896
  C  C238  1  0.254400  0.739300  0.986100  1.0  0.7054
  C  C239  1  0.818200  0.766100  0.062500  1.0  -0.4331
  C  C240  1  0.757300  0.810400  0.031300  1.0  -0.338
  C  C241  1  0.680800  0.771600  0.972200  1.0  0.7356
  C  C242  1  0.952500  0.598200  0.188000  1.0  -0.4094
  C  C243  1  0.974600  0.611000  0.256100  1.0  -0.3875
  C  C244  1  0.968000  0.677800  0.294500  1.0  0.7135
  C  C245  1  0.676700  0.512200  0.270200  1.0  -0.4417
  C  C246  1  0.773200  0.478500  0.277900  1.0  -0.4142
  C  C247  1  0.824400  0.463000  0.224600  1.0  0.662
  C  C248  1  0.304300  0.537500  0.234700  1.0  -0.4965
  C  C249  1  0.352800  0.496400  0.273800  1.0  -0.3946
  C  C250  1  0.396800  0.439500  0.236900  1.0  0.7041
  C  C251  1  0.893500  0.630200  0.811500  1.0  -0.3823
  C  C252  1  0.957600  0.688000  0.803500  1.0  -0.3824
  C  C253  1  0.898000  0.744800  0.804900  1.0  0.713
  C  C254  1  0.646200  0.963000  0.748700  1.0  -0.3672
  C  C255  1  0.593700  0.917600  0.777700  1.0  -0.4136
  C  C256  1  0.655600  0.862700  0.785700  1.0  0.7389
  C  C257  1  0.697800  0.758200  0.517500  1.0  -0.4661
  C  C258  1  0.760000  0.732200  0.565900  1.0  -0.3798
  C  C259  1  0.844300  0.783500  0.614300  1.0  0.7283
  C  C260  1  0.070200  0.747500  0.561000  1.0  -0.3707
  C  C261  1  0.183200  0.731500  0.556600  1.0  -0.3715
  C  C262  1  0.266600  0.791900  0.577300  1.0  0.6574
  C  C263  1  0.321800  0.798300  0.444500  1.0  -0.3456
  C  C264  1  0.430400  0.839600  0.478600  1.0  -0.363
  C  C265  1  0.453000  0.901700  0.464100  1.0  0.6904
  C  C266  1  0.171600  0.877100  0.261900  1.0  -0.4601
  C  C267  1  0.114900  0.898400  0.209100  1.0  -0.3834
  C  C268  1  0.070900  0.961400  0.230500  1.0  0.7048
  C  C269  1  0.801300  0.898500  0.221300  1.0  -0.4261
  C  C270  1  0.681600  0.900900  0.203900  1.0  -0.3852
  C  C271  1  0.647100  0.949900  0.254300  1.0  0.6842
  C  C272  1  0.540000  0.865300  0.337200  1.0  -0.4072
  C  C273  1  0.475800  0.798000  0.321900  1.0  -0.3459
  C  C274  1  0.509500  0.752000  0.271300  1.0  0.7014
  C  C275  1  0.392200  0.674200  0.844400  1.0  0.6128
  C  C276  1  0.354400  0.708900  0.799100  1.0  0.0992
  C  C277  1  0.248700  0.716400  0.785200  1.0  0.1396
  C  C278  1  0.292000  0.771900  0.717800  1.0  0.0699
  C  C279  1  0.396000  0.761600  0.733400  1.0  0.1294
  C  C280  1  0.145100  0.890300  0.869000  1.0  0.0949
  C  C281  1  0.252800  0.900000  0.897600  1.0  0.0748
  C  C282  1  0.292500  0.919300  0.810100  1.0  0.1312
  C  C283  1  0.184700  0.909800  0.784700  1.0  0.0712
  C  C284  1  0.142100  0.911400  0.721300  1.0  0.6288
  N  N285  1  0.570100  0.269600  0.225600  1.0  -0.5089
  N  N286  1  0.785100  0.251700  0.257400  1.0  -0.4459
  N  N287  1  0.889700  0.103900  0.186000  1.0  -0.496
  N  N288  1  0.672000  0.084800  0.131900  1.0  -0.4687
  N  N289  1  0.429900  0.730400  0.774400  1.0  -0.5084
  N  N290  1  0.214900  0.748300  0.742600  1.0  -0.4431
  N  N291  1  0.110300  0.896100  0.814000  1.0  -0.4991
  N  N292  1  0.328000  0.915200  0.868100  1.0  -0.4712
  O  O293  1  0.579400  0.309800  0.903100  1.0  -0.961
  O  O294  1  0.388400  0.293000  0.911400  1.0  -0.8298
  O  O295  1  0.195500  0.332100  0.874800  1.0  -0.8713
  O  O296  1  0.294600  0.402300  0.815500  1.0  -0.9027
  O  O297  1  0.478500  0.427700  0.799900  1.0  -0.9704
  O  O298  1  0.637500  0.380600  0.842500  1.0  -1.0026
  O  O299  1  0.716400  0.425400  0.976300  1.0  -0.808
  O  O300  1  0.531900  0.370000  0.019000  1.0  -0.8192
  O  O301  1  0.290100  0.381600  0.999300  1.0  -0.8466
  O  O302  1  0.236200  0.472500  0.923500  1.0  -0.8211
  O  O303  1  0.420800  0.531500  0.879000  1.0  -0.8197
  O  O304  1  0.655600  0.513700  0.898900  1.0  -0.8332
  O  O305  1  0.871100  0.445400  0.917600  1.0  -0.8019
  O  O306  1  0.041200  0.444300  0.957900  1.0  -0.7545
  O  O307  1  0.716900  0.314300  0.013500  1.0  -0.7361
  O  O308  1  0.837100  0.254900  0.038400  1.0  -0.6315
  O  O309  1  0.373800  0.278200  0.025800  1.0  -0.7535
  O  O310  1  0.326700  0.210600  0.074800  1.0  -0.7027
  O  O311  1  0.069800  0.280400  0.728300  1.0  -0.6896
  O  O312  1  0.999400  0.308000  0.648600  1.0  -0.6843
  O  O313  1  0.216800  0.518400  0.820500  1.0  -0.7203
  O  O314  1  0.096400  0.566000  0.774200  1.0  -0.6456
  O  O315  1  0.563600  0.550200  0.804700  1.0  -0.7167
  O  O316  1  0.605100  0.613200  0.749900  1.0  -0.7125
  O  O317  1  0.062200  0.208600  0.209200  1.0  -0.7433
  O  O318  1  0.189800  0.256900  0.178200  1.0  -0.7687
  O  O319  1  0.268900  0.146700  0.241500  1.0  -0.7933
  O  O320  1  0.372800  0.170900  0.183400  1.0  -0.771
  O  O321  1  0.101300  0.204700  0.528700  1.0  -0.8641
  O  O322  1  0.913000  0.198600  0.542900  1.0  -0.9794
  O  O323  1  0.866100  0.161900  0.629500  1.0  -0.9919
  O  O324  1  0.034200  0.134900  0.687500  1.0  -0.9712
  O  O325  1  0.216000  0.146300  0.663400  1.0  -0.845
  O  O326  1  0.300600  0.181300  0.577800  1.0  -0.8399
  O  O327  1  0.197500  0.096000  0.462900  1.0  -0.831
  O  O328  1  0.954500  0.104500  0.439600  1.0  -0.8178
  O  O329  1  0.779500  0.075700  0.503300  1.0  -0.8114
  O  O330  1  0.855500  0.029200  0.611700  1.0  -0.8374
  O  O331  1  0.093000  0.015700  0.635900  1.0  -0.8192
  O  O332  1  0.267700  0.043600  0.568900  1.0  -0.8255
  O  O333  1  0.138700  0.215300  0.331200  1.0  -0.7354
  O  O334  1  0.105900  0.177000  0.405500  1.0  -0.7754
  O  O335  1  0.767800  0.157700  0.430100  1.0  -0.7262
  O  O336  1  0.637700  0.209200  0.400900  1.0  -0.6234
  O  O337  1  0.621700  0.078600  0.566300  1.0  -0.758
  O  O338  1  0.452900  0.068500  0.516200  1.0  -0.7523
  O  O339  1  0.961800  0.031200  0.721000  1.0  -0.721
  O  O340  1  0.932300  0.998500  0.798700  1.0  -0.7213
  O  O341  1  0.297800  0.042100  0.691900  1.0  -0.7223
  O  O342  1  0.430100  0.021900  0.756300  1.0  -0.6254
  O  O343  1  0.451400  0.297800  0.722700  1.0  -0.7331
  O  O344  1  0.500500  0.235900  0.779400  1.0  -0.7009
  O  O345  1  0.395000  0.159700  0.363800  1.0  -0.7241
  O  O346  1  0.353400  0.037500  0.382200  1.0  -0.6951
  O  O347  1  0.183700  0.085600  0.320700  1.0  -0.8756
  O  O348  1  0.286800  0.341700  0.121500  1.0  -0.8803
  O  O349  1  0.126100  0.411700  0.077500  1.0  -0.7414
  O  O350  1  0.077000  0.277100  0.058900  1.0  -0.7681
  O  O351  1  0.673300  0.348900  0.133300  1.0  -0.6752
  O  O352  1  0.506800  0.327800  0.143900  1.0  -0.7767
  O  O353  1  0.959700  0.094300  0.295500  1.0  -0.7881
  O  O354  1  0.794000  0.081200  0.310200  1.0  -0.7336
  O  O355  1  0.420600  0.690200  0.096900  1.0  -0.9616
  O  O356  1  0.611600  0.707000  0.088600  1.0  -0.8303
  O  O357  1  0.804500  0.667900  0.125200  1.0  -0.8714
  O  O358  1  0.705400  0.597700  0.184500  1.0  -0.9019
  O  O359  1  0.521500  0.572300  0.200100  1.0  -0.9689
  O  O360  1  0.362500  0.619400  0.157500  1.0  -1.0033
  O  O361  1  0.283600  0.574600  0.023700  1.0  -0.808
  O  O362  1  0.468100  0.630000  0.981000  1.0  -0.82
  O  O363  1  0.709900  0.618400  0.000700  1.0  -0.8462
  O  O364  1  0.763800  0.527500  0.076500  1.0  -0.8226
  O  O365  1  0.579200  0.468500  0.121000  1.0  -0.8209
  O  O366  1  0.344400  0.486300  0.101100  1.0  -0.8346
  O  O367  1  0.128900  0.554600  0.082400  1.0  -0.8013
  O  O368  1  0.958800  0.555700  0.042100  1.0  -0.7552
  O  O369  1  0.283100  0.685700  0.986500  1.0  -0.7363
  O  O370  1  0.162900  0.745100  0.961600  1.0  -0.6304
  O  O371  1  0.626200  0.721800  0.974200  1.0  -0.7529
  O  O372  1  0.673300  0.789400  0.925200  1.0  -0.7009
  O  O373  1  0.930200  0.719600  0.271700  1.0  -0.6894
  O  O374  1  0.000600  0.692000  0.351400  1.0  -0.6843
  O  O375  1  0.783200  0.481600  0.179500  1.0  -0.7177
  O  O376  1  0.903600  0.434000  0.225800  1.0  -0.6432
  O  O377  1  0.436400  0.449800  0.195300  1.0  -0.7166
  O  O378  1  0.394900  0.386800  0.250100  1.0  -0.712
  O  O379  1  0.937800  0.791400  0.790800  1.0  -0.7446
  O  O380  1  0.810200  0.743100  0.821800  1.0  -0.7694
  O  O381  1  0.731100  0.853300  0.758500  1.0  -0.7944
  O  O382  1  0.627200  0.829100  0.816600  1.0  -0.7721
  O  O383  1  0.898700  0.795300  0.471300  1.0  -0.8637
  O  O384  1  0.087000  0.801400  0.457100  1.0  -0.977
  O  O385  1  0.133900  0.838100  0.370500  1.0  -0.9921
  O  O386  1  0.965800  0.865100  0.312500  1.0  -0.9708
  O  O387  1  0.784000  0.853700  0.336600  1.0  -0.8451
  O  O388  1  0.699400  0.818700  0.422200  1.0  -0.8401
  O  O389  1  0.802500  0.904000  0.537100  1.0  -0.8306
  O  O390  1  0.045500  0.895500  0.560400  1.0  -0.8176
  O  O391  1  0.220500  0.924300  0.496700  1.0  -0.8135
  O  O392  1  0.144500  0.970800  0.388300  1.0  -0.8359
  O  O393  1  0.907000  0.984300  0.364100  1.0  -0.8184
  O  O394  1  0.732300  0.956400  0.431100  1.0  -0.8248
  O  O395  1  0.861300  0.784700  0.668800  1.0  -0.7382
  O  O396  1  0.894100  0.823000  0.594500  1.0  -0.7759
  O  O397  1  0.232200  0.842300  0.569900  1.0  -0.724
  O  O398  1  0.362300  0.790800  0.599100  1.0  -0.6254
  O  O399  1  0.378300  0.921400  0.433700  1.0  -0.7584
  O  O400  1  0.547100  0.931500  0.483800  1.0  -0.7504
  O  O401  1  0.038200  0.968800  0.279000  1.0  -0.7216
  O  O402  1  0.067700  0.001500  0.201300  1.0  -0.7211
  O  O403  1  0.702200  0.957900  0.308100  1.0  -0.7238
  O  O404  1  0.569900  0.978100  0.243700  1.0  -0.6261
  O  O405  1  0.548600  0.702200  0.277300  1.0  -0.7321
  O  O406  1  0.499500  0.764100  0.220600  1.0  -0.6993
  O  O407  1  0.605000  0.840300  0.636200  1.0  -0.7253
  O  O408  1  0.646600  0.962500  0.617800  1.0  -0.695
  O  O409  1  0.816300  0.914400  0.679300  1.0  -0.8763
  O  O410  1  0.713200  0.658300  0.878500  1.0  -0.8793
  O  O411  1  0.873900  0.588300  0.922500  1.0  -0.7416
  O  O412  1  0.923000  0.722900  0.941100  1.0  -0.769
  O  O413  1  0.326700  0.651100  0.866700  1.0  -0.6755
  O  O414  1  0.493200  0.672200  0.856100  1.0  -0.7772
  O  O415  1  0.040300  0.905700  0.704500  1.0  -0.7884
  O  O416  1  0.206000  0.918800  0.689800  1.0  -0.7346
