# generated using pymatgen
data_Co2Ni3H50(C10N7)3
_symmetry_space_group_name_H-M   'P 1'
_cell_length_a   14.22870000
_cell_length_b   14.22870000
_cell_length_c   16.47500000
_cell_angle_alpha   81.37980000
_cell_angle_beta   81.37980000
_cell_angle_gamma   61.42480000
_symmetry_Int_Tables_number   1
_chemical_formula_structural   Co2Ni3H50(C10N7)3
_chemical_formula_sum   'Co4 Ni6 H100 C60 N42'
_cell_volume   2884.31218233
_cell_formula_units_Z   2
loop_
 _symmetry_equiv_pos_site_id
 _symmetry_equiv_pos_as_xyz
  1  'x, y, z'
loop_
 _atom_site_type_symbol
 _atom_site_label
 _atom_site_symmetry_multiplicity
 _atom_site_fract_x
 _atom_site_fract_y
 _atom_site_fract_z
 _atom_site_occupancy
 _atom_site_charge
  Co  Co1  1  0.850880  0.771980  0.413660  1.0  -0.4537
  Co  Co2  1  0.228020  0.149120  0.086340  1.0  -0.4519
  Co  Co3  1  0.149120  0.228020  0.586340  1.0  -0.4499
  Co  Co4  1  0.771980  0.850880  0.913660  1.0  -0.45
  Ni  Ni5  1  0.944290  0.595630  0.695410  1.0  0.6787
  Ni  Ni6  1  0.404370  0.055710  0.804590  1.0  0.6651
  Ni  Ni7  1  0.055710  0.404370  0.304590  1.0  0.6653
  Ni  Ni8  1  0.595630  0.944290  0.195410  1.0  0.664
  Ni  Ni9  1  0.109300  0.890700  0.250000  1.0  0.5708
  Ni  Ni10  1  0.890700  0.109300  0.750000  1.0  0.5722
  H  H11  1  0.061000  0.665200  0.735300  1.0  0.2539
  H  H12  1  0.123400  0.592400  0.664300  1.0  0.3198
  H  H13  1  0.192800  0.449400  0.748200  1.0  0.0771
  H  H14  1  0.203200  0.536600  0.786900  1.0  0.0373
  H  H15  1  0.066100  0.553500  0.873700  1.0  0.1017
  H  H16  1  0.167400  0.442600  0.881700  1.0  0.1403
  H  H17  1  0.029800  0.409000  0.899900  1.0  0.0819
  H  H18  1  0.084500  0.375700  0.812800  1.0  0.0579
  H  H19  1  0.907900  0.558300  0.848100  1.0  0.2542
  H  H20  1  0.875800  0.432800  0.877100  1.0  0.0656
  H  H21  1  0.918400  0.394000  0.789600  1.0  0.0785
  H  H22  1  0.735700  0.571700  0.825400  1.0  0.1412
  H  H23  1  0.742900  0.461700  0.815300  1.0  0.1133
  H  H24  1  0.671600  0.588200  0.707900  1.0  0.0385
  H  H25  1  0.770700  0.484300  0.679800  1.0  0.0779
  H  H26  1  0.811800  0.598200  0.610300  1.0  0.2924
  H  H27  1  0.749400  0.683200  0.673400  1.0  0.2843
  H  H28  1  0.226900  0.920100  0.330900  1.0  0.2927
  H  H29  1  0.170100  0.863700  0.390400  1.0  0.2896
  H  H30  1  0.102100  0.980900  0.443200  1.0  0.0419
  H  H31  1  0.149700  0.041100  0.378000  1.0  0.0549
  H  H32  1  0.969000  0.079000  0.427500  1.0  0.0775
  H  H33  1  0.018000  0.147800  0.375100  1.0  0.1015
  H  H34  1  0.881700  0.111100  0.342900  1.0  0.1123
  H  H35  1  0.941700  0.166500  0.286200  1.0  0.0605
  H  H36  1  0.334800  0.939000  0.764700  1.0  0.2561
  H  H37  1  0.407600  0.876600  0.835700  1.0  0.3227
  H  H38  1  0.550600  0.807200  0.751800  1.0  0.0817
  H  H39  1  0.463400  0.796800  0.713100  1.0  0.0378
  H  H40  1  0.446500  0.933900  0.626300  1.0  0.1035
  H  H41  1  0.557400  0.832600  0.618300  1.0  0.1375
  H  H42  1  0.591000  0.970200  0.600100  1.0  0.0797
  H  H43  1  0.624300  0.915500  0.687200  1.0  0.0659
  H  H44  1  0.441700  0.092100  0.651900  1.0  0.253
  H  H45  1  0.567200  0.124200  0.622900  1.0  0.0654
  H  H46  1  0.606000  0.081600  0.710400  1.0  0.0794
  H  H47  1  0.428300  0.264300  0.674600  1.0  0.139
  H  H48  1  0.538300  0.257100  0.684700  1.0  0.1161
  H  H49  1  0.411800  0.328400  0.792100  1.0  0.0408
  H  H50  1  0.515700  0.229300  0.820200  1.0  0.0755
  H  H51  1  0.401800  0.188200  0.889700  1.0  0.3038
  H  H52  1  0.316800  0.250600  0.826600  1.0  0.2861
  H  H53  1  0.079900  0.773100  0.169100  1.0  0.2829
  H  H54  1  0.136300  0.829900  0.109600  1.0  0.3031
  H  H55  1  0.019100  0.897900  0.056800  1.0  0.0416
  H  H56  1  0.958900  0.850300  0.122000  1.0  0.0537
  H  H57  1  0.921000  0.031000  0.072500  1.0  0.0755
  H  H58  1  0.852200  0.982000  0.124900  1.0  0.1002
  H  H59  1  0.888900  0.118300  0.157100  1.0  0.0884
  H  H60  1  0.833500  0.058300  0.213800  1.0  0.0596
  H  H61  1  0.939000  0.334800  0.264700  1.0  0.2507
  H  H62  1  0.876600  0.407600  0.335700  1.0  0.3251
  H  H63  1  0.807200  0.550600  0.251800  1.0  0.0977
  H  H64  1  0.796800  0.463400  0.213100  1.0  0.037
  H  H65  1  0.933900  0.446500  0.126300  1.0  0.1029
  H  H66  1  0.832600  0.557400  0.118300  1.0  0.139
  H  H67  1  0.970200  0.591000  0.100100  1.0  0.079
  H  H68  1  0.915500  0.624300  0.187200  1.0  0.0586
  H  H69  1  0.092100  0.441700  0.151900  1.0  0.2544
  H  H70  1  0.124200  0.567200  0.122900  1.0  0.0657
  H  H71  1  0.081600  0.606000  0.210400  1.0  0.0766
  H  H72  1  0.264300  0.428300  0.174600  1.0  0.1349
  H  H73  1  0.257100  0.538300  0.184700  1.0  0.1146
  H  H74  1  0.328400  0.411800  0.292100  1.0  0.0379
  H  H75  1  0.229300  0.515700  0.320200  1.0  0.0804
  H  H76  1  0.188200  0.401800  0.389700  1.0  0.3
  H  H77  1  0.250600  0.316800  0.326600  1.0  0.2847
  H  H78  1  0.773100  0.079900  0.669100  1.0  0.2971
  H  H79  1  0.829900  0.136300  0.609600  1.0  0.2892
  H  H80  1  0.897900  0.019100  0.556800  1.0  0.0403
  H  H81  1  0.850300  0.958900  0.622000  1.0  0.0547
  H  H82  1  0.031000  0.921000  0.572500  1.0  0.0762
  H  H83  1  0.982000  0.852200  0.624900  1.0  0.0963
  H  H84  1  0.118300  0.888900  0.657100  1.0  0.0777
  H  H85  1  0.058300  0.833500  0.713800  1.0  0.0609
  H  H86  1  0.665200  0.061000  0.235300  1.0  0.2561
  H  H87  1  0.592400  0.123400  0.164300  1.0  0.3175
  H  H88  1  0.449400  0.192800  0.248200  1.0  0.0963
  H  H89  1  0.536600  0.203200  0.286900  1.0  0.0381
  H  H90  1  0.553500  0.066100  0.373700  1.0  0.1024
  H  H91  1  0.442600  0.167400  0.381700  1.0  0.1395
  H  H92  1  0.409000  0.029800  0.399900  1.0  0.0813
  H  H93  1  0.375700  0.084500  0.312800  1.0  0.0602
  H  H94  1  0.558300  0.907900  0.348100  1.0  0.2527
  H  H95  1  0.432800  0.875800  0.377100  1.0  0.0655
  H  H96  1  0.394000  0.918400  0.289600  1.0  0.0801
  H  H97  1  0.571700  0.735700  0.325400  1.0  0.1447
  H  H98  1  0.461700  0.742900  0.315300  1.0  0.1148
  H  H99  1  0.588200  0.671600  0.207900  1.0  0.0387
  H  H100  1  0.484300  0.770700  0.179800  1.0  0.0777
  H  H101  1  0.598200  0.811800  0.110300  1.0  0.3059
  H  H102  1  0.683200  0.749400  0.173400  1.0  0.2815
  H  H103  1  0.920100  0.226900  0.830900  1.0  0.2859
  H  H104  1  0.863700  0.170100  0.890400  1.0  0.2747
  H  H105  1  0.980900  0.102100  0.943200  1.0  0.0404
  H  H106  1  0.041100  0.149700  0.878000  1.0  0.0551
  H  H107  1  0.079000  0.969000  0.927500  1.0  0.0754
  H  H108  1  0.147800  0.018000  0.875100  1.0  0.102
  H  H109  1  0.111100  0.881700  0.842900  1.0  0.0845
  H  H110  1  0.166500  0.941700  0.786200  1.0  0.0605
  C  C111  1  0.909700  0.722300  0.516000  1.0  0.2268
  C  C112  1  0.966300  0.796900  0.363300  1.0  0.2497
  C  C113  1  0.923700  0.630700  0.382500  1.0  0.2227
  C  C114  1  0.777700  0.916900  0.441800  1.0  0.2213
  C  C115  1  0.732600  0.750400  0.459800  1.0  0.2157
  C  C116  1  0.785000  0.821200  0.314200  1.0  0.2241
  C  C117  1  0.154000  0.508000  0.774000  1.0  0.1436
  C  C118  1  0.118000  0.490000  0.847000  1.0  -0.2331
  C  C119  1  0.042000  0.436000  0.845000  1.0  0.0356
  C  C120  1  0.860300  0.456300  0.814000  1.0  -0.0059
  C  C121  1  0.752700  0.526700  0.792000  1.0  -0.2041
  C  C122  1  0.749200  0.547200  0.708000  1.0  0.1163
  C  C123  1  0.100000  0.004000  0.392000  1.0  0.1792
  C  C124  1  0.008000  0.088000  0.375000  1.0  -0.1897
  C  C125  1  0.938000  0.098000  0.312000  1.0  0.043
  C  C126  1  0.277700  0.090300  0.984000  1.0  0.2257
  C  C127  1  0.203100  0.033700  0.136700  1.0  0.249
  C  C128  1  0.369300  0.076300  0.117500  1.0  0.2234
  C  C129  1  0.083100  0.222300  0.058200  1.0  0.2206
  C  C130  1  0.249600  0.267400  0.040200  1.0  0.2168
  C  C131  1  0.178800  0.215000  0.185800  1.0  0.2232
  C  C132  1  0.492000  0.846000  0.726000  1.0  0.1477
  C  C133  1  0.510000  0.882000  0.653000  1.0  -0.2342
  C  C134  1  0.564000  0.958000  0.655000  1.0  0.0368
  C  C135  1  0.543700  0.139700  0.686000  1.0  0.0022
  C  C136  1  0.473300  0.247300  0.708000  1.0  -0.2022
  C  C137  1  0.452800  0.250800  0.792000  1.0  0.1082
  C  C138  1  0.996000  0.900000  0.108000  1.0  0.1775
  C  C139  1  0.912000  0.992000  0.125000  1.0  -0.1858
  C  C140  1  0.902000  0.062000  0.188000  1.0  0.0449
  C  C141  1  0.090300  0.277700  0.484000  1.0  0.2266
  C  C142  1  0.033700  0.203100  0.636700  1.0  0.2468
  C  C143  1  0.076300  0.369300  0.617500  1.0  0.2232
  C  C144  1  0.222300  0.083100  0.558200  1.0  0.2215
  C  C145  1  0.267400  0.249600  0.540200  1.0  0.2156
  C  C146  1  0.215000  0.178800  0.685800  1.0  0.2231
  C  C147  1  0.846000  0.492000  0.226000  1.0  0.1464
  C  C148  1  0.882000  0.510000  0.153000  1.0  -0.232
  C  C149  1  0.958000  0.564000  0.155000  1.0  0.0341
  C  C150  1  0.139700  0.543700  0.186000  1.0  0.0069
  C  C151  1  0.247300  0.473300  0.208000  1.0  -0.2065
  C  C152  1  0.250800  0.452800  0.292000  1.0  0.1177
  C  C153  1  0.900000  0.996000  0.608000  1.0  0.1795
  C  C154  1  0.992000  0.912000  0.625000  1.0  -0.1893
  C  C155  1  0.062000  0.902000  0.688000  1.0  0.0446
  C  C156  1  0.722300  0.909700  0.016000  1.0  0.2258
  C  C157  1  0.796900  0.966300  0.863300  1.0  0.2516
  C  C158  1  0.630700  0.923700  0.882500  1.0  0.223
  C  C159  1  0.916900  0.777700  0.941800  1.0  0.2213
  C  C160  1  0.750400  0.732600  0.959800  1.0  0.2168
  C  C161  1  0.821200  0.785000  0.814200  1.0  0.2241
  C  C162  1  0.508000  0.154000  0.274000  1.0  0.1485
  C  C163  1  0.490000  0.118000  0.347000  1.0  -0.235
  C  C164  1  0.436000  0.042000  0.345000  1.0  0.0345
  C  C165  1  0.456300  0.860300  0.314000  1.0  0.0081
  C  C166  1  0.526700  0.752700  0.292000  1.0  -0.202
  C  C167  1  0.547200  0.749200  0.208000  1.0  0.1167
  C  C168  1  0.004000  0.100000  0.892000  1.0  0.1787
  C  C169  1  0.088000  0.008000  0.875000  1.0  -0.1914
  C  C170  1  0.098000  0.938000  0.812000  1.0  0.0466
  N  N171  1  0.941100  0.686900  0.580400  1.0  -0.461
  N  N172  1  0.031200  0.816200  0.328900  1.0  -0.4927
  N  N173  1  0.969200  0.546800  0.361000  1.0  -0.4211
  N  N174  1  0.735000  0.003600  0.456200  1.0  -0.5295
  N  N175  1  0.661200  0.734000  0.484900  1.0  -0.5193
  N  N176  1  0.736100  0.854500  0.257500  1.0  -0.4742
  N  N177  1  0.083800  0.597600  0.715700  1.0  -0.6159
  N  N178  1  0.941500  0.502700  0.810700  1.0  -0.388
  N  N179  1  0.800400  0.609600  0.666667  1.0  -0.5846
  N  N180  1  0.159600  0.921000  0.349700  1.0  -0.6017
  N  N181  1  0.313100  0.058900  0.919600  1.0  -0.4639
  N  N182  1  0.183800  0.968800  0.171100  1.0  -0.4934
  N  N183  1  0.453200  0.030800  0.139000  1.0  -0.4186
  N  N184  1  0.996400  0.265000  0.043800  1.0  -0.5316
  N  N185  1  0.266000  0.338800  0.015100  1.0  -0.5187
  N  N186  1  0.145500  0.263900  0.242500  1.0  -0.475
  N  N187  1  0.402400  0.916200  0.784300  1.0  -0.617
  N  N188  1  0.497300  0.058500  0.689300  1.0  -0.3849
  N  N189  1  0.390400  0.199600  0.833400  1.0  -0.5924
  N  N190  1  0.079000  0.840400  0.150300  1.0  -0.6011
  N  N191  1  0.058900  0.313100  0.419600  1.0  -0.4606
  N  N192  1  0.968800  0.183800  0.671100  1.0  -0.4924
  N  N193  1  0.030800  0.453200  0.639000  1.0  -0.4191
  N  N194  1  0.265000  0.996400  0.543800  1.0  -0.5292
  N  N195  1  0.338800  0.266000  0.515100  1.0  -0.5184
  N  N196  1  0.263900  0.145500  0.742500  1.0  -0.477
  N  N197  1  0.916200  0.402400  0.284300  1.0  -0.6173
  N  N198  1  0.058500  0.497300  0.189300  1.0  -0.3855
  N  N199  1  0.199600  0.390400  0.333400  1.0  -0.5904
  N  N200  1  0.840400  0.079000  0.650300  1.0  -0.6011
  N  N201  1  0.686900  0.941100  0.080400  1.0  -0.4643
  N  N202  1  0.816200  0.031200  0.828900  1.0  -0.495
  N  N203  1  0.546800  0.969200  0.861000  1.0  -0.42
  N  N204  1  0.003600  0.735000  0.956200  1.0  -0.5299
  N  N205  1  0.734000  0.661200  0.984900  1.0  -0.5194
  N  N206  1  0.854500  0.736100  0.757500  1.0  -0.4745
  N  N207  1  0.597600  0.083800  0.215700  1.0  -0.6173
  N  N208  1  0.502700  0.941500  0.310700  1.0  -0.3842
  N  N209  1  0.609600  0.800400  0.166600  1.0  -0.5911
  N  N210  1  0.921000  0.159600  0.849700  1.0  -0.6019
  N  N211  1  0.966000  0.034000  0.250000  1.0  -0.2147
  N  N212  1  0.034000  0.966000  0.750000  1.0  -0.2057
