# generated using pymatgen
data_CoMo2H14C22N3O5
_symmetry_space_group_name_H-M   'P 1'
_cell_length_a   9.00080000
_cell_length_b   27.89440000
_cell_length_c   10.97980000
_cell_angle_alpha   90.00000000
_cell_angle_beta   98.69400000
_cell_angle_gamma   90.00000000
_symmetry_Int_Tables_number   1
_chemical_formula_structural   CoMo2H14C22N3O5
_chemical_formula_sum   'Co4 Mo8 H56 C88 N12 O20'
_cell_volume   2725.04394385
_cell_formula_units_Z   4
loop_
 _symmetry_equiv_pos_site_id
 _symmetry_equiv_pos_as_xyz
  1  'x, y, z'
loop_
 _atom_site_type_symbol
 _atom_site_label
 _atom_site_symmetry_multiplicity
 _atom_site_fract_x
 _atom_site_fract_y
 _atom_site_fract_z
 _atom_site_occupancy
 _atom_site_charge
  Co  Co1  1  0.750000  0.383320  0.500000  1.0  0.9592
  Co  Co2  1  0.250000  0.883320  0.000000  1.0  0.9592
  Co  Co3  1  0.250000  0.616680  0.500000  1.0  0.9585
  Co  Co4  1  0.750000  0.116680  0.000000  1.0  0.9585
  Mo  Mo5  1  0.412500  0.351100  0.626190  1.0  0.5647
  Mo  Mo6  1  0.912500  0.851100  0.126190  1.0  0.5647
  Mo  Mo7  1  0.087500  0.351100  0.373810  1.0  0.5661
  Mo  Mo8  1  0.587500  0.851100  0.873810  1.0  0.5661
  Mo  Mo9  1  0.587500  0.648900  0.373810  1.0  0.567
  Mo  Mo10  1  0.087500  0.148900  0.873810  1.0  0.567
  Mo  Mo11  1  0.912500  0.648900  0.626190  1.0  0.5649
  Mo  Mo12  1  0.412500  0.148900  0.126190  1.0  0.5649
  H  H13  1  0.743500  0.487050  0.382600  1.0  0.0753
  H  H14  1  0.598700  0.533070  0.237700  1.0  0.1284
  H  H15  1  0.332500  0.418760  0.155400  1.0  0.1229
  H  H16  1  0.480200  0.377440  0.306600  1.0  0.0837
  H  H17  1  0.418000  0.575590  0.143000  1.0  0.1241
  H  H18  1  0.295500  0.647320  0.185200  1.0  0.1126
  H  H19  1  0.308300  0.729960  0.184400  1.0  0.1024
  H  H20  1  0.243500  0.987050  0.882600  1.0  0.0753
  H  H21  1  0.098700  0.033070  0.737700  1.0  0.1284
  H  H22  1  0.832500  0.918760  0.655400  1.0  0.1229
  H  H23  1  0.980200  0.877440  0.806600  1.0  0.0838
  H  H24  1  0.918000  0.075590  0.643000  1.0  0.1241
  H  H25  1  0.795500  0.147320  0.685200  1.0  0.1126
  H  H26  1  0.808300  0.229960  0.684400  1.0  0.1024
  H  H27  1  0.756500  0.487050  0.617400  1.0  0.0754
  H  H28  1  0.901300  0.533070  0.762300  1.0  0.129
  H  H29  1  0.167500  0.418760  0.844600  1.0  0.1227
  H  H30  1  0.019800  0.377440  0.693400  1.0  0.0842
  H  H31  1  0.082000  0.575590  0.857000  1.0  0.1249
  H  H32  1  0.204500  0.647320  0.814800  1.0  0.1134
  H  H33  1  0.191700  0.729960  0.815600  1.0  0.103
  H  H34  1  0.256500  0.987050  0.117400  1.0  0.0754
  H  H35  1  0.401300  0.033070  0.262300  1.0  0.129
  H  H36  1  0.667500  0.918760  0.344600  1.0  0.1227
  H  H37  1  0.519800  0.877440  0.193400  1.0  0.0843
  H  H38  1  0.582000  0.075590  0.357000  1.0  0.1249
  H  H39  1  0.704500  0.147320  0.314800  1.0  0.1134
  H  H40  1  0.691700  0.229960  0.315600  1.0  0.103
  H  H41  1  0.256500  0.512950  0.617400  1.0  0.0755
  H  H42  1  0.401300  0.466930  0.762300  1.0  0.1278
  H  H43  1  0.667500  0.581240  0.844600  1.0  0.1229
  H  H44  1  0.519800  0.622560  0.693400  1.0  0.0837
  H  H45  1  0.582000  0.424410  0.857000  1.0  0.1245
  H  H46  1  0.704500  0.352680  0.814800  1.0  0.1128
  H  H47  1  0.691700  0.270040  0.815600  1.0  0.1028
  H  H48  1  0.756500  0.012950  0.117400  1.0  0.0755
  H  H49  1  0.901300  0.966930  0.262300  1.0  0.1278
  H  H50  1  0.167500  0.081240  0.344600  1.0  0.1229
  H  H51  1  0.019800  0.122560  0.193400  1.0  0.0838
  H  H52  1  0.082000  0.924410  0.357000  1.0  0.1245
  H  H53  1  0.204500  0.852680  0.314800  1.0  0.1128
  H  H54  1  0.191700  0.770040  0.315600  1.0  0.1028
  H  H55  1  0.243500  0.512950  0.382600  1.0  0.0755
  H  H56  1  0.098700  0.466930  0.237700  1.0  0.1281
  H  H57  1  0.832500  0.581240  0.155400  1.0  0.1235
  H  H58  1  0.980200  0.622560  0.306600  1.0  0.0843
  H  H59  1  0.918000  0.424410  0.143000  1.0  0.1239
  H  H60  1  0.795500  0.352680  0.185200  1.0  0.1124
  H  H61  1  0.808300  0.270040  0.184400  1.0  0.1026
  H  H62  1  0.743500  0.012950  0.882600  1.0  0.0755
  H  H63  1  0.598700  0.966930  0.737700  1.0  0.1281
  H  H64  1  0.332500  0.081240  0.655400  1.0  0.1235
  H  H65  1  0.480200  0.122560  0.806600  1.0  0.0843
  H  H66  1  0.418000  0.924410  0.643000  1.0  0.1239
  H  H67  1  0.295500  0.852680  0.685200  1.0  0.1124
  H  H68  1  0.308300  0.770040  0.684400  1.0  0.1026
  C  C69  1  0.658300  0.473340  0.337400  1.0  0.19
  C  C70  1  0.572400  0.501310  0.249100  1.0  -0.179
  C  C71  1  0.446300  0.481440  0.177600  1.0  0.0424
  C  C72  1  0.414700  0.433850  0.201200  1.0  -0.1382
  C  C73  1  0.504900  0.409110  0.292200  1.0  0.168
  C  C74  1  0.345700  0.509640  0.083300  1.0  0.2371
  C  C75  1  0.349500  0.559560  0.085200  1.0  -0.0779
  C  C76  1  0.279000  0.663880  0.110900  1.0  -0.1119
  C  C77  1  0.283200  0.713420  0.110600  1.0  -0.0579
  C  C78  1  0.158300  0.973340  0.837400  1.0  0.19
  C  C79  1  0.072400  0.001310  0.749100  1.0  -0.179
  C  C80  1  0.946300  0.981440  0.677600  1.0  0.0424
  C  C81  1  0.914700  0.933850  0.701200  1.0  -0.1382
  C  C82  1  0.004900  0.909110  0.792200  1.0  0.168
  C  C83  1  0.845700  0.009640  0.583300  1.0  0.2371
  C  C84  1  0.849500  0.059560  0.585200  1.0  -0.0779
  C  C85  1  0.779000  0.163880  0.610900  1.0  -0.1119
  C  C86  1  0.783200  0.213420  0.610600  1.0  -0.0579
  C  C87  1  0.841700  0.473340  0.662600  1.0  0.189
  C  C88  1  0.927600  0.501310  0.750900  1.0  -0.18
  C  C89  1  0.053700  0.481440  0.822400  1.0  0.0413
  C  C90  1  0.085300  0.433850  0.798800  1.0  -0.139
  C  C91  1  0.995100  0.409110  0.707800  1.0  0.1686
  C  C92  1  0.154300  0.509640  0.916700  1.0  0.2368
  C  C93  1  0.150500  0.559560  0.914800  1.0  -0.0781
  C  C94  1  0.221000  0.663880  0.889100  1.0  -0.1115
  C  C95  1  0.216800  0.713420  0.889400  1.0  -0.0542
  C  C96  1  0.341700  0.973340  0.162600  1.0  0.189
  C  C97  1  0.427600  0.001310  0.250900  1.0  -0.18
  C  C98  1  0.553700  0.981440  0.322400  1.0  0.0413
  C  C99  1  0.585300  0.933850  0.298800  1.0  -0.139
  C  C100  1  0.495100  0.909110  0.207800  1.0  0.1686
  C  C101  1  0.654300  0.009640  0.416700  1.0  0.2368
  C  C102  1  0.650500  0.059560  0.414800  1.0  -0.0781
  C  C103  1  0.721000  0.163880  0.389100  1.0  -0.1115
  C  C104  1  0.716800  0.213420  0.389400  1.0  -0.0542
  C  C105  1  0.250000  0.585320  0.000000  1.0  0.057
  C  C106  1  0.250000  0.638550  0.000000  1.0  0.0502
  C  C107  1  0.250000  0.738800  0.000000  1.0  -0.1121
  C  C108  1  0.250000  0.792740  0.000000  1.0  0.6492
  C  C109  1  0.750000  0.085320  0.500000  1.0  0.057
  C  C110  1  0.750000  0.138550  0.500000  1.0  0.0502
  C  C111  1  0.750000  0.238800  0.500000  1.0  -0.1121
  C  C112  1  0.750000  0.292740  0.500000  1.0  0.6492
  C  C113  1  0.341700  0.526660  0.662600  1.0  0.189
  C  C114  1  0.427600  0.498690  0.750900  1.0  -0.1797
  C  C115  1  0.553700  0.518560  0.822400  1.0  0.0419
  C  C116  1  0.585300  0.566150  0.798800  1.0  -0.1402
  C  C117  1  0.495100  0.590890  0.707800  1.0  0.1678
  C  C118  1  0.654300  0.490360  0.916700  1.0  0.2371
  C  C119  1  0.650500  0.440440  0.914800  1.0  -0.078
  C  C120  1  0.721000  0.336120  0.889100  1.0  -0.1111
  C  C121  1  0.716800  0.286580  0.889400  1.0  -0.0567
  C  C122  1  0.841700  0.026660  0.162600  1.0  0.189
  C  C123  1  0.927600  0.998690  0.250900  1.0  -0.1797
  C  C124  1  0.053700  0.018560  0.322400  1.0  0.0419
  C  C125  1  0.085300  0.066150  0.298800  1.0  -0.1402
  C  C126  1  0.995100  0.090890  0.207800  1.0  0.1678
  C  C127  1  0.154300  0.990360  0.416700  1.0  0.2371
  C  C128  1  0.150500  0.940440  0.414800  1.0  -0.078
  C  C129  1  0.221000  0.836120  0.389100  1.0  -0.1111
  C  C130  1  0.216800  0.786580  0.389400  1.0  -0.0567
  C  C131  1  0.158300  0.526660  0.337400  1.0  0.1894
  C  C132  1  0.072400  0.498690  0.249100  1.0  -0.178
  C  C133  1  0.946300  0.518560  0.177600  1.0  0.0421
  C  C134  1  0.914700  0.566150  0.201200  1.0  -0.1398
  C  C135  1  0.004900  0.590890  0.292200  1.0  0.1675
  C  C136  1  0.845700  0.490360  0.083300  1.0  0.2376
  C  C137  1  0.849500  0.440440  0.085200  1.0  -0.0779
  C  C138  1  0.779000  0.336120  0.110900  1.0  -0.1115
  C  C139  1  0.783200  0.286580  0.110600  1.0  -0.0554
  C  C140  1  0.658300  0.026660  0.837400  1.0  0.1894
  C  C141  1  0.572400  0.998690  0.749100  1.0  -0.178
  C  C142  1  0.446300  0.018560  0.677600  1.0  0.0421
  C  C143  1  0.414700  0.066150  0.701200  1.0  -0.1398
  C  C144  1  0.504900  0.090890  0.792200  1.0  0.1675
  C  C145  1  0.345700  0.990360  0.583300  1.0  0.2376
  C  C146  1  0.349500  0.940440  0.585200  1.0  -0.0779
  C  C147  1  0.279000  0.836120  0.610900  1.0  -0.1115
  C  C148  1  0.283200  0.786580  0.610600  1.0  -0.0554
  C  C149  1  0.750000  0.414680  0.000000  1.0  0.0569
  C  C150  1  0.750000  0.361450  0.000000  1.0  0.0501
  C  C151  1  0.750000  0.261200  0.000000  1.0  -0.1125
  C  C152  1  0.750000  0.207260  0.000000  1.0  0.6481
  C  C153  1  0.250000  0.914680  0.500000  1.0  0.0569
  C  C154  1  0.250000  0.861450  0.500000  1.0  0.0501
  C  C155  1  0.250000  0.761200  0.500000  1.0  -0.1125
  C  C156  1  0.250000  0.707260  0.500000  1.0  0.6481
  N  N157  1  0.626400  0.427970  0.361600  1.0  -0.3245
  N  N158  1  0.126400  0.927970  0.861600  1.0  -0.3245
  N  N159  1  0.873600  0.427970  0.638400  1.0  -0.328
  N  N160  1  0.373600  0.927970  0.138400  1.0  -0.328
  N  N161  1  0.250000  0.484610  0.000000  1.0  -0.4795
  N  N162  1  0.750000  0.984610  0.500000  1.0  -0.4795
  N  N163  1  0.373600  0.572030  0.638400  1.0  -0.3266
  N  N164  1  0.873600  0.072030  0.138400  1.0  -0.3266
  N  N165  1  0.126400  0.572030  0.361600  1.0  -0.3248
  N  N166  1  0.626400  0.072030  0.861600  1.0  -0.3248
  N  N167  1  0.750000  0.515390  0.000000  1.0  -0.4785
  N  N168  1  0.250000  0.015390  0.500000  1.0  -0.4785
  O  O169  1  0.167900  0.815070  0.915010  1.0  -0.5636
  O  O170  1  0.566800  0.384620  0.593700  1.0  -0.6875
  O  O171  1  0.667900  0.315070  0.415010  1.0  -0.5636
  O  O172  1  0.066800  0.884620  0.093700  1.0  -0.6875
  O  O173  1  0.332100  0.815070  0.084990  1.0  -0.5635
  O  O174  1  0.933200  0.384620  0.406300  1.0  -0.6861
  O  O175  1  0.832100  0.315070  0.584990  1.0  -0.5635
  O  O176  1  0.433200  0.884620  0.906300  1.0  -0.6861
  O  O177  1  0.250000  0.361120  0.500000  1.0  -0.7474
  O  O178  1  0.750000  0.861120  0.000000  1.0  -0.7474
  O  O179  1  0.832100  0.184930  0.084990  1.0  -0.5635
  O  O180  1  0.433200  0.615380  0.406300  1.0  -0.6874
  O  O181  1  0.332100  0.684930  0.584990  1.0  -0.5635
  O  O182  1  0.933200  0.115380  0.906300  1.0  -0.6874
  O  O183  1  0.667900  0.184930  0.915010  1.0  -0.5632
  O  O184  1  0.066800  0.615380  0.593700  1.0  -0.6883
  O  O185  1  0.167900  0.684930  0.415010  1.0  -0.5632
  O  O186  1  0.566800  0.115380  0.093700  1.0  -0.6883
  O  O187  1  0.750000  0.638880  0.500000  1.0  -0.7465
  O  O188  1  0.250000  0.138880  0.000000  1.0  -0.7465
