# generated using pymatgen
data_MgB(PO4)2
_symmetry_space_group_name_H-M   'P 1'
_cell_length_a   9.44620000
_cell_length_b   9.44620000
_cell_length_c   15.75900000
_cell_angle_alpha   90.00000000
_cell_angle_beta   90.00000000
_cell_angle_gamma   120.00000000
_symmetry_Int_Tables_number   1
_chemical_formula_structural   MgB(PO4)2
_chemical_formula_sum   'Mg6 B6 P12 O48'
_cell_volume   1217.79324331
_cell_formula_units_Z   6
loop_
 _symmetry_equiv_pos_site_id
 _symmetry_equiv_pos_as_xyz
  1  'x, y, z'
loop_
 _atom_site_type_symbol
 _atom_site_label
 _atom_site_symmetry_multiplicity
 _atom_site_fract_x
 _atom_site_fract_y
 _atom_site_fract_z
 _atom_site_occupancy
 _atom_site_charge
  Mg  Mg1  1  0.551640  0.448360  0.916670  1.0  1.5333
  Mg  Mg2  1  0.551640  0.103290  0.250000  1.0  1.5322
  Mg  Mg3  1  0.896710  0.448360  0.583330  1.0  1.5343
  Mg  Mg4  1  0.448360  0.551640  0.416670  1.0  1.5346
  Mg  Mg5  1  0.448360  0.896710  0.750000  1.0  1.5337
  Mg  Mg6  1  0.103290  0.551640  0.083330  1.0  1.5334
  B  B7  1  0.151000  0.302000  0.750000  1.0  0.8833
  B  B8  1  0.698000  0.849000  0.083330  1.0  0.8831
  B  B9  1  0.151000  0.849000  0.416670  1.0  0.8818
  B  B10  1  0.849000  0.698000  0.250000  1.0  0.8831
  B  B11  1  0.302000  0.151000  0.583330  1.0  0.8818
  B  B12  1  0.849000  0.151000  0.916670  1.0  0.883
  P  P13  1  0.169960  0.387040  0.919150  1.0  1.7992
  P  P14  1  0.612960  0.782920  0.252480  1.0  1.799
  P  P15  1  0.217080  0.830040  0.585820  1.0  1.8004
  P  P16  1  0.830040  0.612960  0.419150  1.0  1.7967
  P  P17  1  0.387040  0.217080  0.752480  1.0  1.7965
  P  P18  1  0.782920  0.169960  0.085820  1.0  1.7975
  P  P19  1  0.387040  0.169960  0.414180  1.0  1.7978
  P  P20  1  0.782920  0.612960  0.080850  1.0  1.7974
  P  P21  1  0.830040  0.217080  0.747520  1.0  1.7972
  P  P22  1  0.612960  0.830040  0.914180  1.0  1.7968
  P  P23  1  0.217080  0.387040  0.580850  1.0  1.7953
  P  P24  1  0.169960  0.782920  0.247520  1.0  1.7952
  O  O25  1  0.021900  0.211900  0.934470  1.0  -0.6504
  O  O26  1  0.180200  0.415500  0.820870  1.0  -0.6693
  O  O27  1  0.139900  0.514500  0.958440  1.0  -0.8218
  O  O28  1  0.318300  0.383900  0.951540  1.0  -0.867
  O  O29  1  0.788100  0.810000  0.267800  1.0  -0.6521
  O  O30  1  0.584500  0.764700  0.154200  1.0  -0.6657
  O  O31  1  0.485500  0.625400  0.291770  1.0  -0.8224
  O  O32  1  0.616100  0.934400  0.284870  1.0  -0.8696
  O  O33  1  0.190000  0.978100  0.601140  1.0  -0.6491
  O  O34  1  0.235300  0.819800  0.487540  1.0  -0.6673
  O  O35  1  0.374600  0.860100  0.625110  1.0  -0.8219
  O  O36  1  0.065600  0.681700  0.618210  1.0  -0.8672
  O  O37  1  0.978100  0.788100  0.434470  1.0  -0.6479
  O  O38  1  0.819800  0.584500  0.320870  1.0  -0.6704
  O  O39  1  0.860100  0.485500  0.458440  1.0  -0.8228
  O  O40  1  0.681700  0.616100  0.451540  1.0  -0.8672
  O  O41  1  0.211900  0.190000  0.767800  1.0  -0.6518
  O  O42  1  0.415500  0.235300  0.654200  1.0  -0.666
  O  O43  1  0.514500  0.374600  0.791770  1.0  -0.821
  O  O44  1  0.383900  0.065600  0.784870  1.0  -0.8686
  O  O45  1  0.810000  0.021900  0.101140  1.0  -0.6502
  O  O46  1  0.764700  0.180200  0.987540  1.0  -0.6642
  O  O47  1  0.625400  0.139900  0.125110  1.0  -0.8192
  O  O48  1  0.934400  0.318300  0.118210  1.0  -0.8662
  O  O49  1  0.211900  0.021900  0.398860  1.0  -0.6473
  O  O50  1  0.415500  0.180200  0.512460  1.0  -0.6653
  O  O51  1  0.514500  0.139900  0.374890  1.0  -0.821
  O  O52  1  0.383900  0.318300  0.381790  1.0  -0.8664
  O  O53  1  0.810000  0.788100  0.065530  1.0  -0.6489
  O  O54  1  0.764700  0.584500  0.179130  1.0  -0.6702
  O  O55  1  0.625400  0.485500  0.041560  1.0  -0.8227
  O  O56  1  0.934400  0.616100  0.048460  1.0  -0.8673
  O  O57  1  0.978100  0.190000  0.732200  1.0  -0.6503
  O  O58  1  0.819800  0.235300  0.845800  1.0  -0.6642
  O  O59  1  0.860100  0.374600  0.708230  1.0  -0.821
  O  O60  1  0.681700  0.065600  0.715130  1.0  -0.8691
  O  O61  1  0.788100  0.978100  0.898860  1.0  -0.6495
  O  O62  1  0.584500  0.819800  0.012460  1.0  -0.6657
  O  O63  1  0.485500  0.860100  0.874890  1.0  -0.8191
  O  O64  1  0.616100  0.681700  0.881790  1.0  -0.8668
  O  O65  1  0.190000  0.211900  0.565530  1.0  -0.6467
  O  O66  1  0.235300  0.415500  0.679130  1.0  -0.6692
  O  O67  1  0.374600  0.514500  0.541560  1.0  -0.8211
  O  O68  1  0.065600  0.383900  0.548460  1.0  -0.8668
  O  O69  1  0.021900  0.810000  0.232200  1.0  -0.6501
  O  O70  1  0.180200  0.764700  0.345800  1.0  -0.6679
  O  O71  1  0.139900  0.625400  0.208230  1.0  -0.8221
  O  O72  1  0.318300  0.934400  0.215130  1.0  -0.8689
