# generated using pymatgen
data_CaH2C6SO4
_symmetry_space_group_name_H-M   'P 1'
_cell_length_a   6.55620000
_cell_length_b   10.64240000
_cell_length_c   18.29510000
_cell_angle_alpha   90.00000000
_cell_angle_beta   98.07000000
_cell_angle_gamma   90.00000000
_symmetry_Int_Tables_number   1
_chemical_formula_structural   CaH2C6SO4
_chemical_formula_sum   'Ca4 H8 C24 S4 O16'
_cell_volume   1263.87590502
_cell_formula_units_Z   4
loop_
 _symmetry_equiv_pos_site_id
 _symmetry_equiv_pos_as_xyz
  1  'x, y, z'
loop_
 _atom_site_type_symbol
 _atom_site_label
 _atom_site_symmetry_multiplicity
 _atom_site_fract_x
 _atom_site_fract_y
 _atom_site_fract_z
 _atom_site_occupancy
 _atom_site_charge
  Ca  Ca1  1  0.247750  0.596340  0.522520  1.0  1.5897
  Ca  Ca2  1  0.252250  0.096340  0.977480  1.0  1.5896
  Ca  Ca3  1  0.752250  0.403660  0.477480  1.0  1.5882
  Ca  Ca4  1  0.747750  0.903660  0.022520  1.0  1.5893
  H  H5  1  0.583000  0.808200  0.325900  1.0  0.1039
  H  H6  1  0.618900  0.899300  0.204000  1.0  0.0983
  H  H7  1  0.917000  0.308200  0.174100  1.0  0.1038
  H  H8  1  0.881100  0.399300  0.296000  1.0  0.0984
  H  H9  1  0.417000  0.191800  0.674100  1.0  0.1039
  H  H10  1  0.381100  0.100700  0.796000  1.0  0.0983
  H  H11  1  0.083000  0.691800  0.825900  1.0  0.1041
  H  H12  1  0.118900  0.600700  0.704000  1.0  0.0984
  C  C13  1  0.276100  0.901400  0.090600  1.0  0.6976
  C  C14  1  0.190900  0.716800  0.354710  1.0  0.7032
  C  C15  1  0.472900  0.814200  0.286340  1.0  -0.0846
  C  C16  1  0.313100  0.861500  0.168680  1.0  -0.2293
  C  C17  1  0.277100  0.774100  0.290750  1.0  -0.2068
  C  C18  1  0.493900  0.865700  0.216420  1.0  -0.0927
  C  C19  1  0.223900  0.401400  0.409400  1.0  0.6939
  C  C20  1  0.309100  0.216800  0.145290  1.0  0.7032
  C  C21  1  0.027100  0.314200  0.213660  1.0  -0.0844
  C  C22  1  0.186900  0.361500  0.331320  1.0  -0.2278
  C  C23  1  0.222900  0.274100  0.209250  1.0  -0.2071
  C  C24  1  0.006100  0.365700  0.283580  1.0  -0.0931
  C  C25  1  0.723900  0.098600  0.909400  1.0  0.6975
  C  C26  1  0.809100  0.283200  0.645290  1.0  0.7033
  C  C27  1  0.527100  0.185800  0.713660  1.0  -0.0846
  C  C28  1  0.686900  0.138500  0.831320  1.0  -0.2278
  C  C29  1  0.722900  0.225900  0.709250  1.0  -0.2068
  C  C30  1  0.506100  0.134300  0.783580  1.0  -0.0929
  C  C31  1  0.776100  0.598600  0.590600  1.0  0.6942
  C  C32  1  0.690900  0.783200  0.854710  1.0  0.7036
  C  C33  1  0.972900  0.685800  0.786340  1.0  -0.0842
  C  C34  1  0.813100  0.638500  0.668680  1.0  -0.2291
  C  C35  1  0.777100  0.725900  0.790750  1.0  -0.2064
  C  C36  1  0.993900  0.634300  0.716420  1.0  -0.0927
  S  S37  1  0.115550  0.799010  0.209730  1.0  0.1314
  S  S38  1  0.384450  0.299010  0.290270  1.0  0.1313
  S  S39  1  0.884450  0.200990  0.790270  1.0  0.1312
  S  S40  1  0.615550  0.700990  0.709730  1.0  0.1312
  O  O41  1  0.097300  0.897880  0.056280  1.0  -0.8254
  O  O42  1  0.428300  0.940560  0.061110  1.0  -0.7059
  O  O43  1  0.320200  0.681660  0.409100  1.0  -0.671
  O  O44  1  0.999400  0.711500  0.350000  1.0  -0.5083
  O  O45  1  0.402700  0.397880  0.443720  1.0  -0.824
  O  O46  1  0.071700  0.440560  0.438890  1.0  -0.7058
  O  O47  1  0.179800  0.181660  0.090900  1.0  -0.6712
  O  O48  1  0.500600  0.211500  0.150000  1.0  -0.5067
  O  O49  1  0.902700  0.102120  0.943720  1.0  -0.8242
  O  O50  1  0.571700  0.059440  0.938890  1.0  -0.7066
  O  O51  1  0.679800  0.318340  0.590900  1.0  -0.6724
  O  O52  1  0.000600  0.288500  0.650000  1.0  -0.5064
  O  O53  1  0.597300  0.602120  0.556280  1.0  -0.8254
  O  O54  1  0.928300  0.559440  0.561110  1.0  -0.7052
  O  O55  1  0.820200  0.818340  0.909100  1.0  -0.6712
  O  O56  1  0.499400  0.788500  0.850000  1.0  -0.5077
