# generated using pymatgen
data_Ca2H7C14(SO5)2
_symmetry_space_group_name_H-M   'P 1'
_cell_length_a   22.65050000
_cell_length_b   11.23520000
_cell_length_c   12.79610000
_cell_angle_alpha   90.00000000
_cell_angle_beta   90.00000000
_cell_angle_gamma   90.00000000
_symmetry_Int_Tables_number   1
_chemical_formula_structural   Ca2H7C14(SO5)2
_chemical_formula_sum   'Ca8 H28 C56 S8 O40'
_cell_volume   3256.38860598
_cell_formula_units_Z   4
loop_
 _symmetry_equiv_pos_site_id
 _symmetry_equiv_pos_as_xyz
  1  'x, y, z'
loop_
 _atom_site_type_symbol
 _atom_site_label
 _atom_site_symmetry_multiplicity
 _atom_site_fract_x
 _atom_site_fract_y
 _atom_site_fract_z
 _atom_site_occupancy
 _atom_site_charge
  Ca  Ca1  1  0.434050  0.622100  0.076900  1.0  1.5947
  Ca  Ca2  1  0.508570  0.493760  0.312740  1.0  1.5086
  Ca  Ca3  1  0.565950  0.377900  0.576900  1.0  1.5957
  Ca  Ca4  1  0.491430  0.506240  0.812740  1.0  1.5094
  Ca  Ca5  1  0.934050  0.377900  0.076900  1.0  1.5949
  Ca  Ca6  1  0.008570  0.506240  0.312740  1.0  1.5093
  Ca  Ca7  1  0.065950  0.622100  0.576900  1.0  1.5952
  Ca  Ca8  1  0.991430  0.493760  0.812740  1.0  1.5094
  H  H9  1  0.298500  0.502800  0.138900  1.0  0.1298
  H  H10  1  0.192500  0.517900  0.180100  1.0  0.1324
  H  H11  1  0.530100  0.061200  0.495700  1.0  0.1348
  H  H12  1  0.514600  0.851000  0.447500  1.0  0.1302
  H  H13  1  0.612700  0.386400  0.065600  1.0  0.1642
  H  H14  1  0.575500  0.324400  0.974100  1.0  0.1605
  H  H15  1  0.564800  0.286400  0.093100  1.0  0.1462
  H  H16  1  0.701500  0.497200  0.638900  1.0  0.1289
  H  H17  1  0.807500  0.482100  0.680100  1.0  0.1327
  H  H18  1  0.469900  0.938800  0.995700  1.0  0.1347
  H  H19  1  0.485400  0.149000  0.947500  1.0  0.13
  H  H20  1  0.387300  0.613600  0.565600  1.0  0.1598
  H  H21  1  0.424500  0.675600  0.474100  1.0  0.16
  H  H22  1  0.435200  0.713600  0.593100  1.0  0.1471
  H  H23  1  0.798500  0.497200  0.138900  1.0  0.1308
  H  H24  1  0.692500  0.482100  0.180100  1.0  0.1323
  H  H25  1  0.030100  0.938800  0.495700  1.0  0.1348
  H  H26  1  0.014600  0.149000  0.447500  1.0  0.1296
  H  H27  1  0.112700  0.613600  0.065600  1.0  0.1636
  H  H28  1  0.075500  0.675600  0.974100  1.0  0.1609
  H  H29  1  0.064800  0.713600  0.093100  1.0  0.147
  H  H30  1  0.201500  0.502800  0.638900  1.0  0.1296
  H  H31  1  0.307500  0.517900  0.680100  1.0  0.1328
  H  H32  1  0.969900  0.061200  0.995700  1.0  0.1347
  H  H33  1  0.985400  0.851000  0.947500  1.0  0.1305
  H  H34  1  0.887300  0.386400  0.565600  1.0  0.1602
  H  H35  1  0.924500  0.324400  0.474100  1.0  0.16
  H  H36  1  0.935200  0.286400  0.593100  1.0  0.1466
  C  C37  1  0.283000  0.499700  0.207900  1.0  -0.0343
  C  C38  1  0.222390  0.509500  0.231700  1.0  -0.052
  C  C39  1  0.495550  0.786200  0.235700  1.0  0.7811
  C  C40  1  0.382050  0.473500  0.299500  1.0  0.7725
  C  C41  1  0.316800  0.485100  0.295300  1.0  -0.1765
  C  C42  1  0.506830  0.899300  0.293000  1.0  -0.1769
  C  C43  1  0.210890  0.505900  0.336700  1.0  -0.1763
  C  C44  1  0.520900  0.109600  0.341300  1.0  -0.165
  C  C45  1  0.151500  0.517400  0.386100  1.0  0.7658
  C  C46  1  0.523400  0.034900  0.426100  1.0  -0.068
  C  C47  1  0.520700  0.241500  0.338100  1.0  0.7809
  C  C48  1  0.514800  0.914500  0.398500  1.0  -0.0613
  C  C49  1  0.527440  0.447400  0.056600  1.0  0.7499
  C  C50  1  0.574200  0.352900  0.046500  1.0  -0.4296
  C  C51  1  0.717000  0.500300  0.707900  1.0  -0.0345
  C  C52  1  0.777610  0.490500  0.731700  1.0  -0.0512
  C  C53  1  0.504450  0.213800  0.735700  1.0  0.7805
  C  C54  1  0.617950  0.526500  0.799500  1.0  0.7729
  C  C55  1  0.683200  0.514900  0.795300  1.0  -0.1769
  C  C56  1  0.493170  0.100700  0.793000  1.0  -0.177
  C  C57  1  0.789110  0.494100  0.836700  1.0  -0.1763
  C  C58  1  0.479100  0.890400  0.841300  1.0  -0.165
  C  C59  1  0.848500  0.482600  0.886100  1.0  0.767
  C  C60  1  0.476600  0.965100  0.926100  1.0  -0.0678
  C  C61  1  0.479300  0.758500  0.838100  1.0  0.7812
  C  C62  1  0.485200  0.085500  0.898500  1.0  -0.0614
  C  C63  1  0.472560  0.552600  0.556600  1.0  0.7477
  C  C64  1  0.425800  0.647100  0.546500  1.0  -0.4282
  C  C65  1  0.783000  0.500300  0.207900  1.0  -0.0341
  C  C66  1  0.722390  0.490500  0.231700  1.0  -0.0523
  C  C67  1  0.995550  0.213800  0.235700  1.0  0.781
  C  C68  1  0.882050  0.526500  0.299500  1.0  0.7729
  C  C69  1  0.816800  0.514900  0.295300  1.0  -0.177
  C  C70  1  0.006830  0.100700  0.293000  1.0  -0.1769
  C  C71  1  0.710890  0.494100  0.336700  1.0  -0.1763
  C  C72  1  0.020900  0.890400  0.341300  1.0  -0.1653
  C  C73  1  0.651500  0.482600  0.386100  1.0  0.7657
  C  C74  1  0.023400  0.965100  0.426100  1.0  -0.0678
  C  C75  1  0.020700  0.758500  0.338100  1.0  0.7814
  C  C76  1  0.014800  0.085500  0.398500  1.0  -0.0614
  C  C77  1  0.027440  0.552600  0.056600  1.0  0.7493
  C  C78  1  0.074200  0.647100  0.046500  1.0  -0.4289
  C  C79  1  0.217000  0.499700  0.707900  1.0  -0.0347
  C  C80  1  0.277610  0.509500  0.731700  1.0  -0.051
  C  C81  1  0.004450  0.786200  0.735700  1.0  0.7805
  C  C82  1  0.117950  0.473500  0.799500  1.0  0.7738
  C  C83  1  0.183200  0.485100  0.795300  1.0  -0.1766
  C  C84  1  0.993170  0.899300  0.793000  1.0  -0.177
  C  C85  1  0.289110  0.505900  0.836700  1.0  -0.1763
  C  C86  1  0.979100  0.109600  0.841300  1.0  -0.1646
  C  C87  1  0.348500  0.517400  0.886100  1.0  0.767
  C  C88  1  0.976600  0.034900  0.926100  1.0  -0.0681
  C  C89  1  0.979300  0.241500  0.838100  1.0  0.7805
  C  C90  1  0.985200  0.914500  0.898500  1.0  -0.0611
  C  C91  1  0.972560  0.447400  0.556600  1.0  0.7485
  C  C92  1  0.925800  0.352900  0.546500  1.0  -0.4292
  S  S93  1  0.508790  0.032550  0.226850  1.0  0.1282
  S  S94  1  0.274890  0.487430  0.407680  1.0  0.1332
  S  S95  1  0.491210  0.967450  0.726850  1.0  0.1286
  S  S96  1  0.725110  0.512570  0.907680  1.0  0.1326
  S  S97  1  0.008790  0.967450  0.226850  1.0  0.1287
  S  S98  1  0.774890  0.512570  0.407680  1.0  0.133
  S  S99  1  0.991210  0.032550  0.726850  1.0  0.1281
  S  S100  1  0.225110  0.487430  0.907680  1.0  0.1329
  O  O101  1  0.485100  0.449300  0.992000  1.0  -0.7079
  O  O102  1  0.410510  0.496100  0.217000  1.0  -0.6935
  O  O103  1  0.509290  0.290700  0.252800  1.0  -0.6564
  O  O104  1  0.495040  0.789900  0.136900  1.0  -0.6699
  O  O105  1  0.486400  0.694800  0.289300  1.0  -0.6963
  O  O106  1  0.530300  0.523200  0.129600  1.0  -0.7522
  O  O107  1  0.406580  0.443300  0.383200  1.0  -0.5814
  O  O108  1  0.529250  0.298700  0.422800  1.0  -0.7633
  O  O109  1  0.109310  0.494800  0.326600  1.0  -0.6713
  O  O110  1  0.148910  0.548500  0.480300  1.0  -0.6824
  O  O111  1  0.514900  0.550700  0.492000  1.0  -0.7062
  O  O112  1  0.589490  0.503900  0.717000  1.0  -0.6936
  O  O113  1  0.490710  0.709300  0.752800  1.0  -0.6563
  O  O114  1  0.504960  0.210100  0.636900  1.0  -0.6699
  O  O115  1  0.513600  0.305200  0.789300  1.0  -0.6956
  O  O116  1  0.469700  0.476800  0.629600  1.0  -0.751
  O  O117  1  0.593420  0.556700  0.883200  1.0  -0.5815
  O  O118  1  0.470750  0.701300  0.922800  1.0  -0.7652
  O  O119  1  0.890690  0.505200  0.826600  1.0  -0.6701
  O  O120  1  0.851090  0.451500  0.980300  1.0  -0.6809
  O  O121  1  0.985100  0.550700  0.992000  1.0  -0.7073
  O  O122  1  0.910510  0.503900  0.217000  1.0  -0.6937
  O  O123  1  0.009290  0.709300  0.252800  1.0  -0.6559
  O  O124  1  0.995040  0.210100  0.136900  1.0  -0.6697
  O  O125  1  0.986400  0.305200  0.289300  1.0  -0.6955
  O  O126  1  0.030300  0.476800  0.129600  1.0  -0.7516
  O  O127  1  0.906580  0.556700  0.383200  1.0  -0.5821
  O  O128  1  0.029250  0.701300  0.422800  1.0  -0.7655
  O  O129  1  0.609310  0.505200  0.326600  1.0  -0.6708
  O  O130  1  0.648910  0.451500  0.480300  1.0  -0.6818
  O  O131  1  0.014900  0.449300  0.492000  1.0  -0.7065
  O  O132  1  0.089490  0.496100  0.717000  1.0  -0.6934
  O  O133  1  0.990710  0.290700  0.752800  1.0  -0.657
  O  O134  1  0.004960  0.789900  0.636900  1.0  -0.6701
  O  O135  1  0.013600  0.694800  0.789300  1.0  -0.6964
  O  O136  1  0.969700  0.523200  0.629600  1.0  -0.7521
  O  O137  1  0.093420  0.443300  0.883200  1.0  -0.5817
  O  O138  1  0.970750  0.298700  0.922800  1.0  -0.7633
  O  O139  1  0.390690  0.494800  0.826600  1.0  -0.6699
  O  O140  1  0.351090  0.548500  0.980300  1.0  -0.682
