# generated using pymatgen
data_CaH2C6SO4
_symmetry_space_group_name_H-M   'P 1'
_cell_length_a   6.57710000
_cell_length_b   11.12260000
_cell_length_c   18.03300000
_cell_angle_alpha   90.00000000
_cell_angle_beta   97.60200000
_cell_angle_gamma   90.00000000
_symmetry_Int_Tables_number   1
_chemical_formula_structural   CaH2C6SO4
_chemical_formula_sum   'Ca4 H8 C24 S4 O16'
_cell_volume   1307.59974149
_cell_formula_units_Z   4
loop_
 _symmetry_equiv_pos_site_id
 _symmetry_equiv_pos_as_xyz
  1  'x, y, z'
loop_
 _atom_site_type_symbol
 _atom_site_label
 _atom_site_symmetry_multiplicity
 _atom_site_fract_x
 _atom_site_fract_y
 _atom_site_fract_z
 _atom_site_occupancy
 _atom_site_charge
  Ca  Ca1  1  0.252660  0.906630  0.476910  1.0  1.5777
  Ca  Ca2  1  0.247340  0.406630  0.023090  1.0  1.5783
  Ca  Ca3  1  0.747340  0.093370  0.523090  1.0  1.578
  Ca  Ca4  1  0.752660  0.593370  0.976910  1.0  1.5782
  H  H5  1  0.615000  0.106100  0.704400  1.0  0.0917
  H  H6  1  0.582400  0.196000  0.825600  1.0  0.0942
  H  H7  1  0.885000  0.606100  0.795600  1.0  0.092
  H  H8  1  0.917600  0.696000  0.674400  1.0  0.0936
  H  H9  1  0.385000  0.893900  0.295600  1.0  0.0918
  H  H10  1  0.417600  0.804000  0.174400  1.0  0.0936
  H  H11  1  0.115000  0.393900  0.204400  1.0  0.0917
  H  H12  1  0.082400  0.304000  0.325600  1.0  0.0942
  C  C13  1  0.194600  0.285900  0.856700  1.0  0.695
  C  C14  1  0.275500  0.095300  0.591730  1.0  0.7462
  C  C15  1  0.313400  0.137400  0.669820  1.0  -0.2459
  C  C16  1  0.492900  0.137200  0.717020  1.0  -0.0714
  C  C17  1  0.474100  0.189100  0.787080  1.0  -0.0698
  C  C18  1  0.279200  0.228200  0.792290  1.0  -0.2214
  C  C19  1  0.305400  0.785900  0.643300  1.0  0.6918
  C  C20  1  0.224500  0.595300  0.908270  1.0  0.7384
  C  C21  1  0.186600  0.637400  0.830180  1.0  -0.2454
  C  C22  1  0.007100  0.637200  0.782980  1.0  -0.07
  C  C23  1  0.025900  0.689100  0.712920  1.0  -0.0697
  C  C24  1  0.220800  0.728200  0.707710  1.0  -0.2205
  C  C25  1  0.805400  0.714100  0.143300  1.0  0.6947
  C  C26  1  0.724500  0.904700  0.408270  1.0  0.7464
  C  C27  1  0.686600  0.862600  0.330180  1.0  -0.2445
  C  C28  1  0.507100  0.862800  0.282980  1.0  -0.0702
  C  C29  1  0.525900  0.810900  0.212920  1.0  -0.0696
  C  C30  1  0.720800  0.771800  0.207710  1.0  -0.2201
  C  C31  1  0.694600  0.214100  0.356700  1.0  0.692
  C  C32  1  0.775500  0.404700  0.091730  1.0  0.7393
  C  C33  1  0.813400  0.362600  0.169820  1.0  -0.2456
  C  C34  1  0.992900  0.362800  0.217020  1.0  -0.071
  C  C35  1  0.974100  0.310900  0.287080  1.0  -0.0703
  C  C36  1  0.779200  0.271800  0.292290  1.0  -0.2214
  S  S37  1  0.117320  0.198980  0.711740  1.0  0.1287
  S  S38  1  0.382680  0.698980  0.788260  1.0  0.1285
  S  S39  1  0.882680  0.801020  0.288260  1.0  0.1288
  S  S40  1  0.617320  0.301020  0.211740  1.0  0.1292
  O  O41  1  0.095500  0.096200  0.558360  1.0  -0.8069
  O  O42  1  0.424700  0.056750  0.561620  1.0  -0.733
  O  O43  1  0.324400  0.321800  0.910110  1.0  -0.68
  O  O44  1  0.005900  0.294000  0.852490  1.0  -0.5007
  O  O45  1  0.404500  0.596200  0.941640  1.0  -0.8081
  O  O46  1  0.075300  0.556750  0.938380  1.0  -0.7344
  O  O47  1  0.175600  0.821800  0.589890  1.0  -0.6812
  O  O48  1  0.494100  0.794000  0.647510  1.0  -0.4983
  O  O49  1  0.904500  0.903800  0.441640  1.0  -0.8079
  O  O50  1  0.575300  0.943250  0.438380  1.0  -0.7329
  O  O51  1  0.675600  0.678200  0.089890  1.0  -0.682
  O  O52  1  0.994100  0.706000  0.147510  1.0  -0.4987
  O  O53  1  0.595500  0.403800  0.058360  1.0  -0.8078
  O  O54  1  0.924700  0.443250  0.061620  1.0  -0.7329
  O  O55  1  0.824400  0.178200  0.410110  1.0  -0.6807
  O  O56  1  0.505900  0.206000  0.352490  1.0  -0.5016
