# generated using pymatgen
data_GdH7C15(NO3)2
_symmetry_space_group_name_H-M   'P 1'
_cell_length_a   13.61590000
_cell_length_b   14.47970000
_cell_length_c   16.03720000
_cell_angle_alpha   116.83600000
_cell_angle_beta   96.23400000
_cell_angle_gamma   90.00000000
_symmetry_Int_Tables_number   1
_chemical_formula_structural   GdH7C15(NO3)2
_chemical_formula_sum   'Gd4 H28 C60 N8 O24'
_cell_volume   2800.31273125
_cell_formula_units_Z   4
loop_
 _symmetry_equiv_pos_site_id
 _symmetry_equiv_pos_as_xyz
  1  'x, y, z'
loop_
 _atom_site_type_symbol
 _atom_site_label
 _atom_site_symmetry_multiplicity
 _atom_site_fract_x
 _atom_site_fract_y
 _atom_site_fract_z
 _atom_site_occupancy
 _atom_site_charge
  Gd  Gd1  1  0.465620  0.392050  0.366200  1.0  2.1248
  Gd  Gd2  1  0.034380  0.025850  0.633800  1.0  2.1254
  Gd  Gd3  1  0.534380  0.607950  0.633800  1.0  2.1188
  Gd  Gd4  1  0.965620  0.974150  0.366200  1.0  2.1243
  H  H5  1  0.906400  0.126500  0.938800  1.0  0.1206
  H  H6  1  0.955700  0.368000  0.889000  1.0  0.0958
  H  H7  1  0.926000  0.702700  0.317200  1.0  0.1238
  H  H8  1  0.783000  0.733500  0.533200  1.0  0.1123
  H  H9  1  0.903400  0.479100  0.030200  1.0  0.1201
  H  H10  1  0.730200  0.481200  0.285400  1.0  0.1023
  H  H11  1  0.851800  0.240000  0.080400  1.0  0.113
  H  H12  1  0.593600  0.187700  0.061200  1.0  0.1208
  H  H13  1  0.544300  0.479000  0.111000  1.0  0.0948
  H  H14  1  0.574000  0.385500  0.682800  1.0  0.1244
  H  H15  1  0.717000  0.200300  0.466800  1.0  0.1114
  H  H16  1  0.596600  0.448900  0.969800  1.0  0.1202
  H  H17  1  0.769800  0.195800  0.714600  1.0  0.103
  H  H18  1  0.648200  0.159600  0.919600  1.0  0.1141
  H  H19  1  0.093600  0.873500  0.061200  1.0  0.1209
  H  H20  1  0.044300  0.632000  0.111000  1.0  0.0959
  H  H21  1  0.074000  0.297300  0.682800  1.0  0.1233
  H  H22  1  0.217000  0.266500  0.466800  1.0  0.1117
  H  H23  1  0.096600  0.520900  0.969800  1.0  0.1194
  H  H24  1  0.269800  0.518800  0.714600  1.0  0.1027
  H  H25  1  0.148200  0.760000  0.919600  1.0  0.113
  H  H26  1  0.406400  0.812300  0.938800  1.0  0.1204
  H  H27  1  0.455700  0.521000  0.889000  1.0  0.0947
  H  H28  1  0.426000  0.614500  0.317200  1.0  0.1247
  H  H29  1  0.283000  0.799700  0.533200  1.0  0.1117
  H  H30  1  0.403400  0.551100  0.030200  1.0  0.1197
  H  H31  1  0.230200  0.804200  0.285400  1.0  0.1027
  H  H32  1  0.351800  0.840400  0.080400  1.0  0.1144
  C  C33  1  0.666100  0.560800  0.452000  1.0  0.8201
  C  C34  1  0.973100  0.164800  0.807400  1.0  0.7014
  C  C35  1  0.935900  0.238100  0.898600  1.0  -0.1346
  C  C36  1  0.905400  0.197100  0.956600  1.0  -0.045
  C  C37  1  0.934800  0.341400  0.927600  1.0  -0.0165
  C  C38  1  0.916900  0.837900  0.495200  1.0  0.7695
  C  C39  1  0.861900  0.735300  0.433600  1.0  -0.1471
  C  C40  1  0.881000  0.677200  0.342400  1.0  -0.0745
  C  C41  1  0.794100  0.696000  0.470600  1.0  0.0141
  C  C42  1  0.743400  0.601500  0.414400  1.0  -0.1588
  C  C43  1  0.833600  0.581800  0.288800  1.0  0.1491
  C  C44  1  0.874000  0.369500  0.068600  1.0  0.1869
  C  C45  1  0.903900  0.408300  0.012000  1.0  -0.1492
  C  C46  1  0.763800  0.544900  0.323600  1.0  -0.0222
  C  C47  1  0.873700  0.265600  0.041400  1.0  -0.164
  C  C48  1  0.833900  0.108800  0.548000  1.0  0.8197
  C  C49  1  0.526900  0.357400  0.192600  1.0  0.7002
  C  C50  1  0.564100  0.339500  0.101400  1.0  -0.137
  C  C51  1  0.594600  0.240500  0.043400  1.0  -0.047
  C  C52  1  0.565200  0.413800  0.072400  1.0  -0.0192
  C  C53  1  0.583100  0.342700  0.504800  1.0  0.7709
  C  C54  1  0.638100  0.301700  0.566400  1.0  -0.1478
  C  C55  1  0.619000  0.334800  0.657600  1.0  -0.0766
  C  C56  1  0.705900  0.225400  0.529400  1.0  0.0153
  C  C57  1  0.756600  0.187100  0.585600  1.0  -0.1576
  C  C58  1  0.666400  0.293000  0.711200  1.0  0.149
  C  C59  1  0.626000  0.300900  0.931400  1.0  0.1863
  C  C60  1  0.596100  0.396300  0.988000  1.0  -0.1462
  C  C61  1  0.736200  0.221300  0.676400  1.0  -0.0211
  C  C62  1  0.626300  0.224200  0.958600  1.0  -0.162
  C  C63  1  0.333900  0.439200  0.548000  1.0  0.8213
  C  C64  1  0.026900  0.835200  0.192600  1.0  0.7016
  C  C65  1  0.064100  0.761900  0.101400  1.0  -0.1343
  C  C66  1  0.094600  0.802900  0.043400  1.0  -0.046
  C  C67  1  0.065200  0.658600  0.072400  1.0  -0.0164
  C  C68  1  0.083100  0.162100  0.504800  1.0  0.7688
  C  C69  1  0.138100  0.264700  0.566400  1.0  -0.1464
  C  C70  1  0.119000  0.322800  0.657600  1.0  -0.0758
  C  C71  1  0.205900  0.304000  0.529400  1.0  0.0153
  C  C72  1  0.256600  0.398500  0.585600  1.0  -0.1579
  C  C73  1  0.166400  0.418200  0.711200  1.0  0.1498
  C  C74  1  0.126000  0.630500  0.931400  1.0  0.1889
  C  C75  1  0.096100  0.591700  0.988000  1.0  -0.1481
  C  C76  1  0.236200  0.455100  0.676400  1.0  -0.0187
  C  C77  1  0.126300  0.734400  0.958600  1.0  -0.1622
  C  C78  1  0.166100  0.891200  0.452000  1.0  0.8174
  C  C79  1  0.473100  0.642600  0.807400  1.0  0.702
  C  C80  1  0.435900  0.660500  0.898600  1.0  -0.1327
  C  C81  1  0.405400  0.759500  0.956600  1.0  -0.0462
  C  C82  1  0.434800  0.586200  0.927600  1.0  -0.0191
  C  C83  1  0.416900  0.657300  0.495200  1.0  0.7705
  C  C84  1  0.361900  0.698300  0.433600  1.0  -0.1483
  C  C85  1  0.381000  0.665200  0.342400  1.0  -0.0755
  C  C86  1  0.294100  0.774600  0.470600  1.0  0.0135
  C  C87  1  0.243400  0.812900  0.414400  1.0  -0.1558
  C  C88  1  0.333600  0.707000  0.288800  1.0  0.1493
  C  C89  1  0.374000  0.699100  0.068600  1.0  0.1858
  C  C90  1  0.403900  0.603700  0.012000  1.0  -0.1475
  C  C91  1  0.263800  0.778700  0.323600  1.0  -0.0211
  C  C92  1  0.373700  0.775800  0.041400  1.0  -0.1627
  N  N93  1  0.862800  0.524600  0.195000  1.0  -0.1355
  N  N94  1  0.844200  0.430400  0.161800  1.0  -0.1524
  N  N95  1  0.637200  0.329600  0.805000  1.0  -0.1354
  N  N96  1  0.655800  0.268600  0.838200  1.0  -0.1514
  N  N97  1  0.137200  0.475400  0.805000  1.0  -0.1362
  N  N98  1  0.155800  0.569600  0.838200  1.0  -0.1523
  N  N99  1  0.362800  0.670400  0.195000  1.0  -0.1349
  N  N100  1  0.344200  0.731400  0.161800  1.0  -0.1504
  O  O101  1  0.626300  0.473700  0.399000  1.0  -0.6812
  O  O102  1  0.648500  0.616710  0.533620  1.0  -0.7763
  O  O103  1  0.964000  0.069400  0.780400  1.0  -0.701
  O  O104  1  0.012400  0.203100  0.762200  1.0  -0.6931
  O  O105  1  0.930000  0.868710  0.582620  1.0  -0.6539
  O  O106  1  0.950300  0.890100  0.458600  1.0  -0.8443
  O  O107  1  0.873700  0.074700  0.601000  1.0  -0.6796
  O  O108  1  0.851500  0.083090  0.466380  1.0  -0.7754
  O  O109  1  0.536000  0.289000  0.219600  1.0  -0.7095
  O  O110  1  0.487600  0.440900  0.237800  1.0  -0.6936
  O  O111  1  0.570000  0.286090  0.417380  1.0  -0.6569
  O  O112  1  0.549700  0.431500  0.541400  1.0  -0.846
  O  O113  1  0.373700  0.526300  0.601000  1.0  -0.6813
  O  O114  1  0.351500  0.383290  0.466380  1.0  -0.7764
  O  O115  1  0.036000  0.930600  0.219600  1.0  -0.6997
  O  O116  1  0.987600  0.796900  0.237800  1.0  -0.6933
  O  O117  1  0.070000  0.131290  0.417380  1.0  -0.6552
  O  O118  1  0.049700  0.109900  0.541400  1.0  -0.8456
  O  O119  1  0.126300  0.925300  0.399000  1.0  -0.6801
  O  O120  1  0.148500  0.916910  0.533620  1.0  -0.7755
  O  O121  1  0.464000  0.711000  0.780400  1.0  -0.7076
  O  O122  1  0.512400  0.559100  0.762200  1.0  -0.6953
  O  O123  1  0.430000  0.713910  0.582620  1.0  -0.6571
  O  O124  1  0.450300  0.568500  0.458600  1.0  -0.8442
