# generated using pymatgen
data_Zn3P4(HO3)4
_symmetry_space_group_name_H-M   'P 1'
_cell_length_a   9.60830000
_cell_length_b   16.03600000
_cell_length_c   14.08400000
_cell_angle_alpha   90.00000000
_cell_angle_beta   90.00000000
_cell_angle_gamma   90.00000000
_symmetry_Int_Tables_number   1
_chemical_formula_structural   Zn3P4(HO3)4
_chemical_formula_sum   'Zn12 P16 H16 O48'
_cell_volume   2170.04439390
_cell_formula_units_Z   4
loop_
 _symmetry_equiv_pos_site_id
 _symmetry_equiv_pos_as_xyz
  1  'x, y, z'
loop_
 _atom_site_type_symbol
 _atom_site_label
 _atom_site_symmetry_multiplicity
 _atom_site_fract_x
 _atom_site_fract_y
 _atom_site_fract_z
 _atom_site_occupancy
 _atom_site_charge
  Zn  Zn1  1  0.040100  0.420210  0.893200  1.0  1.1569
  Zn  Zn2  1  0.459900  0.079790  0.393200  1.0  1.1572
  Zn  Zn3  1  0.959900  0.420210  0.606800  1.0  1.1572
  Zn  Zn4  1  0.540100  0.079790  0.106800  1.0  1.1572
  Zn  Zn5  1  0.959900  0.579790  0.106800  1.0  1.1572
  Zn  Zn6  1  0.540100  0.920210  0.606800  1.0  1.1572
  Zn  Zn7  1  0.040100  0.579790  0.393200  1.0  1.1572
  Zn  Zn8  1  0.459900  0.920210  0.893200  1.0  1.1571
  Zn  Zn9  1  0.000000  0.761150  0.750000  1.0  1.14
  Zn  Zn10  1  0.500000  0.738850  0.250000  1.0  1.1391
  Zn  Zn11  1  0.000000  0.238850  0.250000  1.0  1.1391
  Zn  Zn12  1  0.500000  0.261150  0.750000  1.0  1.1399
  P  P13  1  0.758580  0.384310  0.776000  1.0  1.4841
  P  P14  1  0.982860  0.612160  0.887880  1.0  1.5623
  P  P15  1  0.741420  0.115690  0.276000  1.0  1.486
  P  P16  1  0.517140  0.887840  0.387880  1.0  1.5636
  P  P17  1  0.241420  0.384310  0.724000  1.0  1.4857
  P  P18  1  0.017140  0.612160  0.612120  1.0  1.5634
  P  P19  1  0.258580  0.115690  0.224000  1.0  1.484
  P  P20  1  0.482860  0.887840  0.112120  1.0  1.5625
  P  P21  1  0.241420  0.615690  0.224000  1.0  1.4857
  P  P22  1  0.017140  0.387840  0.112120  1.0  1.5647
  P  P23  1  0.258580  0.884310  0.724000  1.0  1.4838
  P  P24  1  0.482860  0.112160  0.612120  1.0  1.5634
  P  P25  1  0.758580  0.615690  0.276000  1.0  1.4842
  P  P26  1  0.982860  0.387840  0.387880  1.0  1.5627
  P  P27  1  0.741420  0.884310  0.776000  1.0  1.486
  P  P28  1  0.517140  0.112160  0.887880  1.0  1.5635
  H  H29  1  0.720000  0.463000  0.758000  1.0  -0.0559
  H  H30  1  0.876000  0.602000  0.828000  1.0  -0.0665
  H  H31  1  0.780000  0.037000  0.258000  1.0  -0.0527
  H  H32  1  0.624000  0.898000  0.328000  1.0  -0.0656
  H  H33  1  0.280000  0.463000  0.742000  1.0  -0.0541
  H  H34  1  0.124000  0.602000  0.672000  1.0  -0.0654
  H  H35  1  0.220000  0.037000  0.242000  1.0  -0.0548
  H  H36  1  0.376000  0.898000  0.172000  1.0  -0.0671
  H  H37  1  0.280000  0.537000  0.242000  1.0  -0.0534
  H  H38  1  0.124000  0.398000  0.172000  1.0  -0.0657
  H  H39  1  0.220000  0.963000  0.742000  1.0  -0.0572
  H  H40  1  0.376000  0.102000  0.672000  1.0  -0.0668
  H  H41  1  0.720000  0.537000  0.258000  1.0  -0.0543
  H  H42  1  0.876000  0.398000  0.328000  1.0  -0.0671
  H  H43  1  0.780000  0.963000  0.758000  1.0  -0.0528
  H  H44  1  0.624000  0.102000  0.828000  1.0  -0.0652
  O  O45  1  0.848800  0.397800  0.861700  1.0  -0.8442
  O  O46  1  0.648400  0.323500  0.803900  1.0  -0.7912
  O  O47  1  0.835400  0.356870  0.687700  1.0  -0.7597
  O  O48  1  0.079900  0.538100  0.887800  1.0  -0.7864
  O  O49  1  0.912900  0.626600  0.983500  1.0  -0.7205
  O  O50  1  0.059500  0.690190  0.854700  1.0  -0.7545
  O  O51  1  0.651200  0.102200  0.361700  1.0  -0.843
  O  O52  1  0.851600  0.176500  0.303900  1.0  -0.7898
  O  O53  1  0.664600  0.143130  0.187700  1.0  -0.7597
  O  O54  1  0.420100  0.961900  0.387800  1.0  -0.7846
  O  O55  1  0.587100  0.873400  0.483500  1.0  -0.7222
  O  O56  1  0.440500  0.809810  0.354700  1.0  -0.7534
  O  O57  1  0.151200  0.397800  0.638300  1.0  -0.8425
  O  O58  1  0.351600  0.323500  0.696100  1.0  -0.7884
  O  O59  1  0.164600  0.356870  0.812300  1.0  -0.7605
  O  O60  1  0.920100  0.538100  0.612200  1.0  -0.7852
  O  O61  1  0.087100  0.626600  0.516500  1.0  -0.7213
  O  O62  1  0.940500  0.690190  0.645300  1.0  -0.7547
  O  O63  1  0.348800  0.102200  0.138300  1.0  -0.8439
  O  O64  1  0.148400  0.176500  0.196100  1.0  -0.7891
  O  O65  1  0.335400  0.143130  0.312300  1.0  -0.7616
  O  O66  1  0.579900  0.961900  0.112200  1.0  -0.7855
  O  O67  1  0.412900  0.873400  0.016500  1.0  -0.7205
  O  O68  1  0.559500  0.809810  0.145300  1.0  -0.7544
  O  O69  1  0.151200  0.602200  0.138300  1.0  -0.8427
  O  O70  1  0.351600  0.676500  0.196100  1.0  -0.7879
  O  O71  1  0.164600  0.643130  0.312300  1.0  -0.7603
  O  O72  1  0.920100  0.461900  0.112200  1.0  -0.7847
  O  O73  1  0.087100  0.373400  0.016500  1.0  -0.7224
  O  O74  1  0.940500  0.309810  0.145300  1.0  -0.7543
  O  O75  1  0.348800  0.897800  0.638300  1.0  -0.8437
  O  O76  1  0.148400  0.823500  0.696100  1.0  -0.79
  O  O77  1  0.335400  0.856870  0.812300  1.0  -0.7612
  O  O78  1  0.579900  0.038100  0.612200  1.0  -0.7864
  O  O79  1  0.412900  0.126600  0.516500  1.0  -0.7203
  O  O80  1  0.559500  0.190190  0.645300  1.0  -0.755
  O  O81  1  0.848800  0.602200  0.361700  1.0  -0.8444
  O  O82  1  0.648400  0.676500  0.303900  1.0  -0.7917
  O  O83  1  0.835400  0.643130  0.187700  1.0  -0.7608
  O  O84  1  0.079900  0.461900  0.387800  1.0  -0.7857
  O  O85  1  0.912900  0.373400  0.483500  1.0  -0.7209
  O  O86  1  0.059500  0.309810  0.354700  1.0  -0.7537
  O  O87  1  0.651200  0.897800  0.861700  1.0  -0.8429
  O  O88  1  0.851600  0.823500  0.803900  1.0  -0.7914
  O  O89  1  0.664600  0.856870  0.687700  1.0  -0.759
  O  O90  1  0.420100  0.038100  0.887800  1.0  -0.7849
  O  O91  1  0.587100  0.126600  0.983500  1.0  -0.7212
  O  O92  1  0.440500  0.190190  0.854700  1.0  -0.7539
