# generated using pymatgen
data_Cu2H20C28N12(ClO4)3
_symmetry_space_group_name_H-M   'P 1'
_cell_length_a   14.80300000
_cell_length_b   14.80300000
_cell_length_c   19.90100000
_cell_angle_alpha   90.00000000
_cell_angle_beta   90.00000000
_cell_angle_gamma   90.00000000
_symmetry_Int_Tables_number   1
_chemical_formula_structural   Cu2H20C28N12(ClO4)3
_chemical_formula_sum   'Cu8 H80 C112 N48 Cl12 O48'
_cell_volume   4360.88242791
_cell_formula_units_Z   4
loop_
 _symmetry_equiv_pos_site_id
 _symmetry_equiv_pos_as_xyz
  1  'x, y, z'
loop_
 _atom_site_type_symbol
 _atom_site_label
 _atom_site_symmetry_multiplicity
 _atom_site_fract_x
 _atom_site_fract_y
 _atom_site_fract_z
 _atom_site_occupancy
 _atom_site_charge
  Cu  Cu1  1  0.500000  0.500000  0.000000  1.0  0.6546
  Cu  Cu2  1  0.000000  0.000000  0.000000  1.0  0.6546
  Cu  Cu3  1  0.000000  0.500000  0.500000  1.0  0.6546
  Cu  Cu4  1  0.500000  0.000000  0.500000  1.0  0.6546
  Cu  Cu5  1  0.250000  0.750000  0.750000  1.0  0.3589
  Cu  Cu6  1  0.750000  0.250000  0.250000  1.0  0.3589
  Cu  Cu7  1  0.750000  0.250000  0.750000  1.0  0.3589
  Cu  Cu8  1  0.250000  0.750000  0.250000  1.0  0.3589
  H  H9  1  0.439800  0.796200  0.794300  1.0  0.1055
  H  H10  1  0.549800  0.750100  0.869500  1.0  0.1119
  H  H11  1  0.310900  0.430600  0.965100  1.0  0.1003
  H  H12  1  0.195700  0.467300  0.889700  1.0  0.1409
  H  H13  1  0.210300  0.592700  0.820000  1.0  0.1333
  H  H14  1  0.060200  0.703800  0.794300  1.0  0.1057
  H  H15  1  0.950200  0.749900  0.869500  1.0  0.1117
  H  H16  1  0.189100  0.069400  0.965100  1.0  0.0987
  H  H17  1  0.304300  0.032700  0.889700  1.0  0.1416
  H  H18  1  0.289700  0.907300  0.820000  1.0  0.1337
  H  H19  1  0.703800  0.439800  0.294300  1.0  0.1053
  H  H20  1  0.749900  0.549800  0.369500  1.0  0.1124
  H  H21  1  0.069400  0.310900  0.465100  1.0  0.0992
  H  H22  1  0.032700  0.195700  0.389700  1.0  0.1411
  H  H23  1  0.907300  0.210300  0.320000  1.0  0.133
  H  H24  1  0.796200  0.060200  0.294300  1.0  0.105
  H  H25  1  0.750100  0.950200  0.369500  1.0  0.1123
  H  H26  1  0.430600  0.189100  0.465100  1.0  0.0988
  H  H27  1  0.467300  0.304300  0.389700  1.0  0.1415
  H  H28  1  0.592700  0.289700  0.320000  1.0  0.1334
  H  H29  1  0.560200  0.296200  0.705700  1.0  0.1055
  H  H30  1  0.450200  0.250100  0.630500  1.0  0.112
  H  H31  1  0.689100  0.930600  0.534900  1.0  0.0982
  H  H32  1  0.804300  0.967300  0.610300  1.0  0.1408
  H  H33  1  0.789700  0.092700  0.680000  1.0  0.1337
  H  H34  1  0.939800  0.203800  0.705700  1.0  0.1054
  H  H35  1  0.049800  0.249900  0.630500  1.0  0.1122
  H  H36  1  0.810900  0.569400  0.534900  1.0  0.099
  H  H37  1  0.695700  0.532700  0.610300  1.0  0.1409
  H  H38  1  0.710300  0.407300  0.680000  1.0  0.1332
  H  H39  1  0.296200  0.939800  0.205700  1.0  0.1048
  H  H40  1  0.250100  0.049800  0.130500  1.0  0.1121
  H  H41  1  0.930600  0.810900  0.034900  1.0  0.0976
  H  H42  1  0.967300  0.695700  0.110300  1.0  0.1406
  H  H43  1  0.092700  0.710300  0.180000  1.0  0.1332
  H  H44  1  0.203800  0.560200  0.205700  1.0  0.1052
  H  H45  1  0.249900  0.450200  0.130500  1.0  0.1122
  H  H46  1  0.569400  0.689100  0.034900  1.0  0.098
  H  H47  1  0.532700  0.804300  0.110300  1.0  0.1411
  H  H48  1  0.407300  0.789700  0.180000  1.0  0.1329
  H  H49  1  0.560200  0.203800  0.205700  1.0  0.1057
  H  H50  1  0.450200  0.249900  0.130500  1.0  0.1119
  H  H51  1  0.689100  0.569400  0.034900  1.0  0.0989
  H  H52  1  0.804300  0.532700  0.110300  1.0  0.1414
  H  H53  1  0.789700  0.407300  0.180000  1.0  0.1335
  H  H54  1  0.939800  0.296200  0.205700  1.0  0.1059
  H  H55  1  0.049800  0.250100  0.130500  1.0  0.1123
  H  H56  1  0.810900  0.930600  0.034900  1.0  0.0996
  H  H57  1  0.695700  0.967300  0.110300  1.0  0.1406
  H  H58  1  0.710300  0.092700  0.180000  1.0  0.1333
  H  H59  1  0.296200  0.560200  0.705700  1.0  0.1052
  H  H60  1  0.250100  0.450200  0.630500  1.0  0.1126
  H  H61  1  0.930600  0.689100  0.534900  1.0  0.0987
  H  H62  1  0.967300  0.804300  0.610300  1.0  0.1414
  H  H63  1  0.092700  0.789700  0.680000  1.0  0.1333
  H  H64  1  0.203800  0.939800  0.705700  1.0  0.1056
  H  H65  1  0.249900  0.049800  0.630500  1.0  0.1125
  H  H66  1  0.569400  0.810900  0.534900  1.0  0.0986
  H  H67  1  0.532700  0.695700  0.610300  1.0  0.1409
  H  H68  1  0.407300  0.710300  0.680000  1.0  0.1332
  H  H69  1  0.439800  0.703800  0.294300  1.0  0.1056
  H  H70  1  0.549800  0.749900  0.369500  1.0  0.1119
  H  H71  1  0.310900  0.069400  0.465100  1.0  0.0999
  H  H72  1  0.195700  0.032700  0.389700  1.0  0.141
  H  H73  1  0.210300  0.907300  0.320000  1.0  0.1335
  H  H74  1  0.060200  0.796200  0.294300  1.0  0.1061
  H  H75  1  0.950200  0.750100  0.369500  1.0  0.1119
  H  H76  1  0.189100  0.430600  0.465100  1.0  0.0991
  H  H77  1  0.304300  0.467300  0.389700  1.0  0.1413
  H  H78  1  0.289700  0.592700  0.320000  1.0  0.1338
  H  H79  1  0.703800  0.060200  0.794300  1.0  0.1054
  H  H80  1  0.749900  0.950200  0.869500  1.0  0.1121
  H  H81  1  0.069400  0.189100  0.965100  1.0  0.0988
  H  H82  1  0.032700  0.304300  0.889700  1.0  0.1411
  H  H83  1  0.907300  0.289700  0.820000  1.0  0.1334
  H  H84  1  0.796200  0.439800  0.794300  1.0  0.1052
  H  H85  1  0.750100  0.549800  0.869500  1.0  0.1119
  H  H86  1  0.430600  0.310900  0.965100  1.0  0.0988
  H  H87  1  0.467300  0.195700  0.889700  1.0  0.1409
  H  H88  1  0.592700  0.210300  0.820000  1.0  0.1333
  C  C89  1  0.428400  0.744600  0.821400  1.0  0.1605
  C  C90  1  0.495200  0.716600  0.866700  1.0  0.1478
  C  C91  1  0.318400  0.481200  0.936300  1.0  0.1898
  C  C92  1  0.248800  0.503300  0.891500  1.0  -0.0806
  C  C93  1  0.257300  0.576800  0.850300  1.0  -0.1988
  C  C94  1  0.337400  0.628700  0.853700  1.0  0.2101
  C  C95  1  0.404500  0.601300  0.899200  1.0  0.3694
  C  C96  1  0.071600  0.755400  0.821400  1.0  0.1605
  C  C97  1  0.004800  0.783400  0.866700  1.0  0.1479
  C  C98  1  0.181600  0.018800  0.936300  1.0  0.1893
  C  C99  1  0.251200  0.996700  0.891500  1.0  -0.0809
  C  C100  1  0.242700  0.923200  0.850300  1.0  -0.1981
  C  C101  1  0.162600  0.871300  0.853700  1.0  0.2105
  C  C102  1  0.095500  0.898700  0.899200  1.0  0.3687
  C  C103  1  0.755400  0.428400  0.321400  1.0  0.1612
  C  C104  1  0.783400  0.495200  0.366700  1.0  0.1474
  C  C105  1  0.018800  0.318400  0.436300  1.0  0.1883
  C  C106  1  0.996700  0.248800  0.391500  1.0  -0.0816
  C  C107  1  0.923200  0.257300  0.350300  1.0  -0.1978
  C  C108  1  0.871300  0.337400  0.353700  1.0  0.2101
  C  C109  1  0.898700  0.404500  0.399200  1.0  0.3691
  C  C110  1  0.744600  0.071600  0.321400  1.0  0.16
  C  C111  1  0.716600  0.004800  0.366700  1.0  0.1455
  C  C112  1  0.481200  0.181600  0.436300  1.0  0.1873
  C  C113  1  0.503300  0.251200  0.391500  1.0  -0.0813
  C  C114  1  0.576800  0.242700  0.350300  1.0  -0.1986
  C  C115  1  0.628700  0.162600  0.353700  1.0  0.21
  C  C116  1  0.601300  0.095500  0.399200  1.0  0.3685
  C  C117  1  0.571600  0.244600  0.678600  1.0  0.1603
  C  C118  1  0.504800  0.216600  0.633300  1.0  0.1484
  C  C119  1  0.681600  0.981200  0.563700  1.0  0.1893
  C  C120  1  0.751200  0.003300  0.608500  1.0  -0.0805
  C  C121  1  0.742700  0.076800  0.649700  1.0  -0.1983
  C  C122  1  0.662600  0.128700  0.646300  1.0  0.2098
  C  C123  1  0.595500  0.101300  0.600800  1.0  0.3689
  C  C124  1  0.928400  0.255400  0.678600  1.0  0.1602
  C  C125  1  0.995200  0.283400  0.633300  1.0  0.148
  C  C126  1  0.818400  0.518800  0.563700  1.0  0.1897
  C  C127  1  0.748800  0.496700  0.608500  1.0  -0.0816
  C  C128  1  0.757300  0.423200  0.649700  1.0  -0.1993
  C  C129  1  0.837400  0.371300  0.646300  1.0  0.2099
  C  C130  1  0.904500  0.398700  0.600800  1.0  0.3692
  C  C131  1  0.244600  0.928400  0.178600  1.0  0.1604
  C  C132  1  0.216600  0.995200  0.133300  1.0  0.1464
  C  C133  1  0.981200  0.818400  0.063700  1.0  0.1882
  C  C134  1  0.003300  0.748800  0.108500  1.0  -0.0817
  C  C135  1  0.076800  0.757300  0.149700  1.0  -0.1979
  C  C136  1  0.128700  0.837400  0.146300  1.0  0.2102
  C  C137  1  0.101300  0.904500  0.100800  1.0  0.3683
  C  C138  1  0.255400  0.571600  0.178600  1.0  0.1603
  C  C139  1  0.283400  0.504800  0.133300  1.0  0.1465
  C  C140  1  0.518800  0.681600  0.063700  1.0  0.1882
  C  C141  1  0.496700  0.751200  0.108500  1.0  -0.0804
  C  C142  1  0.423200  0.742700  0.149700  1.0  -0.1989
  C  C143  1  0.371300  0.662600  0.146300  1.0  0.2097
  C  C144  1  0.398700  0.595500  0.100800  1.0  0.3689
  C  C145  1  0.571600  0.255400  0.178600  1.0  0.1601
  C  C146  1  0.504800  0.283400  0.133300  1.0  0.148
  C  C147  1  0.681600  0.518800  0.063700  1.0  0.1893
  C  C148  1  0.751200  0.496700  0.108500  1.0  -0.0806
  C  C149  1  0.742700  0.423200  0.149700  1.0  -0.1983
  C  C150  1  0.662600  0.371300  0.146300  1.0  0.2104
  C  C151  1  0.595500  0.398700  0.100800  1.0  0.3685
  C  C152  1  0.928400  0.244600  0.178600  1.0  0.1602
  C  C153  1  0.995200  0.216600  0.133300  1.0  0.1484
  C  C154  1  0.818400  0.981200  0.063700  1.0  0.1899
  C  C155  1  0.748800  0.003300  0.108500  1.0  -0.0808
  C  C156  1  0.757300  0.076800  0.149700  1.0  -0.1992
  C  C157  1  0.837400  0.128700  0.146300  1.0  0.2095
  C  C158  1  0.904500  0.101300  0.100800  1.0  0.3694
  C  C159  1  0.244600  0.571600  0.678600  1.0  0.1598
  C  C160  1  0.216600  0.504800  0.633300  1.0  0.1453
  C  C161  1  0.981200  0.681600  0.563700  1.0  0.1878
  C  C162  1  0.003300  0.751200  0.608500  1.0  -0.0816
  C  C163  1  0.076800  0.742700  0.649700  1.0  -0.199
  C  C164  1  0.128700  0.662600  0.646300  1.0  0.2099
  C  C165  1  0.101300  0.595500  0.600800  1.0  0.3683
  C  C166  1  0.255400  0.928400  0.678600  1.0  0.1609
  C  C167  1  0.283400  0.995200  0.633300  1.0  0.1478
  C  C168  1  0.518800  0.818400  0.563700  1.0  0.1886
  C  C169  1  0.496700  0.748800  0.608500  1.0  -0.0817
  C  C170  1  0.423200  0.757300  0.649700  1.0  -0.1982
  C  C171  1  0.371300  0.837400  0.646300  1.0  0.2099
  C  C172  1  0.398700  0.904500  0.600800  1.0  0.3688
  C  C173  1  0.428400  0.755400  0.321400  1.0  0.1604
  C  C174  1  0.495200  0.783400  0.366700  1.0  0.1478
  C  C175  1  0.318400  0.018800  0.436300  1.0  0.1893
  C  C176  1  0.248800  0.996700  0.391500  1.0  -0.0813
  C  C177  1  0.257300  0.923200  0.350300  1.0  -0.1991
  C  C178  1  0.337400  0.871300  0.353700  1.0  0.2103
  C  C179  1  0.404500  0.898700  0.399200  1.0  0.3695
  C  C180  1  0.071600  0.744600  0.321400  1.0  0.1608
  C  C181  1  0.004800  0.716600  0.366700  1.0  0.148
  C  C182  1  0.181600  0.481200  0.436300  1.0  0.1897
  C  C183  1  0.251200  0.503300  0.391500  1.0  -0.0809
  C  C184  1  0.242700  0.576800  0.350300  1.0  -0.198
  C  C185  1  0.162600  0.628700  0.353700  1.0  0.21
  C  C186  1  0.095500  0.601300  0.399200  1.0  0.3688
  C  C187  1  0.755400  0.071600  0.821400  1.0  0.1608
  C  C188  1  0.783400  0.004800  0.866700  1.0  0.1469
  C  C189  1  0.018800  0.181600  0.936300  1.0  0.1878
  C  C190  1  0.996700  0.251200  0.891500  1.0  -0.0801
  C  C191  1  0.923200  0.242700  0.850300  1.0  -0.1988
  C  C192  1  0.871300  0.162600  0.853700  1.0  0.21
  C  C193  1  0.898700  0.095500  0.899200  1.0  0.3691
  C  C194  1  0.744600  0.428400  0.821400  1.0  0.1604
  C  C195  1  0.716600  0.495200  0.866700  1.0  0.146
  C  C196  1  0.481200  0.318400  0.936300  1.0  0.1881
  C  C197  1  0.503300  0.248800  0.891500  1.0  -0.0817
  C  C198  1  0.576800  0.257300  0.850300  1.0  -0.1975
  C  C199  1  0.628700  0.337400  0.853700  1.0  0.2101
  C  C200  1  0.601300  0.404500  0.899200  1.0  0.3685
  N  N201  1  0.349600  0.702300  0.814400  1.0  -0.2764
  N  N202  1  0.484500  0.644600  0.906000  1.0  -0.4005
  N  N203  1  0.394100  0.528400  0.939700  1.0  -0.3082
  N  N204  1  0.150400  0.797700  0.814400  1.0  -0.2758
  N  N205  1  0.015500  0.855400  0.906000  1.0  -0.4013
  N  N206  1  0.105900  0.971600  0.939700  1.0  -0.3071
  N  N207  1  0.797700  0.349600  0.314400  1.0  -0.2784
  N  N208  1  0.855400  0.484500  0.406000  1.0  -0.4017
  N  N209  1  0.971600  0.394100  0.439700  1.0  -0.308
  N  N210  1  0.702300  0.150400  0.314400  1.0  -0.2777
  N  N211  1  0.644600  0.015500  0.406000  1.0  -0.4025
  N  N212  1  0.528400  0.105900  0.439700  1.0  -0.308
  N  N213  1  0.650400  0.202300  0.685600  1.0  -0.2771
  N  N214  1  0.515500  0.144600  0.594000  1.0  -0.401
  N  N215  1  0.605900  0.028400  0.560300  1.0  -0.3076
  N  N216  1  0.849600  0.297700  0.685600  1.0  -0.2768
  N  N217  1  0.984500  0.355400  0.594000  1.0  -0.4008
  N  N218  1  0.894100  0.471600  0.560300  1.0  -0.3091
  N  N219  1  0.202300  0.849600  0.185600  1.0  -0.2796
  N  N220  1  0.144600  0.984500  0.094000  1.0  -0.4019
  N  N221  1  0.028400  0.894100  0.060300  1.0  -0.3083
  N  N222  1  0.297700  0.650400  0.185600  1.0  -0.2787
  N  N223  1  0.355400  0.515500  0.094000  1.0  -0.402
  N  N224  1  0.471600  0.605900  0.060300  1.0  -0.3093
  N  N225  1  0.650400  0.297700  0.185600  1.0  -0.2768
  N  N226  1  0.515500  0.355400  0.094000  1.0  -0.4014
  N  N227  1  0.605900  0.471600  0.060300  1.0  -0.3075
  N  N228  1  0.849600  0.202300  0.185600  1.0  -0.2768
  N  N229  1  0.984500  0.144600  0.094000  1.0  -0.401
  N  N230  1  0.894100  0.028400  0.060300  1.0  -0.309
  N  N231  1  0.202300  0.650400  0.685600  1.0  -0.2789
  N  N232  1  0.144600  0.515500  0.594000  1.0  -0.4031
  N  N233  1  0.028400  0.605900  0.560300  1.0  -0.3085
  N  N234  1  0.297700  0.849600  0.685600  1.0  -0.2793
  N  N235  1  0.355400  0.984500  0.594000  1.0  -0.4016
  N  N236  1  0.471600  0.894100  0.560300  1.0  -0.3087
  N  N237  1  0.349600  0.797700  0.314400  1.0  -0.276
  N  N238  1  0.484500  0.855400  0.406000  1.0  -0.4007
  N  N239  1  0.394100  0.971600  0.439700  1.0  -0.3084
  N  N240  1  0.150400  0.702300  0.314400  1.0  -0.2763
  N  N241  1  0.015500  0.644600  0.406000  1.0  -0.4009
  N  N242  1  0.105900  0.528400  0.439700  1.0  -0.3071
  N  N243  1  0.797700  0.150400  0.814400  1.0  -0.2776
  N  N244  1  0.855400  0.015500  0.906000  1.0  -0.4009
  N  N245  1  0.971600  0.105900  0.939700  1.0  -0.3087
  N  N246  1  0.702300  0.349600  0.814400  1.0  -0.2788
  N  N247  1  0.644600  0.484500  0.906000  1.0  -0.4028
  N  N248  1  0.528400  0.394100  0.939700  1.0  -0.3076
  Cl  Cl249  1  0.750000  0.750000  0.980000  1.0  1.4198
  Cl  Cl250  1  0.750000  0.750000  0.480000  1.0  1.4198
  Cl  Cl251  1  0.250000  0.250000  0.520000  1.0  1.4211
  Cl  Cl252  1  0.250000  0.250000  0.020000  1.0  1.4211
  Cl  Cl253  1  0.486020  0.486020  0.728020  1.0  1.4002
  Cl  Cl254  1  0.013980  0.013980  0.728020  1.0  1.4045
  Cl  Cl255  1  0.013980  0.486020  0.228020  1.0  1.4001
  Cl  Cl256  1  0.486020  0.013980  0.228020  1.0  1.4046
  Cl  Cl257  1  0.513980  0.986020  0.771980  1.0  1.399
  Cl  Cl258  1  0.986020  0.513980  0.771980  1.0  1.4028
  Cl  Cl259  1  0.986020  0.986020  0.271980  1.0  1.3984
  Cl  Cl260  1  0.513980  0.513980  0.271980  1.0  1.4034
  O  O261  1  0.801800  0.698200  0.030600  1.0  -0.6052
  O  O262  1  0.698200  0.801800  0.030600  1.0  -0.6043
  O  O263  1  0.808600  0.808600  0.949000  1.0  -0.5431
  O  O264  1  0.691400  0.691400  0.949000  1.0  -0.5412
  O  O265  1  0.801800  0.801800  0.530600  1.0  -0.6039
  O  O266  1  0.698200  0.698200  0.530600  1.0  -0.6049
  O  O267  1  0.691400  0.808600  0.449000  1.0  -0.5417
  O  O268  1  0.808600  0.691400  0.449000  1.0  -0.5425
  O  O269  1  0.198200  0.198200  0.469400  1.0  -0.6054
  O  O270  1  0.301800  0.301800  0.469400  1.0  -0.604
  O  O271  1  0.191400  0.308600  0.551000  1.0  -0.5403
  O  O272  1  0.308600  0.191400  0.551000  1.0  -0.5429
  O  O273  1  0.198200  0.301800  0.969400  1.0  -0.6044
  O  O274  1  0.301800  0.198200  0.969400  1.0  -0.6054
  O  O275  1  0.308600  0.308600  0.051000  1.0  -0.5426
  O  O276  1  0.191400  0.191400  0.051000  1.0  -0.5406
  O  O277  1  0.462300  0.574300  0.729400  1.0  -0.5141
  O  O278  1  0.574300  0.462300  0.729400  1.0  -0.5133
  O  O279  1  0.452800  0.452800  0.792300  1.0  -0.626
  O  O280  1  0.434000  0.434000  0.678800  1.0  -0.6186
  O  O281  1  0.037700  0.925700  0.729400  1.0  -0.5142
  O  O282  1  0.925700  0.037700  0.729400  1.0  -0.5144
  O  O283  1  0.047200  0.047200  0.792300  1.0  -0.6261
  O  O284  1  0.066000  0.066000  0.678800  1.0  -0.618
  O  O285  1  0.925700  0.462300  0.229400  1.0  -0.5131
  O  O286  1  0.037700  0.574300  0.229400  1.0  -0.5147
  O  O287  1  0.047200  0.452800  0.292300  1.0  -0.6266
  O  O288  1  0.066000  0.434000  0.178800  1.0  -0.6179
  O  O289  1  0.574300  0.037700  0.229400  1.0  -0.5143
  O  O290  1  0.462300  0.925700  0.229400  1.0  -0.514
  O  O291  1  0.452800  0.047200  0.292300  1.0  -0.6259
  O  O292  1  0.434000  0.066000  0.178800  1.0  -0.6188
  O  O293  1  0.537700  0.074300  0.770600  1.0  -0.5145
  O  O294  1  0.425700  0.962300  0.770600  1.0  -0.5126
  O  O295  1  0.547200  0.952800  0.707700  1.0  -0.6252
  O  O296  1  0.566000  0.934000  0.821200  1.0  -0.616
  O  O297  1  0.962300  0.425700  0.770600  1.0  -0.5141
  O  O298  1  0.074300  0.537700  0.770600  1.0  -0.5138
  O  O299  1  0.952800  0.547200  0.707700  1.0  -0.6249
  O  O300  1  0.934000  0.566000  0.821200  1.0  -0.6177
  O  O301  1  0.074300  0.962300  0.270600  1.0  -0.5133
  O  O302  1  0.962300  0.074300  0.270600  1.0  -0.5139
  O  O303  1  0.952800  0.952800  0.207700  1.0  -0.6252
  O  O304  1  0.934000  0.934000  0.321200  1.0  -0.6176
  O  O305  1  0.425700  0.537700  0.270600  1.0  -0.5134
  O  O306  1  0.537700  0.425700  0.270600  1.0  -0.514
  O  O307  1  0.547200  0.547200  0.207700  1.0  -0.6244
  O  O308  1  0.566000  0.566000  0.321200  1.0  -0.6158
