# generated using pymatgen
data_Ag2H16C11SN5O3
_symmetry_space_group_name_H-M   'P 1'
_cell_length_a   11.16140000
_cell_length_b   12.56750000
_cell_length_c   31.05770000
_cell_angle_alpha   90.00000000
_cell_angle_beta   90.00000000
_cell_angle_gamma   90.00000000
_symmetry_Int_Tables_number   1
_chemical_formula_structural   Ag2H16C11SN5O3
_chemical_formula_sum   'Ag16 H128 C88 S8 N40 O24'
_cell_volume   4356.49136011
_cell_formula_units_Z   8
loop_
 _symmetry_equiv_pos_site_id
 _symmetry_equiv_pos_as_xyz
  1  'x, y, z'
loop_
 _atom_site_type_symbol
 _atom_site_label
 _atom_site_symmetry_multiplicity
 _atom_site_fract_x
 _atom_site_fract_y
 _atom_site_fract_z
 _atom_site_occupancy
 _atom_site_charge
  Ag  Ag1  1  0.676330  0.621680  0.734360  1.0  -0.0463
  Ag  Ag2  1  0.817840  0.441550  0.913800  1.0  0.4325
  Ag  Ag3  1  0.323670  0.878320  0.234360  1.0  -0.0458
  Ag  Ag4  1  0.182160  0.058450  0.413800  1.0  0.4314
  Ag  Ag5  1  0.176330  0.378320  0.765640  1.0  -0.0458
  Ag  Ag6  1  0.317840  0.558450  0.586200  1.0  0.4303
  Ag  Ag7  1  0.823670  0.121680  0.265640  1.0  -0.0462
  Ag  Ag8  1  0.682160  0.941550  0.086200  1.0  0.4314
  Ag  Ag9  1  0.323670  0.378320  0.265640  1.0  -0.0457
  Ag  Ag10  1  0.182160  0.558450  0.086200  1.0  0.4297
  Ag  Ag11  1  0.676330  0.121680  0.765640  1.0  -0.0463
  Ag  Ag12  1  0.817840  0.941550  0.586200  1.0  0.4314
  Ag  Ag13  1  0.823670  0.621680  0.234360  1.0  -0.0463
  Ag  Ag14  1  0.682160  0.441550  0.413800  1.0  0.4324
  Ag  Ag15  1  0.176330  0.878320  0.734360  1.0  -0.0459
  Ag  Ag16  1  0.317840  0.058450  0.913800  1.0  0.432
  H  H17  1  0.700800  0.079100  0.003100  1.0  0.0824
  H  H18  1  0.410000  0.254000  0.978300  1.0  0.1134
  H  H19  1  0.321100  0.181600  0.039200  1.0  0.1232
  H  H20  1  0.425900  0.062000  0.080400  1.0  0.0716
  H  H21  1  0.488400  0.527000  0.664800  1.0  0.0626
  H  H22  1  0.491500  0.650000  0.656200  1.0  0.0902
  H  H23  1  0.412600  0.730000  0.760000  1.0  0.0288
  H  H24  1  0.445000  0.773700  0.714100  1.0  0.0666
  H  H25  1  0.411100  0.538400  0.772700  1.0  0.0494
  H  H26  1  0.440200  0.460100  0.734800  1.0  0.0531
  H  H27  1  0.306600  0.751100  0.655200  1.0  0.0953
  H  H28  1  0.183600  0.693300  0.662500  1.0  0.0771
  H  H29  1  0.224300  0.639400  0.772000  1.0  0.0347
  H  H30  1  0.133200  0.624600  0.733900  1.0  0.0555
  H  H31  1  0.297600  0.437700  0.675900  1.0  0.0394
  H  H32  1  0.178400  0.503900  0.675500  1.0  0.0632
  H  H33  1  0.299200  0.420900  0.503100  1.0  0.0826
  H  H34  1  0.590000  0.246000  0.478300  1.0  0.1135
  H  H35  1  0.678900  0.318400  0.539200  1.0  0.1222
  H  H36  1  0.574100  0.438000  0.580400  1.0  0.0713
  H  H37  1  0.511600  0.973000  0.164800  1.0  0.0643
  H  H38  1  0.508500  0.850000  0.156200  1.0  0.0911
  H  H39  1  0.587400  0.770000  0.260000  1.0  0.0291
  H  H40  1  0.555000  0.726300  0.214100  1.0  0.0679
  H  H41  1  0.588900  0.961600  0.272700  1.0  0.0496
  H  H42  1  0.559800  0.039900  0.234800  1.0  0.0528
  H  H43  1  0.693400  0.748900  0.155200  1.0  0.0959
  H  H44  1  0.816400  0.806700  0.162500  1.0  0.0777
  H  H45  1  0.775700  0.860600  0.272000  1.0  0.0353
  H  H46  1  0.866800  0.875400  0.233900  1.0  0.0557
  H  H47  1  0.702400  0.062300  0.175900  1.0  0.0415
  H  H48  1  0.821600  0.996100  0.175500  1.0  0.0616
  H  H49  1  0.200800  0.920900  0.496900  1.0  0.0826
  H  H50  1  0.910000  0.746000  0.521700  1.0  0.113
  H  H51  1  0.821100  0.818400  0.460800  1.0  0.1241
  H  H52  1  0.925900  0.938000  0.419600  1.0  0.071
  H  H53  1  0.988400  0.473000  0.835200  1.0  0.0637
  H  H54  1  0.991500  0.350000  0.843800  1.0  0.0907
  H  H55  1  0.912600  0.270000  0.740000  1.0  0.0261
  H  H56  1  0.945000  0.226300  0.785900  1.0  0.0675
  H  H57  1  0.911100  0.461600  0.727300  1.0  0.0487
  H  H58  1  0.940200  0.539900  0.765200  1.0  0.0521
  H  H59  1  0.806600  0.248900  0.844800  1.0  0.0978
  H  H60  1  0.683600  0.306700  0.837500  1.0  0.0769
  H  H61  1  0.724300  0.360600  0.728000  1.0  0.0334
  H  H62  1  0.633200  0.375400  0.766100  1.0  0.0559
  H  H63  1  0.797600  0.562300  0.824100  1.0  0.0429
  H  H64  1  0.678400  0.496100  0.824500  1.0  0.063
  H  H65  1  0.799200  0.579100  0.996900  1.0  0.0826
  H  H66  1  0.090000  0.754000  0.021700  1.0  0.1127
  H  H67  1  0.178900  0.681600  0.960800  1.0  0.1231
  H  H68  1  0.074100  0.562000  0.919600  1.0  0.0712
  H  H69  1  0.011600  0.027000  0.335200  1.0  0.0646
  H  H70  1  0.008500  0.150000  0.343800  1.0  0.0909
  H  H71  1  0.087400  0.230000  0.240000  1.0  0.028
  H  H72  1  0.055000  0.273700  0.285900  1.0  0.0665
  H  H73  1  0.088900  0.038400  0.227300  1.0  0.0495
  H  H74  1  0.059800  0.960100  0.265200  1.0  0.0536
  H  H75  1  0.193400  0.251100  0.344800  1.0  0.0961
  H  H76  1  0.316400  0.193300  0.337500  1.0  0.0774
  H  H77  1  0.275700  0.139400  0.228000  1.0  0.0329
  H  H78  1  0.366800  0.124600  0.266100  1.0  0.0557
  H  H79  1  0.202400  0.937700  0.324100  1.0  0.0405
  H  H80  1  0.321600  0.003900  0.324500  1.0  0.0597
  H  H81  1  0.299200  0.920900  0.996900  1.0  0.0829
  H  H82  1  0.590000  0.746000  0.021700  1.0  0.1132
  H  H83  1  0.678900  0.818400  0.960800  1.0  0.1229
  H  H84  1  0.574100  0.938000  0.919600  1.0  0.0714
  H  H85  1  0.511600  0.473000  0.335200  1.0  0.0643
  H  H86  1  0.508500  0.350000  0.343800  1.0  0.0915
  H  H87  1  0.587400  0.270000  0.240000  1.0  0.0268
  H  H88  1  0.555000  0.226300  0.285900  1.0  0.0682
  H  H89  1  0.588900  0.461600  0.227300  1.0  0.0494
  H  H90  1  0.559800  0.539900  0.265200  1.0  0.0526
  H  H91  1  0.693400  0.248900  0.344800  1.0  0.0978
  H  H92  1  0.816400  0.306700  0.337500  1.0  0.0778
  H  H93  1  0.775700  0.360600  0.228000  1.0  0.0328
  H  H94  1  0.866800  0.375400  0.266100  1.0  0.0555
  H  H95  1  0.702400  0.562300  0.324100  1.0  0.0415
  H  H96  1  0.821600  0.496100  0.324500  1.0  0.0594
  H  H97  1  0.700800  0.579100  0.496900  1.0  0.0824
  H  H98  1  0.410000  0.754000  0.521700  1.0  0.1127
  H  H99  1  0.321100  0.681600  0.460800  1.0  0.1241
  H  H100  1  0.425900  0.562000  0.419600  1.0  0.071
  H  H101  1  0.488400  0.027000  0.835200  1.0  0.0635
  H  H102  1  0.491500  0.150000  0.843800  1.0  0.0896
  H  H103  1  0.412600  0.230000  0.740000  1.0  0.0272
  H  H104  1  0.445000  0.273700  0.785900  1.0  0.0663
  H  H105  1  0.411100  0.038400  0.727300  1.0  0.0489
  H  H106  1  0.440200  0.960100  0.765200  1.0  0.0529
  H  H107  1  0.306600  0.251100  0.844800  1.0  0.0958
  H  H108  1  0.183600  0.193300  0.837500  1.0  0.0769
  H  H109  1  0.224300  0.139400  0.728000  1.0  0.0337
  H  H110  1  0.133200  0.124600  0.766100  1.0  0.0561
  H  H111  1  0.297600  0.937700  0.824100  1.0  0.04
  H  H112  1  0.178400  0.003900  0.824500  1.0  0.0661
  H  H113  1  0.799200  0.079100  0.503100  1.0  0.0825
  H  H114  1  0.090000  0.254000  0.478300  1.0  0.1133
  H  H115  1  0.178900  0.181600  0.539200  1.0  0.1221
  H  H116  1  0.074100  0.062000  0.580400  1.0  0.0711
  H  H117  1  0.011600  0.527000  0.164800  1.0  0.0633
  H  H118  1  0.008500  0.650000  0.156200  1.0  0.0918
  H  H119  1  0.087400  0.730000  0.260000  1.0  0.0292
  H  H120  1  0.055000  0.773700  0.214100  1.0  0.0671
  H  H121  1  0.088900  0.538400  0.272700  1.0  0.0492
  H  H122  1  0.059800  0.460100  0.234800  1.0  0.054
  H  H123  1  0.193400  0.751100  0.155200  1.0  0.0958
  H  H124  1  0.316400  0.693300  0.162500  1.0  0.0773
  H  H125  1  0.275700  0.639400  0.272000  1.0  0.0346
  H  H126  1  0.366800  0.624600  0.233900  1.0  0.0558
  H  H127  1  0.202400  0.437700  0.175900  1.0  0.04
  H  H128  1  0.321600  0.503900  0.175500  1.0  0.0613
  H  H129  1  0.200800  0.420900  0.003100  1.0  0.0824
  H  H130  1  0.910000  0.246000  0.978300  1.0  0.1133
  H  H131  1  0.821100  0.318400  0.039200  1.0  0.1235
  H  H132  1  0.925900  0.438000  0.080400  1.0  0.0715
  H  H133  1  0.988400  0.973000  0.664800  1.0  0.0638
  H  H134  1  0.991500  0.850000  0.656200  1.0  0.0902
  H  H135  1  0.912600  0.770000  0.760000  1.0  0.0288
  H  H136  1  0.945000  0.726300  0.714100  1.0  0.0672
  H  H137  1  0.911100  0.961600  0.772700  1.0  0.0495
  H  H138  1  0.940200  0.039900  0.734800  1.0  0.0522
  H  H139  1  0.806600  0.748900  0.655200  1.0  0.0957
  H  H140  1  0.683600  0.806700  0.662500  1.0  0.0771
  H  H141  1  0.724300  0.860600  0.772000  1.0  0.0352
  H  H142  1  0.633200  0.875400  0.733900  1.0  0.0552
  H  H143  1  0.797600  0.062300  0.675900  1.0  0.0428
  H  H144  1  0.678400  0.996100  0.675500  1.0  0.0604
  C  C145  1  0.623500  0.099900  0.010450  1.0  0.1791
  C  C146  1  0.565000  0.172300  0.984400  1.0  -0.2755
  C  C147  1  0.450700  0.204600  0.995170  1.0  0.0375
  C  C148  1  0.398400  0.162000  0.031340  1.0  -0.1746
  C  C149  1  0.462000  0.089900  0.055880  1.0  0.1476
  C  C150  1  0.450800  0.594200  0.672120  1.0  0.0823
  C  C151  1  0.405200  0.716400  0.729370  1.0  0.0962
  C  C152  1  0.402800  0.527400  0.741910  1.0  0.0913
  C  C153  1  0.267400  0.694100  0.670880  1.0  0.0853
  C  C154  1  0.217700  0.626600  0.741260  1.0  0.0961
  C  C155  1  0.262500  0.505700  0.683430  1.0  0.0947
  C  C156  1  0.376500  0.400100  0.510450  1.0  0.1797
  C  C157  1  0.435000  0.327700  0.484400  1.0  -0.2775
  C  C158  1  0.549300  0.295400  0.495170  1.0  0.037
  C  C159  1  0.601600  0.338000  0.531340  1.0  -0.1719
  C  C160  1  0.538000  0.410100  0.555880  1.0  0.1481
  C  C161  1  0.549200  0.905800  0.172120  1.0  0.0836
  C  C162  1  0.594800  0.783600  0.229370  1.0  0.0958
  C  C163  1  0.597200  0.972600  0.241910  1.0  0.0913
  C  C164  1  0.732600  0.805900  0.170880  1.0  0.084
  C  C165  1  0.782300  0.873400  0.241260  1.0  0.0949
  C  C166  1  0.737500  0.994300  0.183430  1.0  0.0943
  C  C167  1  0.123500  0.900100  0.489550  1.0  0.1786
  C  C168  1  0.065000  0.827700  0.515600  1.0  -0.2752
  C  C169  1  0.950700  0.795400  0.504830  1.0  0.0355
  C  C170  1  0.898400  0.838000  0.468660  1.0  -0.1743
  C  C171  1  0.962000  0.910100  0.444120  1.0  0.1492
  C  C172  1  0.950800  0.405800  0.827880  1.0  0.0825
  C  C173  1  0.905200  0.283600  0.770630  1.0  0.095
  C  C174  1  0.902800  0.472600  0.758090  1.0  0.092
  C  C175  1  0.767400  0.305900  0.829120  1.0  0.0854
  C  C176  1  0.717700  0.373400  0.758740  1.0  0.0957
  C  C177  1  0.762500  0.494300  0.816570  1.0  0.0946
  C  C178  1  0.876500  0.599900  0.989550  1.0  0.1787
  C  C179  1  0.935000  0.672300  0.015600  1.0  -0.2747
  C  C180  1  0.049300  0.704600  0.004830  1.0  0.0368
  C  C181  1  0.101600  0.662000  0.968660  1.0  -0.1721
  C  C182  1  0.038000  0.589900  0.944120  1.0  0.1482
  C  C183  1  0.049200  0.094200  0.327880  1.0  0.0835
  C  C184  1  0.094800  0.216400  0.270630  1.0  0.096
  C  C185  1  0.097200  0.027400  0.258090  1.0  0.0924
  C  C186  1  0.232600  0.194100  0.329120  1.0  0.0841
  C  C187  1  0.282300  0.126600  0.258740  1.0  0.0943
  C  C188  1  0.237500  0.005700  0.316570  1.0  0.0947
  C  C189  1  0.376500  0.900100  0.989550  1.0  0.1781
  C  C190  1  0.435000  0.827700  0.015600  1.0  -0.2762
  C  C191  1  0.549300  0.795400  0.004830  1.0  0.0354
  C  C192  1  0.601600  0.838000  0.968660  1.0  -0.173
  C  C193  1  0.538000  0.910100  0.944120  1.0  0.1482
  C  C194  1  0.549200  0.405800  0.327880  1.0  0.0831
  C  C195  1  0.594800  0.283600  0.270630  1.0  0.0954
  C  C196  1  0.597200  0.472600  0.258090  1.0  0.0927
  C  C197  1  0.732600  0.305900  0.329120  1.0  0.0842
  C  C198  1  0.782300  0.373400  0.258740  1.0  0.0941
  C  C199  1  0.737500  0.494300  0.316570  1.0  0.0944
  C  C200  1  0.623500  0.599900  0.489550  1.0  0.1787
  C  C201  1  0.565000  0.672300  0.515600  1.0  -0.2736
  C  C202  1  0.450700  0.704600  0.504830  1.0  0.0364
  C  C203  1  0.398400  0.662000  0.468660  1.0  -0.1735
  C  C204  1  0.462000  0.589900  0.444120  1.0  0.149
  C  C205  1  0.450800  0.094200  0.827880  1.0  0.0824
  C  C206  1  0.405200  0.216400  0.770630  1.0  0.0962
  C  C207  1  0.402800  0.027400  0.758090  1.0  0.0912
  C  C208  1  0.267400  0.194100  0.829120  1.0  0.0843
  C  C209  1  0.217700  0.126600  0.758740  1.0  0.0954
  C  C210  1  0.262500  0.005700  0.816570  1.0  0.0956
  C  C211  1  0.876500  0.099900  0.510450  1.0  0.1801
  C  C212  1  0.935000  0.172300  0.484400  1.0  -0.2763
  C  C213  1  0.049300  0.204600  0.495170  1.0  0.0377
  C  C214  1  0.101600  0.162000  0.531340  1.0  -0.1721
  C  C215  1  0.038000  0.089900  0.555880  1.0  0.1478
  C  C216  1  0.049200  0.594200  0.172120  1.0  0.0835
  C  C217  1  0.094800  0.716400  0.229370  1.0  0.0953
  C  C218  1  0.097200  0.527400  0.241910  1.0  0.0922
  C  C219  1  0.232600  0.694100  0.170880  1.0  0.0843
  C  C220  1  0.282300  0.626600  0.241260  1.0  0.0952
  C  C221  1  0.237500  0.505700  0.183430  1.0  0.0941
  C  C222  1  0.123500  0.400100  0.010450  1.0  0.1789
  C  C223  1  0.065000  0.327700  0.984400  1.0  -0.2765
  C  C224  1  0.950700  0.295400  0.995170  1.0  0.0375
  C  C225  1  0.898400  0.338000  0.031340  1.0  -0.1741
  C  C226  1  0.962000  0.410100  0.055880  1.0  0.1483
  C  C227  1  0.950800  0.905800  0.672120  1.0  0.0824
  C  C228  1  0.905200  0.783600  0.729370  1.0  0.0962
  C  C229  1  0.902800  0.972600  0.741910  1.0  0.0913
  C  C230  1  0.767400  0.805900  0.670880  1.0  0.0858
  C  C231  1  0.717700  0.873400  0.741260  1.0  0.0963
  C  C232  1  0.762500  0.994300  0.683430  1.0  0.0947
  S  S233  1  0.636040  0.221160  0.937520  1.0  1.354
  S  S234  1  0.363960  0.278840  0.437520  1.0  1.3542
  S  S235  1  0.136040  0.778840  0.562480  1.0  1.3546
  S  S236  1  0.863960  0.721160  0.062480  1.0  1.3547
  S  S237  1  0.363960  0.778840  0.062480  1.0  1.3548
  S  S238  1  0.636040  0.721160  0.562480  1.0  1.3543
  S  S239  1  0.863960  0.221160  0.437520  1.0  1.3544
  S  S240  1  0.136040  0.278840  0.937520  1.0  1.3539
  N  N241  1  0.572700  0.058200  0.046050  1.0  -0.366
  N  N242  1  0.464500  0.613950  0.718770  1.0  -0.2269
  N  N243  1  0.323300  0.591200  0.659120  1.0  -0.2587
  N  N244  1  0.273400  0.522700  0.730670  1.0  -0.2141
  N  N245  1  0.276500  0.714950  0.717400  1.0  -0.221
  N  N246  1  0.427300  0.441800  0.546050  1.0  -0.3678
  N  N247  1  0.535500  0.886050  0.218770  1.0  -0.2272
  N  N248  1  0.676700  0.908800  0.159120  1.0  -0.2579
  N  N249  1  0.726600  0.977300  0.230670  1.0  -0.2158
  N  N250  1  0.723500  0.785050  0.217400  1.0  -0.2219
  N  N251  1  0.072700  0.941800  0.453950  1.0  -0.3665
  N  N252  1  0.964500  0.386050  0.781230  1.0  -0.2272
  N  N253  1  0.823300  0.408800  0.840880  1.0  -0.2592
  N  N254  1  0.773400  0.477300  0.769330  1.0  -0.2149
  N  N255  1  0.776500  0.285050  0.782600  1.0  -0.2213
  N  N256  1  0.927300  0.558200  0.953950  1.0  -0.3665
  N  N257  1  0.035500  0.113950  0.281230  1.0  -0.2278
  N  N258  1  0.176700  0.091200  0.340880  1.0  -0.2579
  N  N259  1  0.226600  0.022700  0.269330  1.0  -0.217
  N  N260  1  0.223500  0.214950  0.282600  1.0  -0.2217
  N  N261  1  0.427300  0.941800  0.953950  1.0  -0.3655
  N  N262  1  0.535500  0.386050  0.281230  1.0  -0.2277
  N  N263  1  0.676700  0.408800  0.340880  1.0  -0.2594
  N  N264  1  0.726600  0.477300  0.269330  1.0  -0.2164
  N  N265  1  0.723500  0.285050  0.282600  1.0  -0.2221
  N  N266  1  0.572700  0.558200  0.453950  1.0  -0.3671
  N  N267  1  0.464500  0.113950  0.781230  1.0  -0.2271
  N  N268  1  0.323300  0.091200  0.840880  1.0  -0.257
  N  N269  1  0.273400  0.022700  0.769330  1.0  -0.216
  N  N270  1  0.276500  0.214950  0.782600  1.0  -0.2212
  N  N271  1  0.927300  0.058200  0.546050  1.0  -0.3677
  N  N272  1  0.035500  0.613950  0.218770  1.0  -0.2271
  N  N273  1  0.176700  0.591200  0.159120  1.0  -0.2588
  N  N274  1  0.226600  0.522700  0.230670  1.0  -0.2156
  N  N275  1  0.223500  0.714950  0.217400  1.0  -0.2218
  N  N276  1  0.072700  0.441800  0.046050  1.0  -0.3663
  N  N277  1  0.964500  0.886050  0.718770  1.0  -0.2272
  N  N278  1  0.823300  0.908800  0.659120  1.0  -0.2575
  N  N279  1  0.773400  0.977300  0.730670  1.0  -0.2145
  N  N280  1  0.776500  0.785050  0.717400  1.0  -0.2204
  O  O281  1  0.710200  0.135000  0.921870  1.0  -0.67
  O  O282  1  0.540500  0.251200  0.908560  1.0  -0.6792
  O  O283  1  0.705600  0.310800  0.952520  1.0  -0.6699
  O  O284  1  0.289800  0.365000  0.421870  1.0  -0.67
  O  O285  1  0.459500  0.248800  0.408560  1.0  -0.6794
  O  O286  1  0.294400  0.189200  0.452520  1.0  -0.6701
  O  O287  1  0.210200  0.865000  0.578130  1.0  -0.6705
  O  O288  1  0.040500  0.748800  0.591440  1.0  -0.6784
  O  O289  1  0.205600  0.689200  0.547480  1.0  -0.6702
  O  O290  1  0.789800  0.635000  0.078130  1.0  -0.6694
  O  O291  1  0.959500  0.751200  0.091440  1.0  -0.6789
  O  O292  1  0.794400  0.810800  0.047480  1.0  -0.6689
  O  O293  1  0.289800  0.865000  0.078130  1.0  -0.6706
  O  O294  1  0.459500  0.748800  0.091440  1.0  -0.6789
  O  O295  1  0.294400  0.689200  0.047480  1.0  -0.6697
  O  O296  1  0.710200  0.635000  0.578130  1.0  -0.6706
  O  O297  1  0.540500  0.751200  0.591440  1.0  -0.6787
  O  O298  1  0.705600  0.810800  0.547480  1.0  -0.6688
  O  O299  1  0.789800  0.135000  0.421870  1.0  -0.6695
  O  O300  1  0.959500  0.251200  0.408560  1.0  -0.6793
  O  O301  1  0.794400  0.310800  0.452520  1.0  -0.6691
  O  O302  1  0.210200  0.365000  0.921870  1.0  -0.6704
  O  O303  1  0.040500  0.248800  0.908560  1.0  -0.6792
  O  O304  1  0.205600  0.189200  0.952520  1.0  -0.6708
