# generated using pymatgen
data_Ag3H24(C3N2)4
_symmetry_space_group_name_H-M   'P 1'
_cell_length_a   11.34600000
_cell_length_b   11.75900000
_cell_length_c   11.96300000
_cell_angle_alpha   119.43700000
_cell_angle_beta   90.00000000
_cell_angle_gamma   90.00000000
_symmetry_Int_Tables_number   1
_chemical_formula_structural   Ag3H24(C3N2)4
_chemical_formula_sum   'Ag6 H48 C24 N16'
_cell_volume   1390.01624614
_cell_formula_units_Z   2
loop_
 _symmetry_equiv_pos_site_id
 _symmetry_equiv_pos_as_xyz
  1  'x, y, z'
loop_
 _atom_site_type_symbol
 _atom_site_label
 _atom_site_symmetry_multiplicity
 _atom_site_fract_x
 _atom_site_fract_y
 _atom_site_fract_z
 _atom_site_occupancy
 _atom_site_charge
  Ag  Ag1  1  0.524920  0.141130  0.492620  1.0  -0.1895
  Ag  Ag2  1  0.024920  0.858870  0.507380  1.0  -0.1896
  Ag  Ag3  1  0.024920  0.351490  0.492620  1.0  -0.1894
  Ag  Ag4  1  0.524920  0.648510  0.507380  1.0  -0.1896
  Ag  Ag5  1  0.701760  0.173920  0.000000  1.0  -0.1123
  Ag  Ag6  1  0.201760  0.826080  0.000000  1.0  -0.12
  H  H7  1  0.818800  0.086800  0.571400  1.0  0.0554
  H  H8  1  0.775100  0.957800  0.451800  1.0  0.0222
  H  H9  1  0.581200  0.870900  0.457200  1.0  0.0251
  H  H10  1  0.502500  0.945100  0.580200  1.0  0.0447
  H  H11  1  0.571200  0.142100  0.760200  1.0  0.0192
  H  H12  1  0.695600  0.198500  0.756600  1.0  0.0246
  H  H13  1  0.666400  0.871200  0.781000  1.0  0.0385
  H  H14  1  0.553500  0.945200  0.774800  1.0  0.0394
  H  H15  1  0.862000  0.957800  0.775000  1.0  0.0435
  H  H16  1  0.872600  0.086400  0.766600  1.0  0.0289
  H  H17  1  0.792500  0.759300  0.592800  1.0  0.0658
  H  H18  1  0.758400  0.758200  0.465200  1.0  0.0283
  H  H19  1  0.318800  0.913200  0.428600  1.0  0.0559
  H  H20  1  0.275100  0.042200  0.548200  1.0  0.0213
  H  H21  1  0.081200  0.129100  0.542800  1.0  0.0242
  H  H22  1  0.002500  0.054900  0.419800  1.0  0.0449
  H  H23  1  0.071200  0.857900  0.239800  1.0  0.0118
  H  H24  1  0.195600  0.801500  0.243400  1.0  0.0202
  H  H25  1  0.166400  0.128800  0.219000  1.0  0.036
  H  H26  1  0.053500  0.054800  0.225200  1.0  0.0359
  H  H27  1  0.362000  0.042200  0.225000  1.0  0.0459
  H  H28  1  0.372600  0.913600  0.233400  1.0  0.0293
  H  H29  1  0.292500  0.240700  0.407200  1.0  0.0684
  H  H30  1  0.258400  0.241800  0.534800  1.0  0.0286
  H  H31  1  0.318800  0.484600  0.571400  1.0  0.0571
  H  H32  1  0.275100  0.494000  0.451800  1.0  0.0227
  H  H33  1  0.081200  0.586300  0.457200  1.0  0.0239
  H  H34  1  0.002500  0.635100  0.580200  1.0  0.0453
  H  H35  1  0.071200  0.618100  0.760200  1.0  0.0075
  H  H36  1  0.195600  0.558100  0.756600  1.0  0.0291
  H  H37  1  0.166400  0.909800  0.781000  1.0  0.0379
  H  H38  1  0.053500  0.829600  0.774800  1.0  0.0363
  H  H39  1  0.362000  0.817200  0.775000  1.0  0.0501
  H  H40  1  0.372600  0.680200  0.766600  1.0  0.0289
  H  H41  1  0.292500  0.833500  0.592800  1.0  0.065
  H  H42  1  0.258400  0.707000  0.465200  1.0  0.0275
  H  H43  1  0.818800  0.515400  0.428600  1.0  0.0568
  H  H44  1  0.775100  0.506000  0.548200  1.0  0.0228
  H  H45  1  0.581200  0.413700  0.542800  1.0  0.0242
  H  H46  1  0.502500  0.364900  0.419800  1.0  0.0451
  H  H47  1  0.571200  0.381900  0.239800  1.0  -0.0035
  H  H48  1  0.695600  0.441900  0.243400  1.0  0.0266
  H  H49  1  0.666400  0.090200  0.219000  1.0  0.0348
  H  H50  1  0.553500  0.170400  0.225200  1.0  0.034
  H  H51  1  0.862000  0.182800  0.225000  1.0  0.0484
  H  H52  1  0.872600  0.319800  0.233400  1.0  0.0291
  H  H53  1  0.792500  0.166500  0.407200  1.0  0.0659
  H  H54  1  0.758400  0.293000  0.534800  1.0  0.0277
  C  C55  1  0.773600  0.007600  0.544800  1.0  0.108
  C  C56  1  0.583000  0.922310  0.550220  1.0  0.0998
  C  C57  1  0.651400  0.118540  0.729480  1.0  0.1232
  C  C58  1  0.633900  0.921970  0.744340  1.0  0.1016
  C  C59  1  0.826400  0.007680  0.738960  1.0  0.103
  C  C60  1  0.757600  0.810580  0.557960  1.0  0.0974
  C  C61  1  0.273600  0.992400  0.455200  1.0  0.1087
  C  C62  1  0.083000  0.077690  0.449780  1.0  0.0996
  C  C63  1  0.151400  0.881460  0.270520  1.0  0.1232
  C  C64  1  0.133900  0.078030  0.255660  1.0  0.0988
  C  C65  1  0.326400  0.992320  0.261040  1.0  0.1015
  C  C66  1  0.257600  0.189420  0.442040  1.0  0.0974
  C  C67  1  0.273600  0.537200  0.544800  1.0  0.108
  C  C68  1  0.083000  0.627910  0.550220  1.0  0.1001
  C  C69  1  0.151400  0.610940  0.729480  1.0  0.1228
  C  C70  1  0.133900  0.822370  0.744340  1.0  0.0977
  C  C71  1  0.326400  0.731280  0.738960  1.0  0.1025
  C  C72  1  0.257600  0.747380  0.557960  1.0  0.0944
  C  C73  1  0.773600  0.462800  0.455200  1.0  0.1078
  C  C74  1  0.583000  0.372090  0.449780  1.0  0.0999
  C  C75  1  0.651400  0.389060  0.270520  1.0  0.1212
  C  C76  1  0.633900  0.177630  0.255660  1.0  0.0985
  C  C77  1  0.826400  0.268720  0.261040  1.0  0.1013
  C  C78  1  0.757600  0.252620  0.442040  1.0  0.0956
  N  N79  1  0.650900  0.042320  0.588440  1.0  -0.2211
  N  N80  1  0.705100  0.043380  0.787600  1.0  -0.1712
  N  N81  1  0.634200  0.842600  0.603000  1.0  -0.1859
  N  N82  1  0.829200  0.929750  0.597500  1.0  -0.2236
  N  N83  1  0.150900  0.957680  0.411560  1.0  -0.221
  N  N84  1  0.205100  0.956620  0.212400  1.0  -0.1758
  N  N85  1  0.134200  0.157400  0.397000  1.0  -0.1866
  N  N86  1  0.329200  0.070250  0.402500  1.0  -0.2244
  N  N87  1  0.150900  0.546120  0.588440  1.0  -0.2206
  N  N88  1  0.205100  0.744220  0.787600  1.0  -0.1698
  N  N89  1  0.134200  0.760400  0.603000  1.0  -0.1869
  N  N90  1  0.329200  0.667750  0.597500  1.0  -0.2253
  N  N91  1  0.650900  0.453880  0.411560  1.0  -0.2275
  N  N92  1  0.705100  0.255780  0.212400  1.0  -0.1724
  N  N93  1  0.634200  0.239600  0.397000  1.0  -0.1861
  N  N94  1  0.829200  0.332250  0.402500  1.0  -0.2243
