# generated using pymatgen
data_CdH13C17(N3O2)2
_symmetry_space_group_name_H-M   'P 1'
_cell_length_a   27.10800000
_cell_length_b   10.67300000
_cell_length_c   16.64100000
_cell_angle_alpha   90.00000000
_cell_angle_beta   104.24100000
_cell_angle_gamma   90.00000000
_symmetry_Int_Tables_number   1
_chemical_formula_structural   CdH13C17(N3O2)2
_chemical_formula_sum   'Cd8 H104 C136 N48 O32'
_cell_volume   4666.67957684
_cell_formula_units_Z   8
loop_
 _symmetry_equiv_pos_site_id
 _symmetry_equiv_pos_as_xyz
  1  'x, y, z'
loop_
 _atom_site_type_symbol
 _atom_site_label
 _atom_site_symmetry_multiplicity
 _atom_site_fract_x
 _atom_site_fract_y
 _atom_site_fract_z
 _atom_site_occupancy
 _atom_site_charge
  Cd  Cd1  1  0.287080  0.790050  0.167130  1.0  0.9737
  Cd  Cd2  1  0.787080  0.290050  0.167130  1.0  0.9737
  Cd  Cd3  1  0.712920  0.790050  0.332870  1.0  0.974
  Cd  Cd4  1  0.212920  0.290050  0.332870  1.0  0.974
  Cd  Cd5  1  0.712920  0.209950  0.832870  1.0  0.9735
  Cd  Cd6  1  0.212920  0.709950  0.832870  1.0  0.9735
  Cd  Cd7  1  0.287080  0.209950  0.667130  1.0  0.973
  Cd  Cd8  1  0.787080  0.709950  0.667130  1.0  0.973
  H  H9  1  0.968200  0.445100  0.840800  1.0  0.1001
  H  H10  1  0.033100  0.314900  0.825700  1.0  0.1141
  H  H11  1  0.116600  0.369100  0.885900  1.0  0.1153
  H  H12  1  0.133800  0.551400  0.962900  1.0  0.093
  H  H13  1  0.072900  0.794700  0.966300  1.0  0.1221
  H  H14  1  0.047500  0.733500  0.031600  1.0  0.1079
  H  H15  1  0.947000  0.611100  0.951200  1.0  0.0927
  H  H16  1  0.980100  0.731900  0.951500  1.0  0.0977
  H  H17  1  0.194400  0.617100  0.212700  1.0  0.0852
  H  H18  1  0.170300  0.830800  0.023100  1.0  0.0931
  H  H19  1  0.907000  0.852600  0.685400  1.0  0.0785
  H  H20  1  0.872800  0.585100  0.818800  1.0  0.0998
  H  H21  1  0.289500  0.907100  0.446800  1.0  0.0937
  H  H22  1  0.468200  0.945100  0.840800  1.0  0.1001
  H  H23  1  0.533100  0.814900  0.825700  1.0  0.1141
  H  H24  1  0.616600  0.869100  0.885900  1.0  0.1153
  H  H25  1  0.633800  0.051400  0.962900  1.0  0.093
  H  H26  1  0.572900  0.294700  0.966300  1.0  0.1221
  H  H27  1  0.547500  0.233500  0.031600  1.0  0.1079
  H  H28  1  0.447000  0.111100  0.951200  1.0  0.0927
  H  H29  1  0.480100  0.231900  0.951500  1.0  0.0977
  H  H30  1  0.694400  0.117100  0.212700  1.0  0.0852
  H  H31  1  0.670300  0.330800  0.023100  1.0  0.0931
  H  H32  1  0.407000  0.352600  0.685400  1.0  0.0785
  H  H33  1  0.372800  0.085100  0.818800  1.0  0.0998
  H  H34  1  0.789500  0.407100  0.446800  1.0  0.0937
  H  H35  1  0.031800  0.445100  0.659200  1.0  0.1001
  H  H36  1  0.966900  0.314900  0.674300  1.0  0.1148
  H  H37  1  0.883400  0.369100  0.614100  1.0  0.1154
  H  H38  1  0.866200  0.551400  0.537100  1.0  0.0931
  H  H39  1  0.927100  0.794700  0.533700  1.0  0.1214
  H  H40  1  0.952500  0.733500  0.468400  1.0  0.1088
  H  H41  1  0.053000  0.611100  0.548800  1.0  0.0924
  H  H42  1  0.019900  0.731900  0.548500  1.0  0.0982
  H  H43  1  0.805600  0.617100  0.287300  1.0  0.0837
  H  H44  1  0.829700  0.830800  0.476900  1.0  0.0924
  H  H45  1  0.093000  0.852600  0.814600  1.0  0.078
  H  H46  1  0.127200  0.585100  0.681200  1.0  0.0991
  H  H47  1  0.710500  0.907100  0.053200  1.0  0.0934
  H  H48  1  0.531800  0.945100  0.659200  1.0  0.1001
  H  H49  1  0.466900  0.814900  0.674300  1.0  0.1148
  H  H50  1  0.383400  0.869100  0.614100  1.0  0.1154
  H  H51  1  0.366200  0.051400  0.537100  1.0  0.0931
  H  H52  1  0.427100  0.294700  0.533700  1.0  0.1214
  H  H53  1  0.452500  0.233500  0.468400  1.0  0.1088
  H  H54  1  0.553000  0.111100  0.548800  1.0  0.0924
  H  H55  1  0.519900  0.231900  0.548500  1.0  0.0982
  H  H56  1  0.305600  0.117100  0.287300  1.0  0.0837
  H  H57  1  0.329700  0.330800  0.476900  1.0  0.0924
  H  H58  1  0.593000  0.352600  0.814600  1.0  0.078
  H  H59  1  0.627200  0.085100  0.681200  1.0  0.0991
  H  H60  1  0.210500  0.407100  0.053200  1.0  0.0934
  H  H61  1  0.031800  0.554900  0.159200  1.0  0.0993
  H  H62  1  0.966900  0.685100  0.174300  1.0  0.1153
  H  H63  1  0.883400  0.630900  0.114100  1.0  0.1152
  H  H64  1  0.866200  0.448600  0.037100  1.0  0.0929
  H  H65  1  0.927100  0.205300  0.033700  1.0  0.1216
  H  H66  1  0.952500  0.266500  0.968400  1.0  0.1092
  H  H67  1  0.053000  0.388900  0.048800  1.0  0.0913
  H  H68  1  0.019900  0.268100  0.048500  1.0  0.0982
  H  H69  1  0.805600  0.382900  0.787300  1.0  0.0831
  H  H70  1  0.829700  0.169200  0.976900  1.0  0.0924
  H  H71  1  0.093000  0.147400  0.314600  1.0  0.0775
  H  H72  1  0.127200  0.414900  0.181200  1.0  0.0987
  H  H73  1  0.710500  0.092900  0.553200  1.0  0.0948
  H  H74  1  0.531800  0.054900  0.159200  1.0  0.0993
  H  H75  1  0.466900  0.185100  0.174300  1.0  0.1153
  H  H76  1  0.383400  0.130900  0.114100  1.0  0.1152
  H  H77  1  0.366200  0.948600  0.037100  1.0  0.0929
  H  H78  1  0.427100  0.705300  0.033700  1.0  0.1216
  H  H79  1  0.452500  0.766500  0.968400  1.0  0.1092
  H  H80  1  0.553000  0.888900  0.048800  1.0  0.0913
  H  H81  1  0.519900  0.768100  0.048500  1.0  0.0982
  H  H82  1  0.305600  0.882900  0.787300  1.0  0.0831
  H  H83  1  0.329700  0.669200  0.976900  1.0  0.0924
  H  H84  1  0.593000  0.647400  0.314600  1.0  0.0775
  H  H85  1  0.627200  0.914900  0.181200  1.0  0.0987
  H  H86  1  0.210500  0.592900  0.553200  1.0  0.0948
  H  H87  1  0.968200  0.554900  0.340800  1.0  0.1003
  H  H88  1  0.033100  0.685100  0.325700  1.0  0.116
  H  H89  1  0.116600  0.630900  0.385900  1.0  0.115
  H  H90  1  0.133800  0.448600  0.462900  1.0  0.093
  H  H91  1  0.072900  0.205300  0.466300  1.0  0.1207
  H  H92  1  0.047500  0.266500  0.531600  1.0  0.1091
  H  H93  1  0.947000  0.388900  0.451200  1.0  0.0917
  H  H94  1  0.980100  0.268100  0.451500  1.0  0.0987
  H  H95  1  0.194400  0.382900  0.712700  1.0  0.0851
  H  H96  1  0.170300  0.169200  0.523100  1.0  0.0931
  H  H97  1  0.907000  0.147400  0.185400  1.0  0.0777
  H  H98  1  0.872800  0.414900  0.318800  1.0  0.1
  H  H99  1  0.289500  0.092900  0.946800  1.0  0.0951
  H  H100  1  0.468200  0.054900  0.340800  1.0  0.1003
  H  H101  1  0.533100  0.185100  0.325700  1.0  0.116
  H  H102  1  0.616600  0.130900  0.385900  1.0  0.115
  H  H103  1  0.633800  0.948600  0.462900  1.0  0.093
  H  H104  1  0.572900  0.705300  0.466300  1.0  0.1207
  H  H105  1  0.547500  0.766500  0.531600  1.0  0.1091
  H  H106  1  0.447000  0.888900  0.451200  1.0  0.0917
  H  H107  1  0.480100  0.768100  0.451500  1.0  0.0987
  H  H108  1  0.694400  0.882900  0.712700  1.0  0.0851
  H  H109  1  0.670300  0.669200  0.523100  1.0  0.0931
  H  H110  1  0.407000  0.647400  0.185400  1.0  0.0777
  H  H111  1  0.372800  0.914900  0.318800  1.0  0.1
  H  H112  1  0.789500  0.592900  0.946800  1.0  0.0951
  C  C113  1  0.061400  0.607700  0.948300  1.0  0.0313
  C  C114  1  0.011100  0.577000  0.909900  1.0  0.009
  C  C115  1  0.001700  0.467200  0.865400  1.0  -0.083
  C  C116  1  0.040500  0.388600  0.856100  1.0  -0.0696
  C  C117  1  0.090100  0.420400  0.892200  1.0  -0.099
  C  C118  1  0.100200  0.529900  0.938300  1.0  -0.0981
  C  C119  1  0.073600  0.722200  0.001700  1.0  -0.0905
  C  C120  1  0.967000  0.657200  0.920200  1.0  -0.0971
  C  C121  1  0.178100  0.658100  0.164100  1.0  0.2755
  C  C122  1  0.165800  0.773500  0.062800  1.0  0.1501
  C  C123  1  0.908600  0.795200  0.728000  1.0  0.3038
  C  C124  1  0.889800  0.650000  0.799700  1.0  0.1542
  C  C125  1  0.241500  0.634200  0.459000  1.0  -0.1034
  C  C126  1  0.266400  0.730500  0.427500  1.0  -0.0803
  C  C127  1  0.273600  0.842800  0.468600  1.0  -0.0682
  C  C128  1  0.229100  0.512600  0.415100  1.0  0.6608
  C  C129  1  0.286700  0.711400  0.351900  1.0  0.6886
  C  C130  1  0.561400  0.107700  0.948300  1.0  0.0313
  C  C131  1  0.511100  0.077000  0.909900  1.0  0.009
  C  C132  1  0.501700  0.967200  0.865400  1.0  -0.083
  C  C133  1  0.540500  0.888600  0.856100  1.0  -0.0696
  C  C134  1  0.590100  0.920400  0.892200  1.0  -0.099
  C  C135  1  0.600200  0.029900  0.938300  1.0  -0.0981
  C  C136  1  0.573600  0.222200  0.001700  1.0  -0.0905
  C  C137  1  0.467000  0.157200  0.920200  1.0  -0.0971
  C  C138  1  0.678100  0.158100  0.164100  1.0  0.2755
  C  C139  1  0.665800  0.273500  0.062800  1.0  0.1501
  C  C140  1  0.408600  0.295200  0.728000  1.0  0.3038
  C  C141  1  0.389800  0.150000  0.799700  1.0  0.1542
  C  C142  1  0.741500  0.134200  0.459000  1.0  -0.1034
  C  C143  1  0.766400  0.230500  0.427500  1.0  -0.0803
  C  C144  1  0.773600  0.342800  0.468600  1.0  -0.0682
  C  C145  1  0.729100  0.012600  0.415100  1.0  0.6608
  C  C146  1  0.786700  0.211400  0.351900  1.0  0.6886
  C  C147  1  0.938600  0.607700  0.551700  1.0  0.0309
  C  C148  1  0.988900  0.577000  0.590100  1.0  0.0081
  C  C149  1  0.998300  0.467200  0.634600  1.0  -0.0821
  C  C150  1  0.959500  0.388600  0.643900  1.0  -0.0701
  C  C151  1  0.909900  0.420400  0.607800  1.0  -0.0978
  C  C152  1  0.899800  0.529900  0.561700  1.0  -0.0985
  C  C153  1  0.926400  0.722200  0.498300  1.0  -0.0888
  C  C154  1  0.033000  0.657200  0.579800  1.0  -0.0959
  C  C155  1  0.821900  0.658100  0.335900  1.0  0.2768
  C  C156  1  0.834200  0.773500  0.437200  1.0  0.1483
  C  C157  1  0.091400  0.795200  0.772000  1.0  0.3027
  C  C158  1  0.110200  0.650000  0.700300  1.0  0.1539
  C  C159  1  0.758500  0.634200  0.041000  1.0  -0.1017
  C  C160  1  0.733600  0.730500  0.072500  1.0  -0.0793
  C  C161  1  0.726400  0.842800  0.031400  1.0  -0.0696
  C  C162  1  0.770900  0.512600  0.084900  1.0  0.6606
  C  C163  1  0.713300  0.711400  0.148100  1.0  0.689
  C  C164  1  0.438600  0.107700  0.551700  1.0  0.0309
  C  C165  1  0.488900  0.077000  0.590100  1.0  0.0081
  C  C166  1  0.498300  0.967200  0.634600  1.0  -0.0821
  C  C167  1  0.459500  0.888600  0.643900  1.0  -0.0701
  C  C168  1  0.409900  0.920400  0.607800  1.0  -0.0978
  C  C169  1  0.399800  0.029900  0.561700  1.0  -0.0985
  C  C170  1  0.426400  0.222200  0.498300  1.0  -0.0888
  C  C171  1  0.533000  0.157200  0.579800  1.0  -0.0959
  C  C172  1  0.321900  0.158100  0.335900  1.0  0.2768
  C  C173  1  0.334200  0.273500  0.437200  1.0  0.1483
  C  C174  1  0.591400  0.295200  0.772000  1.0  0.3027
  C  C175  1  0.610200  0.150000  0.700300  1.0  0.1539
  C  C176  1  0.258500  0.134200  0.041000  1.0  -0.1017
  C  C177  1  0.233600  0.230500  0.072500  1.0  -0.0793
  C  C178  1  0.226400  0.342800  0.031400  1.0  -0.0696
  C  C179  1  0.270900  0.012600  0.084900  1.0  0.6606
  C  C180  1  0.213300  0.211400  0.148100  1.0  0.689
  C  C181  1  0.938600  0.392300  0.051700  1.0  0.032
  C  C182  1  0.988900  0.423000  0.090100  1.0  0.0079
  C  C183  1  0.998300  0.532800  0.134600  1.0  -0.0808
  C  C184  1  0.959500  0.611400  0.143900  1.0  -0.0689
  C  C185  1  0.909900  0.579600  0.107800  1.0  -0.0961
  C  C186  1  0.899800  0.470100  0.061700  1.0  -0.0985
  C  C187  1  0.926400  0.277800  0.998300  1.0  -0.088
  C  C188  1  0.033000  0.342800  0.079800  1.0  -0.0941
  C  C189  1  0.821900  0.341900  0.835900  1.0  0.2756
  C  C190  1  0.834200  0.226500  0.937200  1.0  0.1484
  C  C191  1  0.091400  0.204800  0.272000  1.0  0.3032
  C  C192  1  0.110200  0.350000  0.200300  1.0  0.1536
  C  C193  1  0.758500  0.365800  0.541000  1.0  -0.104
  C  C194  1  0.733600  0.269500  0.572500  1.0  -0.0794
  C  C195  1  0.726400  0.157200  0.531400  1.0  -0.0695
  C  C196  1  0.770900  0.487400  0.584900  1.0  0.6605
  C  C197  1  0.713300  0.288600  0.648100  1.0  0.6884
  C  C198  1  0.438600  0.892300  0.051700  1.0  0.032
  C  C199  1  0.488900  0.923000  0.090100  1.0  0.0079
  C  C200  1  0.498300  0.032800  0.134600  1.0  -0.0808
  C  C201  1  0.459500  0.111400  0.143900  1.0  -0.0689
  C  C202  1  0.409900  0.079600  0.107800  1.0  -0.0961
  C  C203  1  0.399800  0.970100  0.061700  1.0  -0.0985
  C  C204  1  0.426400  0.777800  0.998300  1.0  -0.088
  C  C205  1  0.533000  0.842800  0.079800  1.0  -0.0941
  C  C206  1  0.321900  0.841900  0.835900  1.0  0.2756
  C  C207  1  0.334200  0.726500  0.937200  1.0  0.1484
  C  C208  1  0.591400  0.704800  0.272000  1.0  0.3032
  C  C209  1  0.610200  0.850000  0.200300  1.0  0.1536
  C  C210  1  0.258500  0.865800  0.541000  1.0  -0.104
  C  C211  1  0.233600  0.769500  0.572500  1.0  -0.0794
  C  C212  1  0.226400  0.657200  0.531400  1.0  -0.0695
  C  C213  1  0.270900  0.987400  0.584900  1.0  0.6605
  C  C214  1  0.213300  0.788600  0.648100  1.0  0.6884
  C  C215  1  0.061400  0.392300  0.448300  1.0  0.0317
  C  C216  1  0.011100  0.423000  0.409900  1.0  0.0082
  C  C217  1  0.001700  0.532800  0.365400  1.0  -0.0829
  C  C218  1  0.040500  0.611400  0.356100  1.0  -0.068
  C  C219  1  0.090100  0.579600  0.392200  1.0  -0.0936
  C  C220  1  0.100200  0.470100  0.438300  1.0  -0.0977
  C  C221  1  0.073600  0.277800  0.501700  1.0  -0.0889
  C  C222  1  0.967000  0.342800  0.420200  1.0  -0.0961
  C  C223  1  0.178100  0.341900  0.664100  1.0  0.274
  C  C224  1  0.165800  0.226500  0.562800  1.0  0.1498
  C  C225  1  0.908600  0.204800  0.228000  1.0  0.3029
  C  C226  1  0.889800  0.350000  0.299700  1.0  0.1538
  C  C227  1  0.241500  0.365800  0.959000  1.0  -0.1058
  C  C228  1  0.266400  0.269500  0.927500  1.0  -0.08
  C  C229  1  0.273600  0.157200  0.968600  1.0  -0.0676
  C  C230  1  0.229100  0.487400  0.915100  1.0  0.6608
  C  C231  1  0.286700  0.288600  0.851900  1.0  0.6882
  C  C232  1  0.561400  0.892300  0.448300  1.0  0.0317
  C  C233  1  0.511100  0.923000  0.409900  1.0  0.0082
  C  C234  1  0.501700  0.032800  0.365400  1.0  -0.0829
  C  C235  1  0.540500  0.111400  0.356100  1.0  -0.068
  C  C236  1  0.590100  0.079600  0.392200  1.0  -0.0936
  C  C237  1  0.600200  0.970100  0.438300  1.0  -0.0977
  C  C238  1  0.573600  0.777800  0.501700  1.0  -0.0889
  C  C239  1  0.467000  0.842800  0.420200  1.0  -0.0961
  C  C240  1  0.678100  0.841900  0.664100  1.0  0.274
  C  C241  1  0.665800  0.726500  0.562800  1.0  0.1498
  C  C242  1  0.408600  0.704800  0.228000  1.0  0.3029
  C  C243  1  0.389800  0.850000  0.299700  1.0  0.1538
  C  C244  1  0.741500  0.865800  0.959000  1.0  -0.1058
  C  C245  1  0.766400  0.769500  0.927500  1.0  -0.08
  C  C246  1  0.773600  0.657200  0.968600  1.0  -0.0676
  C  C247  1  0.729100  0.987400  0.915100  1.0  0.6608
  C  C248  1  0.786700  0.788600  0.851900  1.0  0.6882
  N  N249  1  0.122700  0.716800  0.060700  1.0  0.0754
  N  N250  1  0.129700  0.638200  0.127500  1.0  -0.3869
  N  N251  1  0.201900  0.740100  0.127300  1.0  -0.423
  N  N252  1  0.934200  0.693800  0.839000  1.0  0.1751
  N  N253  1  0.947200  0.787900  0.794600  1.0  -0.3643
  N  N254  1  0.872300  0.710900  0.728900  1.0  -0.3891
  N  N255  1  0.622700  0.216800  0.060700  1.0  0.0754
  N  N256  1  0.629700  0.138200  0.127500  1.0  -0.3869
  N  N257  1  0.701900  0.240100  0.127300  1.0  -0.423
  N  N258  1  0.434200  0.193800  0.839000  1.0  0.1751
  N  N259  1  0.447200  0.287900  0.794600  1.0  -0.3643
  N  N260  1  0.372300  0.210900  0.728900  1.0  -0.3891
  N  N261  1  0.877300  0.716800  0.439300  1.0  0.078
  N  N262  1  0.870300  0.638200  0.372500  1.0  -0.3883
  N  N263  1  0.798100  0.740100  0.372700  1.0  -0.4217
  N  N264  1  0.065800  0.693800  0.661000  1.0  0.1745
  N  N265  1  0.052800  0.787900  0.705400  1.0  -0.3622
  N  N266  1  0.127700  0.710900  0.771100  1.0  -0.391
  N  N267  1  0.377300  0.216800  0.439300  1.0  0.078
  N  N268  1  0.370300  0.138200  0.372500  1.0  -0.3883
  N  N269  1  0.298100  0.240100  0.372700  1.0  -0.4217
  N  N270  1  0.565800  0.193800  0.661000  1.0  0.1745
  N  N271  1  0.552800  0.287900  0.705400  1.0  -0.3622
  N  N272  1  0.627700  0.210900  0.771100  1.0  -0.391
  N  N273  1  0.877300  0.283200  0.939300  1.0  0.0796
  N  N274  1  0.870300  0.361800  0.872500  1.0  -0.3877
  N  N275  1  0.798100  0.259900  0.872700  1.0  -0.421
  N  N276  1  0.065800  0.306200  0.161000  1.0  0.1755
  N  N277  1  0.052800  0.212100  0.205400  1.0  -0.3586
  N  N278  1  0.127700  0.289100  0.271100  1.0  -0.3911
  N  N279  1  0.377300  0.783200  0.939300  1.0  0.0796
  N  N280  1  0.370300  0.861800  0.872500  1.0  -0.3877
  N  N281  1  0.298100  0.759900  0.872700  1.0  -0.421
  N  N282  1  0.565800  0.806200  0.161000  1.0  0.1755
  N  N283  1  0.552800  0.712100  0.205400  1.0  -0.3586
  N  N284  1  0.627700  0.789100  0.271100  1.0  -0.3911
  N  N285  1  0.122700  0.283200  0.560700  1.0  0.0772
  N  N286  1  0.129700  0.361800  0.627500  1.0  -0.3877
  N  N287  1  0.201900  0.259900  0.627300  1.0  -0.4211
  N  N288  1  0.934200  0.306200  0.339000  1.0  0.1756
  N  N289  1  0.947200  0.212100  0.294600  1.0  -0.361
  N  N290  1  0.872300  0.289100  0.228900  1.0  -0.3891
  N  N291  1  0.622700  0.783200  0.560700  1.0  0.0772
  N  N292  1  0.629700  0.861800  0.627500  1.0  -0.3877
  N  N293  1  0.701900  0.759900  0.627300  1.0  -0.4211
  N  N294  1  0.434200  0.806200  0.339000  1.0  0.1756
  N  N295  1  0.447200  0.712100  0.294600  1.0  -0.361
  N  N296  1  0.372300  0.789100  0.228900  1.0  -0.3891
  O  O297  1  0.229500  0.413600  0.457500  1.0  -0.616
  O  O298  1  0.218300  0.509200  0.338100  1.0  -0.6458
  O  O299  1  0.270700  0.790000  0.294300  1.0  -0.6382
  O  O300  1  0.318600  0.628300  0.351800  1.0  -0.5451
  O  O301  1  0.729500  0.913600  0.457500  1.0  -0.616
  O  O302  1  0.718300  0.009200  0.338100  1.0  -0.6458
  O  O303  1  0.770700  0.290000  0.294300  1.0  -0.6382
  O  O304  1  0.818600  0.128300  0.351800  1.0  -0.5451
  O  O305  1  0.770500  0.413600  0.042500  1.0  -0.615
  O  O306  1  0.781700  0.509200  0.161900  1.0  -0.6466
  O  O307  1  0.729300  0.790000  0.205700  1.0  -0.6385
  O  O308  1  0.681400  0.628300  0.148200  1.0  -0.5443
  O  O309  1  0.270500  0.913600  0.042500  1.0  -0.615
  O  O310  1  0.281700  0.009200  0.161900  1.0  -0.6466
  O  O311  1  0.229300  0.290000  0.205700  1.0  -0.6385
  O  O312  1  0.181400  0.128300  0.148200  1.0  -0.5443
  O  O313  1  0.770500  0.586400  0.542500  1.0  -0.6163
  O  O314  1  0.781700  0.490800  0.661900  1.0  -0.6466
  O  O315  1  0.729300  0.210000  0.705700  1.0  -0.6368
  O  O316  1  0.681400  0.371700  0.648200  1.0  -0.5454
  O  O317  1  0.270500  0.086400  0.542500  1.0  -0.6163
  O  O318  1  0.281700  0.990800  0.661900  1.0  -0.6466
  O  O319  1  0.229300  0.710000  0.705700  1.0  -0.6368
  O  O320  1  0.181400  0.871700  0.648200  1.0  -0.5454
  O  O321  1  0.229500  0.586400  0.957500  1.0  -0.6163
  O  O322  1  0.218300  0.490800  0.838100  1.0  -0.6458
  O  O323  1  0.270700  0.210000  0.794300  1.0  -0.6369
  O  O324  1  0.318600  0.371700  0.851800  1.0  -0.5466
  O  O325  1  0.729500  0.086400  0.957500  1.0  -0.6163
  O  O326  1  0.718300  0.990800  0.838100  1.0  -0.6458
  O  O327  1  0.770700  0.710000  0.794300  1.0  -0.6369
  O  O328  1  0.818600  0.871700  0.851800  1.0  -0.5466
