# generated using pymatgen
data_ZnH7C12(N2O)2
_symmetry_space_group_name_H-M   'P 1'
_cell_length_a   18.58000000
_cell_length_b   9.96200000
_cell_length_c   32.73200000
_cell_angle_alpha   90.00000000
_cell_angle_beta   90.00000000
_cell_angle_gamma   90.00000000
_symmetry_Int_Tables_number   1
_chemical_formula_structural   ZnH7C12(N2O)2
_chemical_formula_sum   'Zn16 H112 C192 N64 O32'
_cell_volume   6058.49549872
_cell_formula_units_Z   16
loop_
 _symmetry_equiv_pos_site_id
 _symmetry_equiv_pos_as_xyz
  1  'x, y, z'
loop_
 _atom_site_type_symbol
 _atom_site_label
 _atom_site_symmetry_multiplicity
 _atom_site_fract_x
 _atom_site_fract_y
 _atom_site_fract_z
 _atom_site_occupancy
 _atom_site_charge
  Zn  Zn1  1  0.080700  0.274610  0.058600  1.0  0.8698
  Zn  Zn2  1  0.064300  0.028280  0.218910  1.0  0.8569
  Zn  Zn3  1  0.419300  0.725390  0.558600  1.0  0.8709
  Zn  Zn4  1  0.435700  0.971720  0.718910  1.0  0.8584
  Zn  Zn5  1  0.919300  0.774610  0.441400  1.0  0.8725
  Zn  Zn6  1  0.935700  0.528280  0.281090  1.0  0.8563
  Zn  Zn7  1  0.580700  0.225390  0.941400  1.0  0.8693
  Zn  Zn8  1  0.564300  0.471720  0.781090  1.0  0.8551
  Zn  Zn9  1  0.919300  0.725390  0.941400  1.0  0.8715
  Zn  Zn10  1  0.935700  0.971720  0.781090  1.0  0.8562
  Zn  Zn11  1  0.580700  0.274610  0.441400  1.0  0.8699
  Zn  Zn12  1  0.564300  0.028280  0.281090  1.0  0.8553
  Zn  Zn13  1  0.080700  0.225390  0.558600  1.0  0.8691
  Zn  Zn14  1  0.064300  0.471720  0.718910  1.0  0.8568
  Zn  Zn15  1  0.419300  0.774610  0.058600  1.0  0.872
  Zn  Zn16  1  0.435700  0.528280  0.218910  1.0  0.8585
  H  H17  1  0.172500  0.080700  0.999300  1.0  0.075
  H  H18  1  0.290700  0.035700  0.984000  1.0  0.1118
  H  H19  1  0.380000  0.155400  0.016000  1.0  0.1125
  H  H20  1  0.349300  0.315300  0.063400  1.0  0.107
  H  H21  1  0.312600  0.458200  0.109300  1.0  0.11
  H  H22  1  0.266000  0.613600  0.153600  1.0  0.0931
  H  H23  1  0.143900  0.631400  0.161600  1.0  0.1102
  H  H24  1  0.069800  0.497300  0.122400  1.0  0.0754
  H  H25  1  0.008500  0.974300  0.032600  1.0  0.1072
  H  H26  1  0.962600  0.656100  0.103300  1.0  0.094
  H  H27  1  0.999600  0.767000  0.161300  1.0  0.1149
  H  H28  1  0.273400  0.101100  0.258000  1.0  0.0925
  H  H29  1  0.395000  0.121700  0.271000  1.0  0.1226
  H  H30  1  0.298300  0.727300  0.214400  1.0  0.1212
  H  H31  1  0.327500  0.919300  0.499300  1.0  0.0747
  H  H32  1  0.209300  0.964300  0.484000  1.0  0.1113
  H  H33  1  0.120000  0.844600  0.516000  1.0  0.1128
  H  H34  1  0.150700  0.684700  0.563400  1.0  0.1069
  H  H35  1  0.187400  0.541800  0.609300  1.0  0.1108
  H  H36  1  0.234000  0.386400  0.653600  1.0  0.0927
  H  H37  1  0.356100  0.368600  0.661600  1.0  0.1101
  H  H38  1  0.430200  0.502700  0.622400  1.0  0.0758
  H  H39  1  0.491500  0.025700  0.532600  1.0  0.1071
  H  H40  1  0.537400  0.343900  0.603300  1.0  0.0933
  H  H41  1  0.500400  0.233000  0.661300  1.0  0.1142
  H  H42  1  0.226600  0.898900  0.758000  1.0  0.0928
  H  H43  1  0.105000  0.878300  0.771000  1.0  0.1227
  H  H44  1  0.201700  0.272700  0.714400  1.0  0.1213
  H  H45  1  0.827500  0.580700  0.500700  1.0  0.0764
  H  H46  1  0.709300  0.535700  0.516000  1.0  0.1113
  H  H47  1  0.620000  0.655400  0.484000  1.0  0.1122
  H  H48  1  0.650700  0.815300  0.436600  1.0  0.1073
  H  H49  1  0.687400  0.958200  0.390700  1.0  0.1111
  H  H50  1  0.734000  0.113600  0.346400  1.0  0.0926
  H  H51  1  0.856100  0.131400  0.338400  1.0  0.1099
  H  H52  1  0.930200  0.997300  0.377600  1.0  0.0763
  H  H53  1  0.991500  0.474300  0.467400  1.0  0.1071
  H  H54  1  0.037400  0.156100  0.396700  1.0  0.0944
  H  H55  1  0.000400  0.267000  0.338700  1.0  0.1152
  H  H56  1  0.726600  0.601100  0.242000  1.0  0.0933
  H  H57  1  0.605000  0.621700  0.229000  1.0  0.1226
  H  H58  1  0.701700  0.227300  0.285600  1.0  0.1207
  H  H59  1  0.672500  0.419300  0.000700  1.0  0.0762
  H  H60  1  0.790700  0.464300  0.016000  1.0  0.1116
  H  H61  1  0.880000  0.344600  0.984000  1.0  0.1115
  H  H62  1  0.849300  0.184700  0.936600  1.0  0.1069
  H  H63  1  0.812600  0.041800  0.890700  1.0  0.1103
  H  H64  1  0.766000  0.886400  0.846400  1.0  0.0921
  H  H65  1  0.643900  0.868600  0.838400  1.0  0.1098
  H  H66  1  0.569800  0.002700  0.877600  1.0  0.0755
  H  H67  1  0.508500  0.525700  0.967400  1.0  0.1082
  H  H68  1  0.462600  0.843900  0.896700  1.0  0.0943
  H  H69  1  0.499600  0.733000  0.838700  1.0  0.1152
  H  H70  1  0.773400  0.398900  0.742000  1.0  0.0935
  H  H71  1  0.895000  0.378300  0.729000  1.0  0.1222
  H  H72  1  0.798300  0.772700  0.785600  1.0  0.1207
  H  H73  1  0.827500  0.919300  0.000700  1.0  0.0764
  H  H74  1  0.709300  0.964300  0.016000  1.0  0.1111
  H  H75  1  0.620000  0.844600  0.984000  1.0  0.1122
  H  H76  1  0.650700  0.684700  0.936600  1.0  0.1071
  H  H77  1  0.687400  0.541800  0.890700  1.0  0.1111
  H  H78  1  0.734000  0.386400  0.846400  1.0  0.0919
  H  H79  1  0.856100  0.368600  0.838400  1.0  0.1099
  H  H80  1  0.930200  0.502700  0.877600  1.0  0.0758
  H  H81  1  0.991500  0.025700  0.967400  1.0  0.1079
  H  H82  1  0.037400  0.343900  0.896700  1.0  0.0938
  H  H83  1  0.000400  0.233000  0.838700  1.0  0.1167
  H  H84  1  0.726600  0.898900  0.742000  1.0  0.0918
  H  H85  1  0.605000  0.878300  0.729000  1.0  0.1222
  H  H86  1  0.701700  0.272700  0.785600  1.0  0.1208
  H  H87  1  0.672500  0.080700  0.500700  1.0  0.0761
  H  H88  1  0.790700  0.035700  0.516000  1.0  0.1118
  H  H89  1  0.880000  0.155400  0.484000  1.0  0.1119
  H  H90  1  0.849300  0.315300  0.436600  1.0  0.1069
  H  H91  1  0.812600  0.458200  0.390700  1.0  0.1102
  H  H92  1  0.766000  0.613600  0.346400  1.0  0.0928
  H  H93  1  0.643900  0.631400  0.338400  1.0  0.1101
  H  H94  1  0.569800  0.497300  0.377600  1.0  0.0755
  H  H95  1  0.508500  0.974300  0.467400  1.0  0.1073
  H  H96  1  0.462600  0.656100  0.396700  1.0  0.094
  H  H97  1  0.499600  0.767000  0.338700  1.0  0.1168
  H  H98  1  0.773400  0.101100  0.242000  1.0  0.092
  H  H99  1  0.895000  0.121700  0.229000  1.0  0.1225
  H  H100  1  0.798300  0.727300  0.285600  1.0  0.1206
  H  H101  1  0.172500  0.419300  0.499300  1.0  0.0751
  H  H102  1  0.290700  0.464300  0.484000  1.0  0.1116
  H  H103  1  0.380000  0.344600  0.516000  1.0  0.1124
  H  H104  1  0.349300  0.184700  0.563400  1.0  0.1069
  H  H105  1  0.312600  0.041800  0.609300  1.0  0.1101
  H  H106  1  0.266000  0.886400  0.653600  1.0  0.0929
  H  H107  1  0.143900  0.868600  0.661600  1.0  0.1101
  H  H108  1  0.069800  0.002700  0.622400  1.0  0.0756
  H  H109  1  0.008500  0.525700  0.532600  1.0  0.1075
  H  H110  1  0.962600  0.843900  0.603300  1.0  0.094
  H  H111  1  0.999600  0.733000  0.661300  1.0  0.1157
  H  H112  1  0.273400  0.398900  0.758000  1.0  0.0913
  H  H113  1  0.395000  0.378300  0.771000  1.0  0.1226
  H  H114  1  0.298300  0.772700  0.714400  1.0  0.1213
  H  H115  1  0.327500  0.580700  0.999300  1.0  0.0749
  H  H116  1  0.209300  0.535700  0.984000  1.0  0.1116
  H  H117  1  0.120000  0.655400  0.016000  1.0  0.1127
  H  H118  1  0.150700  0.815300  0.063400  1.0  0.1073
  H  H119  1  0.187400  0.958200  0.109300  1.0  0.1108
  H  H120  1  0.234000  0.113600  0.153600  1.0  0.0929
  H  H121  1  0.356100  0.131400  0.161600  1.0  0.1099
  H  H122  1  0.430200  0.997300  0.122400  1.0  0.0761
  H  H123  1  0.491500  0.474300  0.032600  1.0  0.1072
  H  H124  1  0.537400  0.156100  0.103300  1.0  0.094
  H  H125  1  0.500400  0.267000  0.161300  1.0  0.1157
  H  H126  1  0.226600  0.601100  0.258000  1.0  0.0911
  H  H127  1  0.105000  0.621700  0.271000  1.0  0.1228
  H  H128  1  0.201700  0.227300  0.214400  1.0  0.1214
  C  C129  1  0.208600  0.128900  0.012430  1.0  0.1625
  C  C130  1  0.279300  0.101500  0.003060  1.0  -0.1461
  C  C131  1  0.331800  0.171800  0.022050  1.0  -0.1143
  C  C132  1  0.313600  0.266700  0.050040  1.0  -0.1291
  C  C133  1  0.242120  0.291000  0.058650  1.0  0.176
  C  C134  1  0.216600  0.391300  0.088660  1.0  0.1742
  C  C135  1  0.263000  0.468400  0.111870  1.0  -0.1338
  C  C136  1  0.235300  0.559200  0.138470  1.0  -0.0873
  C  C137  1  0.163400  0.570800  0.143010  1.0  -0.1577
  C  C138  1  0.119400  0.490100  0.119330  1.0  0.169
  C  C139  1  0.029490  0.999900  0.093120  1.0  0.1771
  C  C140  1  0.006800  0.933200  0.058070  1.0  -0.1178
  C  C141  1  0.981870  0.804700  0.062520  1.0  -0.1401
  C  C142  1  0.956910  0.730200  0.025000  1.0  0.7146
  C  C143  1  0.979570  0.743600  0.101210  1.0  -0.0321
  C  C144  1  0.001470  0.808300  0.135870  1.0  -0.1605
  C  C145  1  0.026830  0.939800  0.131210  1.0  0.1387
  C  C146  1  0.196300  0.908700  0.223820  1.0  0.6367
  C  C147  1  0.275200  0.912000  0.234850  1.0  -0.113
  C  C148  1  0.304050  0.029900  0.252180  1.0  -0.0268
  C  C149  1  0.375720  0.042500  0.260620  1.0  -0.1286
  C  C150  1  0.418500  0.930300  0.252920  1.0  0.1328
  C  C151  1  0.389850  0.812600  0.237170  1.0  0.1451
  C  C152  1  0.317160  0.803900  0.226590  1.0  -0.0847
  C  C153  1  0.291400  0.871100  0.512430  1.0  0.1634
  C  C154  1  0.220700  0.898500  0.503060  1.0  -0.1448
  C  C155  1  0.168200  0.828200  0.522050  1.0  -0.1144
  C  C156  1  0.186400  0.733300  0.550040  1.0  -0.1294
  C  C157  1  0.257880  0.709000  0.558650  1.0  0.1763
  C  C158  1  0.283400  0.608700  0.588660  1.0  0.1742
  C  C159  1  0.237000  0.531600  0.611870  1.0  -0.1342
  C  C160  1  0.264700  0.440800  0.638470  1.0  -0.0872
  C  C161  1  0.336600  0.429200  0.643010  1.0  -0.1582
  C  C162  1  0.380600  0.509900  0.619330  1.0  0.1696
  C  C163  1  0.470510  0.000100  0.593120  1.0  0.1754
  C  C164  1  0.493200  0.066800  0.558070  1.0  -0.1166
  C  C165  1  0.518130  0.195300  0.562520  1.0  -0.1397
  C  C166  1  0.543090  0.269800  0.525000  1.0  0.7138
  C  C167  1  0.520430  0.256400  0.601210  1.0  -0.0322
  C  C168  1  0.498530  0.191700  0.635870  1.0  -0.1615
  C  C169  1  0.473170  0.060200  0.631210  1.0  0.1375
  C  C170  1  0.303700  0.091300  0.723820  1.0  0.6386
  C  C171  1  0.224800  0.088000  0.734850  1.0  -0.1119
  C  C172  1  0.195950  0.970100  0.752180  1.0  -0.0254
  C  C173  1  0.124280  0.957500  0.760620  1.0  -0.1306
  C  C174  1  0.081500  0.069700  0.752920  1.0  0.1327
  C  C175  1  0.110150  0.187400  0.737170  1.0  0.1438
  C  C176  1  0.182840  0.196100  0.726590  1.0  -0.0842
  C  C177  1  0.791400  0.628900  0.487570  1.0  0.1609
  C  C178  1  0.720700  0.601500  0.496940  1.0  -0.1457
  C  C179  1  0.668200  0.671800  0.477950  1.0  -0.1183
  C  C180  1  0.686400  0.766700  0.449960  1.0  -0.1283
  C  C181  1  0.757880  0.791000  0.441350  1.0  0.1751
  C  C182  1  0.783400  0.891300  0.411340  1.0  0.1749
  C  C183  1  0.737000  0.968400  0.388130  1.0  -0.134
  C  C184  1  0.764700  0.059200  0.361530  1.0  -0.087
  C  C185  1  0.836600  0.070800  0.356990  1.0  -0.1582
  C  C186  1  0.880600  0.990100  0.380670  1.0  0.1693
  C  C187  1  0.970510  0.499900  0.406880  1.0  0.1754
  C  C188  1  0.993200  0.433200  0.441930  1.0  -0.1157
  C  C189  1  0.018130  0.304700  0.437480  1.0  -0.1407
  C  C190  1  0.043090  0.230200  0.475000  1.0  0.7145
  C  C191  1  0.020430  0.243600  0.398790  1.0  -0.0322
  C  C192  1  0.998530  0.308300  0.364130  1.0  -0.1611
  C  C193  1  0.973170  0.439800  0.368790  1.0  0.1402
  C  C194  1  0.803700  0.408700  0.276180  1.0  0.6363
  C  C195  1  0.724800  0.412000  0.265150  1.0  -0.115
  C  C196  1  0.695950  0.529900  0.247820  1.0  -0.0265
  C  C197  1  0.624280  0.542500  0.239380  1.0  -0.1286
  C  C198  1  0.581500  0.430300  0.247080  1.0  0.1325
  C  C199  1  0.610150  0.312600  0.262830  1.0  0.1451
  C  C200  1  0.682840  0.303900  0.273410  1.0  -0.0828
  C  C201  1  0.708600  0.371100  0.987570  1.0  0.1594
  C  C202  1  0.779300  0.398500  0.996940  1.0  -0.1444
  C  C203  1  0.831800  0.328200  0.977950  1.0  -0.1174
  C  C204  1  0.813600  0.233300  0.949960  1.0  -0.1294
  C  C205  1  0.742120  0.209000  0.941350  1.0  0.1749
  C  C206  1  0.716600  0.108700  0.911340  1.0  0.1749
  C  C207  1  0.763000  0.031600  0.888130  1.0  -0.1334
  C  C208  1  0.735300  0.940800  0.861530  1.0  -0.0873
  C  C209  1  0.663400  0.929200  0.856990  1.0  -0.159
  C  C210  1  0.619400  0.009900  0.880670  1.0  0.1682
  C  C211  1  0.529490  0.500100  0.906880  1.0  0.1757
  C  C212  1  0.506800  0.566800  0.941930  1.0  -0.1155
  C  C213  1  0.481870  0.695300  0.937480  1.0  -0.1383
  C  C214  1  0.456910  0.769800  0.975000  1.0  0.7131
  C  C215  1  0.479570  0.756400  0.898790  1.0  -0.0333
  C  C216  1  0.501470  0.691700  0.864130  1.0  -0.1609
  C  C217  1  0.526830  0.560200  0.868790  1.0  0.1406
  C  C218  1  0.696300  0.591300  0.776180  1.0  0.6373
  C  C219  1  0.775200  0.588000  0.765150  1.0  -0.1157
  C  C220  1  0.804050  0.470100  0.747820  1.0  -0.025
  C  C221  1  0.875720  0.457500  0.739380  1.0  -0.1292
  C  C222  1  0.918500  0.569700  0.747080  1.0  0.1329
  C  C223  1  0.889850  0.687400  0.762830  1.0  0.1452
  C  C224  1  0.817160  0.696100  0.773410  1.0  -0.0842
  C  C225  1  0.791400  0.871100  0.987570  1.0  0.1611
  C  C226  1  0.720700  0.898500  0.996940  1.0  -0.1457
  C  C227  1  0.668200  0.828200  0.977950  1.0  -0.1187
  C  C228  1  0.686400  0.733300  0.949960  1.0  -0.1286
  C  C229  1  0.757880  0.709000  0.941350  1.0  0.1753
  C  C230  1  0.783400  0.608700  0.911340  1.0  0.1747
  C  C231  1  0.737000  0.531600  0.888130  1.0  -0.1341
  C  C232  1  0.764700  0.440800  0.861530  1.0  -0.087
  C  C233  1  0.836600  0.429200  0.856990  1.0  -0.1587
  C  C234  1  0.880600  0.509900  0.880670  1.0  0.1695
  C  C235  1  0.970510  0.000100  0.906880  1.0  0.1751
  C  C236  1  0.993200  0.066800  0.941930  1.0  -0.1146
  C  C237  1  0.018130  0.195300  0.937480  1.0  -0.1408
  C  C238  1  0.043090  0.269800  0.975000  1.0  0.7135
  C  C239  1  0.020430  0.256400  0.898790  1.0  -0.032
  C  C240  1  0.998530  0.191700  0.864130  1.0  -0.1604
  C  C241  1  0.973170  0.060200  0.868790  1.0  0.1398
  C  C242  1  0.803700  0.091300  0.776180  1.0  0.6366
  C  C243  1  0.724800  0.088000  0.765150  1.0  -0.115
  C  C244  1  0.695950  0.970100  0.747820  1.0  -0.0254
  C  C245  1  0.624280  0.957500  0.739380  1.0  -0.129
  C  C246  1  0.581500  0.069700  0.747080  1.0  0.1324
  C  C247  1  0.610150  0.187400  0.762830  1.0  0.1446
  C  C248  1  0.682840  0.196100  0.773410  1.0  -0.0839
  C  C249  1  0.708600  0.128900  0.487570  1.0  0.1593
  C  C250  1  0.779300  0.101500  0.496940  1.0  -0.1445
  C  C251  1  0.831800  0.171800  0.477950  1.0  -0.1173
  C  C252  1  0.813600  0.266700  0.449960  1.0  -0.1291
  C  C253  1  0.742120  0.291000  0.441350  1.0  0.1748
  C  C254  1  0.716600  0.391300  0.411340  1.0  0.1748
  C  C255  1  0.763000  0.468400  0.388130  1.0  -0.1337
  C  C256  1  0.735300  0.559200  0.361530  1.0  -0.0873
  C  C257  1  0.663400  0.570800  0.356990  1.0  -0.1581
  C  C258  1  0.619400  0.490100  0.380670  1.0  0.1688
  C  C259  1  0.529490  0.999900  0.406880  1.0  0.1768
  C  C260  1  0.506800  0.933200  0.441930  1.0  -0.1159
  C  C261  1  0.481870  0.804700  0.437480  1.0  -0.1386
  C  C262  1  0.456910  0.730200  0.475000  1.0  0.7149
  C  C263  1  0.479570  0.743600  0.398790  1.0  -0.0323
  C  C264  1  0.501470  0.808300  0.364130  1.0  -0.161
  C  C265  1  0.526830  0.939800  0.368790  1.0  0.1408
  C  C266  1  0.696300  0.908700  0.276180  1.0  0.6371
  C  C267  1  0.775200  0.912000  0.265150  1.0  -0.1157
  C  C268  1  0.804050  0.029900  0.247820  1.0  -0.0257
  C  C269  1  0.875720  0.042500  0.239380  1.0  -0.1286
  C  C270  1  0.918500  0.930300  0.247080  1.0  0.1329
  C  C271  1  0.889850  0.812600  0.262830  1.0  0.1455
  C  C272  1  0.817160  0.803900  0.273410  1.0  -0.0831
  C  C273  1  0.208600  0.371100  0.512430  1.0  0.1625
  C  C274  1  0.279300  0.398500  0.503060  1.0  -0.146
  C  C275  1  0.331800  0.328200  0.522050  1.0  -0.1146
  C  C276  1  0.313600  0.233300  0.550040  1.0  -0.1299
  C  C277  1  0.242120  0.209000  0.558650  1.0  0.1758
  C  C278  1  0.216600  0.108700  0.588660  1.0  0.1741
  C  C279  1  0.263000  0.031600  0.611870  1.0  -0.1336
  C  C280  1  0.235300  0.940800  0.638470  1.0  -0.0873
  C  C281  1  0.163400  0.929200  0.643010  1.0  -0.1583
  C  C282  1  0.119400  0.009900  0.619330  1.0  0.1685
  C  C283  1  0.029490  0.500100  0.593120  1.0  0.1756
  C  C284  1  0.006800  0.566800  0.558070  1.0  -0.1176
  C  C285  1  0.981870  0.695300  0.562520  1.0  -0.1394
  C  C286  1  0.956910  0.769800  0.525000  1.0  0.7137
  C  C287  1  0.979570  0.756400  0.601210  1.0  -0.0342
  C  C288  1  0.001470  0.691700  0.635870  1.0  -0.1611
  C  C289  1  0.026830  0.560200  0.631210  1.0  0.1388
  C  C290  1  0.196300  0.591300  0.723820  1.0  0.6365
  C  C291  1  0.275200  0.588000  0.734850  1.0  -0.1126
  C  C292  1  0.304050  0.470100  0.752180  1.0  -0.0262
  C  C293  1  0.375720  0.457500  0.760620  1.0  -0.1296
  C  C294  1  0.418500  0.569700  0.752920  1.0  0.133
  C  C295  1  0.389850  0.687400  0.737170  1.0  0.1447
  C  C296  1  0.317160  0.696100  0.726590  1.0  -0.0847
  C  C297  1  0.291400  0.628900  0.012430  1.0  0.1632
  C  C298  1  0.220700  0.601500  0.003060  1.0  -0.1452
  C  C299  1  0.168200  0.671800  0.022050  1.0  -0.1138
  C  C300  1  0.186400  0.766700  0.050040  1.0  -0.1291
  C  C301  1  0.257880  0.791000  0.058650  1.0  0.1765
  C  C302  1  0.283400  0.891300  0.088660  1.0  0.1744
  C  C303  1  0.237000  0.968400  0.111870  1.0  -0.134
  C  C304  1  0.264700  0.059200  0.138470  1.0  -0.0871
  C  C305  1  0.336600  0.070800  0.143010  1.0  -0.1579
  C  C306  1  0.380600  0.990100  0.119330  1.0  0.1694
  C  C307  1  0.470510  0.499900  0.093120  1.0  0.1759
  C  C308  1  0.493200  0.433200  0.058070  1.0  -0.1173
  C  C309  1  0.518130  0.304700  0.062520  1.0  -0.1399
  C  C310  1  0.543090  0.230200  0.025000  1.0  0.7141
  C  C311  1  0.520430  0.243600  0.101210  1.0  -0.0317
  C  C312  1  0.498530  0.308300  0.135870  1.0  -0.1615
  C  C313  1  0.473170  0.439800  0.131210  1.0  0.1376
  C  C314  1  0.303700  0.408700  0.223820  1.0  0.6384
  C  C315  1  0.224800  0.412000  0.234850  1.0  -0.1123
  C  C316  1  0.195950  0.529900  0.252180  1.0  -0.0263
  C  C317  1  0.124280  0.542500  0.260620  1.0  -0.1298
  C  C318  1  0.081500  0.430300  0.252920  1.0  0.1325
  C  C319  1  0.110150  0.312600  0.237170  1.0  0.1445
  C  C320  1  0.182840  0.303900  0.226590  1.0  -0.0841
  N  N321  1  0.145420  0.403000  0.092460  1.0  -0.3231
  N  N322  1  0.190150  0.222500  0.039790  1.0  -0.3314
  N  N323  1  0.057600  0.125640  0.098570  1.0  -0.2888
  N  N324  1  0.070540  0.141590  0.138080  1.0  -0.1415
  N  N325  1  0.052570  0.031290  0.158510  1.0  -0.285
  N  N326  1  0.445340  0.723380  0.234670  1.0  -0.1822
  N  N327  1  0.504360  0.782840  0.247180  1.0  -0.141
  N  N328  1  0.490200  0.908330  0.258460  1.0  -0.243
  N  N329  1  0.354580  0.597000  0.592460  1.0  -0.3208
  N  N330  1  0.309850  0.777500  0.539790  1.0  -0.3299
  N  N331  1  0.442400  0.874360  0.598570  1.0  -0.2886
  N  N332  1  0.429460  0.858410  0.638080  1.0  -0.1409
  N  N333  1  0.447430  0.968710  0.658510  1.0  -0.2849
  N  N334  1  0.054660  0.276620  0.734670  1.0  -0.1824
  N  N335  1  0.995640  0.217160  0.747180  1.0  -0.1364
  N  N336  1  0.009800  0.091670  0.758460  1.0  -0.2425
  N  N337  1  0.854580  0.903000  0.407540  1.0  -0.3192
  N  N338  1  0.809850  0.722500  0.460210  1.0  -0.331
  N  N339  1  0.942400  0.625640  0.401430  1.0  -0.2864
  N  N340  1  0.929460  0.641590  0.361920  1.0  -0.1402
  N  N341  1  0.947430  0.531290  0.341490  1.0  -0.2861
  N  N342  1  0.554660  0.223380  0.265330  1.0  -0.1823
  N  N343  1  0.495640  0.282840  0.252820  1.0  -0.1367
  N  N344  1  0.509800  0.408330  0.241540  1.0  -0.2414
  N  N345  1  0.645420  0.097000  0.907540  1.0  -0.322
  N  N346  1  0.690150  0.277500  0.960210  1.0  -0.3337
  N  N347  1  0.557600  0.374360  0.901430  1.0  -0.2894
  N  N348  1  0.570540  0.358410  0.861920  1.0  -0.1408
  N  N349  1  0.552570  0.468710  0.841490  1.0  -0.2863
  N  N350  1  0.945340  0.776620  0.765330  1.0  -0.1828
  N  N351  1  0.004360  0.717160  0.752820  1.0  -0.1414
  N  N352  1  0.990200  0.591670  0.741540  1.0  -0.2426
  N  N353  1  0.854580  0.597000  0.907540  1.0  -0.3205
  N  N354  1  0.809850  0.777500  0.960210  1.0  -0.3305
  N  N355  1  0.942400  0.874360  0.901430  1.0  -0.2887
  N  N356  1  0.929460  0.858410  0.861920  1.0  -0.1421
  N  N357  1  0.947430  0.968710  0.841490  1.0  -0.2857
  N  N358  1  0.554660  0.276620  0.765330  1.0  -0.1831
  N  N359  1  0.495640  0.217160  0.752820  1.0  -0.1364
  N  N360  1  0.509800  0.091670  0.741540  1.0  -0.2419
  N  N361  1  0.645420  0.403000  0.407540  1.0  -0.3217
  N  N362  1  0.690150  0.222500  0.460210  1.0  -0.3332
  N  N363  1  0.557600  0.125640  0.401430  1.0  -0.2883
  N  N364  1  0.570540  0.141590  0.361920  1.0  -0.142
  N  N365  1  0.552570  0.031290  0.341490  1.0  -0.2863
  N  N366  1  0.945340  0.723380  0.265330  1.0  -0.1825
  N  N367  1  0.004360  0.782840  0.252820  1.0  -0.1411
  N  N368  1  0.990200  0.908330  0.241540  1.0  -0.2429
  N  N369  1  0.145420  0.097000  0.592460  1.0  -0.3228
  N  N370  1  0.190150  0.277500  0.539790  1.0  -0.332
  N  N371  1  0.057600  0.374360  0.598570  1.0  -0.2891
  N  N372  1  0.070540  0.358410  0.638080  1.0  -0.1383
  N  N373  1  0.052570  0.468710  0.658510  1.0  -0.2848
  N  N374  1  0.445340  0.776620  0.734670  1.0  -0.1822
  N  N375  1  0.504360  0.717160  0.747180  1.0  -0.1412
  N  N376  1  0.490200  0.591670  0.758460  1.0  -0.243
  N  N377  1  0.354580  0.903000  0.092460  1.0  -0.3201
  N  N378  1  0.309850  0.722500  0.039790  1.0  -0.3301
  N  N379  1  0.442400  0.625640  0.098570  1.0  -0.287
  N  N380  1  0.429460  0.641590  0.138080  1.0  -0.1401
  N  N381  1  0.447430  0.531290  0.158510  1.0  -0.2851
  N  N382  1  0.054660  0.223380  0.234670  1.0  -0.182
  N  N383  1  0.995640  0.282840  0.247180  1.0  -0.1369
  N  N384  1  0.009800  0.408330  0.258460  1.0  -0.2418
  O  O385  1  0.159140  0.001560  0.240010  1.0  -0.6067
  O  O386  1  0.173250  0.824000  0.200440  1.0  -0.5677
  O  O387  1  0.938180  0.611950  0.026990  1.0  -0.522
  O  O388  1  0.955470  0.799460  0.992880  1.0  -0.6004
  O  O389  1  0.340860  0.998440  0.740010  1.0  -0.6056
  O  O390  1  0.326750  0.176000  0.700440  1.0  -0.5667
  O  O391  1  0.561820  0.388050  0.526990  1.0  -0.5211
  O  O392  1  0.544530  0.200540  0.492880  1.0  -0.6007
  O  O393  1  0.840860  0.501560  0.259990  1.0  -0.6067
  O  O394  1  0.826750  0.324000  0.299560  1.0  -0.5676
  O  O395  1  0.061820  0.111950  0.473010  1.0  -0.5204
  O  O396  1  0.044530  0.299460  0.507120  1.0  -0.6011
  O  O397  1  0.659140  0.498440  0.759990  1.0  -0.6076
  O  O398  1  0.673250  0.676000  0.799560  1.0  -0.5687
  O  O399  1  0.438180  0.888050  0.973010  1.0  -0.5212
  O  O400  1  0.455470  0.700540  0.007120  1.0  -0.6014
  O  O401  1  0.840860  0.998440  0.759990  1.0  -0.6074
  O  O402  1  0.826750  0.176000  0.799560  1.0  -0.5678
  O  O403  1  0.061820  0.388050  0.973010  1.0  -0.5204
  O  O404  1  0.044530  0.200540  0.007120  1.0  -0.6014
  O  O405  1  0.659140  0.001560  0.259990  1.0  -0.6066
  O  O406  1  0.673250  0.824000  0.299560  1.0  -0.5687
  O  O407  1  0.438180  0.611950  0.473010  1.0  -0.5218
  O  O408  1  0.455470  0.799460  0.507120  1.0  -0.6008
  O  O409  1  0.159140  0.498440  0.740010  1.0  -0.6069
  O  O410  1  0.173250  0.676000  0.700440  1.0  -0.5672
  O  O411  1  0.938180  0.888050  0.526990  1.0  -0.5221
  O  O412  1  0.955470  0.700540  0.492880  1.0  -0.6007
  O  O413  1  0.340860  0.501560  0.240010  1.0  -0.6058
  O  O414  1  0.326750  0.324000  0.200440  1.0  -0.5669
  O  O415  1  0.561820  0.111950  0.026990  1.0  -0.5205
  O  O416  1  0.544530  0.299460  0.992880  1.0  -0.6008
