# generated using pymatgen
data_Er2H3(C5O4)3
_symmetry_space_group_name_H-M   'P 1'
_cell_length_a   10.40050000
_cell_length_b   10.64860000
_cell_length_c   13.63210000
_cell_angle_alpha   105.30700000
_cell_angle_beta   93.83500000
_cell_angle_gamma   108.93500000
_symmetry_Int_Tables_number   1
_chemical_formula_structural   Er2H3(C5O4)3
_chemical_formula_sum   'Er4 H6 C30 O24'
_cell_volume   1358.01644019
_cell_formula_units_Z   2
loop_
 _symmetry_equiv_pos_site_id
 _symmetry_equiv_pos_as_xyz
  1  'x, y, z'
loop_
 _atom_site_type_symbol
 _atom_site_label
 _atom_site_symmetry_multiplicity
 _atom_site_fract_x
 _atom_site_fract_y
 _atom_site_fract_z
 _atom_site_occupancy
 _atom_site_charge
  Er  Er1  1  0.476390  0.419940  0.811920  1.0  1.6276
  Er  Er2  1  0.018630  0.050280  0.186580  1.0  1.5466
  Er  Er3  1  0.523610  0.580060  0.188080  1.0  1.6275
  Er  Er4  1  0.981370  0.949720  0.813420  1.0  1.5471
  H  H5  1  0.687100  0.176900  0.110300  1.0  0.1265
  H  H6  1  0.798100  0.314600  0.918400  1.0  0.1152
  H  H7  1  0.099600  0.237600  0.571200  1.0  0.1239
  H  H8  1  0.312900  0.823100  0.889700  1.0  0.1268
  H  H9  1  0.201900  0.685400  0.081600  1.0  0.1157
  H  H10  1  0.900400  0.762400  0.428800  1.0  0.1249
  C  C11  1  0.520200  0.891200  0.927300  1.0  -0.0058
  C  C12  1  0.633200  0.998800  0.994400  1.0  -0.1019
  C  C13  1  0.611900  0.105500  0.065800  1.0  -0.0245
  C  C14  1  0.530600  0.766000  0.849200  1.0  0.6556
  C  C15  1  0.776900  0.000400  0.990400  1.0  0.7539
  C  C16  1  0.994300  0.627200  0.058200  1.0  -0.0218
  C  C17  1  0.872200  0.513300  0.008900  1.0  -0.0624
  C  C18  1  0.879100  0.388900  0.951300  1.0  -0.0186
  C  C19  1  0.990300  0.768400  0.109600  1.0  0.6227
  C  C20  1  0.732900  0.521700  0.026200  1.0  0.7764
  C  C21  1  0.093800  0.056600  0.592500  1.0  -0.0979
  C  C22  1  0.059000  0.141500  0.542400  1.0  -0.0365
  C  C23  1  0.034500  0.911300  0.549600  1.0  -0.0701
  C  C24  1  0.197800  0.126100  0.689600  1.0  0.7514
  C  C25  1  0.066200  0.807700  0.594800  1.0  0.6869
  C  C26  1  0.479800  0.108800  0.072700  1.0  -0.0051
  C  C27  1  0.366800  0.001200  0.005600  1.0  -0.0985
  C  C28  1  0.388100  0.894500  0.934200  1.0  -0.0252
  C  C29  1  0.469400  0.234000  0.150800  1.0  0.65
  C  C30  1  0.223100  0.999600  0.009600  1.0  0.7548
  C  C31  1  0.005700  0.372800  0.941800  1.0  -0.0227
  C  C32  1  0.127800  0.486700  0.991100  1.0  -0.0625
  C  C33  1  0.120900  0.611100  0.048700  1.0  -0.0242
  C  C34  1  0.009700  0.231600  0.890400  1.0  0.6226
  C  C35  1  0.267100  0.478300  0.973800  1.0  0.7744
  C  C36  1  0.906200  0.943400  0.407500  1.0  -0.0976
  C  C37  1  0.941000  0.858500  0.457600  1.0  -0.0339
  C  C38  1  0.965500  0.088700  0.450400  1.0  -0.07
  C  C39  1  0.802200  0.873900  0.310400  1.0  0.7507
  C  C40  1  0.933800  0.192300  0.405200  1.0  0.6854
  O  O41  1  0.861000  0.061600  0.073600  1.0  -0.6634
  O  O42  1  0.804700  0.944500  0.906400  1.0  -0.6827
  O  O43  1  0.539000  0.669100  0.883000  1.0  -0.6345
  O  O44  1  0.519500  0.763300  0.756800  1.0  -0.4436
  O  O45  1  0.644000  0.490100  0.948700  1.0  -0.7521
  O  O46  1  0.714400  0.554500  0.117200  1.0  -0.6551
  O  O47  1  0.922100  0.816800  0.059600  1.0  -0.5471
  O  O48  1  0.061100  0.840900  0.197100  1.0  -0.5882
  O  O49  1  0.179900  0.076300  0.763600  1.0  -0.5916
  O  O50  1  0.298000  0.232600  0.692300  1.0  -0.7642
  O  O51  1  0.032400  0.798900  0.680000  1.0  -0.6232
  O  O52  1  0.116600  0.730100  0.539300  1.0  -0.4033
  O  O53  1  0.139000  0.938400  0.926400  1.0  -0.6645
  O  O54  1  0.195300  0.055500  0.093600  1.0  -0.6828
  O  O55  1  0.461000  0.330900  0.117000  1.0  -0.633
  O  O56  1  0.480500  0.236700  0.243200  1.0  -0.4435
  O  O57  1  0.356000  0.509900  0.051300  1.0  -0.7531
  O  O58  1  0.285600  0.445500  0.882800  1.0  -0.6545
  O  O59  1  0.077900  0.183200  0.940400  1.0  -0.5414
  O  O60  1  0.938900  0.159100  0.802900  1.0  -0.5879
  O  O61  1  0.820100  0.923700  0.236400  1.0  -0.5933
  O  O62  1  0.702000  0.767400  0.307700  1.0  -0.7511
  O  O63  1  0.967600  0.201100  0.320000  1.0  -0.6259
  O  O64  1  0.883400  0.269900  0.460700  1.0  -0.4073
