# generated using pymatgen
data_NaLa3(S2O9)3
_symmetry_space_group_name_H-M   'P 1'
_cell_length_a   27.65700000
_cell_length_b   19.77500000
_cell_length_c   9.50800000
_cell_angle_alpha   90.00000000
_cell_angle_beta   90.00000000
_cell_angle_gamma   90.00000000
_symmetry_Int_Tables_number   1
_chemical_formula_structural   NaLa3(S2O9)3
_chemical_formula_sum   'Na8 La24 S48 O216'
_cell_volume   5200.08849990
_cell_formula_units_Z   8
loop_
 _symmetry_equiv_pos_site_id
 _symmetry_equiv_pos_as_xyz
  1  'x, y, z'
loop_
 _atom_site_type_symbol
 _atom_site_label
 _atom_site_symmetry_multiplicity
 _atom_site_fract_x
 _atom_site_fract_y
 _atom_site_fract_z
 _atom_site_occupancy
 _atom_site_charge
  Na  Na1  1  0.000000  0.242250  0.118500  1.0  1.0638
  Na  Na2  1  0.500000  0.742250  0.118500  1.0  1.0638
  Na  Na3  1  0.000000  0.257750  0.618500  1.0  1.0637
  Na  Na4  1  0.500000  0.757750  0.618500  1.0  1.0637
  Na  Na5  1  0.000000  0.742250  0.381500  1.0  1.0638
  Na  Na6  1  0.500000  0.242250  0.381500  1.0  1.0638
  Na  Na7  1  0.000000  0.757750  0.881500  1.0  1.0637
  Na  Na8  1  0.500000  0.257750  0.881500  1.0  1.0637
  La  La9  1  0.132600  0.362040  0.748170  1.0  2.191
  La  La10  1  0.632600  0.862040  0.748170  1.0  2.191
  La  La11  1  0.867400  0.137960  0.248170  1.0  2.1924
  La  La12  1  0.367400  0.637960  0.248170  1.0  2.1924
  La  La13  1  0.867400  0.862040  0.751830  1.0  2.1912
  La  La14  1  0.367400  0.362040  0.751830  1.0  2.1912
  La  La15  1  0.132600  0.637960  0.251830  1.0  2.192
  La  La16  1  0.632600  0.137960  0.251830  1.0  2.192
  La  La17  1  0.867400  0.637960  0.251830  1.0  2.1922
  La  La18  1  0.367400  0.137960  0.251830  1.0  2.1922
  La  La19  1  0.132600  0.862040  0.751830  1.0  2.1909
  La  La20  1  0.632600  0.362040  0.751830  1.0  2.1909
  La  La21  1  0.132600  0.137960  0.248170  1.0  2.1921
  La  La22  1  0.632600  0.637960  0.248170  1.0  2.1921
  La  La23  1  0.867400  0.362040  0.748170  1.0  2.1913
  La  La24  1  0.367400  0.862040  0.748170  1.0  2.1913
  La  La25  1  0.000000  0.432570  0.213450  1.0  2.198
  La  La26  1  0.500000  0.932570  0.213450  1.0  2.198
  La  La27  1  0.000000  0.067430  0.713450  1.0  2.1976
  La  La28  1  0.500000  0.567430  0.713450  1.0  2.1976
  La  La29  1  0.000000  0.932570  0.286550  1.0  2.1972
  La  La30  1  0.500000  0.432570  0.286550  1.0  2.1972
  La  La31  1  0.000000  0.567430  0.786550  1.0  2.1967
  La  La32  1  0.500000  0.067430  0.786550  1.0  2.1967
  S  S33  1  0.129970  0.255210  0.489220  1.0  1.7386
  S  S34  1  0.629970  0.755210  0.489220  1.0  1.7386
  S  S35  1  0.870030  0.244790  0.989220  1.0  1.7391
  S  S36  1  0.370030  0.744790  0.989220  1.0  1.7391
  S  S37  1  0.870030  0.755210  0.010780  1.0  1.7387
  S  S38  1  0.370030  0.255210  0.010780  1.0  1.7387
  S  S39  1  0.129970  0.744790  0.510780  1.0  1.7385
  S  S40  1  0.629970  0.244790  0.510780  1.0  1.7385
  S  S41  1  0.870030  0.744790  0.510780  1.0  1.743
  S  S42  1  0.370030  0.244790  0.510780  1.0  1.743
  S  S43  1  0.129970  0.755210  0.010780  1.0  1.7425
  S  S44  1  0.629970  0.255210  0.010780  1.0  1.7425
  S  S45  1  0.129970  0.244790  0.989220  1.0  1.743
  S  S46  1  0.629970  0.744790  0.989220  1.0  1.743
  S  S47  1  0.870030  0.255210  0.489220  1.0  1.7431
  S  S48  1  0.370030  0.755210  0.489220  1.0  1.7431
  S  S49  1  0.000000  0.375450  0.848800  1.0  1.6849
  S  S50  1  0.500000  0.875450  0.848800  1.0  1.6849
  S  S51  1  0.000000  0.124550  0.348800  1.0  1.6843
  S  S52  1  0.500000  0.624550  0.348800  1.0  1.6843
  S  S53  1  0.000000  0.875450  0.651200  1.0  1.6849
  S  S54  1  0.500000  0.375450  0.651200  1.0  1.6849
  S  S55  1  0.000000  0.624550  0.151200  1.0  1.6843
  S  S56  1  0.500000  0.124550  0.151200  1.0  1.6843
  S  S57  1  0.105220  0.500000  0.000000  1.0  1.7281
  S  S58  1  0.605220  0.000000  0.000000  1.0  1.7281
  S  S59  1  0.894780  0.000000  0.500000  1.0  1.7262
  S  S60  1  0.394780  0.500000  0.500000  1.0  1.7262
  S  S61  1  0.894780  0.500000  0.000000  1.0  1.7262
  S  S62  1  0.394780  0.000000  0.000000  1.0  1.7262
  S  S63  1  0.105220  0.000000  0.500000  1.0  1.7281
  S  S64  1  0.605220  0.500000  0.500000  1.0  1.7281
  S  S65  1  0.250000  0.376810  0.750000  1.0  1.6389
  S  S66  1  0.750000  0.123190  0.250000  1.0  1.6391
  S  S67  1  0.750000  0.876810  0.750000  1.0  1.6389
  S  S68  1  0.250000  0.623190  0.250000  1.0  1.6391
  S  S69  1  0.750000  0.623190  0.250000  1.0  1.6391
  S  S70  1  0.250000  0.123190  0.250000  1.0  1.6391
  S  S71  1  0.250000  0.876810  0.750000  1.0  1.6389
  S  S72  1  0.750000  0.376810  0.750000  1.0  1.6389
  S  S73  1  0.912730  0.500000  0.500000  1.0  1.7322
  S  S74  1  0.412730  0.000000  0.500000  1.0  1.7322
  S  S75  1  0.087270  0.000000  0.000000  1.0  1.7327
  S  S76  1  0.587270  0.500000  0.000000  1.0  1.7327
  S  S77  1  0.087270  0.500000  0.500000  1.0  1.7327
  S  S78  1  0.587270  0.000000  0.500000  1.0  1.7327
  S  S79  1  0.912730  0.000000  0.000000  1.0  1.7322
  S  S80  1  0.412730  0.500000  0.000000  1.0  1.7322
  O  O81  1  0.217220  0.418690  0.661600  1.0  -0.7347
  O  O82  1  0.218210  0.335670  0.840000  1.0  -0.7196
  O  O83  1  0.171510  0.288330  0.557700  1.0  -0.7313
  O  O84  1  0.042960  0.349800  0.776400  1.0  -0.7329
  O  O85  1  0.132340  0.263200  0.335600  1.0  -0.7111
  O  O86  1  0.087110  0.288700  0.548000  1.0  -0.7364
  O  O87  1  0.136480  0.461500  0.901800  1.0  -0.7239
  O  O88  1  0.128930  0.182370  0.515100  1.0  -0.6405
  O  O89  1  0.075910  0.452460  0.079900  1.0  -0.64
  O  O90  1  0.882320  0.448300  0.564700  1.0  -0.6496
  O  O91  1  0.942790  0.469100  0.393300  1.0  -0.6395
  O  O92  1  0.055510  0.331300  0.228000  1.0  -0.4176
  O  O93  1  0.717220  0.918690  0.661600  1.0  -0.7347
  O  O94  1  0.718210  0.835670  0.840000  1.0  -0.7196
  O  O95  1  0.671510  0.788330  0.557700  1.0  -0.7313
  O  O96  1  0.542960  0.849800  0.776400  1.0  -0.7329
  O  O97  1  0.632340  0.763200  0.335600  1.0  -0.7111
  O  O98  1  0.587110  0.788700  0.548000  1.0  -0.7364
  O  O99  1  0.636480  0.961500  0.901800  1.0  -0.7239
  O  O100  1  0.628930  0.682370  0.515100  1.0  -0.6405
  O  O101  1  0.575910  0.952460  0.079900  1.0  -0.64
  O  O102  1  0.382320  0.948300  0.564700  1.0  -0.6496
  O  O103  1  0.442790  0.969100  0.393300  1.0  -0.6395
  O  O104  1  0.555510  0.831300  0.228000  1.0  -0.4176
  O  O105  1  0.782780  0.081310  0.161600  1.0  -0.7348
  O  O106  1  0.781790  0.164330  0.340000  1.0  -0.7195
  O  O107  1  0.828490  0.211670  0.057700  1.0  -0.7289
  O  O108  1  0.957040  0.150200  0.276400  1.0  -0.7333
  O  O109  1  0.867660  0.236800  0.835600  1.0  -0.7119
  O  O110  1  0.912890  0.211300  0.048000  1.0  -0.7389
  O  O111  1  0.863520  0.038500  0.401800  1.0  -0.7231
  O  O112  1  0.871070  0.317630  0.015100  1.0  -0.6429
  O  O113  1  0.924090  0.047540  0.579900  1.0  -0.6399
  O  O114  1  0.117680  0.051700  0.064700  1.0  -0.6513
  O  O115  1  0.057210  0.030900  0.893300  1.0  -0.6387
  O  O116  1  0.944490  0.168700  0.728000  1.0  -0.4181
  O  O117  1  0.282780  0.581310  0.161600  1.0  -0.7348
  O  O118  1  0.281790  0.664330  0.340000  1.0  -0.7195
  O  O119  1  0.328490  0.711670  0.057700  1.0  -0.7289
  O  O120  1  0.457040  0.650200  0.276400  1.0  -0.7333
  O  O121  1  0.367660  0.736800  0.835600  1.0  -0.7119
  O  O122  1  0.412890  0.711300  0.048000  1.0  -0.7389
  O  O123  1  0.363520  0.538500  0.401800  1.0  -0.7231
  O  O124  1  0.371070  0.817630  0.015100  1.0  -0.6429
  O  O125  1  0.424090  0.547540  0.579900  1.0  -0.6399
  O  O126  1  0.617680  0.551700  0.064700  1.0  -0.6513
  O  O127  1  0.557210  0.530900  0.893300  1.0  -0.6387
  O  O128  1  0.444490  0.668700  0.728000  1.0  -0.4181
  O  O129  1  0.782780  0.918690  0.838400  1.0  -0.7345
  O  O130  1  0.781790  0.835670  0.660000  1.0  -0.7199
  O  O131  1  0.828490  0.788330  0.942300  1.0  -0.7279
  O  O132  1  0.957040  0.849800  0.723600  1.0  -0.7328
  O  O133  1  0.867660  0.763200  0.164400  1.0  -0.7118
  O  O134  1  0.912890  0.788700  0.952000  1.0  -0.7395
  O  O135  1  0.863520  0.961500  0.598200  1.0  -0.7221
  O  O136  1  0.871070  0.682370  0.984900  1.0  -0.64
  O  O137  1  0.924090  0.952460  0.420100  1.0  -0.6402
  O  O138  1  0.117680  0.948300  0.935300  1.0  -0.6506
  O  O139  1  0.057210  0.969100  0.106700  1.0  -0.637
  O  O140  1  0.944490  0.831300  0.272000  1.0  -0.4178
  O  O141  1  0.282780  0.418690  0.838400  1.0  -0.7345
  O  O142  1  0.281790  0.335670  0.660000  1.0  -0.7199
  O  O143  1  0.328490  0.288330  0.942300  1.0  -0.7279
  O  O144  1  0.457040  0.349800  0.723600  1.0  -0.7328
  O  O145  1  0.367660  0.263200  0.164400  1.0  -0.7118
  O  O146  1  0.412890  0.288700  0.952000  1.0  -0.7395
  O  O147  1  0.363520  0.461500  0.598200  1.0  -0.7221
  O  O148  1  0.371070  0.182370  0.984900  1.0  -0.64
  O  O149  1  0.424090  0.452460  0.420100  1.0  -0.6402
  O  O150  1  0.617680  0.448300  0.935300  1.0  -0.6506
  O  O151  1  0.557210  0.469100  0.106700  1.0  -0.637
  O  O152  1  0.444490  0.331300  0.272000  1.0  -0.4178
  O  O153  1  0.217220  0.581310  0.338400  1.0  -0.7353
  O  O154  1  0.218210  0.664330  0.160000  1.0  -0.7187
  O  O155  1  0.171510  0.711670  0.442300  1.0  -0.7316
  O  O156  1  0.042960  0.650200  0.223600  1.0  -0.7313
  O  O157  1  0.132340  0.736800  0.664400  1.0  -0.7109
  O  O158  1  0.087110  0.711300  0.452000  1.0  -0.738
  O  O159  1  0.136480  0.538500  0.098200  1.0  -0.7229
  O  O160  1  0.128930  0.817630  0.484900  1.0  -0.6406
  O  O161  1  0.075910  0.547540  0.920100  1.0  -0.6399
  O  O162  1  0.882320  0.551700  0.435300  1.0  -0.6491
  O  O163  1  0.942790  0.530900  0.606700  1.0  -0.6365
  O  O164  1  0.055510  0.668700  0.772000  1.0  -0.4171
  O  O165  1  0.717220  0.081310  0.338400  1.0  -0.7353
  O  O166  1  0.718210  0.164330  0.160000  1.0  -0.7187
  O  O167  1  0.671510  0.211670  0.442300  1.0  -0.7316
  O  O168  1  0.542960  0.150200  0.223600  1.0  -0.7313
  O  O169  1  0.632340  0.236800  0.664400  1.0  -0.7109
  O  O170  1  0.587110  0.211300  0.452000  1.0  -0.738
  O  O171  1  0.636480  0.038500  0.098200  1.0  -0.7229
  O  O172  1  0.628930  0.317630  0.484900  1.0  -0.6406
  O  O173  1  0.575910  0.047540  0.920100  1.0  -0.6399
  O  O174  1  0.382320  0.051700  0.435300  1.0  -0.6491
  O  O175  1  0.442790  0.030900  0.606700  1.0  -0.6365
  O  O176  1  0.555510  0.168700  0.772000  1.0  -0.4171
  O  O177  1  0.782780  0.581310  0.338400  1.0  -0.7353
  O  O178  1  0.781790  0.664330  0.160000  1.0  -0.7195
  O  O179  1  0.828490  0.711670  0.442300  1.0  -0.7284
  O  O180  1  0.957040  0.650200  0.223600  1.0  -0.7323
  O  O181  1  0.867660  0.736800  0.664400  1.0  -0.711
  O  O182  1  0.912890  0.711300  0.452000  1.0  -0.7399
  O  O183  1  0.863520  0.538500  0.098200  1.0  -0.7216
  O  O184  1  0.871070  0.817630  0.484900  1.0  -0.6416
  O  O185  1  0.924090  0.547540  0.920100  1.0  -0.6398
  O  O186  1  0.117680  0.551700  0.435300  1.0  -0.6507
  O  O187  1  0.057210  0.530900  0.606700  1.0  -0.637
  O  O188  1  0.944490  0.668700  0.772000  1.0  -0.4176
  O  O189  1  0.282780  0.081310  0.338400  1.0  -0.7353
  O  O190  1  0.281790  0.164330  0.160000  1.0  -0.7195
  O  O191  1  0.328490  0.211670  0.442300  1.0  -0.7284
  O  O192  1  0.457040  0.150200  0.223600  1.0  -0.7323
  O  O193  1  0.367660  0.236800  0.664400  1.0  -0.711
  O  O194  1  0.412890  0.211300  0.452000  1.0  -0.7399
  O  O195  1  0.363520  0.038500  0.098200  1.0  -0.7216
  O  O196  1  0.371070  0.317630  0.484900  1.0  -0.6416
  O  O197  1  0.424090  0.047540  0.920100  1.0  -0.6398
  O  O198  1  0.617680  0.051700  0.435300  1.0  -0.6507
  O  O199  1  0.557210  0.030900  0.606700  1.0  -0.637
  O  O200  1  0.444490  0.168700  0.772000  1.0  -0.4176
  O  O201  1  0.217220  0.918690  0.838400  1.0  -0.7339
  O  O202  1  0.218210  0.835670  0.660000  1.0  -0.7189
  O  O203  1  0.171510  0.788330  0.942300  1.0  -0.7311
  O  O204  1  0.042960  0.849800  0.723600  1.0  -0.7316
  O  O205  1  0.132340  0.763200  0.164400  1.0  -0.7112
  O  O206  1  0.087110  0.788700  0.952000  1.0  -0.7377
  O  O207  1  0.136480  0.961500  0.598200  1.0  -0.7233
  O  O208  1  0.128930  0.682370  0.984900  1.0  -0.6393
  O  O209  1  0.075910  0.952460  0.420100  1.0  -0.6398
  O  O210  1  0.882320  0.948300  0.935300  1.0  -0.6491
  O  O211  1  0.942790  0.969100  0.106700  1.0  -0.6368
  O  O212  1  0.055510  0.831300  0.272000  1.0  -0.4172
  O  O213  1  0.717220  0.418690  0.838400  1.0  -0.7339
  O  O214  1  0.718210  0.335670  0.660000  1.0  -0.7189
  O  O215  1  0.671510  0.288330  0.942300  1.0  -0.7311
  O  O216  1  0.542960  0.349800  0.723600  1.0  -0.7316
  O  O217  1  0.632340  0.263200  0.164400  1.0  -0.7112
  O  O218  1  0.587110  0.288700  0.952000  1.0  -0.7377
  O  O219  1  0.636480  0.461500  0.598200  1.0  -0.7233
  O  O220  1  0.628930  0.182370  0.984900  1.0  -0.6393
  O  O221  1  0.575910  0.452460  0.420100  1.0  -0.6398
  O  O222  1  0.382320  0.448300  0.935300  1.0  -0.6491
  O  O223  1  0.442790  0.469100  0.106700  1.0  -0.6368
  O  O224  1  0.555510  0.331300  0.272000  1.0  -0.4172
  O  O225  1  0.217220  0.081310  0.161600  1.0  -0.7345
  O  O226  1  0.218210  0.164330  0.340000  1.0  -0.7193
  O  O227  1  0.171510  0.211670  0.057700  1.0  -0.7319
  O  O228  1  0.042960  0.150200  0.276400  1.0  -0.7323
  O  O229  1  0.132340  0.236800  0.835600  1.0  -0.7115
  O  O230  1  0.087110  0.211300  0.048000  1.0  -0.7369
  O  O231  1  0.136480  0.038500  0.401800  1.0  -0.7231
  O  O232  1  0.128930  0.317630  0.015100  1.0  -0.6418
  O  O233  1  0.075910  0.047540  0.579900  1.0  -0.6398
  O  O234  1  0.882320  0.051700  0.064700  1.0  -0.6499
  O  O235  1  0.942790  0.030900  0.893300  1.0  -0.6386
  O  O236  1  0.055510  0.168700  0.728000  1.0  -0.4175
  O  O237  1  0.717220  0.581310  0.161600  1.0  -0.7345
  O  O238  1  0.718210  0.664330  0.340000  1.0  -0.7193
  O  O239  1  0.671510  0.711670  0.057700  1.0  -0.7319
  O  O240  1  0.542960  0.650200  0.276400  1.0  -0.7323
  O  O241  1  0.632340  0.736800  0.835600  1.0  -0.7115
  O  O242  1  0.587110  0.711300  0.048000  1.0  -0.7369
  O  O243  1  0.636480  0.538500  0.401800  1.0  -0.7231
  O  O244  1  0.628930  0.817630  0.015100  1.0  -0.6418
  O  O245  1  0.575910  0.547540  0.579900  1.0  -0.6398
  O  O246  1  0.382320  0.551700  0.064700  1.0  -0.6499
  O  O247  1  0.442790  0.530900  0.893300  1.0  -0.6386
  O  O248  1  0.555510  0.668700  0.728000  1.0  -0.4175
  O  O249  1  0.782780  0.418690  0.661600  1.0  -0.7354
  O  O250  1  0.781790  0.335670  0.840000  1.0  -0.72
  O  O251  1  0.828490  0.288330  0.557700  1.0  -0.7283
  O  O252  1  0.957040  0.349800  0.776400  1.0  -0.7339
  O  O253  1  0.867660  0.263200  0.335600  1.0  -0.7121
  O  O254  1  0.912890  0.288700  0.548000  1.0  -0.7383
  O  O255  1  0.863520  0.461500  0.901800  1.0  -0.7234
  O  O256  1  0.871070  0.182370  0.515100  1.0  -0.6407
  O  O257  1  0.924090  0.452460  0.079900  1.0  -0.6402
  O  O258  1  0.117680  0.448300  0.564700  1.0  -0.651
  O  O259  1  0.057210  0.469100  0.393300  1.0  -0.6393
  O  O260  1  0.944490  0.331300  0.228000  1.0  -0.4182
  O  O261  1  0.282780  0.918690  0.661600  1.0  -0.7354
  O  O262  1  0.281790  0.835670  0.840000  1.0  -0.72
  O  O263  1  0.328490  0.788330  0.557700  1.0  -0.7283
  O  O264  1  0.457040  0.849800  0.776400  1.0  -0.7339
  O  O265  1  0.367660  0.763200  0.335600  1.0  -0.7121
  O  O266  1  0.412890  0.788700  0.548000  1.0  -0.7383
  O  O267  1  0.363520  0.961500  0.901800  1.0  -0.7234
  O  O268  1  0.371070  0.682370  0.515100  1.0  -0.6407
  O  O269  1  0.424090  0.952460  0.079900  1.0  -0.6402
  O  O270  1  0.617680  0.948300  0.564700  1.0  -0.651
  O  O271  1  0.557210  0.969100  0.393300  1.0  -0.6393
  O  O272  1  0.444490  0.831300  0.228000  1.0  -0.4182
  O  O273  1  0.000000  0.352400  0.995200  1.0  -0.715
  O  O274  1  0.000000  0.448200  0.846500  1.0  -0.6396
  O  O275  1  0.000000  0.361100  0.470000  1.0  -0.4016
  O  O276  1  0.500000  0.852400  0.995200  1.0  -0.715
  O  O277  1  0.500000  0.948200  0.846500  1.0  -0.6396
  O  O278  1  0.500000  0.861100  0.470000  1.0  -0.4016
  O  O279  1  0.000000  0.147600  0.495200  1.0  -0.7157
  O  O280  1  0.000000  0.051800  0.346500  1.0  -0.6406
  O  O281  1  0.000000  0.138900  0.970000  1.0  -0.4017
  O  O282  1  0.500000  0.647600  0.495200  1.0  -0.7157
  O  O283  1  0.500000  0.551800  0.346500  1.0  -0.6406
  O  O284  1  0.500000  0.638900  0.970000  1.0  -0.4017
  O  O285  1  0.000000  0.852400  0.504800  1.0  -0.716
  O  O286  1  0.000000  0.948200  0.653500  1.0  -0.64
  O  O287  1  0.000000  0.861100  0.030000  1.0  -0.402
  O  O288  1  0.500000  0.352400  0.504800  1.0  -0.716
  O  O289  1  0.500000  0.448200  0.653500  1.0  -0.64
  O  O290  1  0.500000  0.361100  0.030000  1.0  -0.402
  O  O291  1  0.000000  0.647600  0.004800  1.0  -0.7154
  O  O292  1  0.000000  0.551800  0.153500  1.0  -0.6403
  O  O293  1  0.000000  0.638900  0.530000  1.0  -0.4021
  O  O294  1  0.500000  0.147600  0.004800  1.0  -0.7154
  O  O295  1  0.500000  0.051800  0.153500  1.0  -0.6403
  O  O296  1  0.500000  0.138900  0.530000  1.0  -0.4021
