# generated using pymatgen
data_Cu5H14(CO)24
_symmetry_space_group_name_H-M   'P 1'
_cell_length_a   8.39710000
_cell_length_b   9.52570000
_cell_length_c   27.13000000
_cell_angle_alpha   83.10700000
_cell_angle_beta   81.09730000
_cell_angle_gamma   63.84760000
_symmetry_Int_Tables_number   1
_chemical_formula_structural   Cu5H14(CO)24
_chemical_formula_sum   'Cu10 H28 C48 O48'
_cell_volume   1921.16511444
_cell_formula_units_Z   2
loop_
 _symmetry_equiv_pos_site_id
 _symmetry_equiv_pos_as_xyz
  1  'x, y, z'
loop_
 _atom_site_type_symbol
 _atom_site_label
 _atom_site_symmetry_multiplicity
 _atom_site_fract_x
 _atom_site_fract_y
 _atom_site_fract_z
 _atom_site_occupancy
 _atom_site_charge
  Cu  Cu1  1  0.393960  0.864470  0.775590  1.0  0.9513
  Cu  Cu2  1  0.047210  0.289260  0.581820  1.0  1.0024
  Cu  Cu3  1  0.034020  0.635530  0.724410  1.0  0.9552
  Cu  Cu4  1  0.918290  0.210740  0.918180  1.0  1.0041
  Cu  Cu5  1  0.606040  0.135530  0.224410  1.0  0.9542
  Cu  Cu6  1  0.952790  0.710740  0.418180  1.0  1.0053
  Cu  Cu7  1  0.965980  0.364470  0.275590  1.0  0.9503
  Cu  Cu8  1  0.081710  0.789260  0.081820  1.0  1.0035
  Cu  Cu9  1  0.737890  0.250000  0.750000  1.0  0.7326
  Cu  Cu10  1  0.262110  0.750000  0.250000  1.0  0.7318
  H  H11  1  0.463300  0.697200  0.691400  1.0  0.1088
  H  H12  1  0.531200  0.595900  0.617700  1.0  0.1399
  H  H13  1  0.756000  0.558600  0.558000  1.0  0.107
  H  H14  1  0.520400  0.785300  0.549100  1.0  0.1323
  H  H15  1  0.442200  0.017700  0.577700  1.0  0.1049
  H  H16  1  0.347600  0.860200  0.627400  1.0  0.1304
  H  H17  1  0.708900  0.062100  0.549700  1.0  0.4113
  H  H18  1  0.851900  0.802800  0.808600  1.0  0.1066
  H  H19  1  0.744800  0.904100  0.882300  1.0  0.1407
  H  H20  1  0.872600  0.941400  0.942000  1.0  0.1081
  H  H21  1  0.854800  0.714700  0.950900  1.0  0.1301
  H  H22  1  0.037600  0.482300  0.922300  1.0  0.1056
  H  H23  1  0.835200  0.639800  0.872600  1.0  0.131
  H  H24  1  0.320700  0.437900  0.950300  1.0  0.4123
  H  H25  1  0.536700  0.302800  0.308600  1.0  0.109
  H  H26  1  0.468800  0.404100  0.382300  1.0  0.1407
  H  H27  1  0.244000  0.441400  0.442000  1.0  0.1064
  H  H28  1  0.479600  0.214700  0.450900  1.0  0.1311
  H  H29  1  0.557800  0.982300  0.422300  1.0  0.1047
  H  H30  1  0.652400  0.139800  0.372600  1.0  0.1322
  H  H31  1  0.291100  0.937900  0.450300  1.0  0.4108
  H  H32  1  0.148100  0.197200  0.191400  1.0  0.1056
  H  H33  1  0.255200  0.095900  0.117700  1.0  0.1421
  H  H34  1  0.127400  0.058600  0.058000  1.0  0.1084
  H  H35  1  0.145200  0.285300  0.049100  1.0  0.1397
  H  H36  1  0.962400  0.517700  0.077700  1.0  0.1047
  H  H37  1  0.164800  0.360200  0.127400  1.0  0.1329
  H  H38  1  0.679300  0.562100  0.049700  1.0  0.41
  C  C39  1  0.548240  0.725770  0.668550  1.0  -0.1664
  C  C40  1  0.633840  0.598670  0.629850  1.0  -0.1508
  C  C41  1  0.738980  0.635000  0.581840  1.0  -0.1782
  C  C42  1  0.621400  0.797430  0.558570  1.0  -0.1384
  C  C43  1  0.534490  0.931090  0.595130  1.0  -0.1686
  C  C44  1  0.434170  0.882680  0.641380  1.0  -0.1656
  C  C45  1  0.684800  0.721910  0.700890  1.0  0.7084
  C  C46  1  0.725810  0.437260  0.655920  1.0  0.7297
  C  C47  1  0.925670  0.620140  0.586520  1.0  0.6343
  C  C48  1  0.712740  0.835470  0.509050  1.0  0.6688
  C  C49  1  0.647650  0.000630  0.611870  1.0  0.6709
  C  C50  1  0.317550  0.022820  0.672880  1.0  0.6842
  C  C51  1  0.942560  0.774230  0.831450  1.0  -0.1657
  C  C52  1  0.862360  0.901330  0.870150  1.0  -0.1517
  C  C53  1  0.955820  0.865000  0.918160  1.0  -0.1759
  C  C54  1  0.977400  0.702570  0.941430  1.0  -0.1378
  C  C55  1  0.060710  0.568910  0.904870  1.0  -0.1694
  C  C56  1  0.958230  0.617320  0.858620  1.0  -0.1643
  C  C57  1  0.107600  0.778090  0.799110  1.0  0.7018
  C  C58  1  0.818990  0.062740  0.844080  1.0  0.7291
  C  C59  1  0.132330  0.879860  0.913480  1.0  0.632
  C  C60  1  0.057260  0.664530  0.990950  1.0  0.6704
  C  C61  1  0.260150  0.499370  0.888130  1.0  0.6721
  C  C62  1  0.013250  0.477180  0.827120  1.0  0.688
  C  C63  1  0.451760  0.274230  0.331450  1.0  -0.1664
  C  C64  1  0.366160  0.401330  0.370150  1.0  -0.1518
  C  C65  1  0.261020  0.365000  0.418160  1.0  -0.1773
  C  C66  1  0.378600  0.202570  0.441430  1.0  -0.1373
  C  C67  1  0.465510  0.068910  0.404870  1.0  -0.1688
  C  C68  1  0.565830  0.117320  0.358620  1.0  -0.1658
  C  C69  1  0.315200  0.278090  0.299110  1.0  0.7091
  C  C70  1  0.274190  0.562740  0.344080  1.0  0.729
  C  C71  1  0.074330  0.379860  0.413480  1.0  0.6307
  C  C72  1  0.287260  0.164530  0.490950  1.0  0.668
  C  C73  1  0.352350  0.999370  0.388130  1.0  0.6679
  C  C74  1  0.682450  0.977180  0.327120  1.0  0.6853
  C  C75  1  0.057440  0.225770  0.168550  1.0  -0.1656
  C  C76  1  0.137640  0.098670  0.129850  1.0  -0.1518
  C  C77  1  0.044180  0.135000  0.081840  1.0  -0.1769
  C  C78  1  0.022600  0.297430  0.058570  1.0  -0.1387
  C  C79  1  0.939290  0.431090  0.095130  1.0  -0.1683
  C  C80  1  0.041770  0.382680  0.141380  1.0  -0.1628
  C  C81  1  0.892400  0.221910  0.200890  1.0  0.7038
  C  C82  1  0.181010  0.937260  0.155920  1.0  0.7288
  C  C83  1  0.867670  0.120140  0.086520  1.0  0.6297
  C  C84  1  0.942740  0.335470  0.009050  1.0  0.6709
  C  C85  1  0.739850  0.500630  0.111870  1.0  0.6674
  C  C86  1  0.986750  0.522820  0.172880  1.0  0.6868
  O  O87  1  0.633230  0.792770  0.740970  1.0  -0.6045
  O  O88  1  0.847930  0.639180  0.687360  1.0  -0.5493
  O  O89  1  0.659850  0.422340  0.699360  1.0  -0.5502
  O  O90  1  0.850160  0.324080  0.633000  1.0  -0.6076
  O  O91  1  0.054850  0.483210  0.589490  1.0  -0.5031
  O  O92  1  0.948750  0.740880  0.584020  1.0  -0.4697
  O  O93  1  0.786040  0.727400  0.479120  1.0  -0.5863
  O  O94  1  0.706430  0.970700  0.499240  1.0  -0.5634
  O  O95  1  0.711370  0.081790  0.578070  1.0  -0.5281
  O  O96  1  0.663190  0.998380  0.655640  1.0  -0.509
  O  O97  1  0.248670  0.154300  0.650160  1.0  -0.5379
  O  O98  1  0.280790  0.003580  0.720040  1.0  -0.584
  O  O99  1  0.166970  0.707230  0.759030  1.0  -0.603
  O  O100  1  0.174470  0.860820  0.812640  1.0  -0.5488
  O  O101  1  0.781550  0.077660  0.800640  1.0  -0.5489
  O  O102  1  0.807240  0.175920  0.867000  1.0  -0.6084
  O  O103  1  0.127550  0.016790  0.910510  1.0  -0.5055
  O  O104  1  0.273650  0.759120  0.915980  1.0  -0.4696
  O  O105  1  0.992560  0.772600  0.020880  1.0  -0.5844
  O  O106  1  0.176370  0.529300  0.000760  1.0  -0.5689
  O  O107  1  0.371230  0.418210  0.921930  1.0  -0.5265
  O  O108  1  0.317210  0.501620  0.844360  1.0  -0.5086
  O  O109  1  0.053130  0.345700  0.849840  1.0  -0.5369
  O  O110  1  0.004410  0.496420  0.779960  1.0  -0.5736
  O  O111  1  0.366770  0.207230  0.259030  1.0  -0.6019
  O  O112  1  0.152070  0.360820  0.312640  1.0  -0.5508
  O  O113  1  0.340150  0.577660  0.300640  1.0  -0.5524
  O  O114  1  0.149840  0.675920  0.367000  1.0  -0.6083
  O  O115  1  0.945150  0.516790  0.410510  1.0  -0.5056
  O  O116  1  0.051250  0.259120  0.415980  1.0  -0.466
  O  O117  1  0.213960  0.272600  0.520880  1.0  -0.5862
  O  O118  1  0.293570  0.029300  0.500760  1.0  -0.5628
  O  O119  1  0.288630  0.918210  0.421930  1.0  -0.5267
  O  O120  1  0.336810  0.001620  0.344360  1.0  -0.5007
  O  O121  1  0.751330  0.845700  0.349840  1.0  -0.5385
  O  O122  1  0.719210  0.996420  0.279960  1.0  -0.5747
  O  O123  1  0.833030  0.292770  0.240970  1.0  -0.6043
  O  O124  1  0.825530  0.139180  0.187360  1.0  -0.5486
  O  O125  1  0.218450  0.922340  0.199360  1.0  -0.5495
  O  O126  1  0.192760  0.824080  0.133000  1.0  -0.6076
  O  O127  1  0.872450  0.983210  0.089490  1.0  -0.5041
  O  O128  1  0.726350  0.240880  0.084020  1.0  -0.4675
  O  O129  1  0.007440  0.227400  0.979120  1.0  -0.5851
  O  O130  1  0.823630  0.470700  0.999240  1.0  -0.5648
  O  O131  1  0.628770  0.581790  0.078070  1.0  -0.5279
  O  O132  1  0.682790  0.498380  0.155640  1.0  -0.5086
  O  O133  1  0.946870  0.654300  0.150160  1.0  -0.5383
  O  O134  1  0.995590  0.503580  0.220040  1.0  -0.5836
