# generated using pymatgen
data_Co5H12C20S2(N3O8)2
_symmetry_space_group_name_H-M   'P 1'
_cell_length_a   9.48100000
_cell_length_b   15.12600000
_cell_length_c   15.23200000
_cell_angle_alpha   64.81500000
_cell_angle_beta   78.71700000
_cell_angle_gamma   78.97700000
_symmetry_Int_Tables_number   1
_chemical_formula_structural   Co5H12C20S2(N3O8)2
_chemical_formula_sum   'Co10 H24 C40 S4 N12 O32'
_cell_volume   1924.16234952
_cell_formula_units_Z   2
loop_
 _symmetry_equiv_pos_site_id
 _symmetry_equiv_pos_as_xyz
  1  'x, y, z'
loop_
 _atom_site_type_symbol
 _atom_site_label
 _atom_site_symmetry_multiplicity
 _atom_site_fract_x
 _atom_site_fract_y
 _atom_site_fract_z
 _atom_site_occupancy
 _atom_site_charge
  Co  Co1  1  0.089690  0.397440  0.008430  1.0  1.0531
  Co  Co2  1  0.592890  0.007260  0.398880  1.0  1.1092
  Co  Co3  1  0.800150  0.421100  0.185810  1.0  0.8955
  Co  Co4  1  0.298000  0.185470  0.419060  1.0  0.9314
  Co  Co5  1  0.243750  0.091280  0.907500  1.0  0.8345
  Co  Co6  1  0.910310  0.602560  0.991570  1.0  1.0554
  Co  Co7  1  0.407110  0.992740  0.601120  1.0  1.112
  Co  Co8  1  0.199850  0.578900  0.814190  1.0  0.8975
  Co  Co9  1  0.702000  0.814530  0.580940  1.0  0.9299
  Co  Co10  1  0.756250  0.908720  0.092500  1.0  0.8342
  H  H11  1  0.809200  0.445000  0.005500  1.0  0.3938
  H  H12  1  0.310800  0.002800  0.445000  1.0  0.4086
  H  H13  1  0.970300  0.256600  0.368600  1.0  0.0921
  H  H14  1  0.309900  0.268100  0.178900  1.0  0.0969
  H  H15  1  0.811100  0.178900  0.270700  1.0  0.1007
  H  H16  1  0.469700  0.369400  0.255500  1.0  0.0915
  H  H17  1  0.658900  0.472300  0.825800  1.0  0.1223
  H  H18  1  0.521300  0.240200  0.063800  1.0  0.1293
  H  H19  1  0.758100  0.170700  0.079600  1.0  0.1108
  H  H20  1  0.160300  0.827700  0.474200  1.0  0.1131
  H  H21  1  0.027400  0.059500  0.240700  1.0  0.118
  H  H22  1  0.266100  0.076300  0.172500  1.0  0.109
  H  H23  1  0.190800  0.555000  0.994500  1.0  0.391
  H  H24  1  0.689200  0.997200  0.555000  1.0  0.4045
  H  H25  1  0.029700  0.743400  0.631400  1.0  0.0922
  H  H26  1  0.690100  0.731900  0.821100  1.0  0.0963
  H  H27  1  0.188900  0.821100  0.729300  1.0  0.1006
  H  H28  1  0.530300  0.630600  0.744500  1.0  0.0919
  H  H29  1  0.341100  0.527700  0.174200  1.0  0.1229
  H  H30  1  0.478700  0.759800  0.936200  1.0  0.1291
  H  H31  1  0.241900  0.829300  0.920400  1.0  0.1109
  H  H32  1  0.839700  0.172300  0.525800  1.0  0.1146
  H  H33  1  0.972600  0.940500  0.759300  1.0  0.1185
  H  H34  1  0.733900  0.923700  0.827500  1.0  0.1094
  C  C35  1  0.031400  0.271700  0.309700  1.0  0.2761
  C  C36  1  0.215300  0.278000  0.207300  1.0  0.2527
  C  C37  1  0.716300  0.207500  0.279000  1.0  0.2515
  C  C38  1  0.531500  0.310600  0.270900  1.0  0.2432
  C  C39  1  0.853600  0.279000  0.964400  1.0  0.0066
  C  C40  1  0.822100  0.370300  0.890600  1.0  -0.1183
  C  C41  1  0.678700  0.412200  0.877600  1.0  0.0052
  C  C42  1  0.565700  0.363200  0.942900  1.0  -0.134
  C  C43  1  0.596100  0.272700  0.019400  1.0  -0.0443
  C  C44  1  0.738400  0.231600  0.028900  1.0  -0.0814
  C  C45  1  0.003300  0.226000  0.973500  1.0  0.7033
  C  C46  1  0.409800  0.406600  0.926500  1.0  0.6786
  C  C47  1  0.359100  0.960600  0.279300  1.0  -0.0211
  C  C48  1  0.325500  0.887300  0.372600  1.0  -0.1687
  C  C49  1  0.181600  0.877800  0.413200  1.0  0.0188
  C  C50  1  0.069500  0.941300  0.364700  1.0  -0.149
  C  C51  1  0.101600  0.015900  0.274000  1.0  -0.0373
  C  C52  1  0.245500  0.025100  0.233000  1.0  -0.0782
  C  C53  1  0.512300  0.973800  0.229300  1.0  0.7024
  C  C54  1  0.914300  0.926400  0.407900  1.0  0.6865
  C  C55  1  0.968600  0.728300  0.690300  1.0  0.2762
  C  C56  1  0.784700  0.722000  0.792700  1.0  0.2521
  C  C57  1  0.283700  0.792500  0.721000  1.0  0.2501
  C  C58  1  0.468500  0.689400  0.729100  1.0  0.2426
  C  C59  1  0.146400  0.721000  0.035600  1.0  0.0076
  C  C60  1  0.177900  0.629700  0.109400  1.0  -0.1151
  C  C61  1  0.321300  0.587800  0.122400  1.0  0.0066
  C  C62  1  0.434300  0.636800  0.057100  1.0  -0.1342
  C  C63  1  0.403900  0.727300  0.980600  1.0  -0.0461
  C  C64  1  0.261600  0.768400  0.971100  1.0  -0.0823
  C  C65  1  0.996700  0.774000  0.026500  1.0  0.7013
  C  C66  1  0.590200  0.593400  0.073500  1.0  0.6793
  C  C67  1  0.640900  0.039400  0.720700  1.0  -0.0175
  C  C68  1  0.674500  0.112700  0.627400  1.0  -0.1687
  C  C69  1  0.818400  0.122200  0.586800  1.0  0.0193
  C  C70  1  0.930500  0.058700  0.635300  1.0  -0.1487
  C  C71  1  0.898400  0.984100  0.726000  1.0  -0.0404
  C  C72  1  0.754500  0.974900  0.767000  1.0  -0.0789
  C  C73  1  0.487700  0.026200  0.770700  1.0  0.7009
  C  C74  1  0.085700  0.073600  0.592100  1.0  0.6867
  S  S75  1  0.959500  0.433600  0.800130  1.0  1.3718
  S  S76  1  0.464100  0.797700  0.435380  1.0  1.3608
  S  S77  1  0.040500  0.566400  0.199870  1.0  1.3757
  S  S78  1  0.535900  0.202300  0.564620  1.0  1.3641
  N  N79  1  0.108400  0.331900  0.156800  1.0  -0.2384
  N  N80  1  0.986800  0.327000  0.224500  1.0  -0.2556
  N  N81  1  0.172900  0.239100  0.304100  1.0  -0.4082
  N  N82  1  0.488700  0.223800  0.326200  1.0  -0.2138
  N  N83  1  0.606800  0.155900  0.332100  1.0  -0.2695
  N  N84  1  0.675200  0.305500  0.238800  1.0  -0.4239
  N  N85  1  0.891600  0.668100  0.843200  1.0  -0.239
  N  N86  1  0.013200  0.673000  0.775500  1.0  -0.2561
  N  N87  1  0.827100  0.760900  0.695900  1.0  -0.4066
  N  N88  1  0.511300  0.776200  0.673800  1.0  -0.2131
  N  N89  1  0.393200  0.844100  0.667900  1.0  -0.2706
  N  N90  1  0.324800  0.694500  0.761200  1.0  -0.423
  O  O91  1  0.088200  0.258500  0.005600  1.0  -0.5976
  O  O92  1  0.033700  0.153400  0.953400  1.0  -0.5744
  O  O93  1  0.033500  0.365900  0.757100  1.0  -0.6354
  O  O94  1  0.055100  0.454700  0.852600  1.0  -0.8224
  O  O95  1  0.889600  0.521700  0.732200  1.0  -0.538
  O  O96  1  0.388600  0.484900  0.854400  1.0  -0.5943
  O  O97  1  0.313700  0.357300  0.987800  1.0  -0.6047
  O  O98  1  0.545900  0.953700  0.153900  1.0  -0.643
  O  O99  1  0.594800  0.003700  0.262100  1.0  -0.5814
  O  O100  1  0.556700  0.852900  0.456500  1.0  -0.8285
  O  O101  1  0.541400  0.755400  0.367900  1.0  -0.6426
  O  O102  1  0.392800  0.728600  0.522500  1.0  -0.5347
  O  O103  1  0.892700  0.854000  0.487500  1.0  -0.5935
  O  O104  1  0.818100  0.987600  0.359400  1.0  -0.6088
  O  O105  1  0.877500  0.454100  0.040800  1.0  -0.9141
  O  O106  1  0.377700  0.039600  0.453600  1.0  -0.913
  O  O107  1  0.911800  0.741500  0.994400  1.0  -0.5978
  O  O108  1  0.966300  0.846600  0.046600  1.0  -0.5709
  O  O109  1  0.966500  0.634100  0.242900  1.0  -0.6338
  O  O110  1  0.944900  0.545300  0.147400  1.0  -0.8219
  O  O111  1  0.110400  0.478300  0.267800  1.0  -0.5374
  O  O112  1  0.611400  0.515100  0.145600  1.0  -0.5968
  O  O113  1  0.686300  0.642700  0.012200  1.0  -0.6059
  O  O114  1  0.454100  0.046300  0.846100  1.0  -0.6434
  O  O115  1  0.405200  0.996300  0.737900  1.0  -0.5832
  O  O116  1  0.443300  0.147100  0.543500  1.0  -0.8297
  O  O117  1  0.458600  0.244600  0.632100  1.0  -0.6465
  O  O118  1  0.607200  0.271400  0.477500  1.0  -0.5352
  O  O119  1  0.107300  0.146000  0.512500  1.0  -0.5942
  O  O120  1  0.181900  0.012400  0.640600  1.0  -0.6097
  O  O121  1  0.122500  0.545900  0.959200  1.0  -0.9145
  O  O122  1  0.622300  0.960400  0.546400  1.0  -0.9112
