# generated using pymatgen
data_Co4H39C63SN12O10F3
_symmetry_space_group_name_H-M   'P 1'
_cell_length_a   23.77730000
_cell_length_b   23.77730000
_cell_length_c   23.77730000
_cell_angle_alpha   90.00000000
_cell_angle_beta   90.00000000
_cell_angle_gamma   90.00000000
_symmetry_Int_Tables_number   1
_chemical_formula_structural   Co4H39C63SN12O10F3
_chemical_formula_sum   'Co16 H156 C252 S4 N48 O40 F12'
_cell_volume   13442.73421601
_cell_formula_units_Z   4
loop_
 _symmetry_equiv_pos_site_id
 _symmetry_equiv_pos_as_xyz
  1  'x, y, z'
loop_
 _atom_site_type_symbol
 _atom_site_label
 _atom_site_symmetry_multiplicity
 _atom_site_fract_x
 _atom_site_fract_y
 _atom_site_fract_z
 _atom_site_occupancy
 _atom_site_charge
  Co  Co1  1  0.006600  0.559860  0.865870  1.0  1.0358
  Co  Co2  1  0.493400  0.440140  0.365870  1.0  1.0352
  Co  Co3  1  0.993400  0.059860  0.634130  1.0  1.0351
  Co  Co4  1  0.506600  0.940140  0.134130  1.0  1.0358
  Co  Co5  1  0.865870  0.006600  0.559860  1.0  1.0362
  Co  Co6  1  0.365870  0.493400  0.440140  1.0  1.0364
  Co  Co7  1  0.634130  0.993400  0.059860  1.0  1.0353
  Co  Co8  1  0.134130  0.506600  0.940140  1.0  1.035
  Co  Co9  1  0.559860  0.865870  0.006600  1.0  1.036
  Co  Co10  1  0.440140  0.365870  0.493400  1.0  1.0358
  Co  Co11  1  0.059860  0.634130  0.993400  1.0  1.0357
  Co  Co12  1  0.940140  0.134130  0.506600  1.0  1.0363
  Co  Co13  1  0.011270  0.511270  0.988730  1.0  0.8899
  Co  Co14  1  0.488730  0.488730  0.488730  1.0  0.8866
  Co  Co15  1  0.988730  0.011270  0.511270  1.0  0.8862
  Co  Co16  1  0.511270  0.988730  0.011270  1.0  0.8916
  H  H17  1  0.839600  0.432900  0.982000  1.0  0.1045
  H  H18  1  0.754200  0.391200  0.961600  1.0  0.1144
  H  H19  1  0.772500  0.435300  0.799500  1.0  0.1089
  H  H20  1  0.858400  0.476400  0.820500  1.0  0.1047
  H  H21  1  0.680600  0.425500  0.796000  1.0  0.1072
  H  H22  1  0.962800  0.472200  0.782700  1.0  0.0772
  H  H23  1  0.988100  0.423700  0.702900  1.0  0.1138
  H  H24  1  0.132300  0.508000  0.702600  1.0  0.1193
  H  H25  1  0.100200  0.557200  0.779600  1.0  0.0772
  H  H26  1  0.988000  0.653300  0.773700  1.0  0.0878
  H  H27  1  0.932000  0.730300  0.758100  1.0  0.1272
  H  H28  1  0.838900  0.683700  0.891300  1.0  0.1212
  H  H29  1  0.897300  0.608100  0.903200  1.0  0.0901
  H  H30  1  0.660400  0.567100  0.482000  1.0  0.1039
  H  H31  1  0.745800  0.608800  0.461600  1.0  0.1146
  H  H32  1  0.727500  0.564700  0.299500  1.0  0.1085
  H  H33  1  0.641600  0.523600  0.320500  1.0  0.105
  H  H34  1  0.819400  0.574500  0.296000  1.0  0.108
  H  H35  1  0.537200  0.527800  0.282700  1.0  0.0785
  H  H36  1  0.511900  0.576300  0.202900  1.0  0.1137
  H  H37  1  0.367700  0.492000  0.202600  1.0  0.12
  H  H38  1  0.399800  0.442800  0.279600  1.0  0.0773
  H  H39  1  0.512000  0.346700  0.273700  1.0  0.0885
  H  H40  1  0.568000  0.269700  0.258100  1.0  0.127
  H  H41  1  0.661100  0.316300  0.391300  1.0  0.1209
  H  H42  1  0.602700  0.391900  0.403200  1.0  0.0897
  H  H43  1  0.160400  0.932900  0.518000  1.0  0.1038
  H  H44  1  0.245800  0.891200  0.538400  1.0  0.114
  H  H45  1  0.227500  0.935300  0.700500  1.0  0.109
  H  H46  1  0.141600  0.976400  0.679500  1.0  0.1052
  H  H47  1  0.319400  0.925500  0.704000  1.0  0.1076
  H  H48  1  0.037200  0.972200  0.717300  1.0  0.0781
  H  H49  1  0.011900  0.923700  0.797100  1.0  0.1141
  H  H50  1  0.867700  0.008000  0.797400  1.0  0.1204
  H  H51  1  0.899800  0.057200  0.720400  1.0  0.0775
  H  H52  1  0.012000  0.153300  0.726300  1.0  0.0885
  H  H53  1  0.068000  0.230300  0.741900  1.0  0.1266
  H  H54  1  0.161100  0.183700  0.608700  1.0  0.1214
  H  H55  1  0.102700  0.108100  0.596800  1.0  0.0907
  H  H56  1  0.339600  0.067100  0.018000  1.0  0.1042
  H  H57  1  0.254200  0.108800  0.038400  1.0  0.1156
  H  H58  1  0.272500  0.064700  0.200500  1.0  0.1093
  H  H59  1  0.358400  0.023600  0.179500  1.0  0.1056
  H  H60  1  0.180600  0.074500  0.204000  1.0  0.1079
  H  H61  1  0.462800  0.027800  0.217300  1.0  0.0777
  H  H62  1  0.488100  0.076300  0.297100  1.0  0.1141
  H  H63  1  0.632300  0.992000  0.297400  1.0  0.1194
  H  H64  1  0.600200  0.942800  0.220400  1.0  0.0781
  H  H65  1  0.488000  0.846700  0.226300  1.0  0.0885
  H  H66  1  0.432000  0.769700  0.241900  1.0  0.1262
  H  H67  1  0.338900  0.816300  0.108700  1.0  0.1208
  H  H68  1  0.397300  0.891900  0.096800  1.0  0.0902
  H  H69  1  0.982000  0.839600  0.432900  1.0  0.1049
  H  H70  1  0.961600  0.754200  0.391200  1.0  0.1122
  H  H71  1  0.799500  0.772500  0.435300  1.0  0.1068
  H  H72  1  0.820500  0.858400  0.476400  1.0  0.1038
  H  H73  1  0.796000  0.680600  0.425500  1.0  0.1085
  H  H74  1  0.782700  0.962800  0.472200  1.0  0.0793
  H  H75  1  0.702900  0.988100  0.423700  1.0  0.1136
  H  H76  1  0.702600  0.132300  0.508000  1.0  0.1204
  H  H77  1  0.779600  0.100200  0.557200  1.0  0.0772
  H  H78  1  0.773700  0.988000  0.653300  1.0  0.0884
  H  H79  1  0.758100  0.932000  0.730300  1.0  0.1259
  H  H80  1  0.891300  0.838900  0.683700  1.0  0.1213
  H  H81  1  0.903200  0.897300  0.608100  1.0  0.0887
  H  H82  1  0.482000  0.660400  0.567100  1.0  0.1049
  H  H83  1  0.461600  0.745800  0.608800  1.0  0.1127
  H  H84  1  0.299500  0.727500  0.564700  1.0  0.107
  H  H85  1  0.320500  0.641600  0.523600  1.0  0.1045
  H  H86  1  0.296000  0.819400  0.574500  1.0  0.1084
  H  H87  1  0.282700  0.537200  0.527800  1.0  0.0791
  H  H88  1  0.202900  0.511900  0.576300  1.0  0.1137
  H  H89  1  0.202600  0.367700  0.492000  1.0  0.1202
  H  H90  1  0.279600  0.399800  0.442800  1.0  0.0768
  H  H91  1  0.273700  0.512000  0.346700  1.0  0.0877
  H  H92  1  0.258100  0.568000  0.269700  1.0  0.1259
  H  H93  1  0.391300  0.661100  0.316300  1.0  0.1214
  H  H94  1  0.403200  0.602700  0.391900  1.0  0.0877
  H  H95  1  0.518000  0.160400  0.932900  1.0  0.1045
  H  H96  1  0.538400  0.245800  0.891200  1.0  0.1131
  H  H97  1  0.700500  0.227500  0.935300  1.0  0.1071
  H  H98  1  0.679500  0.141600  0.976400  1.0  0.1042
  H  H99  1  0.704000  0.319400  0.925500  1.0  0.1083
  H  H100  1  0.717300  0.037200  0.972200  1.0  0.0793
  H  H101  1  0.797100  0.011900  0.923700  1.0  0.114
  H  H102  1  0.797400  0.867700  0.008000  1.0  0.12
  H  H103  1  0.720400  0.899800  0.057200  1.0  0.077
  H  H104  1  0.726300  0.012000  0.153300  1.0  0.0877
  H  H105  1  0.741900  0.068000  0.230300  1.0  0.1258
  H  H106  1  0.608700  0.161100  0.183700  1.0  0.1222
  H  H107  1  0.596800  0.102700  0.108100  1.0  0.0881
  H  H108  1  0.018000  0.339600  0.067100  1.0  0.1048
  H  H109  1  0.038400  0.254200  0.108800  1.0  0.1145
  H  H110  1  0.200500  0.272500  0.064700  1.0  0.107
  H  H111  1  0.179500  0.358400  0.023600  1.0  0.1044
  H  H112  1  0.204000  0.180600  0.074500  1.0  0.1081
  H  H113  1  0.217300  0.462800  0.027800  1.0  0.0791
  H  H114  1  0.297100  0.488100  0.076300  1.0  0.1138
  H  H115  1  0.297400  0.632300  0.992000  1.0  0.1198
  H  H116  1  0.220400  0.600200  0.942800  1.0  0.0772
  H  H117  1  0.226300  0.488000  0.846700  1.0  0.0878
  H  H118  1  0.241900  0.432000  0.769700  1.0  0.126
  H  H119  1  0.108700  0.338900  0.816300  1.0  0.1215
  H  H120  1  0.096800  0.397300  0.891900  1.0  0.088
  H  H121  1  0.432900  0.982000  0.839600  1.0  0.1044
  H  H122  1  0.391200  0.961600  0.754200  1.0  0.1131
  H  H123  1  0.435300  0.799500  0.772500  1.0  0.1083
  H  H124  1  0.476400  0.820500  0.858400  1.0  0.1037
  H  H125  1  0.425500  0.796000  0.680600  1.0  0.1076
  H  H126  1  0.472200  0.782700  0.962800  1.0  0.0795
  H  H127  1  0.423700  0.702900  0.988100  1.0  0.1134
  H  H128  1  0.508000  0.702600  0.132300  1.0  0.1199
  H  H129  1  0.557200  0.779600  0.100200  1.0  0.0759
  H  H130  1  0.653300  0.773700  0.988000  1.0  0.0893
  H  H131  1  0.730300  0.758100  0.932000  1.0  0.1269
  H  H132  1  0.683700  0.891300  0.838900  1.0  0.1207
  H  H133  1  0.608100  0.903200  0.897300  1.0  0.0904
  H  H134  1  0.567100  0.482000  0.660400  1.0  0.1046
  H  H135  1  0.608800  0.461600  0.745800  1.0  0.1131
  H  H136  1  0.564700  0.299500  0.727500  1.0  0.1084
  H  H137  1  0.523600  0.320500  0.641600  1.0  0.1033
  H  H138  1  0.574500  0.296000  0.819400  1.0  0.1083
  H  H139  1  0.527800  0.282700  0.537200  1.0  0.0789
  H  H140  1  0.576300  0.202900  0.511900  1.0  0.1143
  H  H141  1  0.492000  0.202600  0.367700  1.0  0.1203
  H  H142  1  0.442800  0.279600  0.399800  1.0  0.0757
  H  H143  1  0.346700  0.273700  0.512000  1.0  0.0884
  H  H144  1  0.269700  0.258100  0.568000  1.0  0.1263
  H  H145  1  0.316300  0.391300  0.661100  1.0  0.1213
  H  H146  1  0.391900  0.403200  0.602700  1.0  0.0904
  H  H147  1  0.932900  0.518000  0.160400  1.0  0.1046
  H  H148  1  0.891200  0.538400  0.245800  1.0  0.1131
  H  H149  1  0.935300  0.700500  0.227500  1.0  0.1087
  H  H150  1  0.976400  0.679500  0.141600  1.0  0.1036
  H  H151  1  0.925500  0.704000  0.319400  1.0  0.1081
  H  H152  1  0.972200  0.717300  0.037200  1.0  0.0789
  H  H153  1  0.923700  0.797100  0.011900  1.0  0.1139
  H  H154  1  0.008000  0.797400  0.867700  1.0  0.1204
  H  H155  1  0.057200  0.720400  0.899800  1.0  0.0753
  H  H156  1  0.153300  0.726300  0.012000  1.0  0.0896
  H  H157  1  0.230300  0.741900  0.068000  1.0  0.1287
  H  H158  1  0.183700  0.608700  0.161100  1.0  0.1206
  H  H159  1  0.108100  0.596800  0.102700  1.0  0.0904
  H  H160  1  0.067100  0.018000  0.339600  1.0  0.1044
  H  H161  1  0.108800  0.038400  0.254200  1.0  0.1146
  H  H162  1  0.064700  0.200500  0.272500  1.0  0.1087
  H  H163  1  0.023600  0.179500  0.358400  1.0  0.1032
  H  H164  1  0.074500  0.204000  0.180600  1.0  0.108
  H  H165  1  0.027800  0.217300  0.462800  1.0  0.0796
  H  H166  1  0.076300  0.297100  0.488100  1.0  0.1138
  H  H167  1  0.992000  0.297400  0.632300  1.0  0.1203
  H  H168  1  0.942800  0.220400  0.600200  1.0  0.0765
  H  H169  1  0.846700  0.226300  0.488000  1.0  0.0893
  H  H170  1  0.769700  0.241900  0.432000  1.0  0.1281
  H  H171  1  0.816300  0.108700  0.338900  1.0  0.1208
  H  H172  1  0.891900  0.096800  0.397300  1.0  0.0909
  C  C173  1  0.914420  0.484980  0.915490  1.0  0.6947
  C  C174  1  0.857910  0.458910  0.903270  1.0  -0.1321
  C  C175  1  0.826300  0.433300  0.945210  1.0  -0.0647
  C  C176  1  0.774700  0.408100  0.932900  1.0  -0.1493
  C  C177  1  0.753600  0.408000  0.878600  1.0  0.0371
  C  C178  1  0.785900  0.434500  0.836200  1.0  -0.1232
  C  C179  1  0.837500  0.459400  0.848900  1.0  -0.0464
  C  C180  1  0.700780  0.377900  0.863400  1.0  0.029
  C  C181  1  0.669600  0.393900  0.816400  1.0  -0.1074
  C  C182  1  0.997100  0.480400  0.765800  1.0  0.1756
  C  C183  1  0.012400  0.450200  0.718400  1.0  -0.124
  C  C184  1  0.063650  0.459920  0.694680  1.0  -0.0583
  C  C185  1  0.097000  0.500200  0.717700  1.0  -0.161
  C  C186  1  0.077300  0.529300  0.764400  1.0  0.1755
  C  C187  1  0.083370  0.427200  0.643840  1.0  0.3407
  C  C188  1  0.957790  0.659700  0.797740  1.0  0.1631
  C  C189  1  0.924090  0.705900  0.787700  1.0  -0.1321
  C  C190  1  0.878230  0.715130  0.822520  1.0  -0.1111
  C  C191  1  0.868900  0.678100  0.866800  1.0  -0.107
  C  C192  1  0.904400  0.633100  0.874000  1.0  0.1738
  C  C193  1  0.839790  0.764000  0.813120  1.0  0.4079
  C  C194  1  0.585580  0.515020  0.415490  1.0  0.696
  C  C195  1  0.642090  0.541090  0.403270  1.0  -0.132
  C  C196  1  0.673700  0.566700  0.445210  1.0  -0.0649
  C  C197  1  0.725300  0.591900  0.432900  1.0  -0.1493
  C  C198  1  0.746400  0.592000  0.378600  1.0  0.0375
  C  C199  1  0.714100  0.565500  0.336200  1.0  -0.1224
  C  C200  1  0.662500  0.540600  0.348900  1.0  -0.0459
  C  C201  1  0.799220  0.622100  0.363400  1.0  0.029
  C  C202  1  0.830400  0.606100  0.316400  1.0  -0.1092
  C  C203  1  0.502900  0.519600  0.265800  1.0  0.1751
  C  C204  1  0.487600  0.549800  0.218400  1.0  -0.1247
  C  C205  1  0.436350  0.540080  0.194680  1.0  -0.0565
  C  C206  1  0.403000  0.499800  0.217700  1.0  -0.1629
  C  C207  1  0.422700  0.470700  0.264400  1.0  0.1749
  C  C208  1  0.416630  0.572800  0.143840  1.0  0.3382
  C  C209  1  0.542210  0.340300  0.297740  1.0  0.1638
  C  C210  1  0.575910  0.294100  0.287700  1.0  -0.1314
  C  C211  1  0.621770  0.284870  0.322520  1.0  -0.11
  C  C212  1  0.631100  0.321900  0.366800  1.0  -0.1075
  C  C213  1  0.595600  0.366900  0.374000  1.0  0.1736
  C  C214  1  0.660210  0.236000  0.313120  1.0  0.4067
  C  C215  1  0.085580  0.984980  0.584510  1.0  0.6962
  C  C216  1  0.142090  0.958910  0.596730  1.0  -0.1324
  C  C217  1  0.173700  0.933300  0.554790  1.0  -0.0668
  C  C218  1  0.225300  0.908100  0.567100  1.0  -0.1489
  C  C219  1  0.246400  0.908000  0.621400  1.0  0.0374
  C  C220  1  0.214100  0.934500  0.663800  1.0  -0.1223
  C  C221  1  0.162500  0.959400  0.651100  1.0  -0.0464
  C  C222  1  0.299220  0.877900  0.636600  1.0  0.0293
  C  C223  1  0.330400  0.893900  0.683600  1.0  -0.109
  C  C224  1  0.002900  0.980400  0.734200  1.0  0.174
  C  C225  1  0.987600  0.950200  0.781600  1.0  -0.126
  C  C226  1  0.936350  0.959920  0.805320  1.0  -0.0664
  C  C227  1  0.903000  0.000200  0.782300  1.0  -0.164
  C  C228  1  0.922700  0.029300  0.735600  1.0  0.1735
  C  C229  1  0.916630  0.927200  0.856160  1.0  0.3573
  C  C230  1  0.042210  0.159700  0.702260  1.0  0.1625
  C  C231  1  0.075910  0.205900  0.712300  1.0  -0.132
  C  C232  1  0.121770  0.215130  0.677480  1.0  -0.1106
  C  C233  1  0.131100  0.178100  0.633200  1.0  -0.1075
  C  C234  1  0.095600  0.133100  0.626000  1.0  0.1742
  C  C235  1  0.160210  0.264000  0.686880  1.0  0.4077
  C  C236  1  0.414420  0.015020  0.084510  1.0  0.6948
  C  C237  1  0.357910  0.041090  0.096730  1.0  -0.1316
  C  C238  1  0.326300  0.066700  0.054790  1.0  -0.0676
  C  C239  1  0.274700  0.091900  0.067100  1.0  -0.1481
  C  C240  1  0.253600  0.092000  0.121400  1.0  0.0371
  C  C241  1  0.285900  0.065500  0.163800  1.0  -0.1236
  C  C242  1  0.337500  0.040600  0.151100  1.0  -0.0461
  C  C243  1  0.200780  0.122100  0.136600  1.0  0.024
  C  C244  1  0.169600  0.106100  0.183600  1.0  -0.1082
  C  C245  1  0.497100  0.019600  0.234200  1.0  0.1748
  C  C246  1  0.512400  0.049800  0.281600  1.0  -0.1261
  C  C247  1  0.563650  0.040080  0.305320  1.0  -0.0578
  C  C248  1  0.597000  0.999800  0.282300  1.0  -0.1626
  C  C249  1  0.577300  0.970700  0.235600  1.0  0.1735
  C  C250  1  0.583370  0.072800  0.356160  1.0  0.3397
  C  C251  1  0.457790  0.840300  0.202260  1.0  0.1634
  C  C252  1  0.424090  0.794100  0.212300  1.0  -0.1313
  C  C253  1  0.378230  0.784870  0.177480  1.0  -0.1111
  C  C254  1  0.368900  0.821900  0.133200  1.0  -0.1087
  C  C255  1  0.404400  0.866900  0.126000  1.0  0.1739
  C  C256  1  0.339790  0.736000  0.186880  1.0  0.4091
  C  C257  1  0.915490  0.914420  0.484980  1.0  0.694
  C  C258  1  0.903270  0.857910  0.458910  1.0  -0.1304
  C  C259  1  0.945210  0.826300  0.433300  1.0  -0.0623
  C  C260  1  0.932900  0.774700  0.408100  1.0  -0.1463
  C  C261  1  0.878600  0.753600  0.408000  1.0  0.0371
  C  C262  1  0.836200  0.785900  0.434500  1.0  -0.1258
  C  C263  1  0.848900  0.837500  0.459400  1.0  -0.0437
  C  C264  1  0.863400  0.700780  0.377900  1.0  0.0292
  C  C265  1  0.816400  0.669600  0.393900  1.0  -0.1114
  C  C266  1  0.765800  0.997100  0.480400  1.0  0.1701
  C  C267  1  0.718400  0.012400  0.450200  1.0  -0.1245
  C  C268  1  0.694680  0.063650  0.459920  1.0  -0.0605
  C  C269  1  0.717700  0.097000  0.500200  1.0  -0.166
  C  C270  1  0.764400  0.077300  0.529300  1.0  0.1768
  C  C271  1  0.643840  0.083370  0.427200  1.0  0.3389
  C  C272  1  0.797740  0.957790  0.659700  1.0  0.1638
  C  C273  1  0.787700  0.924090  0.705900  1.0  -0.1278
  C  C274  1  0.822520  0.878230  0.715130  1.0  -0.1154
  C  C275  1  0.866800  0.868900  0.678100  1.0  -0.1063
  C  C276  1  0.874000  0.904400  0.633100  1.0  0.1725
  C  C277  1  0.813120  0.839790  0.764000  1.0  0.4086
  C  C278  1  0.415490  0.585580  0.515020  1.0  0.6926
  C  C279  1  0.403270  0.642090  0.541090  1.0  -0.1301
  C  C280  1  0.445210  0.673700  0.566700  1.0  -0.0626
  C  C281  1  0.432900  0.725300  0.591900  1.0  -0.1458
  C  C282  1  0.378600  0.746400  0.592000  1.0  0.0372
  C  C283  1  0.336200  0.714100  0.565500  1.0  -0.1264
  C  C284  1  0.348900  0.662500  0.540600  1.0  -0.0443
  C  C285  1  0.363400  0.799220  0.622100  1.0  0.0293
  C  C286  1  0.316400  0.830400  0.606100  1.0  -0.1109
  C  C287  1  0.265800  0.502900  0.519600  1.0  0.1692
  C  C288  1  0.218400  0.487600  0.549800  1.0  -0.1255
  C  C289  1  0.194680  0.436350  0.540080  1.0  -0.0601
  C  C290  1  0.217700  0.403000  0.499800  1.0  -0.1646
  C  C291  1  0.264400  0.422700  0.470700  1.0  0.1758
  C  C292  1  0.143840  0.416630  0.572800  1.0  0.3402
  C  C293  1  0.297740  0.542210  0.340300  1.0  0.1637
  C  C294  1  0.287700  0.575910  0.294100  1.0  -0.1271
  C  C295  1  0.322520  0.621770  0.284870  1.0  -0.1153
  C  C296  1  0.366800  0.631100  0.321900  1.0  -0.1042
  C  C297  1  0.374000  0.595600  0.366900  1.0  0.1729
  C  C298  1  0.313120  0.660210  0.236000  1.0  0.4095
  C  C299  1  0.584510  0.085580  0.984980  1.0  0.6933
  C  C300  1  0.596730  0.142090  0.958910  1.0  -0.1306
  C  C301  1  0.554790  0.173700  0.933300  1.0  -0.0626
  C  C302  1  0.567100  0.225300  0.908100  1.0  -0.1466
  C  C303  1  0.621400  0.246400  0.908000  1.0  0.0374
  C  C304  1  0.663800  0.214100  0.934500  1.0  -0.1235
  C  C305  1  0.651100  0.162500  0.959400  1.0  -0.0434
  C  C306  1  0.636600  0.299220  0.877900  1.0  0.0293
  C  C307  1  0.683600  0.330400  0.893900  1.0  -0.1102
  C  C308  1  0.734200  0.002900  0.980400  1.0  0.1698
  C  C309  1  0.781600  0.987600  0.950200  1.0  -0.1291
  C  C310  1  0.805320  0.936350  0.959920  1.0  -0.071
  C  C311  1  0.782300  0.903000  0.000200  1.0  -0.1664
  C  C312  1  0.735600  0.922700  0.029300  1.0  0.1768
  C  C313  1  0.856160  0.916630  0.927200  1.0  0.3568
  C  C314  1  0.702260  0.042210  0.159700  1.0  0.1652
  C  C315  1  0.712300  0.075910  0.205900  1.0  -0.1272
  C  C316  1  0.677480  0.121770  0.215130  1.0  -0.1126
  C  C317  1  0.633200  0.131100  0.178100  1.0  -0.1039
  C  C318  1  0.626000  0.095600  0.133100  1.0  0.1739
  C  C319  1  0.686880  0.160210  0.264000  1.0  0.4062
  C  C320  1  0.084510  0.414420  0.015020  1.0  0.6931
  C  C321  1  0.096730  0.357910  0.041090  1.0  -0.1302
  C  C322  1  0.054790  0.326300  0.066700  1.0  -0.0631
  C  C323  1  0.067100  0.274700  0.091900  1.0  -0.1466
  C  C324  1  0.121400  0.253600  0.092000  1.0  0.0373
  C  C325  1  0.163800  0.285900  0.065500  1.0  -0.123
  C  C326  1  0.151100  0.337500  0.040600  1.0  -0.0435
  C  C327  1  0.136600  0.200780  0.122100  1.0  0.0243
  C  C328  1  0.183600  0.169600  0.106100  1.0  -0.1087
  C  C329  1  0.234200  0.497100  0.019600  1.0  0.1706
  C  C330  1  0.281600  0.512400  0.049800  1.0  -0.1273
  C  C331  1  0.305320  0.563650  0.040080  1.0  -0.0596
  C  C332  1  0.282300  0.597000  0.999800  1.0  -0.1667
  C  C333  1  0.235600  0.577300  0.970700  1.0  0.1773
  C  C334  1  0.356160  0.583370  0.072800  1.0  0.3373
  C  C335  1  0.202260  0.457790  0.840300  1.0  0.1647
  C  C336  1  0.212300  0.424090  0.794100  1.0  -0.1282
  C  C337  1  0.177480  0.378230  0.784870  1.0  -0.1132
  C  C338  1  0.133200  0.368900  0.821900  1.0  -0.1045
  C  C339  1  0.126000  0.404400  0.866900  1.0  0.1735
  C  C340  1  0.186880  0.339790  0.736000  1.0  0.4083
  C  C341  1  0.484980  0.915490  0.914420  1.0  0.695
  C  C342  1  0.458910  0.903270  0.857910  1.0  -0.1344
  C  C343  1  0.433300  0.945210  0.826300  1.0  -0.0661
  C  C344  1  0.408100  0.932900  0.774700  1.0  -0.1481
  C  C345  1  0.408000  0.878600  0.753600  1.0  0.0368
  C  C346  1  0.434500  0.836200  0.785900  1.0  -0.124
  C  C347  1  0.459400  0.848900  0.837500  1.0  -0.0437
  C  C348  1  0.377900  0.863400  0.700780  1.0  0.0279
  C  C349  1  0.393900  0.816400  0.669600  1.0  -0.1111
  C  C350  1  0.480400  0.765800  0.997100  1.0  0.1707
  C  C351  1  0.450200  0.718400  0.012400  1.0  -0.1273
  C  C352  1  0.459920  0.694680  0.063650  1.0  -0.057
  C  C353  1  0.500200  0.717700  0.097000  1.0  -0.1625
  C  C354  1  0.529300  0.764400  0.077300  1.0  0.176
  C  C355  1  0.427200  0.643840  0.083370  1.0  0.3402
  C  C356  1  0.659700  0.797740  0.957790  1.0  0.1608
  C  C357  1  0.705900  0.787700  0.924090  1.0  -0.1262
  C  C358  1  0.715130  0.822520  0.878230  1.0  -0.1126
  C  C359  1  0.678100  0.866800  0.868900  1.0  -0.1052
  C  C360  1  0.633100  0.874000  0.904400  1.0  0.1729
  C  C361  1  0.764000  0.813120  0.839790  1.0  0.4092
  C  C362  1  0.515020  0.415490  0.585580  1.0  0.6937
  C  C363  1  0.541090  0.403270  0.642090  1.0  -0.1345
  C  C364  1  0.566700  0.445210  0.673700  1.0  -0.0659
  C  C365  1  0.591900  0.432900  0.725300  1.0  -0.1478
  C  C366  1  0.592000  0.378600  0.746400  1.0  0.0374
  C  C367  1  0.565500  0.336200  0.714100  1.0  -0.124
  C  C368  1  0.540600  0.348900  0.662500  1.0  -0.0438
  C  C369  1  0.622100  0.363400  0.799220  1.0  0.0277
  C  C370  1  0.606100  0.316400  0.830400  1.0  -0.1126
  C  C371  1  0.519600  0.265800  0.502900  1.0  0.1702
  C  C372  1  0.549800  0.218400  0.487600  1.0  -0.1278
  C  C373  1  0.540080  0.194680  0.436350  1.0  -0.0587
  C  C374  1  0.499800  0.217700  0.403000  1.0  -0.1601
  C  C375  1  0.470700  0.264400  0.422700  1.0  0.1755
  C  C376  1  0.572800  0.143840  0.416630  1.0  0.3417
  C  C377  1  0.340300  0.297740  0.542210  1.0  0.1615
  C  C378  1  0.294100  0.287700  0.575910  1.0  -0.1269
  C  C379  1  0.284870  0.322520  0.621770  1.0  -0.1143
  C  C380  1  0.321900  0.366800  0.631100  1.0  -0.106
  C  C381  1  0.366900  0.374000  0.595600  1.0  0.1721
  C  C382  1  0.236000  0.313120  0.660210  1.0  0.4077
  C  C383  1  0.984980  0.584510  0.085580  1.0  0.694
  C  C384  1  0.958910  0.596730  0.142090  1.0  -0.1355
  C  C385  1  0.933300  0.554790  0.173700  1.0  -0.0668
  C  C386  1  0.908100  0.567100  0.225300  1.0  -0.1468
  C  C387  1  0.908000  0.621400  0.246400  1.0  0.0367
  C  C388  1  0.934500  0.663800  0.214100  1.0  -0.1247
  C  C389  1  0.959400  0.651100  0.162500  1.0  -0.043
  C  C390  1  0.877900  0.636600  0.299220  1.0  0.0279
  C  C391  1  0.893900  0.683600  0.330400  1.0  -0.1103
  C  C392  1  0.980400  0.734200  0.002900  1.0  0.1685
  C  C393  1  0.950200  0.781600  0.987600  1.0  -0.1296
  C  C394  1  0.959920  0.805320  0.936350  1.0  -0.0686
  C  C395  1  0.000200  0.782300  0.903000  1.0  -0.1625
  C  C396  1  0.029300  0.735600  0.922700  1.0  0.1757
  C  C397  1  0.927200  0.856160  0.916630  1.0  0.3582
  C  C398  1  0.159700  0.702260  0.042210  1.0  0.1608
  C  C399  1  0.205900  0.712300  0.075910  1.0  -0.1261
  C  C400  1  0.215130  0.677480  0.121770  1.0  -0.1143
  C  C401  1  0.178100  0.633200  0.131100  1.0  -0.1056
  C  C402  1  0.133100  0.626000  0.095600  1.0  0.1711
  C  C403  1  0.264000  0.686880  0.160210  1.0  0.4096
  C  C404  1  0.015020  0.084510  0.414420  1.0  0.6951
  C  C405  1  0.041090  0.096730  0.357910  1.0  -0.1356
  C  C406  1  0.066700  0.054790  0.326300  1.0  -0.0673
  C  C407  1  0.091900  0.067100  0.274700  1.0  -0.147
  C  C408  1  0.092000  0.121400  0.253600  1.0  0.0374
  C  C409  1  0.065500  0.163800  0.285900  1.0  -0.1252
  C  C410  1  0.040600  0.151100  0.337500  1.0  -0.0439
  C  C411  1  0.122100  0.136600  0.200780  1.0  0.0229
  C  C412  1  0.106100  0.183600  0.169600  1.0  -0.1112
  C  C413  1  0.019600  0.234200  0.497100  1.0  0.1691
  C  C414  1  0.049800  0.281600  0.512400  1.0  -0.1292
  C  C415  1  0.040080  0.305320  0.563650  1.0  -0.059
  C  C416  1  0.999800  0.282300  0.597000  1.0  -0.1603
  C  C417  1  0.970700  0.235600  0.577300  1.0  0.175
  C  C418  1  0.072800  0.356160  0.583370  1.0  0.3414
  C  C419  1  0.840300  0.202260  0.457790  1.0  0.1608
  C  C420  1  0.794100  0.212300  0.424090  1.0  -0.1266
  C  C421  1  0.784870  0.177480  0.378230  1.0  -0.1124
  C  C422  1  0.821900  0.133200  0.368900  1.0  -0.1061
  C  C423  1  0.866900  0.126000  0.404400  1.0  0.1723
  C  C424  1  0.736000  0.186880  0.339790  1.0  0.4073
  S  S425  1  0.125080  0.625080  0.874920  1.0  1.5847
  S  S426  1  0.374920  0.374920  0.374920  1.0  1.5853
  S  S427  1  0.874920  0.125080  0.625080  1.0  1.5858
  S  S428  1  0.625080  0.874920  0.125080  1.0  1.5855
  N  N429  1  0.028610  0.520060  0.788270  1.0  -0.3227
  N  N430  1  0.129040  0.446630  0.617910  1.0  -0.3403
  N  N431  1  0.949400  0.623470  0.840200  1.0  -0.3429
  N  N432  1  0.797120  0.770290  0.850170  1.0  -0.3605
  N  N433  1  0.471390  0.479940  0.288270  1.0  -0.3229
  N  N434  1  0.370960  0.553370  0.117910  1.0  -0.3431
  N  N435  1  0.550600  0.376530  0.340200  1.0  -0.3423
  N  N436  1  0.702880  0.229710  0.350170  1.0  -0.361
  N  N437  1  0.971390  0.020060  0.711730  1.0  -0.3244
  N  N438  1  0.870960  0.946630  0.882090  1.0  -0.3409
  N  N439  1  0.050600  0.123470  0.659800  1.0  -0.3423
  N  N440  1  0.202880  0.270290  0.649830  1.0  -0.3604
  N  N441  1  0.528610  0.979940  0.211730  1.0  -0.3241
  N  N442  1  0.629040  0.053370  0.382090  1.0  -0.3423
  N  N443  1  0.449400  0.876530  0.159800  1.0  -0.3427
  N  N444  1  0.297120  0.729710  0.149830  1.0  -0.3604
  N  N445  1  0.788270  0.028610  0.520060  1.0  -0.3198
  N  N446  1  0.617910  0.129040  0.446630  1.0  -0.3462
  N  N447  1  0.840200  0.949400  0.623470  1.0  -0.3468
  N  N448  1  0.850170  0.797120  0.770290  1.0  -0.3621
  N  N449  1  0.288270  0.471390  0.479940  1.0  -0.3196
  N  N450  1  0.117910  0.370960  0.553370  1.0  -0.3448
  N  N451  1  0.340200  0.550600  0.376530  1.0  -0.3464
  N  N452  1  0.350170  0.702880  0.229710  1.0  -0.3606
  N  N453  1  0.711730  0.971390  0.020060  1.0  -0.3189
  N  N454  1  0.882090  0.870960  0.946630  1.0  -0.346
  N  N455  1  0.659800  0.050600  0.123470  1.0  -0.3478
  N  N456  1  0.649830  0.202880  0.270290  1.0  -0.3603
  N  N457  1  0.211730  0.528610  0.979940  1.0  -0.3211
  N  N458  1  0.382090  0.629040  0.053370  1.0  -0.3457
  N  N459  1  0.159800  0.449400  0.876530  1.0  -0.3467
  N  N460  1  0.149830  0.297120  0.729710  1.0  -0.3623
  N  N461  1  0.520060  0.788270  0.028610  1.0  -0.3203
  N  N462  1  0.446630  0.617910  0.129040  1.0  -0.344
  N  N463  1  0.623470  0.840200  0.949400  1.0  -0.3439
  N  N464  1  0.770290  0.850170  0.797120  1.0  -0.3575
  N  N465  1  0.479940  0.288270  0.471390  1.0  -0.3215
  N  N466  1  0.553370  0.117910  0.370960  1.0  -0.3425
  N  N467  1  0.376530  0.340200  0.550600  1.0  -0.3425
  N  N468  1  0.229710  0.350170  0.702880  1.0  -0.3603
  N  N469  1  0.020060  0.711730  0.971390  1.0  -0.3186
  N  N470  1  0.946630  0.882090  0.870960  1.0  -0.3437
  N  N471  1  0.123470  0.659800  0.050600  1.0  -0.3429
  N  N472  1  0.270290  0.649830  0.202880  1.0  -0.3585
  N  N473  1  0.979940  0.211730  0.528610  1.0  -0.3213
  N  N474  1  0.053370  0.382090  0.629040  1.0  -0.3414
  N  N475  1  0.876530  0.159800  0.449400  1.0  -0.3427
  N  N476  1  0.729710  0.149830  0.297120  1.0  -0.3598
  O  O477  1  0.067590  0.619590  0.850010  1.0  -0.749
  O  O478  1  0.933960  0.481370  0.964570  1.0  -0.5988
  O  O479  1  0.938270  0.508660  0.874300  1.0  -0.6081
  O  O480  1  0.432410  0.380410  0.350010  1.0  -0.7507
  O  O481  1  0.566040  0.518630  0.464570  1.0  -0.5973
  O  O482  1  0.561730  0.491340  0.374300  1.0  -0.6076
  O  O483  1  0.932410  0.119590  0.649990  1.0  -0.7518
  O  O484  1  0.066040  0.981370  0.535430  1.0  -0.5981
  O  O485  1  0.061730  0.008660  0.625700  1.0  -0.6076
  O  O486  1  0.567590  0.880410  0.149990  1.0  -0.7495
  O  O487  1  0.433960  0.018630  0.035430  1.0  -0.6
  O  O488  1  0.438270  0.991340  0.125700  1.0  -0.6083
  O  O489  1  0.850010  0.067590  0.619590  1.0  -0.7456
  O  O490  1  0.964570  0.933960  0.481370  1.0  -0.5968
  O  O491  1  0.874300  0.938270  0.508660  1.0  -0.6061
  O  O492  1  0.350010  0.432410  0.380410  1.0  -0.7452
  O  O493  1  0.464570  0.566040  0.518630  1.0  -0.5962
  O  O494  1  0.374300  0.561730  0.491340  1.0  -0.6058
  O  O495  1  0.649990  0.932410  0.119590  1.0  -0.7464
  O  O496  1  0.535430  0.066040  0.981370  1.0  -0.5958
  O  O497  1  0.625700  0.061730  0.008660  1.0  -0.606
  O  O498  1  0.149990  0.567590  0.880410  1.0  -0.7462
  O  O499  1  0.035430  0.433960  0.018630  1.0  -0.5959
  O  O500  1  0.125700  0.438270  0.991340  1.0  -0.6056
  O  O501  1  0.619590  0.850010  0.067590  1.0  -0.7502
  O  O502  1  0.481370  0.964570  0.933960  1.0  -0.599
  O  O503  1  0.508660  0.874300  0.938270  1.0  -0.6078
  O  O504  1  0.380410  0.350010  0.432410  1.0  -0.7509
  O  O505  1  0.518630  0.464570  0.566040  1.0  -0.5981
  O  O506  1  0.491340  0.374300  0.561730  1.0  -0.6073
  O  O507  1  0.119590  0.649990  0.932410  1.0  -0.7504
  O  O508  1  0.981370  0.535430  0.066040  1.0  -0.5997
  O  O509  1  0.008660  0.625700  0.061730  1.0  -0.609
  O  O510  1  0.880410  0.149990  0.567590  1.0  -0.7509
  O  O511  1  0.018630  0.035430  0.433960  1.0  -0.5985
  O  O512  1  0.991340  0.125700  0.438270  1.0  -0.6076
  O  O513  1  0.160310  0.660310  0.839690  1.0  -0.6258
  O  O514  1  0.339690  0.339690  0.339690  1.0  -0.6241
  O  O515  1  0.839690  0.160310  0.660310  1.0  -0.6216
  O  O516  1  0.660310  0.839690  0.160310  1.0  -0.6286
  F  F517  1  0.998210  0.589250  0.947880  1.0  -0.5546
  F  F518  1  0.501790  0.410750  0.447880  1.0  -0.5558
  F  F519  1  0.001790  0.089250  0.552120  1.0  -0.5556
  F  F520  1  0.498210  0.910750  0.052120  1.0  -0.555
  F  F521  1  0.947880  0.998210  0.589250  1.0  -0.5565
  F  F522  1  0.447880  0.501790  0.410750  1.0  -0.5556
  F  F523  1  0.552120  0.001790  0.089250  1.0  -0.5558
  F  F524  1  0.052120  0.498210  0.910750  1.0  -0.5561
  F  F525  1  0.589250  0.947880  0.998210  1.0  -0.5542
  F  F526  1  0.410750  0.447880  0.501790  1.0  -0.5534
  F  F527  1  0.089250  0.552120  0.001790  1.0  -0.5551
  F  F528  1  0.910750  0.052120  0.498210  1.0  -0.5529
