# generated using pymatgen
data_Zn3H14C30(N3O4)3
_symmetry_space_group_name_H-M   'P 1'
_cell_length_a   18.20600000
_cell_length_b   18.32000000
_cell_length_c   14.76500000
_cell_angle_alpha   90.00000000
_cell_angle_beta   92.16100000
_cell_angle_gamma   90.00000000
_symmetry_Int_Tables_number   1
_chemical_formula_structural   Zn3H14C30(N3O4)3
_chemical_formula_sum   'Zn12 H56 C120 N36 O48'
_cell_volume   4921.12600538
_cell_formula_units_Z   4
loop_
 _symmetry_equiv_pos_site_id
 _symmetry_equiv_pos_as_xyz
  1  'x, y, z'
loop_
 _atom_site_type_symbol
 _atom_site_label
 _atom_site_symmetry_multiplicity
 _atom_site_fract_x
 _atom_site_fract_y
 _atom_site_fract_z
 _atom_site_occupancy
 _atom_site_charge
  Zn  Zn1  1  0.327350  0.261520  0.774480  1.0  0.8838
  Zn  Zn2  1  0.827350  0.761520  0.774480  1.0  0.8838
  Zn  Zn3  1  0.672650  0.261520  0.725520  1.0  0.8819
  Zn  Zn4  1  0.172650  0.761520  0.725520  1.0  0.8819
  Zn  Zn5  1  0.672650  0.738480  0.225520  1.0  0.8799
  Zn  Zn6  1  0.172650  0.238480  0.225520  1.0  0.8799
  Zn  Zn7  1  0.327350  0.738480  0.274480  1.0  0.8819
  Zn  Zn8  1  0.827350  0.238480  0.274480  1.0  0.8819
  Zn  Zn9  1  0.000000  0.381730  0.750000  1.0  0.8227
  Zn  Zn10  1  0.500000  0.881730  0.750000  1.0  0.8227
  Zn  Zn11  1  0.000000  0.618270  0.250000  1.0  0.8229
  Zn  Zn12  1  0.500000  0.118270  0.250000  1.0  0.8229
  H  H13  1  0.181900  0.177400  0.889700  1.0  0.1316
  H  H14  1  0.114600  0.381300  0.943200  1.0  0.1128
  H  H15  1  0.187700  0.154600  0.043000  1.0  0.0994
  H  H16  1  0.123200  0.355700  0.093900  1.0  0.0949
  H  H17  1  0.459200  0.007400  0.624500  1.0  0.0948
  H  H18  1  0.454000  0.133500  0.622500  1.0  0.1331
  H  H19  1  0.200900  0.355300  0.521600  1.0  0.3319
  H  H20  1  0.681900  0.677400  0.889700  1.0  0.1316
  H  H21  1  0.614600  0.881300  0.943200  1.0  0.1128
  H  H22  1  0.687700  0.654600  0.043000  1.0  0.0994
  H  H23  1  0.623200  0.855700  0.093900  1.0  0.0949
  H  H24  1  0.959200  0.507400  0.624500  1.0  0.0948
  H  H25  1  0.954000  0.633500  0.622500  1.0  0.1331
  H  H26  1  0.700900  0.855300  0.521600  1.0  0.3319
  H  H27  1  0.818100  0.177400  0.610300  1.0  0.1326
  H  H28  1  0.885400  0.381300  0.556800  1.0  0.1124
  H  H29  1  0.812300  0.154600  0.457000  1.0  0.0995
  H  H30  1  0.876800  0.355700  0.406100  1.0  0.0946
  H  H31  1  0.540800  0.007400  0.875500  1.0  0.0954
  H  H32  1  0.546000  0.133500  0.877500  1.0  0.1334
  H  H33  1  0.799100  0.355300  0.978400  1.0  0.3325
  H  H34  1  0.318100  0.677400  0.610300  1.0  0.1326
  H  H35  1  0.385400  0.881300  0.556800  1.0  0.1124
  H  H36  1  0.312300  0.654600  0.457000  1.0  0.0995
  H  H37  1  0.376800  0.855700  0.406100  1.0  0.0946
  H  H38  1  0.040800  0.507400  0.875500  1.0  0.0954
  H  H39  1  0.046000  0.633500  0.877500  1.0  0.1334
  H  H40  1  0.299100  0.855300  0.978400  1.0  0.3325
  H  H41  1  0.818100  0.822600  0.110300  1.0  0.1328
  H  H42  1  0.885400  0.618700  0.056800  1.0  0.1123
  H  H43  1  0.812300  0.845400  0.957000  1.0  0.099
  H  H44  1  0.876800  0.644300  0.906100  1.0  0.0946
  H  H45  1  0.540800  0.992600  0.375500  1.0  0.0951
  H  H46  1  0.546000  0.866500  0.377500  1.0  0.1337
  H  H47  1  0.799100  0.644700  0.478400  1.0  0.3365
  H  H48  1  0.318100  0.322600  0.110300  1.0  0.1328
  H  H49  1  0.385400  0.118700  0.056800  1.0  0.1123
  H  H50  1  0.312300  0.345400  0.957000  1.0  0.099
  H  H51  1  0.376800  0.144300  0.906100  1.0  0.0946
  H  H52  1  0.040800  0.492600  0.375500  1.0  0.0951
  H  H53  1  0.046000  0.366500  0.377500  1.0  0.1337
  H  H54  1  0.299100  0.144700  0.478400  1.0  0.3365
  H  H55  1  0.181900  0.822600  0.389700  1.0  0.1328
  H  H56  1  0.114600  0.618700  0.443200  1.0  0.1126
  H  H57  1  0.187700  0.845400  0.543000  1.0  0.0987
  H  H58  1  0.123200  0.644300  0.593900  1.0  0.0952
  H  H59  1  0.459200  0.992600  0.124500  1.0  0.0944
  H  H60  1  0.454000  0.866500  0.122500  1.0  0.1334
  H  H61  1  0.200900  0.644700  0.021600  1.0  0.334
  H  H62  1  0.681900  0.322600  0.389700  1.0  0.1328
  H  H63  1  0.614600  0.118700  0.443200  1.0  0.1126
  H  H64  1  0.687700  0.345400  0.543000  1.0  0.0987
  H  H65  1  0.623200  0.144300  0.593900  1.0  0.0952
  H  H66  1  0.959200  0.492600  0.124500  1.0  0.0944
  H  H67  1  0.954000  0.366500  0.122500  1.0  0.1334
  H  H68  1  0.700900  0.144700  0.021600  1.0  0.334
  C  C69  1  0.154100  0.301400  0.802400  1.0  0.3581
  C  C70  1  0.149800  0.283200  0.898000  1.0  0.0594
  C  C71  1  0.170300  0.215200  0.930800  1.0  -0.1677
  C  C72  1  0.131100  0.334500  0.962500  1.0  -0.1731
  C  C73  1  0.173800  0.201900  0.022100  1.0  0.1607
  C  C74  1  0.136000  0.319100  0.051800  1.0  0.1554
  C  C75  1  0.199300  0.311900  0.670700  1.0  0.0413
  C  C76  1  0.130400  0.340400  0.666200  1.0  -0.01
  C  C77  1  0.085300  0.373100  0.591000  1.0  0.705
  C  C78  1  0.255500  0.307600  0.602700  1.0  0.6945
  C  C79  1  0.410900  0.397200  0.765500  1.0  0.6906
  C  C80  1  0.462000  0.338400  0.755400  1.0  0.0308
  C  C81  1  0.475700  0.033300  0.677200  1.0  0.1696
  C  C82  1  0.473400  0.108600  0.674600  1.0  -0.191
  C  C83  1  0.654100  0.801400  0.802400  1.0  0.3581
  C  C84  1  0.649800  0.783200  0.898000  1.0  0.0594
  C  C85  1  0.670300  0.715200  0.930800  1.0  -0.1677
  C  C86  1  0.631100  0.834500  0.962500  1.0  -0.1731
  C  C87  1  0.673800  0.701900  0.022100  1.0  0.1607
  C  C88  1  0.636000  0.819100  0.051800  1.0  0.1554
  C  C89  1  0.699300  0.811900  0.670700  1.0  0.0413
  C  C90  1  0.630400  0.840400  0.666200  1.0  -0.01
  C  C91  1  0.585300  0.873100  0.591000  1.0  0.705
  C  C92  1  0.755500  0.807600  0.602700  1.0  0.6945
  C  C93  1  0.910900  0.897200  0.765500  1.0  0.6906
  C  C94  1  0.962000  0.838400  0.755400  1.0  0.0308
  C  C95  1  0.975700  0.533300  0.677200  1.0  0.1696
  C  C96  1  0.973400  0.608600  0.674600  1.0  -0.191
  C  C97  1  0.845900  0.301400  0.697600  1.0  0.3586
  C  C98  1  0.850200  0.283200  0.602000  1.0  0.0579
  C  C99  1  0.829700  0.215200  0.569200  1.0  -0.168
  C  C100  1  0.868900  0.334500  0.537500  1.0  -0.1727
  C  C101  1  0.826200  0.201900  0.477900  1.0  0.1598
  C  C102  1  0.864000  0.319100  0.448200  1.0  0.156
  C  C103  1  0.800700  0.311900  0.829300  1.0  0.0415
  C  C104  1  0.869600  0.340400  0.833800  1.0  -0.0103
  C  C105  1  0.914700  0.373100  0.909000  1.0  0.7027
  C  C106  1  0.744500  0.307600  0.897300  1.0  0.6963
  C  C107  1  0.589100  0.397200  0.734500  1.0  0.7005
  C  C108  1  0.538000  0.338400  0.744600  1.0  0.0305
  C  C109  1  0.524300  0.033300  0.822800  1.0  0.1704
  C  C110  1  0.526600  0.108600  0.825400  1.0  -0.1897
  C  C111  1  0.345900  0.801400  0.697600  1.0  0.3586
  C  C112  1  0.350200  0.783200  0.602000  1.0  0.0579
  C  C113  1  0.329700  0.715200  0.569200  1.0  -0.168
  C  C114  1  0.368900  0.834500  0.537500  1.0  -0.1727
  C  C115  1  0.326200  0.701900  0.477900  1.0  0.1598
  C  C116  1  0.364000  0.819100  0.448200  1.0  0.156
  C  C117  1  0.300700  0.811900  0.829300  1.0  0.0415
  C  C118  1  0.369600  0.840400  0.833800  1.0  -0.0103
  C  C119  1  0.414700  0.873100  0.909000  1.0  0.7027
  C  C120  1  0.244500  0.807600  0.897300  1.0  0.6963
  C  C121  1  0.089100  0.897200  0.734500  1.0  0.7005
  C  C122  1  0.038000  0.838400  0.744600  1.0  0.0305
  C  C123  1  0.024300  0.533300  0.822800  1.0  0.1704
  C  C124  1  0.026600  0.608600  0.825400  1.0  -0.1897
  C  C125  1  0.845900  0.698600  0.197600  1.0  0.3586
  C  C126  1  0.850200  0.716800  0.102000  1.0  0.0576
  C  C127  1  0.829700  0.784800  0.069200  1.0  -0.17
  C  C128  1  0.868900  0.665500  0.037500  1.0  -0.1733
  C  C129  1  0.826200  0.798100  0.977900  1.0  0.1601
  C  C130  1  0.864000  0.680900  0.948200  1.0  0.1564
  C  C131  1  0.800700  0.688100  0.329300  1.0  0.0417
  C  C132  1  0.869600  0.659600  0.333800  1.0  -0.0103
  C  C133  1  0.914700  0.626900  0.409000  1.0  0.7026
  C  C134  1  0.744500  0.692400  0.397300  1.0  0.6963
  C  C135  1  0.589100  0.602800  0.234500  1.0  0.6931
  C  C136  1  0.538000  0.661600  0.244600  1.0  0.0296
  C  C137  1  0.524300  0.966700  0.322800  1.0  0.1704
  C  C138  1  0.526600  0.891400  0.325400  1.0  -0.1903
  C  C139  1  0.345900  0.198600  0.197600  1.0  0.3586
  C  C140  1  0.350200  0.216800  0.102000  1.0  0.0576
  C  C141  1  0.329700  0.284800  0.069200  1.0  -0.17
  C  C142  1  0.368900  0.165500  0.037500  1.0  -0.1733
  C  C143  1  0.326200  0.298100  0.977900  1.0  0.1601
  C  C144  1  0.364000  0.180900  0.948200  1.0  0.1564
  C  C145  1  0.300700  0.188100  0.329300  1.0  0.0417
  C  C146  1  0.369600  0.159600  0.333800  1.0  -0.0103
  C  C147  1  0.414700  0.126900  0.409000  1.0  0.7026
  C  C148  1  0.244500  0.192400  0.397300  1.0  0.6963
  C  C149  1  0.089100  0.102800  0.234500  1.0  0.6931
  C  C150  1  0.038000  0.161600  0.244600  1.0  0.0296
  C  C151  1  0.024300  0.466700  0.322800  1.0  0.1704
  C  C152  1  0.026600  0.391400  0.325400  1.0  -0.1903
  C  C153  1  0.154100  0.698600  0.302400  1.0  0.3582
  C  C154  1  0.149800  0.716800  0.398000  1.0  0.0593
  C  C155  1  0.170300  0.784800  0.430800  1.0  -0.1682
  C  C156  1  0.131100  0.665500  0.462500  1.0  -0.1735
  C  C157  1  0.173800  0.798100  0.522100  1.0  0.1611
  C  C158  1  0.136000  0.680900  0.551800  1.0  0.1572
  C  C159  1  0.199300  0.688100  0.170700  1.0  0.0414
  C  C160  1  0.130400  0.659600  0.166200  1.0  -0.0102
  C  C161  1  0.085300  0.626900  0.091000  1.0  0.7047
  C  C162  1  0.255500  0.692400  0.102700  1.0  0.6949
  C  C163  1  0.410900  0.602800  0.265500  1.0  0.7008
  C  C164  1  0.462000  0.661600  0.255400  1.0  0.0296
  C  C165  1  0.475700  0.966700  0.177200  1.0  0.1701
  C  C166  1  0.473400  0.891400  0.174600  1.0  -0.1905
  C  C167  1  0.654100  0.198600  0.302400  1.0  0.3582
  C  C168  1  0.649800  0.216800  0.398000  1.0  0.0593
  C  C169  1  0.670300  0.284800  0.430800  1.0  -0.1682
  C  C170  1  0.631100  0.165500  0.462500  1.0  -0.1735
  C  C171  1  0.673800  0.298100  0.522100  1.0  0.1611
  C  C172  1  0.636000  0.180900  0.551800  1.0  0.1572
  C  C173  1  0.699300  0.188100  0.170700  1.0  0.0414
  C  C174  1  0.630400  0.159600  0.166200  1.0  -0.0102
  C  C175  1  0.585300  0.126900  0.091000  1.0  0.7047
  C  C176  1  0.755500  0.192400  0.102700  1.0  0.6949
  C  C177  1  0.910900  0.102800  0.265500  1.0  0.7008
  C  C178  1  0.962000  0.161600  0.255400  1.0  0.0296
  C  C179  1  0.975700  0.466700  0.177200  1.0  0.1701
  C  C180  1  0.973400  0.391400  0.174600  1.0  -0.1905
  C  C181  1  0.500000  0.227400  0.750000  1.0  0.3923
  C  C182  1  0.500000  0.147200  0.750000  1.0  -0.0057
  C  C183  1  0.000000  0.727400  0.750000  1.0  0.3923
  C  C184  1  0.000000  0.647200  0.750000  1.0  -0.0057
  C  C185  1  0.500000  0.772600  0.250000  1.0  0.3926
  C  C186  1  0.500000  0.852800  0.250000  1.0  -0.0063
  C  C187  1  0.000000  0.272600  0.250000  1.0  0.3926
  C  C188  1  0.000000  0.352800  0.250000  1.0  -0.0063
  N  N189  1  0.158200  0.253500  0.083200  1.0  -0.3527
  N  N190  1  0.215300  0.286700  0.755700  1.0  -0.4304
  N  N191  1  0.100800  0.334700  0.751000  1.0  -0.4568
  N  N192  1  0.439600  0.268100  0.756600  1.0  -0.3913
  N  N193  1  0.658200  0.753500  0.083200  1.0  -0.3527
  N  N194  1  0.715300  0.786700  0.755700  1.0  -0.4304
  N  N195  1  0.600800  0.834700  0.751000  1.0  -0.4568
  N  N196  1  0.939600  0.768100  0.756600  1.0  -0.3913
  N  N197  1  0.841800  0.253500  0.416800  1.0  -0.3523
  N  N198  1  0.784700  0.286700  0.744300  1.0  -0.4293
  N  N199  1  0.899200  0.334700  0.749000  1.0  -0.4564
  N  N200  1  0.560400  0.268100  0.743400  1.0  -0.3917
  N  N201  1  0.341800  0.753500  0.416800  1.0  -0.3523
  N  N202  1  0.284700  0.786700  0.744300  1.0  -0.4293
  N  N203  1  0.399200  0.834700  0.749000  1.0  -0.4564
  N  N204  1  0.060400  0.768100  0.743400  1.0  -0.3917
  N  N205  1  0.841800  0.746500  0.916800  1.0  -0.3514
  N  N206  1  0.784700  0.713300  0.244300  1.0  -0.4296
  N  N207  1  0.899200  0.665300  0.249000  1.0  -0.4563
  N  N208  1  0.560400  0.731900  0.243400  1.0  -0.391
  N  N209  1  0.341800  0.246500  0.916800  1.0  -0.3514
  N  N210  1  0.284700  0.213300  0.244300  1.0  -0.4296
  N  N211  1  0.399200  0.165300  0.249000  1.0  -0.4563
  N  N212  1  0.060400  0.231900  0.243400  1.0  -0.391
  N  N213  1  0.158200  0.746500  0.583200  1.0  -0.3529
  N  N214  1  0.215300  0.713300  0.255700  1.0  -0.4307
  N  N215  1  0.100800  0.665300  0.251000  1.0  -0.4562
  N  N216  1  0.439600  0.731900  0.256600  1.0  -0.3912
  N  N217  1  0.658200  0.246500  0.583200  1.0  -0.3529
  N  N218  1  0.715300  0.213300  0.255700  1.0  -0.4307
  N  N219  1  0.600800  0.165300  0.251000  1.0  -0.4562
  N  N220  1  0.939600  0.231900  0.256600  1.0  -0.3912
  N  N221  1  0.500000  0.994100  0.750000  1.0  -0.3277
  N  N222  1  0.000000  0.494100  0.750000  1.0  -0.3277
  N  N223  1  0.500000  0.005900  0.250000  1.0  -0.3279
  N  N224  1  0.000000  0.505900  0.250000  1.0  -0.3279
  O  O225  1  0.113900  0.381700  0.516300  1.0  -0.576
  O  O226  1  0.020000  0.388300  0.608500  1.0  -0.5677
  O  O227  1  0.241900  0.334100  0.522800  1.0  -0.4887
  O  O228  1  0.316000  0.279300  0.624500  1.0  -0.5607
  O  O229  1  0.345200  0.380700  0.779900  1.0  -0.6044
  O  O230  1  0.433300  0.463500  0.760100  1.0  -0.4254
  O  O231  1  0.613900  0.881700  0.516300  1.0  -0.576
  O  O232  1  0.520000  0.888300  0.608500  1.0  -0.5677
  O  O233  1  0.741900  0.834100  0.522800  1.0  -0.4887
  O  O234  1  0.816000  0.779300  0.624500  1.0  -0.5607
  O  O235  1  0.845200  0.880700  0.779900  1.0  -0.6044
  O  O236  1  0.933300  0.963500  0.760100  1.0  -0.4254
  O  O237  1  0.886100  0.381700  0.983700  1.0  -0.5765
  O  O238  1  0.980000  0.388300  0.891500  1.0  -0.5679
  O  O239  1  0.758100  0.334100  0.977200  1.0  -0.4878
  O  O240  1  0.684000  0.279300  0.875500  1.0  -0.5603
  O  O241  1  0.654800  0.380700  0.720100  1.0  -0.6044
  O  O242  1  0.566700  0.463500  0.739900  1.0  -0.4257
  O  O243  1  0.386100  0.881700  0.983700  1.0  -0.5765
  O  O244  1  0.480000  0.888300  0.891500  1.0  -0.5679
  O  O245  1  0.258100  0.834100  0.977200  1.0  -0.4878
  O  O246  1  0.184000  0.779300  0.875500  1.0  -0.5603
  O  O247  1  0.154800  0.880700  0.720100  1.0  -0.6044
  O  O248  1  0.066700  0.963500  0.739900  1.0  -0.4257
  O  O249  1  0.886100  0.618300  0.483700  1.0  -0.5763
  O  O250  1  0.980000  0.611700  0.391500  1.0  -0.5677
  O  O251  1  0.758100  0.665900  0.477200  1.0  -0.4878
  O  O252  1  0.684000  0.720700  0.375500  1.0  -0.5597
  O  O253  1  0.654800  0.619300  0.220100  1.0  -0.6043
  O  O254  1  0.566700  0.536500  0.239900  1.0  -0.4257
  O  O255  1  0.386100  0.118300  0.483700  1.0  -0.5763
  O  O256  1  0.480000  0.111700  0.391500  1.0  -0.5677
  O  O257  1  0.258100  0.165900  0.477200  1.0  -0.4878
  O  O258  1  0.184000  0.220700  0.375500  1.0  -0.5597
  O  O259  1  0.154800  0.119300  0.220100  1.0  -0.6043
  O  O260  1  0.066700  0.036500  0.239900  1.0  -0.4257
  O  O261  1  0.113900  0.618300  0.016300  1.0  -0.5763
  O  O262  1  0.020000  0.611700  0.108500  1.0  -0.568
  O  O263  1  0.241900  0.665900  0.022800  1.0  -0.4876
  O  O264  1  0.316000  0.720700  0.124500  1.0  -0.5598
  O  O265  1  0.345200  0.619300  0.279900  1.0  -0.6051
  O  O266  1  0.433300  0.536500  0.260100  1.0  -0.4248
  O  O267  1  0.613900  0.118300  0.016300  1.0  -0.5763
  O  O268  1  0.520000  0.111700  0.108500  1.0  -0.568
  O  O269  1  0.741900  0.165900  0.022800  1.0  -0.4876
  O  O270  1  0.816000  0.220700  0.124500  1.0  -0.5598
  O  O271  1  0.845200  0.119300  0.279900  1.0  -0.6051
  O  O272  1  0.933300  0.036500  0.260100  1.0  -0.4248
