# generated using pymatgen
data_ZnH5C10N3O4
_symmetry_space_group_name_H-M   'P 1'
_cell_length_a   18.08700000
_cell_length_b   24.86700000
_cell_length_c   17.61100000
_cell_angle_alpha   90.00000000
_cell_angle_beta   90.00000000
_cell_angle_gamma   90.00000000
_symmetry_Int_Tables_number   1
_chemical_formula_structural   ZnH5C10N3O4
_chemical_formula_sum   'Zn16 H80 C160 N48 O64'
_cell_volume   7920.88941412
_cell_formula_units_Z   16
loop_
 _symmetry_equiv_pos_site_id
 _symmetry_equiv_pos_as_xyz
  1  'x, y, z'
loop_
 _atom_site_type_symbol
 _atom_site_label
 _atom_site_symmetry_multiplicity
 _atom_site_fract_x
 _atom_site_fract_y
 _atom_site_fract_z
 _atom_site_occupancy
 _atom_site_charge
  Zn  Zn1  1  0.036420  0.564370  0.185930  1.0  0.8762
  Zn  Zn2  1  0.937140  0.318040  0.240360  1.0  0.8466
  Zn  Zn3  1  0.463580  0.935630  0.185930  1.0  0.876
  Zn  Zn4  1  0.562860  0.181960  0.240360  1.0  0.8455
  Zn  Zn5  1  0.963580  0.064370  0.314070  1.0  0.8753
  Zn  Zn6  1  0.062860  0.818040  0.259640  1.0  0.8431
  Zn  Zn7  1  0.536420  0.435630  0.314070  1.0  0.875
  Zn  Zn8  1  0.437140  0.681960  0.259640  1.0  0.8442
  Zn  Zn9  1  0.963580  0.435630  0.814070  1.0  0.8749
  Zn  Zn10  1  0.062860  0.681960  0.759640  1.0  0.843
  Zn  Zn11  1  0.536420  0.064370  0.814070  1.0  0.8753
  Zn  Zn12  1  0.437140  0.818040  0.759640  1.0  0.8442
  Zn  Zn13  1  0.036420  0.935630  0.685930  1.0  0.876
  Zn  Zn14  1  0.937140  0.181960  0.740360  1.0  0.8467
  Zn  Zn15  1  0.463580  0.564370  0.685930  1.0  0.8763
  Zn  Zn16  1  0.562860  0.318040  0.740360  1.0  0.8455
  H  H17  1  0.081000  0.447300  0.942600  1.0  0.0749
  H  H18  1  0.870400  0.408300  0.954800  1.0  0.0629
  H  H19  1  0.089400  0.452500  0.072900  1.0  0.115
  H  H20  1  0.874700  0.408200  0.086000  1.0  0.1039
  H  H21  1  0.681200  0.175500  0.357600  1.0  0.062
  H  H22  1  0.828900  0.184800  0.158100  1.0  0.0598
  H  H23  1  0.700200  0.186300  0.144400  1.0  0.0755
  H  H24  1  0.804300  0.180000  0.374600  1.0  0.0677
  H  H25  1  0.972600  0.503400  0.423900  1.0  0.4334
  H  H26  1  0.170900  0.248000  0.236400  1.0  0.4046
  H  H27  1  0.419000  0.052700  0.942600  1.0  0.0744
  H  H28  1  0.629600  0.091700  0.954800  1.0  0.0629
  H  H29  1  0.410600  0.047500  0.072900  1.0  0.115
  H  H30  1  0.625300  0.091800  0.086000  1.0  0.1041
  H  H31  1  0.818800  0.324500  0.357600  1.0  0.0616
  H  H32  1  0.671100  0.315200  0.158100  1.0  0.0601
  H  H33  1  0.799800  0.313700  0.144400  1.0  0.0755
  H  H34  1  0.695700  0.320000  0.374600  1.0  0.0675
  H  H35  1  0.527400  0.996600  0.423900  1.0  0.4326
  H  H36  1  0.329100  0.252000  0.236400  1.0  0.4045
  H  H37  1  0.919000  0.947300  0.557400  1.0  0.0742
  H  H38  1  0.129600  0.908300  0.545200  1.0  0.0629
  H  H39  1  0.910600  0.952500  0.427100  1.0  0.1151
  H  H40  1  0.125300  0.908200  0.414000  1.0  0.1048
  H  H41  1  0.318800  0.675500  0.142400  1.0  0.0636
  H  H42  1  0.171100  0.684800  0.341900  1.0  0.0593
  H  H43  1  0.299800  0.686300  0.355600  1.0  0.0749
  H  H44  1  0.195700  0.680000  0.125400  1.0  0.0679
  H  H45  1  0.027400  0.003400  0.076100  1.0  0.4314
  H  H46  1  0.829100  0.748000  0.263600  1.0  0.4059
  H  H47  1  0.581000  0.552700  0.557400  1.0  0.0743
  H  H48  1  0.370400  0.591700  0.545200  1.0  0.0626
  H  H49  1  0.589400  0.547500  0.427100  1.0  0.1144
  H  H50  1  0.374700  0.591800  0.414000  1.0  0.1041
  H  H51  1  0.181200  0.824500  0.142400  1.0  0.0629
  H  H52  1  0.328900  0.815200  0.341900  1.0  0.0584
  H  H53  1  0.200200  0.813700  0.355600  1.0  0.075
  H  H54  1  0.304300  0.820000  0.125400  1.0  0.0679
  H  H55  1  0.472600  0.496600  0.076100  1.0  0.4328
  H  H56  1  0.670900  0.752000  0.263600  1.0  0.4062
  H  H57  1  0.919000  0.552700  0.057400  1.0  0.074
  H  H58  1  0.129600  0.591700  0.045200  1.0  0.0626
  H  H59  1  0.910600  0.547500  0.927100  1.0  0.1151
  H  H60  1  0.125300  0.591800  0.914000  1.0  0.1048
  H  H61  1  0.318800  0.824500  0.642400  1.0  0.0634
  H  H62  1  0.171100  0.815200  0.841900  1.0  0.0588
  H  H63  1  0.299800  0.813700  0.855600  1.0  0.0747
  H  H64  1  0.195700  0.820000  0.625400  1.0  0.0681
  H  H65  1  0.027400  0.496600  0.576100  1.0  0.4318
  H  H66  1  0.829100  0.752000  0.763600  1.0  0.4063
  H  H67  1  0.581000  0.947300  0.057400  1.0  0.0745
  H  H68  1  0.370400  0.908300  0.045200  1.0  0.0629
  H  H69  1  0.589400  0.952500  0.927100  1.0  0.1146
  H  H70  1  0.374700  0.908200  0.914000  1.0  0.1041
  H  H71  1  0.181200  0.675500  0.642400  1.0  0.0631
  H  H72  1  0.328900  0.684800  0.841900  1.0  0.059
  H  H73  1  0.200200  0.686300  0.855600  1.0  0.0749
  H  H74  1  0.304300  0.680000  0.625400  1.0  0.0678
  H  H75  1  0.472600  0.003400  0.576100  1.0  0.4328
  H  H76  1  0.670900  0.748000  0.763600  1.0  0.4058
  H  H77  1  0.081000  0.052700  0.442600  1.0  0.0748
  H  H78  1  0.870400  0.091700  0.454800  1.0  0.063
  H  H79  1  0.089400  0.047500  0.572900  1.0  0.1146
  H  H80  1  0.874700  0.091800  0.586000  1.0  0.1035
  H  H81  1  0.681200  0.324500  0.857600  1.0  0.0617
  H  H82  1  0.828900  0.315200  0.658100  1.0  0.0597
  H  H83  1  0.700200  0.313700  0.644400  1.0  0.0754
  H  H84  1  0.804300  0.320000  0.874600  1.0  0.0674
  H  H85  1  0.972600  0.996600  0.923900  1.0  0.4332
  H  H86  1  0.170900  0.252000  0.736400  1.0  0.4048
  H  H87  1  0.419000  0.447300  0.442600  1.0  0.0746
  H  H88  1  0.629600  0.408300  0.454800  1.0  0.0629
  H  H89  1  0.410600  0.452500  0.572900  1.0  0.1152
  H  H90  1  0.625300  0.408200  0.586000  1.0  0.1044
  H  H91  1  0.818800  0.175500  0.857600  1.0  0.0621
  H  H92  1  0.671100  0.184800  0.658100  1.0  0.0599
  H  H93  1  0.799800  0.186300  0.644400  1.0  0.0757
  H  H94  1  0.695700  0.180000  0.874600  1.0  0.0676
  H  H95  1  0.527400  0.503400  0.923900  1.0  0.4324
  H  H96  1  0.329100  0.248000  0.736400  1.0  0.4043
  C  C97  1  0.024700  0.517100  0.341900  1.0  0.7097
  C  C98  1  0.835300  0.183900  0.268300  1.0  0.2361
  C  C99  1  0.985000  0.438400  0.178600  1.0  0.3598
  C  C100  1  0.038000  0.441000  0.972300  1.0  0.1336
  C  C101  1  0.915600  0.417700  0.978900  1.0  0.1278
  C  C102  1  0.093900  0.132600  0.300500  1.0  0.6705
  C  C103  1  0.966700  0.390200  0.367500  1.0  0.7044
  C  C104  1  0.029600  0.168300  0.290900  1.0  -0.0208
  C  C105  1  0.978200  0.422300  0.298500  1.0  -0.0013
  C  C106  1  0.023900  0.222800  0.276000  1.0  0.031
  C  C107  1  0.004100  0.474100  0.288400  1.0  -0.0116
  C  C108  1  0.913100  0.189200  0.276800  1.0  0.2597
  C  C109  1  0.981500  0.432500  0.094400  1.0  0.0041
  C  C110  1  0.043700  0.443400  0.049700  1.0  -0.1884
  C  C111  1  0.917400  0.418000  0.057700  1.0  -0.1793
  C  C112  1  0.711700  0.177500  0.313800  1.0  0.1465
  C  C113  1  0.080200  0.264400  0.265900  1.0  0.7025
  C  C114  1  0.799800  0.183900  0.203000  1.0  -0.1309
  C  C115  1  0.721400  0.182800  0.193500  1.0  0.08
  C  C116  1  0.786200  0.180400  0.323900  1.0  -0.1419
  C  C117  1  0.475300  0.982900  0.341900  1.0  0.7077
  C  C118  1  0.664700  0.316100  0.268300  1.0  0.2329
  C  C119  1  0.515000  0.061600  0.178600  1.0  0.3591
  C  C120  1  0.462000  0.059000  0.972300  1.0  0.1326
  C  C121  1  0.584400  0.082300  0.978900  1.0  0.128
  C  C122  1  0.406100  0.367400  0.300500  1.0  0.6711
  C  C123  1  0.533300  0.109800  0.367500  1.0  0.7036
  C  C124  1  0.470400  0.331700  0.290900  1.0  -0.021
  C  C125  1  0.521800  0.077700  0.298500  1.0  -0.0002
  C  C126  1  0.476100  0.277200  0.276000  1.0  0.0312
  C  C127  1  0.495900  0.025900  0.288400  1.0  -0.0122
  C  C128  1  0.586900  0.310800  0.276800  1.0  0.2582
  C  C129  1  0.518500  0.067500  0.094400  1.0  0.0038
  C  C130  1  0.456300  0.056600  0.049700  1.0  -0.1909
  C  C131  1  0.582600  0.082000  0.057700  1.0  -0.1782
  C  C132  1  0.788300  0.322500  0.313800  1.0  0.1458
  C  C133  1  0.419800  0.235600  0.265900  1.0  0.704
  C  C134  1  0.700200  0.316100  0.203000  1.0  -0.1303
  C  C135  1  0.778600  0.317200  0.193500  1.0  0.0815
  C  C136  1  0.713800  0.319600  0.323900  1.0  -0.1431
  C  C137  1  0.975300  0.017100  0.158100  1.0  0.7082
  C  C138  1  0.164700  0.683900  0.231700  1.0  0.2324
  C  C139  1  0.015000  0.938400  0.321400  1.0  0.3593
  C  C140  1  0.962000  0.941000  0.527700  1.0  0.1336
  C  C141  1  0.084400  0.917700  0.521100  1.0  0.1287
  C  C142  1  0.906100  0.632600  0.199500  1.0  0.6707
  C  C143  1  0.033300  0.890200  0.132500  1.0  0.704
  C  C144  1  0.970400  0.668300  0.209100  1.0  -0.0212
  C  C145  1  0.021800  0.922300  0.201500  1.0  -0.0002
  C  C146  1  0.976100  0.722800  0.224000  1.0  0.0311
  C  C147  1  0.995900  0.974100  0.211600  1.0  -0.0126
  C  C148  1  0.086900  0.689200  0.223200  1.0  0.2583
  C  C149  1  0.018500  0.932500  0.405600  1.0  0.0052
  C  C150  1  0.956300  0.943400  0.450300  1.0  -0.1895
  C  C151  1  0.082600  0.918000  0.442300  1.0  -0.1785
  C  C152  1  0.288300  0.677500  0.186200  1.0  0.1456
  C  C153  1  0.919800  0.764400  0.234100  1.0  0.7036
  C  C154  1  0.200200  0.683900  0.297000  1.0  -0.1296
  C  C155  1  0.278600  0.682800  0.306500  1.0  0.0814
  C  C156  1  0.213800  0.680400  0.176100  1.0  -0.1429
  C  C157  1  0.524700  0.482900  0.158100  1.0  0.7091
  C  C158  1  0.335300  0.816100  0.231700  1.0  0.2354
  C  C159  1  0.485000  0.561600  0.321400  1.0  0.3593
  C  C160  1  0.538000  0.559000  0.527700  1.0  0.1339
  C  C161  1  0.415600  0.582300  0.521100  1.0  0.1289
  C  C162  1  0.593900  0.867400  0.199500  1.0  0.6705
  C  C163  1  0.466700  0.609800  0.132500  1.0  0.7043
  C  C164  1  0.529600  0.831700  0.209100  1.0  -0.0208
  C  C165  1  0.478200  0.577700  0.201500  1.0  -0.002
  C  C166  1  0.523900  0.777200  0.224000  1.0  0.0307
  C  C167  1  0.504100  0.525900  0.211600  1.0  -0.0123
  C  C168  1  0.413100  0.810800  0.223200  1.0  0.2593
  C  C169  1  0.481500  0.567500  0.405600  1.0  0.0056
  C  C170  1  0.543700  0.556600  0.450300  1.0  -0.1884
  C  C171  1  0.417400  0.582000  0.442300  1.0  -0.1787
  C  C172  1  0.211700  0.822500  0.186200  1.0  0.1469
  C  C173  1  0.580200  0.735600  0.234100  1.0  0.703
  C  C174  1  0.299800  0.816100  0.297000  1.0  -0.1312
  C  C175  1  0.221400  0.817200  0.306500  1.0  0.0802
  C  C176  1  0.286200  0.819600  0.176100  1.0  -0.1422
  C  C177  1  0.975300  0.482900  0.658100  1.0  0.7073
  C  C178  1  0.164700  0.816100  0.731700  1.0  0.2331
  C  C179  1  0.015000  0.561600  0.821400  1.0  0.3592
  C  C180  1  0.962000  0.559000  0.027700  1.0  0.1325
  C  C181  1  0.084400  0.582300  0.021100  1.0  0.1285
  C  C182  1  0.906100  0.867400  0.699500  1.0  0.671
  C  C183  1  0.033300  0.609800  0.632500  1.0  0.7041
  C  C184  1  0.970400  0.831700  0.709100  1.0  -0.0211
  C  C185  1  0.021800  0.577700  0.701500  1.0  -0.0003
  C  C186  1  0.976100  0.777200  0.724000  1.0  0.0307
  C  C187  1  0.995900  0.525900  0.711600  1.0  -0.0129
  C  C188  1  0.086900  0.810800  0.723200  1.0  0.2581
  C  C189  1  0.018500  0.567500  0.905600  1.0  0.0052
  C  C190  1  0.956300  0.556600  0.950300  1.0  -0.1898
  C  C191  1  0.082600  0.582000  0.942300  1.0  -0.1778
  C  C192  1  0.288300  0.822500  0.686200  1.0  0.146
  C  C193  1  0.919800  0.735600  0.734100  1.0  0.7038
  C  C194  1  0.200200  0.816100  0.797000  1.0  -0.1319
  C  C195  1  0.278600  0.817200  0.806500  1.0  0.0815
  C  C196  1  0.213800  0.819600  0.676100  1.0  -0.1429
  C  C197  1  0.524700  0.017100  0.658100  1.0  0.7088
  C  C198  1  0.335300  0.683900  0.731700  1.0  0.2362
  C  C199  1  0.485000  0.938400  0.821400  1.0  0.3597
  C  C200  1  0.538000  0.941000  0.027700  1.0  0.1342
  C  C201  1  0.415600  0.917700  0.021100  1.0  0.1288
  C  C202  1  0.593900  0.632600  0.699500  1.0  0.6704
  C  C203  1  0.466700  0.890200  0.632500  1.0  0.7041
  C  C204  1  0.529600  0.668300  0.709100  1.0  -0.0207
  C  C205  1  0.478200  0.922300  0.701500  1.0  -0.0018
  C  C206  1  0.523900  0.722800  0.724000  1.0  0.0307
  C  C207  1  0.504100  0.974100  0.711600  1.0  -0.0122
  C  C208  1  0.413100  0.689200  0.723200  1.0  0.2596
  C  C209  1  0.481500  0.932500  0.905600  1.0  0.0054
  C  C210  1  0.543700  0.943400  0.950300  1.0  -0.1889
  C  C211  1  0.417400  0.918000  0.942300  1.0  -0.1795
  C  C212  1  0.211700  0.677500  0.686200  1.0  0.1468
  C  C213  1  0.580200  0.764400  0.734100  1.0  0.7025
  C  C214  1  0.299800  0.683900  0.797000  1.0  -0.1298
  C  C215  1  0.221400  0.682800  0.806500  1.0  0.0802
  C  C216  1  0.286200  0.680400  0.676100  1.0  -0.142
  C  C217  1  0.024700  0.982900  0.841900  1.0  0.7101
  C  C218  1  0.835300  0.316100  0.768300  1.0  0.2352
  C  C219  1  0.985000  0.061600  0.678600  1.0  0.3596
  C  C220  1  0.038000  0.059000  0.472300  1.0  0.1344
  C  C221  1  0.915600  0.082300  0.478900  1.0  0.129
  C  C222  1  0.093900  0.367400  0.800500  1.0  0.6707
  C  C223  1  0.966700  0.109800  0.867500  1.0  0.7046
  C  C224  1  0.029600  0.331700  0.790900  1.0  -0.021
  C  C225  1  0.978200  0.077700  0.798500  1.0  -0.0016
  C  C226  1  0.023900  0.277200  0.776000  1.0  0.0312
  C  C227  1  0.004100  0.025900  0.788400  1.0  -0.0118
  C  C228  1  0.913100  0.310800  0.776800  1.0  0.2594
  C  C229  1  0.981500  0.067500  0.594400  1.0  0.004
  C  C230  1  0.043700  0.056600  0.549700  1.0  -0.1893
  C  C231  1  0.917400  0.082000  0.557700  1.0  -0.1794
  C  C232  1  0.711700  0.322500  0.813800  1.0  0.1456
  C  C233  1  0.080200  0.235600  0.765900  1.0  0.703
  C  C234  1  0.799800  0.316100  0.703000  1.0  -0.131
  C  C235  1  0.721400  0.317200  0.693500  1.0  0.0812
  C  C236  1  0.786200  0.319600  0.823900  1.0  -0.142
  C  C237  1  0.475300  0.517100  0.841900  1.0  0.7085
  C  C238  1  0.664700  0.183900  0.768300  1.0  0.2321
  C  C239  1  0.515000  0.438400  0.678600  1.0  0.359
  C  C240  1  0.462000  0.441000  0.472300  1.0  0.1326
  C  C241  1  0.584400  0.417700  0.478900  1.0  0.127
  C  C242  1  0.406100  0.132600  0.800500  1.0  0.6709
  C  C243  1  0.533300  0.390200  0.867500  1.0  0.7037
  C  C244  1  0.470400  0.168300  0.790900  1.0  -0.021
  C  C245  1  0.521800  0.422300  0.798500  1.0  -0.0
  C  C246  1  0.476100  0.222800  0.776000  1.0  0.0316
  C  C247  1  0.495900  0.474100  0.788400  1.0  -0.0119
  C  C248  1  0.586900  0.189200  0.776800  1.0  0.2584
  C  C249  1  0.518500  0.432500  0.594400  1.0  0.0041
  C  C250  1  0.456300  0.443400  0.549700  1.0  -0.1894
  C  C251  1  0.582600  0.418000  0.557700  1.0  -0.178
  C  C252  1  0.788300  0.177500  0.813800  1.0  0.1463
  C  C253  1  0.419800  0.264400  0.765900  1.0  0.7038
  C  C254  1  0.700200  0.183900  0.703000  1.0  -0.1299
  C  C255  1  0.778600  0.182800  0.693500  1.0  0.0805
  C  C256  1  0.713800  0.180400  0.823900  1.0  -0.1432
  N  N257  1  0.965100  0.400000  0.228200  1.0  -0.4424
  N  N258  1  0.009300  0.484200  0.211800  1.0  -0.3987
  N  N259  1  0.959600  0.148200  0.292400  1.0  -0.389
  N  N260  1  0.951800  0.236400  0.266200  1.0  -0.434
  N  N261  1  0.681200  0.177200  0.250100  1.0  -0.2492
  N  N262  1  0.972200  0.429600  0.935500  1.0  -0.369
  N  N263  1  0.534900  0.100000  0.228200  1.0  -0.4436
  N  N264  1  0.490700  0.015800  0.211800  1.0  -0.3978
  N  N265  1  0.540400  0.351800  0.292400  1.0  -0.3898
  N  N266  1  0.548200  0.263600  0.266200  1.0  -0.4321
  N  N267  1  0.818800  0.322800  0.250100  1.0  -0.2536
  N  N268  1  0.527800  0.070400  0.935500  1.0  -0.3688
  N  N269  1  0.034900  0.900000  0.271800  1.0  -0.4431
  N  N270  1  0.990700  0.984200  0.288200  1.0  -0.3978
  N  N271  1  0.040400  0.648200  0.207600  1.0  -0.3884
  N  N272  1  0.048200  0.736400  0.233800  1.0  -0.4339
  N  N273  1  0.318800  0.677200  0.249900  1.0  -0.2535
  N  N274  1  0.027800  0.929600  0.564500  1.0  -0.371
  N  N275  1  0.465100  0.600000  0.271800  1.0  -0.4432
  N  N276  1  0.509300  0.515800  0.288200  1.0  -0.3982
  N  N277  1  0.459600  0.851800  0.207600  1.0  -0.3899
  N  N278  1  0.451800  0.763600  0.233800  1.0  -0.4324
  N  N279  1  0.181200  0.822800  0.249900  1.0  -0.2483
  N  N280  1  0.472200  0.570400  0.564500  1.0  -0.3722
  N  N281  1  0.034900  0.600000  0.771800  1.0  -0.4441
  N  N282  1  0.990700  0.515800  0.788200  1.0  -0.3973
  N  N283  1  0.040400  0.851800  0.707600  1.0  -0.3895
  N  N284  1  0.048200  0.763600  0.733800  1.0  -0.4319
  N  N285  1  0.318800  0.822800  0.749900  1.0  -0.2539
  N  N286  1  0.027800  0.570400  0.064500  1.0  -0.3719
  N  N287  1  0.465100  0.900000  0.771800  1.0  -0.4422
  N  N288  1  0.509300  0.984200  0.788200  1.0  -0.3989
  N  N289  1  0.459600  0.648200  0.707600  1.0  -0.3891
  N  N290  1  0.451800  0.736400  0.733800  1.0  -0.4341
  N  N291  1  0.181200  0.677200  0.749900  1.0  -0.2495
  N  N292  1  0.472200  0.929600  0.064500  1.0  -0.3714
  N  N293  1  0.965100  0.100000  0.728200  1.0  -0.4429
  N  N294  1  0.009300  0.015800  0.711800  1.0  -0.3983
  N  N295  1  0.959600  0.351800  0.792400  1.0  -0.39
  N  N296  1  0.951800  0.263600  0.766200  1.0  -0.4324
  N  N297  1  0.681200  0.322800  0.750100  1.0  -0.2475
  N  N298  1  0.972200  0.070400  0.435500  1.0  -0.3688
  N  N299  1  0.534900  0.400000  0.728200  1.0  -0.4431
  N  N300  1  0.490700  0.484200  0.711800  1.0  -0.3974
  N  N301  1  0.540400  0.148200  0.792400  1.0  -0.3884
  N  N302  1  0.548200  0.236400  0.766200  1.0  -0.4339
  N  N303  1  0.818800  0.177200  0.750100  1.0  -0.2536
  N  N304  1  0.527800  0.429600  0.435500  1.0  -0.3692
  O  O305  1  0.946900  0.342200  0.359600  1.0  -0.6117
  O  O306  1  0.977800  0.412600  0.432000  1.0  -0.4737
  O  O307  1  0.045000  0.560900  0.316900  1.0  -0.6079
  O  O308  1  0.017600  0.507400  0.413400  1.0  -0.5282
  O  O309  1  0.080600  0.084500  0.308500  1.0  -0.5747
  O  O310  1  0.158600  0.153500  0.300900  1.0  -0.4571
  O  O311  1  0.063200  0.310100  0.246200  1.0  -0.5908
  O  O312  1  0.148700  0.251000  0.278100  1.0  -0.5396
  O  O313  1  0.553100  0.157800  0.359600  1.0  -0.612
  O  O314  1  0.522200  0.087400  0.432000  1.0  -0.4743
  O  O315  1  0.455000  0.939100  0.316900  1.0  -0.6099
  O  O316  1  0.482400  0.992600  0.413400  1.0  -0.5278
  O  O317  1  0.419400  0.415500  0.308500  1.0  -0.5767
  O  O318  1  0.341400  0.346500  0.300900  1.0  -0.4552
  O  O319  1  0.436800  0.189900  0.246200  1.0  -0.5896
  O  O320  1  0.351300  0.249000  0.278100  1.0  -0.5396
  O  O321  1  0.053100  0.842200  0.140400  1.0  -0.6098
  O  O322  1  0.022200  0.912600  0.068000  1.0  -0.4701
  O  O323  1  0.955000  0.060900  0.183100  1.0  -0.6083
  O  O324  1  0.982400  0.007400  0.086600  1.0  -0.5279
  O  O325  1  0.919400  0.584500  0.191500  1.0  -0.5758
  O  O326  1  0.841400  0.653500  0.199100  1.0  -0.4551
  O  O327  1  0.936800  0.810100  0.253800  1.0  -0.5916
  O  O328  1  0.851300  0.751000  0.221900  1.0  -0.5411
  O  O329  1  0.446900  0.657800  0.140400  1.0  -0.6107
  O  O330  1  0.477800  0.587400  0.068000  1.0  -0.4705
  O  O331  1  0.545000  0.439100  0.183100  1.0  -0.6088
  O  O332  1  0.517600  0.492600  0.086600  1.0  -0.5296
  O  O333  1  0.580600  0.915500  0.191500  1.0  -0.5728
  O  O334  1  0.658600  0.846500  0.199100  1.0  -0.457
  O  O335  1  0.563200  0.689900  0.253800  1.0  -0.5921
  O  O336  1  0.648700  0.749000  0.221900  1.0  -0.5408
  O  O337  1  0.053100  0.657800  0.640400  1.0  -0.6111
  O  O338  1  0.022200  0.587400  0.568000  1.0  -0.4703
  O  O339  1  0.955000  0.439100  0.683100  1.0  -0.6092
  O  O340  1  0.982400  0.492600  0.586600  1.0  -0.5295
  O  O341  1  0.919400  0.915500  0.691500  1.0  -0.5763
  O  O342  1  0.841400  0.846500  0.699100  1.0  -0.4554
  O  O343  1  0.936800  0.689900  0.753800  1.0  -0.5899
  O  O344  1  0.851300  0.749000  0.721900  1.0  -0.5411
  O  O345  1  0.446900  0.842200  0.640400  1.0  -0.6098
  O  O346  1  0.477800  0.912600  0.568000  1.0  -0.47
  O  O347  1  0.545000  0.060900  0.683100  1.0  -0.6073
  O  O348  1  0.517600  0.007400  0.586600  1.0  -0.5303
  O  O349  1  0.580600  0.584500  0.691500  1.0  -0.5739
  O  O350  1  0.658600  0.653500  0.699100  1.0  -0.457
  O  O351  1  0.563200  0.810100  0.753800  1.0  -0.5918
  O  O352  1  0.648700  0.751000  0.721900  1.0  -0.5414
  O  O353  1  0.946900  0.157800  0.859600  1.0  -0.6113
  O  O354  1  0.977800  0.087400  0.932000  1.0  -0.4742
  O  O355  1  0.045000  0.939100  0.816900  1.0  -0.6099
  O  O356  1  0.017600  0.992600  0.913400  1.0  -0.5298
  O  O357  1  0.080600  0.415500  0.808500  1.0  -0.5733
  O  O358  1  0.158600  0.346500  0.800900  1.0  -0.4568
  O  O359  1  0.063200  0.189900  0.746200  1.0  -0.5917
  O  O360  1  0.148700  0.249000  0.778100  1.0  -0.5391
  O  O361  1  0.553100  0.342200  0.859600  1.0  -0.6116
  O  O362  1  0.522200  0.412600  0.932000  1.0  -0.4738
  O  O363  1  0.455000  0.560900  0.816900  1.0  -0.6081
  O  O364  1  0.482400  0.507400  0.913400  1.0  -0.5285
  O  O365  1  0.419400  0.084500  0.808500  1.0  -0.5757
  O  O366  1  0.341400  0.153500  0.800900  1.0  -0.4552
  O  O367  1  0.436800  0.310100  0.746200  1.0  -0.5906
  O  O368  1  0.351300  0.251000  0.778100  1.0  -0.5401
