# generated using pymatgen
data_MnH2(CO2)2
_symmetry_space_group_name_H-M   'P 1'
_cell_length_a   10.24800000
_cell_length_b   11.71500000
_cell_length_c   15.15900000
_cell_angle_alpha   91.81000000
_cell_angle_beta   90.00000000
_cell_angle_gamma   90.00000000
_symmetry_Int_Tables_number   1
_chemical_formula_structural   MnH2(CO2)2
_chemical_formula_sum   'Mn12 H24 C24 O48'
_cell_volume   1819.01057103
_cell_formula_units_Z   12
loop_
 _symmetry_equiv_pos_site_id
 _symmetry_equiv_pos_as_xyz
  1  'x, y, z'
loop_
 _atom_site_type_symbol
 _atom_site_label
 _atom_site_symmetry_multiplicity
 _atom_site_fract_x
 _atom_site_fract_y
 _atom_site_fract_z
 _atom_site_occupancy
 _atom_site_charge
  Mn  Mn1  1  0.923060  0.243090  0.867860  1.0  1.1638
  Mn  Mn2  1  0.112060  0.261550  0.690350  1.0  1.1422
  Mn  Mn3  1  0.423060  0.256910  0.632140  1.0  1.1637
  Mn  Mn4  1  0.612060  0.238450  0.809650  1.0  1.1425
  Mn  Mn5  1  0.076940  0.756910  0.132140  1.0  1.1636
  Mn  Mn6  1  0.887940  0.738450  0.309650  1.0  1.1422
  Mn  Mn7  1  0.576940  0.743090  0.367860  1.0  1.1637
  Mn  Mn8  1  0.387940  0.761550  0.190350  1.0  1.142
  Mn  Mn9  1  0.000000  0.500000  0.000000  1.0  1.1577
  Mn  Mn10  1  0.500000  0.000000  0.500000  1.0  1.1577
  Mn  Mn11  1  0.000000  0.000000  0.000000  1.0  1.1716
  Mn  Mn12  1  0.500000  0.500000  0.500000  1.0  1.1716
  H  H13  1  0.042900  0.519300  0.742600  1.0  0.0022
  H  H14  1  0.710900  0.000200  0.973800  1.0  0.0021
  H  H15  1  0.207200  0.032200  0.782000  1.0  -0.0033
  H  H16  1  0.764600  0.148300  0.632400  1.0  0.0021
  H  H17  1  0.138100  0.302300  0.078600  1.0  -0.0024
  H  H18  1  0.625300  0.446900  0.945800  1.0  0.0034
  H  H19  1  0.542900  0.980700  0.757400  1.0  0.0022
  H  H20  1  0.210900  0.499800  0.526200  1.0  0.0019
  H  H21  1  0.707200  0.467800  0.718000  1.0  -0.0038
  H  H22  1  0.264600  0.351700  0.867600  1.0  0.0013
  H  H23  1  0.638100  0.197700  0.421400  1.0  -0.0023
  H  H24  1  0.125300  0.053100  0.554200  1.0  0.003
  H  H25  1  0.957100  0.480700  0.257400  1.0  0.0024
  H  H26  1  0.289100  0.999800  0.026200  1.0  0.0022
  H  H27  1  0.792800  0.967800  0.218000  1.0  -0.0034
  H  H28  1  0.235400  0.851700  0.367600  1.0  0.0014
  H  H29  1  0.861900  0.697700  0.921400  1.0  -0.0024
  H  H30  1  0.374700  0.553100  0.054200  1.0  0.0032
  H  H31  1  0.457100  0.019300  0.242600  1.0  0.0026
  H  H32  1  0.789100  0.500200  0.473800  1.0  0.0022
  H  H33  1  0.292800  0.532200  0.282000  1.0  -0.0032
  H  H34  1  0.735400  0.648300  0.132400  1.0  0.0019
  H  H35  1  0.361900  0.802300  0.578600  1.0  -0.0026
  H  H36  1  0.874700  0.946900  0.445800  1.0  0.0035
  C  C37  1  0.024200  0.479600  0.794100  1.0  0.6954
  C  C38  1  0.727600  0.062500  0.937800  1.0  0.6977
  C  C39  1  0.141000  0.056200  0.821300  1.0  0.6972
  C  C40  1  0.831900  0.176500  0.669100  1.0  0.6939
  C  C41  1  0.090900  0.258200  0.036700  1.0  0.707
  C  C42  1  0.714200  0.427600  0.941700  1.0  0.6918
  C  C43  1  0.524200  0.020400  0.705900  1.0  0.6961
  C  C44  1  0.227600  0.437500  0.562200  1.0  0.6978
  C  C45  1  0.641000  0.443800  0.678700  1.0  0.6974
  C  C46  1  0.331900  0.323500  0.830900  1.0  0.6942
  C  C47  1  0.590900  0.241800  0.463300  1.0  0.7069
  C  C48  1  0.214200  0.072400  0.558300  1.0  0.6923
  C  C49  1  0.975800  0.520400  0.205900  1.0  0.6954
  C  C50  1  0.272400  0.937500  0.062200  1.0  0.6977
  C  C51  1  0.859000  0.943800  0.178700  1.0  0.6963
  C  C52  1  0.168100  0.823500  0.330900  1.0  0.6946
  C  C53  1  0.909100  0.741800  0.963300  1.0  0.7069
  C  C54  1  0.285800  0.572400  0.058300  1.0  0.6926
  C  C55  1  0.475800  0.979600  0.294100  1.0  0.6957
  C  C56  1  0.772400  0.562500  0.437800  1.0  0.6976
  C  C57  1  0.359000  0.556200  0.321300  1.0  0.6964
  C  C58  1  0.668100  0.676500  0.169100  1.0  0.694
  C  C59  1  0.409100  0.758200  0.536700  1.0  0.7067
  C  C60  1  0.785800  0.927600  0.441700  1.0  0.692
  O  O61  1  0.084500  0.149600  0.804960  1.0  -0.6764
  O  O62  1  0.011800  0.372400  0.785290  1.0  -0.6807
  O  O63  1  0.804500  0.193900  0.750470  1.0  -0.6769
  O  O64  1  0.025400  0.312500  0.980590  1.0  -0.6808
  O  O65  1  0.744600  0.344000  0.889750  1.0  -0.6798
  O  O66  1  0.938600  0.193300  0.634310  1.0  -0.5954
  O  O67  1  0.844600  0.098000  0.935120  1.0  -0.67
  O  O68  1  0.791200  0.485200  0.987000  1.0  -0.5924
  O  O69  1  0.633800  0.101800  0.897870  1.0  -0.6032
  O  O70  1  0.098900  0.154600  0.041900  1.0  -0.6076
  O  O71  1  0.014400  0.536500  0.862130  1.0  -0.5966
  O  O72  1  0.118200  0.994000  0.882800  1.0  -0.5969
  O  O73  1  0.584500  0.350400  0.695040  1.0  -0.6768
  O  O74  1  0.511800  0.127600  0.714710  1.0  -0.6801
  O  O75  1  0.304500  0.306100  0.749530  1.0  -0.6774
  O  O76  1  0.525400  0.187500  0.519410  1.0  -0.6803
  O  O77  1  0.244600  0.156000  0.610250  1.0  -0.6798
  O  O78  1  0.438600  0.306700  0.865690  1.0  -0.5948
  O  O79  1  0.344600  0.402000  0.564880  1.0  -0.67
  O  O80  1  0.291200  0.014800  0.513000  1.0  -0.5934
  O  O81  1  0.133800  0.398200  0.602130  1.0  -0.6035
  O  O82  1  0.598900  0.345400  0.458100  1.0  -0.6087
  O  O83  1  0.514400  0.963500  0.637870  1.0  -0.5975
  O  O84  1  0.618200  0.506000  0.617200  1.0  -0.5959
  O  O85  1  0.915500  0.850400  0.195040  1.0  -0.6771
  O  O86  1  0.988200  0.627600  0.214710  1.0  -0.6801
  O  O87  1  0.195500  0.806100  0.249530  1.0  -0.6779
  O  O88  1  0.974600  0.687500  0.019410  1.0  -0.6804
  O  O89  1  0.255400  0.656000  0.110250  1.0  -0.6794
  O  O90  1  0.061400  0.806700  0.365690  1.0  -0.5945
  O  O91  1  0.155400  0.902000  0.064880  1.0  -0.6703
  O  O92  1  0.208800  0.514800  0.013000  1.0  -0.5931
  O  O93  1  0.366200  0.898200  0.102130  1.0  -0.6043
  O  O94  1  0.901100  0.845400  0.958100  1.0  -0.608
  O  O95  1  0.985600  0.463500  0.137870  1.0  -0.5969
  O  O96  1  0.881800  0.006000  0.117200  1.0  -0.5964
  O  O97  1  0.415500  0.649600  0.304960  1.0  -0.6766
  O  O98  1  0.488200  0.872400  0.285290  1.0  -0.6809
  O  O99  1  0.695500  0.693900  0.250470  1.0  -0.6771
  O  O100  1  0.474600  0.812500  0.480590  1.0  -0.6811
  O  O101  1  0.755400  0.844000  0.389750  1.0  -0.6795
  O  O102  1  0.561400  0.693300  0.134310  1.0  -0.5948
  O  O103  1  0.655400  0.598000  0.435120  1.0  -0.6705
  O  O104  1  0.708800  0.985200  0.487000  1.0  -0.5922
  O  O105  1  0.866200  0.601800  0.397870  1.0  -0.6041
  O  O106  1  0.401100  0.654600  0.541900  1.0  -0.6073
  O  O107  1  0.485600  0.036500  0.362130  1.0  -0.5962
  O  O108  1  0.381800  0.494000  0.382800  1.0  -0.5969
