# generated using pymatgen
data_Be3P4(HO3)4
_symmetry_space_group_name_H-M   'P 1'
_cell_length_a   14.69050000
_cell_length_b   8.04720000
_cell_length_c   15.86880000
_cell_angle_alpha   90.00000000
_cell_angle_beta   112.92900000
_cell_angle_gamma   90.00000000
_symmetry_Int_Tables_number   1
_chemical_formula_structural   Be3P4(HO3)4
_chemical_formula_sum   'Be12 P16 H16 O48'
_cell_volume   1727.74477588
_cell_formula_units_Z   4
loop_
 _symmetry_equiv_pos_site_id
 _symmetry_equiv_pos_as_xyz
  1  'x, y, z'
loop_
 _atom_site_type_symbol
 _atom_site_label
 _atom_site_symmetry_multiplicity
 _atom_site_fract_x
 _atom_site_fract_y
 _atom_site_fract_z
 _atom_site_occupancy
 _atom_site_charge
  Be  Be1  1  0.361600  0.368100  0.471400  1.0  1.15
  Be  Be2  1  0.861600  0.868100  0.471400  1.0  1.1499
  Be  Be3  1  0.638400  0.368100  0.028600  1.0  1.1479
  Be  Be4  1  0.138400  0.868100  0.028600  1.0  1.1479
  Be  Be5  1  0.638400  0.631900  0.528600  1.0  1.1475
  Be  Be6  1  0.138400  0.131900  0.528600  1.0  1.1473
  Be  Be7  1  0.361600  0.631900  0.971400  1.0  1.1495
  Be  Be8  1  0.861600  0.131900  0.971400  1.0  1.1494
  Be  Be9  1  0.500000  0.634100  0.250000  1.0  1.0997
  Be  Be10  1  0.000000  0.134100  0.250000  1.0  1.0997
  Be  Be11  1  0.500000  0.365900  0.750000  1.0  1.0995
  Be  Be12  1  0.000000  0.865900  0.750000  1.0  1.0995
  P  P13  1  0.516460  0.393590  0.396240  1.0  1.6144
  P  P14  1  0.352250  0.150570  0.621410  1.0  1.5836
  P  P15  1  0.016460  0.893590  0.396240  1.0  1.6144
  P  P16  1  0.852250  0.650570  0.621410  1.0  1.5836
  P  P17  1  0.483540  0.393590  0.103760  1.0  1.614
  P  P18  1  0.647750  0.150570  0.878590  1.0  1.5851
  P  P19  1  0.983540  0.893590  0.103760  1.0  1.614
  P  P20  1  0.147750  0.650570  0.878590  1.0  1.5851
  P  P21  1  0.483540  0.606410  0.603760  1.0  1.6098
  P  P22  1  0.647750  0.849430  0.378590  1.0  1.5836
  P  P23  1  0.983540  0.106410  0.603760  1.0  1.6098
  P  P24  1  0.147750  0.349430  0.378590  1.0  1.5836
  P  P25  1  0.516460  0.606410  0.896240  1.0  1.6105
  P  P26  1  0.352250  0.849430  0.121410  1.0  1.5829
  P  P27  1  0.016460  0.106410  0.896240  1.0  1.6105
  P  P28  1  0.852250  0.349430  0.121410  1.0  1.5829
  H  H29  1  0.543000  0.269000  0.354400  1.0  -0.0994
  H  H30  1  0.409000  0.006000  0.648400  1.0  -0.1009
  H  H31  1  0.043000  0.769000  0.354400  1.0  -0.0994
  H  H32  1  0.909000  0.506000  0.648400  1.0  -0.1009
  H  H33  1  0.457000  0.269000  0.145600  1.0  -0.097
  H  H34  1  0.591000  0.006000  0.851600  1.0  -0.1016
  H  H35  1  0.957000  0.769000  0.145600  1.0  -0.097
  H  H36  1  0.091000  0.506000  0.851600  1.0  -0.1016
  H  H37  1  0.457000  0.731000  0.645600  1.0  -0.0969
  H  H38  1  0.591000  0.994000  0.351600  1.0  -0.1003
  H  H39  1  0.957000  0.231000  0.645600  1.0  -0.0969
  H  H40  1  0.091000  0.494000  0.351600  1.0  -0.1003
  H  H41  1  0.543000  0.731000  0.854400  1.0  -0.099
  H  H42  1  0.409000  0.994000  0.148400  1.0  -0.1002
  H  H43  1  0.043000  0.231000  0.854400  1.0  -0.099
  H  H44  1  0.909000  0.494000  0.148400  1.0  -0.1002
  O  O45  1  0.607780  0.449800  0.476980  1.0  -0.8442
  O  O46  1  0.437750  0.321500  0.423480  1.0  -0.7912
  O  O47  1  0.476100  0.526600  0.324340  1.0  -0.7594
  O  O48  1  0.248360  0.106400  0.608130  1.0  -0.7533
  O  O49  1  0.400710  0.253200  0.706130  1.0  -0.7058
  O  O50  1  0.364860  0.219000  0.538720  1.0  -0.8421
  O  O51  1  0.107780  0.949800  0.476980  1.0  -0.8425
  O  O52  1  0.937750  0.821500  0.423480  1.0  -0.7912
  O  O53  1  0.976100  0.026600  0.324340  1.0  -0.7594
  O  O54  1  0.748360  0.606400  0.608130  1.0  -0.7533
  O  O55  1  0.900710  0.753200  0.706130  1.0  -0.7058
  O  O56  1  0.864860  0.719000  0.538720  1.0  -0.8421
  O  O57  1  0.392220  0.449800  0.023020  1.0  -0.8412
  O  O58  1  0.562250  0.321500  0.076520  1.0  -0.7919
  O  O59  1  0.523900  0.526600  0.175660  1.0  -0.7582
  O  O60  1  0.751640  0.106400  0.891870  1.0  -0.7532
  O  O61  1  0.599290  0.253200  0.793870  1.0  -0.7041
  O  O62  1  0.635140  0.219000  0.961280  1.0  -0.8456
  O  O63  1  0.892220  0.949800  0.023020  1.0  -0.8397
  O  O64  1  0.062250  0.821500  0.076520  1.0  -0.7921
  O  O65  1  0.023900  0.026600  0.175660  1.0  -0.7582
  O  O66  1  0.251640  0.606400  0.891870  1.0  -0.7532
  O  O67  1  0.099290  0.753200  0.793870  1.0  -0.7041
  O  O68  1  0.135140  0.719000  0.961280  1.0  -0.8456
  O  O69  1  0.392220  0.550200  0.523020  1.0  -0.8403
  O  O70  1  0.562250  0.678500  0.576520  1.0  -0.793
  O  O71  1  0.523900  0.473400  0.675660  1.0  -0.7588
  O  O72  1  0.751640  0.893600  0.391870  1.0  -0.7517
  O  O73  1  0.599290  0.746800  0.293870  1.0  -0.7041
  O  O74  1  0.635140  0.781000  0.461280  1.0  -0.8487
  O  O75  1  0.892220  0.050200  0.523020  1.0  -0.8403
  O  O76  1  0.062250  0.178500  0.576520  1.0  -0.7932
  O  O77  1  0.023900  0.973400  0.675660  1.0  -0.7588
  O  O78  1  0.251640  0.393600  0.391870  1.0  -0.752
  O  O79  1  0.099290  0.246800  0.293870  1.0  -0.7041
  O  O80  1  0.135140  0.281000  0.461280  1.0  -0.8479
  O  O81  1  0.607780  0.550200  0.976980  1.0  -0.8426
  O  O82  1  0.437750  0.678500  0.923480  1.0  -0.7931
  O  O83  1  0.476100  0.473400  0.824340  1.0  -0.7591
  O  O84  1  0.248360  0.893600  0.108130  1.0  -0.7522
  O  O85  1  0.400710  0.746800  0.206130  1.0  -0.7049
  O  O86  1  0.364860  0.781000  0.038720  1.0  -0.8456
  O  O87  1  0.107780  0.050200  0.976980  1.0  -0.8426
  O  O88  1  0.937750  0.178500  0.923480  1.0  -0.7933
  O  O89  1  0.976100  0.973400  0.824340  1.0  -0.7591
  O  O90  1  0.748360  0.393600  0.108130  1.0  -0.7524
  O  O91  1  0.900710  0.246800  0.206130  1.0  -0.7049
  O  O92  1  0.864860  0.281000  0.038720  1.0  -0.8448
