# generated using pymatgen
data_Co3H64C84(NO3)6
_symmetry_space_group_name_H-M   'P 1'
_cell_length_a   13.64400000
_cell_length_b   13.64400000
_cell_length_c   26.60900000
_cell_angle_alpha   99.28860000
_cell_angle_beta   99.28860000
_cell_angle_gamma   104.46400000
_symmetry_Int_Tables_number   1
_chemical_formula_structural   Co3H64C84(NO3)6
_chemical_formula_sum   'Co6 H128 C168 N12 O36'
_cell_volume   4626.93578704
_cell_formula_units_Z   2
loop_
 _symmetry_equiv_pos_site_id
 _symmetry_equiv_pos_as_xyz
  1  'x, y, z'
loop_
 _atom_site_type_symbol
 _atom_site_label
 _atom_site_symmetry_multiplicity
 _atom_site_fract_x
 _atom_site_fract_y
 _atom_site_fract_z
 _atom_site_occupancy
 _atom_site_charge
  Co  Co1  1  0.422320  0.460840  0.556950  1.0  0.9503
  Co  Co2  1  0.539160  0.577680  0.943050  1.0  0.9484
  Co  Co3  1  0.577680  0.539160  0.443050  1.0  0.9481
  Co  Co4  1  0.460840  0.422320  0.056950  1.0  0.9506
  Co  Co5  1  0.500000  0.000000  0.000000  1.0  0.8992
  Co  Co6  1  0.000000  0.500000  0.500000  1.0  0.8992
  H  H7  1  0.188800  0.283600  0.437300  1.0  0.1081
  H  H8  1  0.060000  0.174200  0.369800  1.0  0.1295
  H  H9  1  0.196800  0.308200  0.267800  1.0  0.1362
  H  H10  1  0.321600  0.421000  0.335700  1.0  0.104
  H  H11  1  0.946500  0.083900  0.307900  1.0  0.1353
  H  H12  1  0.322100  0.601300  0.497000  1.0  0.0744
  H  H13  1  0.332100  0.770700  0.500000  1.0  0.1074
  H  H14  1  0.510700  0.986300  0.593800  1.0  0.0971
  H  H15  1  0.550700  0.844300  0.630100  1.0  0.1236
  H  H16  1  0.530100  0.672100  0.624500  1.0  0.067
  H  H17  1  0.552300  0.322500  0.598000  1.0  0.0772
  H  H18  1  0.548000  0.151400  0.591500  1.0  0.1107
  H  H19  1  0.345000  0.936200  0.514600  1.0  0.0915
  H  H20  1  0.271500  0.075100  0.499100  1.0  0.1166
  H  H21  1  0.284200  0.247400  0.507100  1.0  0.0837
  H  H22  1  0.113900  0.351500  0.610800  1.0  0.0891
  H  H23  1  0.013500  0.307700  0.668400  1.0  0.1101
  H  H24  1  0.247200  0.472400  0.785400  1.0  0.1195
  H  H25  1  0.349600  0.503600  0.727900  1.0  0.0903
  H  H26  1  0.746400  0.273600  0.847000  1.0  0.1454
  H  H27  1  0.659600  0.200600  0.906800  1.0  0.0964
  H  H28  1  0.891900  0.086500  0.952400  1.0  0.1011
  H  H29  1  0.978600  0.155200  0.893100  1.0  0.1255
  H  H30  1  0.347800  0.796800  0.930500  1.0  0.0685
  H  H31  1  0.475600  0.053600  0.890800  1.0  0.0747
  H  H32  1  0.398400  0.985200  0.805600  1.0  0.1247
  H  H33  1  0.276400  0.720000  0.845000  1.0  0.1109
  H  H34  1  0.314700  0.827900  0.735300  1.0  0.1007
  H  H35  1  0.052800  0.238800  0.836300  1.0  0.0593
  H  H36  1  0.964100  0.141100  0.804100  1.0  0.0504
  H  H37  1  0.049800  0.205600  0.745800  1.0  0.0737
  H  H38  1  0.944100  0.233300  0.736700  1.0  0.0772
  H  H39  1  0.716400  0.811200  0.062700  1.0  0.1073
  H  H40  1  0.825800  0.940000  0.130200  1.0  0.1311
  H  H41  1  0.691800  0.803200  0.232200  1.0  0.1368
  H  H42  1  0.579000  0.678400  0.164300  1.0  0.1036
  H  H43  1  0.916100  0.053500  0.192100  1.0  0.1361
  H  H44  1  0.398700  0.677900  0.003000  1.0  0.0753
  H  H45  1  0.229300  0.667900  0.000000  1.0  0.1079
  H  H46  1  0.013700  0.489300  0.906200  1.0  0.0966
  H  H47  1  0.155700  0.449300  0.869900  1.0  0.1235
  H  H48  1  0.327900  0.469900  0.875500  1.0  0.0668
  H  H49  1  0.677500  0.447700  0.902000  1.0  0.0769
  H  H50  1  0.848600  0.452000  0.908500  1.0  0.1105
  H  H51  1  0.063800  0.655000  0.985400  1.0  0.0901
  H  H52  1  0.924900  0.728500  0.000900  1.0  0.1158
  H  H53  1  0.752600  0.715800  0.992900  1.0  0.0839
  H  H54  1  0.648500  0.886100  0.889200  1.0  0.0902
  H  H55  1  0.692300  0.986500  0.831600  1.0  0.1104
  H  H56  1  0.527600  0.752800  0.714600  1.0  0.12
  H  H57  1  0.496400  0.650400  0.772100  1.0  0.0891
  H  H58  1  0.726400  0.253600  0.653000  1.0  0.1461
  H  H59  1  0.799400  0.340400  0.593200  1.0  0.0954
  H  H60  1  0.913500  0.108100  0.547600  1.0  0.1009
  H  H61  1  0.844800  0.021400  0.606900  1.0  0.1252
  H  H62  1  0.203200  0.652200  0.569500  1.0  0.0684
  H  H63  1  0.946400  0.524400  0.609200  1.0  0.0728
  H  H64  1  0.014800  0.601600  0.694400  1.0  0.1251
  H  H65  1  0.280000  0.723600  0.655000  1.0  0.11
  H  H66  1  0.172100  0.685300  0.764700  1.0  0.1009
  H  H67  1  0.761200  0.947200  0.663700  1.0  0.0622
  H  H68  1  0.858900  0.035900  0.695900  1.0  0.0465
  H  H69  1  0.794400  0.950200  0.754200  1.0  0.0732
  H  H70  1  0.766700  0.055900  0.763300  1.0  0.081
  H  H71  1  0.811200  0.716400  0.562700  1.0  0.1075
  H  H72  1  0.940000  0.825800  0.630200  1.0  0.1302
  H  H73  1  0.803200  0.691800  0.732200  1.0  0.1356
  H  H74  1  0.678400  0.579000  0.664300  1.0  0.1036
  H  H75  1  0.053500  0.916100  0.692100  1.0  0.1362
  H  H76  1  0.677900  0.398700  0.503000  1.0  0.0752
  H  H77  1  0.667900  0.229300  0.500000  1.0  0.1073
  H  H78  1  0.489300  0.013700  0.406200  1.0  0.0961
  H  H79  1  0.449300  0.155700  0.369900  1.0  0.1232
  H  H80  1  0.469900  0.327900  0.375500  1.0  0.0665
  H  H81  1  0.447700  0.677500  0.402000  1.0  0.0769
  H  H82  1  0.452000  0.848600  0.408500  1.0  0.1094
  H  H83  1  0.655000  0.063800  0.485400  1.0  0.0902
  H  H84  1  0.728500  0.924900  0.500900  1.0  0.1162
  H  H85  1  0.715800  0.752600  0.492900  1.0  0.0836
  H  H86  1  0.886100  0.648500  0.389200  1.0  0.0893
  H  H87  1  0.986500  0.692300  0.331600  1.0  0.1098
  H  H88  1  0.752800  0.527600  0.214600  1.0  0.1201
  H  H89  1  0.650400  0.496400  0.272100  1.0  0.0889
  H  H90  1  0.253600  0.726400  0.153000  1.0  0.1456
  H  H91  1  0.340400  0.799400  0.093200  1.0  0.0961
  H  H92  1  0.108100  0.913500  0.047600  1.0  0.1008
  H  H93  1  0.021400  0.844800  0.106900  1.0  0.129
  H  H94  1  0.652200  0.203200  0.069500  1.0  0.0682
  H  H95  1  0.524400  0.946400  0.109200  1.0  0.0747
  H  H96  1  0.601600  0.014800  0.194400  1.0  0.1246
  H  H97  1  0.723600  0.280000  0.155000  1.0  0.1109
  H  H98  1  0.685300  0.172100  0.264700  1.0  0.1001
  H  H99  1  0.947200  0.761200  0.163700  1.0  0.0567
  H  H100  1  0.035900  0.858900  0.195900  1.0  0.053
  H  H101  1  0.950200  0.794400  0.254200  1.0  0.0723
  H  H102  1  0.055900  0.766700  0.263300  1.0  0.0768
  H  H103  1  0.283600  0.188800  0.937300  1.0  0.1073
  H  H104  1  0.174200  0.060000  0.869800  1.0  0.1299
  H  H105  1  0.308200  0.196800  0.767800  1.0  0.1362
  H  H106  1  0.421000  0.321600  0.835700  1.0  0.104
  H  H107  1  0.083900  0.946500  0.807900  1.0  0.1356
  H  H108  1  0.601300  0.322100  0.997000  1.0  0.0746
  H  H109  1  0.770700  0.332100  0.000000  1.0  0.1074
  H  H110  1  0.986300  0.510700  0.093800  1.0  0.0975
  H  H111  1  0.844300  0.550700  0.130100  1.0  0.1234
  H  H112  1  0.672100  0.530100  0.124500  1.0  0.0665
  H  H113  1  0.322500  0.552300  0.098000  1.0  0.0773
  H  H114  1  0.151400  0.548000  0.091500  1.0  0.1106
  H  H115  1  0.936200  0.345000  0.014600  1.0  0.0902
  H  H116  1  0.075100  0.271500  0.999100  1.0  0.1159
  H  H117  1  0.247400  0.284200  0.007100  1.0  0.0843
  H  H118  1  0.351500  0.113900  0.110800  1.0  0.091
  H  H119  1  0.307700  0.013500  0.168400  1.0  0.1104
  H  H120  1  0.472400  0.247200  0.285400  1.0  0.1195
  H  H121  1  0.503600  0.349600  0.227900  1.0  0.0885
  H  H122  1  0.273600  0.746400  0.347000  1.0  0.1458
  H  H123  1  0.200600  0.659600  0.406800  1.0  0.0958
  H  H124  1  0.086500  0.891900  0.452400  1.0  0.101
  H  H125  1  0.155200  0.978600  0.393100  1.0  0.1251
  H  H126  1  0.796800  0.347800  0.430500  1.0  0.0682
  H  H127  1  0.053600  0.475600  0.390800  1.0  0.0733
  H  H128  1  0.985200  0.398400  0.305600  1.0  0.1254
  H  H129  1  0.720000  0.276400  0.345000  1.0  0.1092
  H  H130  1  0.827900  0.314700  0.235300  1.0  0.1012
  H  H131  1  0.238800  0.052800  0.336300  1.0  0.0618
  H  H132  1  0.141100  0.964100  0.304100  1.0  0.045
  H  H133  1  0.205600  0.049800  0.245800  1.0  0.0741
  H  H134  1  0.233300  0.944100  0.236700  1.0  0.0814
  C  C135  1  0.338600  0.228400  0.525400  1.0  0.1824
  C  C136  1  0.330500  0.123900  0.520000  1.0  -0.216
  C  C137  1  0.493700  0.272100  0.577800  1.0  0.1767
  C  C138  1  0.491300  0.168300  0.573900  1.0  -0.2139
  C  C139  1  0.407700  0.091500  0.545100  1.0  0.1347
  C  C140  1  0.355000  0.431800  0.436100  1.0  0.6697
  C  C141  1  0.267900  0.363300  0.392800  1.0  -0.1768
  C  C142  1  0.190300  0.289500  0.403100  1.0  0.0174
  C  C143  1  0.113800  0.223200  0.362600  1.0  -0.2663
  C  C144  1  0.117200  0.229600  0.313000  1.0  0.27
  C  C145  1  0.194500  0.303300  0.302100  1.0  -0.2244
  C  C146  1  0.269200  0.370200  0.342800  1.0  -0.0102
  C  C147  1  0.963600  0.095200  0.276500  1.0  -0.0408
  C  C148  1  0.368700  0.650900  0.524200  1.0  0.1856
  C  C149  1  0.374800  0.752800  0.525700  1.0  -0.19
  C  C150  1  0.443700  0.829700  0.565000  1.0  0.1321
  C  C151  1  0.455800  0.941000  0.568600  1.0  -0.1069
  C  C152  1  0.503200  0.796600  0.602600  1.0  -0.212
  C  C153  1  0.490800  0.692800  0.598520  1.0  0.1778
  C  C154  1  0.398300  0.981700  0.540600  1.0  -0.1038
  C  C155  1  0.313500  0.449500  0.625700  1.0  0.6522
  C  C156  1  0.245600  0.431200  0.662670  1.0  -0.1611
  C  C157  1  0.142200  0.373400  0.646400  1.0  -0.0043
  C  C158  1  0.081800  0.348000  0.680400  1.0  -0.2681
  C  C159  1  0.121400  0.382000  0.732900  1.0  0.2847
  C  C160  1  0.221200  0.444400  0.750100  1.0  -0.2433
  C  C161  1  0.280800  0.464800  0.715500  1.0  0.0074
  C  C162  1  0.870800  0.217600  0.864600  1.0  0.2863
  C  C163  1  0.774800  0.234800  0.867800  1.0  -0.249
  C  C164  1  0.723700  0.191100  0.903800  1.0  -0.0005
  C  C165  1  0.766500  0.134100  0.934900  1.0  -0.1897
  C  C166  1  0.861700  0.122900  0.930800  1.0  0.0124
  C  C167  1  0.914100  0.164100  0.895500  1.0  -0.2827
  C  C168  1  0.707600  0.080000  0.970600  1.0  0.6804
  C  C169  1  0.359600  0.835200  0.905100  1.0  0.1956
  C  C170  1  0.433100  0.985700  0.881780  1.0  0.1814
  C  C171  1  0.388400  0.944400  0.830200  1.0  -0.2037
  C  C172  1  0.328500  0.842900  0.814700  1.0  0.1375
  C  C173  1  0.315600  0.789000  0.853600  1.0  -0.1827
  C  C174  1  0.282800  0.796600  0.759300  1.0  -0.1254
  C  C175  1  0.989000  0.216000  0.810000  1.0  0.0893
  C  C176  1  0.009300  0.246700  0.761200  1.0  0.0678
  C  C177  1  0.771600  0.661400  0.974600  1.0  0.1814
  C  C178  1  0.876100  0.669500  0.980000  1.0  -0.2187
  C  C179  1  0.727900  0.506300  0.922200  1.0  0.1789
  C  C180  1  0.831700  0.508700  0.926100  1.0  -0.2141
  C  C181  1  0.908500  0.592300  0.954900  1.0  0.1358
  C  C182  1  0.568200  0.645000  0.063900  1.0  0.6708
  C  C183  1  0.636700  0.732100  0.107200  1.0  -0.1787
  C  C184  1  0.710500  0.809700  0.096900  1.0  0.0132
  C  C185  1  0.776800  0.886200  0.137400  1.0  -0.2657
  C  C186  1  0.770400  0.882800  0.187000  1.0  0.2692
  C  C187  1  0.696700  0.805500  0.197900  1.0  -0.2277
  C  C188  1  0.629800  0.730800  0.157200  1.0  -0.0091
  C  C189  1  0.904800  0.036400  0.223500  1.0  -0.0377
  C  C190  1  0.349100  0.631300  0.975800  1.0  0.185
  C  C191  1  0.247200  0.625200  0.974300  1.0  -0.1917
  C  C192  1  0.170300  0.556300  0.935000  1.0  0.1318
  C  C193  1  0.059000  0.544200  0.931400  1.0  -0.1079
  C  C194  1  0.203400  0.496800  0.897400  1.0  -0.2138
  C  C195  1  0.307200  0.509200  0.901480  1.0  0.1772
  C  C196  1  0.018300  0.601700  0.959400  1.0  -0.1015
  C  C197  1  0.550500  0.686500  0.874300  1.0  0.6532
  C  C198  1  0.568800  0.754400  0.837330  1.0  -0.1588
  C  C199  1  0.626600  0.857800  0.853600  1.0  0.0009
  C  C200  1  0.652000  0.918200  0.819600  1.0  -0.2693
  C  C201  1  0.618000  0.878600  0.767100  1.0  0.2843
  C  C202  1  0.555600  0.778800  0.749900  1.0  -0.2436
  C  C203  1  0.535200  0.719200  0.784500  1.0  0.0059
  C  C204  1  0.782400  0.129200  0.635400  1.0  0.2864
  C  C205  1  0.765200  0.225200  0.632200  1.0  -0.252
  C  C206  1  0.808900  0.276300  0.596200  1.0  -0.0024
  C  C207  1  0.865900  0.233500  0.565100  1.0  -0.1892
  C  C208  1  0.877100  0.138300  0.569200  1.0  0.0124
  C  C209  1  0.835900  0.085900  0.604500  1.0  -0.2842
  C  C210  1  0.920000  0.292400  0.529400  1.0  0.6809
  C  C211  1  0.164800  0.640400  0.594900  1.0  0.1935
  C  C212  1  0.014300  0.566900  0.618220  1.0  0.1822
  C  C213  1  0.055600  0.611600  0.669800  1.0  -0.203
  C  C214  1  0.157100  0.671500  0.685300  1.0  0.1373
  C  C215  1  0.211000  0.684400  0.646400  1.0  -0.182
  C  C216  1  0.203400  0.717200  0.740700  1.0  -0.126
  C  C217  1  0.784000  0.011000  0.690000  1.0  0.0885
  C  C218  1  0.753300  0.990700  0.738800  1.0  0.0676
  C  C219  1  0.661400  0.771600  0.474600  1.0  0.1827
  C  C220  1  0.669500  0.876100  0.480000  1.0  -0.2155
  C  C221  1  0.506300  0.727900  0.422200  1.0  0.1777
  C  C222  1  0.508700  0.831700  0.426100  1.0  -0.2132
  C  C223  1  0.592300  0.908500  0.454900  1.0  0.1339
  C  C224  1  0.645000  0.568200  0.563900  1.0  0.669
  C  C225  1  0.732100  0.636700  0.607200  1.0  -0.1776
  C  C226  1  0.809700  0.710500  0.596900  1.0  0.0118
  C  C227  1  0.886200  0.776800  0.637400  1.0  -0.2659
  C  C228  1  0.882800  0.770400  0.687000  1.0  0.2689
  C  C229  1  0.805500  0.696700  0.697900  1.0  -0.2286
  C  C230  1  0.730800  0.629800  0.657200  1.0  -0.0122
  C  C231  1  0.036400  0.904800  0.723500  1.0  -0.0396
  C  C232  1  0.631300  0.349100  0.475800  1.0  0.1847
  C  C233  1  0.625200  0.247200  0.474300  1.0  -0.1894
  C  C234  1  0.556300  0.170300  0.435000  1.0  0.1314
  C  C235  1  0.544200  0.059000  0.431400  1.0  -0.1053
  C  C236  1  0.496800  0.203400  0.397400  1.0  -0.2121
  C  C237  1  0.509200  0.307200  0.401480  1.0  0.1779
  C  C238  1  0.601700  0.018300  0.459400  1.0  -0.1008
  C  C239  1  0.686500  0.550500  0.374300  1.0  0.651
  C  C240  1  0.754400  0.568800  0.337330  1.0  -0.1551
  C  C241  1  0.857800  0.626600  0.353600  1.0  0.0024
  C  C242  1  0.918200  0.652000  0.319600  1.0  -0.2682
  C  C243  1  0.878600  0.618000  0.267100  1.0  0.2837
  C  C244  1  0.778800  0.555600  0.249900  1.0  -0.2438
  C  C245  1  0.719200  0.535200  0.284500  1.0  0.0066
  C  C246  1  0.129200  0.782400  0.135400  1.0  0.2873
  C  C247  1  0.225200  0.765200  0.132200  1.0  -0.2506
  C  C248  1  0.276300  0.808900  0.096200  1.0  -0.0016
  C  C249  1  0.233500  0.865900  0.065100  1.0  -0.1893
  C  C250  1  0.138300  0.877100  0.069200  1.0  0.0108
  C  C251  1  0.085900  0.835900  0.104500  1.0  -0.2853
  C  C252  1  0.292400  0.920000  0.029400  1.0  0.6802
  C  C253  1  0.640400  0.164800  0.094900  1.0  0.194
  C  C254  1  0.566900  0.014300  0.118220  1.0  0.1822
  C  C255  1  0.611600  0.055600  0.169800  1.0  -0.2031
  C  C256  1  0.671500  0.157100  0.185300  1.0  0.1365
  C  C257  1  0.684400  0.211000  0.146400  1.0  -0.1835
  C  C258  1  0.717200  0.203400  0.240700  1.0  -0.1246
  C  C259  1  0.011000  0.784000  0.190000  1.0  0.0893
  C  C260  1  0.990700  0.753300  0.238800  1.0  0.0693
  C  C261  1  0.228400  0.338600  0.025400  1.0  0.1805
  C  C262  1  0.123900  0.330500  0.020000  1.0  -0.2184
  C  C263  1  0.272100  0.493700  0.077800  1.0  0.1766
  C  C264  1  0.168300  0.491300  0.073900  1.0  -0.2134
  C  C265  1  0.091500  0.407700  0.045100  1.0  0.1362
  C  C266  1  0.431800  0.355000  0.936100  1.0  0.6709
  C  C267  1  0.363300  0.267900  0.892800  1.0  -0.174
  C  C268  1  0.289500  0.190300  0.903100  1.0  0.0182
  C  C269  1  0.223200  0.113800  0.862600  1.0  -0.2656
  C  C270  1  0.229600  0.117200  0.813000  1.0  0.27
  C  C271  1  0.303300  0.194500  0.802100  1.0  -0.2252
  C  C272  1  0.370200  0.269200  0.842800  1.0  -0.007
  C  C273  1  0.095200  0.963600  0.776500  1.0  -0.0396
  C  C274  1  0.650900  0.368700  0.024200  1.0  0.1854
  C  C275  1  0.752800  0.374800  0.025700  1.0  -0.1915
  C  C276  1  0.829700  0.443700  0.065000  1.0  0.1311
  C  C277  1  0.941000  0.455800  0.068600  1.0  -0.1063
  C  C278  1  0.796600  0.503200  0.102600  1.0  -0.2142
  C  C279  1  0.692800  0.490800  0.098520  1.0  0.1767
  C  C280  1  0.981700  0.398300  0.040600  1.0  -0.1024
  C  C281  1  0.449500  0.313500  0.125700  1.0  0.6524
  C  C282  1  0.431200  0.245600  0.162670  1.0  -0.1618
  C  C283  1  0.373400  0.142200  0.146400  1.0  -0.0018
  C  C284  1  0.348000  0.081800  0.180400  1.0  -0.2696
  C  C285  1  0.382000  0.121400  0.232900  1.0  0.2851
  C  C286  1  0.444400  0.221200  0.250100  1.0  -0.2431
  C  C287  1  0.464800  0.280800  0.215500  1.0  0.0062
  C  C288  1  0.217600  0.870800  0.364600  1.0  0.2877
  C  C289  1  0.234800  0.774800  0.367800  1.0  -0.2509
  C  C290  1  0.191100  0.723700  0.403800  1.0  -0.0032
  C  C291  1  0.134100  0.766500  0.434900  1.0  -0.1885
  C  C292  1  0.122900  0.861700  0.430800  1.0  0.0104
  C  C293  1  0.164100  0.914100  0.395500  1.0  -0.2866
  C  C294  1  0.080000  0.707600  0.470600  1.0  0.6794
  C  C295  1  0.835200  0.359600  0.405100  1.0  0.1963
  C  C296  1  0.985700  0.433100  0.381780  1.0  0.1829
  C  C297  1  0.944400  0.388400  0.330200  1.0  -0.2029
  C  C298  1  0.842900  0.328500  0.314700  1.0  0.1354
  C  C299  1  0.789000  0.315600  0.353600  1.0  -0.1802
  C  C300  1  0.796600  0.282800  0.259300  1.0  -0.1239
  C  C301  1  0.216000  0.989000  0.310000  1.0  0.088
  C  C302  1  0.246700  0.009300  0.261200  1.0  0.0666
  N  N303  1  0.418250  0.302750  0.554460  1.0  -0.329
  N  N304  1  0.426790  0.619810  0.560040  1.0  -0.3535
  N  N305  1  0.419340  0.934060  0.919620  1.0  -0.388
  N  N306  1  0.697250  0.581750  0.945540  1.0  -0.3265
  N  N307  1  0.380190  0.573210  0.939960  1.0  -0.3533
  N  N308  1  0.065940  0.580660  0.580380  1.0  -0.385
  N  N309  1  0.581750  0.697250  0.445540  1.0  -0.3289
  N  N310  1  0.573210  0.380190  0.439960  1.0  -0.3548
  N  N311  1  0.580660  0.065940  0.080380  1.0  -0.3873
  N  N312  1  0.302750  0.418250  0.054460  1.0  -0.3256
  N  N313  1  0.619810  0.426790  0.060040  1.0  -0.3542
  N  N314  1  0.934060  0.419340  0.419620  1.0  -0.3867
  O  O315  1  0.353120  0.415040  0.480740  1.0  -0.5854
  O  O316  1  0.423270  0.499650  0.424560  1.0  -0.6035
  O  O317  1  0.045400  0.167200  0.270640  1.0  -0.1846
  O  O318  1  0.274060  0.430880  0.577580  1.0  -0.5716
  O  O319  1  0.409370  0.482030  0.641490  1.0  -0.5711
  O  O320  1  0.917700  0.258300  0.827200  1.0  -0.2925
  O  O321  1  0.066500  0.358700  0.770930  1.0  -0.3308
  O  O322  1  0.747300  0.025100  0.994590  1.0  -0.5976
  O  O323  1  0.619230  0.093570  0.972230  1.0  -0.6366
  O  O324  1  0.584960  0.646880  0.019260  1.0  -0.5848
  O  O325  1  0.500350  0.576730  0.075440  1.0  -0.6024
  O  O326  1  0.832800  0.954600  0.229360  1.0  -0.1863
  O  O327  1  0.569120  0.725940  0.922420  1.0  -0.5723
  O  O328  1  0.517970  0.590630  0.858510  1.0  -0.5728
  O  O329  1  0.741700  0.082300  0.672800  1.0  -0.2928
  O  O330  1  0.641300  0.933500  0.729070  1.0  -0.3297
  O  O331  1  0.974900  0.252700  0.505410  1.0  -0.5913
  O  O332  1  0.906430  0.380770  0.527770  1.0  -0.6379
  O  O333  1  0.646880  0.584960  0.519260  1.0  -0.5847
  O  O334  1  0.576730  0.500350  0.575440  1.0  -0.6033
  O  O335  1  0.954600  0.832800  0.729360  1.0  -0.1864
  O  O336  1  0.725940  0.569120  0.422420  1.0  -0.5707
  O  O337  1  0.590630  0.517970  0.358510  1.0  -0.5718
  O  O338  1  0.082300  0.741700  0.172800  1.0  -0.2937
  O  O339  1  0.933500  0.641300  0.229070  1.0  -0.3306
  O  O340  1  0.252700  0.974900  0.005410  1.0  -0.5961
  O  O341  1  0.380770  0.906430  0.027770  1.0  -0.6372
  O  O342  1  0.415040  0.353120  0.980740  1.0  -0.5853
  O  O343  1  0.499650  0.423270  0.924560  1.0  -0.603
  O  O344  1  0.167200  0.045400  0.770640  1.0  -0.185
  O  O345  1  0.430880  0.274060  0.077580  1.0  -0.573
  O  O346  1  0.482030  0.409370  0.141490  1.0  -0.5733
  O  O347  1  0.258300  0.917700  0.327200  1.0  -0.292
  O  O348  1  0.358700  0.066500  0.270930  1.0  -0.33
  O  O349  1  0.025100  0.747300  0.494590  1.0  -0.5958
  O  O350  1  0.093570  0.619230  0.472230  1.0  -0.64
