# generated using pymatgen
data_CdH11C18(NO2)2
_symmetry_space_group_name_H-M   'P 1'
_cell_length_a   9.81550000
_cell_length_b   10.18840000
_cell_length_c   12.87100000
_cell_angle_alpha   69.00200000
_cell_angle_beta   69.67600000
_cell_angle_gamma   63.28100000
_symmetry_Int_Tables_number   1
_chemical_formula_structural   CdH11C18(NO2)2
_chemical_formula_sum   'Cd2 H22 C36 N4 O8'
_cell_volume   1046.26202181
_cell_formula_units_Z   2
loop_
 _symmetry_equiv_pos_site_id
 _symmetry_equiv_pos_as_xyz
  1  'x, y, z'
loop_
 _atom_site_type_symbol
 _atom_site_label
 _atom_site_symmetry_multiplicity
 _atom_site_fract_x
 _atom_site_fract_y
 _atom_site_fract_z
 _atom_site_occupancy
 _atom_site_charge
  Cd  Cd1  1  0.839290  0.126560  0.417400  1.0  1.0396
  Cd  Cd2  1  0.160710  0.873440  0.582600  1.0  1.0397
  H  H3  1  0.084000  0.242100  0.021400  1.0  0.0901
  H  H4  1  0.845800  0.606100  0.153000  1.0  0.0919
  H  H5  1  0.976900  0.412200  0.369100  1.0  0.0892
  H  H6  1  0.087800  0.332100  0.660400  1.0  0.1054
  H  H7  1  0.571700  0.399200  0.551000  1.0  0.0927
  H  H8  1  0.442800  0.375000  0.750400  1.0  0.1289
  H  H9  1  0.747900  0.975900  0.697900  1.0  0.0957
  H  H10  1  0.882200  0.157400  0.978800  1.0  0.1162
  H  H11  1  0.758800  0.172800  0.850500  1.0  0.0957
  H  H12  1  0.360500  0.069300  0.769000  1.0  0.0994
  H  H13  1  0.180800  0.963100  0.831400  1.0  0.1053
  H  H14  1  0.916000  0.757900  0.978600  1.0  0.0894
  H  H15  1  0.154200  0.393900  0.847000  1.0  0.0921
  H  H16  1  0.023100  0.587800  0.630900  1.0  0.0885
  H  H17  1  0.912200  0.667900  0.339600  1.0  0.1057
  H  H18  1  0.428300  0.600800  0.449000  1.0  0.093
  H  H19  1  0.557200  0.625000  0.249600  1.0  0.1292
  H  H20  1  0.252100  0.024100  0.302100  1.0  0.0939
  H  H21  1  0.117800  0.842600  0.021200  1.0  0.1164
  H  H22  1  0.241200  0.827200  0.149500  1.0  0.0958
  H  H23  1  0.639500  0.930700  0.231000  1.0  0.0991
  H  H24  1  0.819200  0.036900  0.168600  1.0  0.1038
  C  C25  1  0.912700  0.311400  0.218000  1.0  0.659
  C  C26  1  0.958100  0.406400  0.107100  1.0  -0.1422
  C  C27  1  0.050000  0.345700  0.013500  1.0  -0.0429
  C  C28  1  0.908200  0.562700  0.091600  1.0  -0.0654
  C  C29  1  0.074500  0.180800  0.536800  1.0  0.7142
  C  C30  1  0.034500  0.346900  0.518200  1.0  -0.1236
  C  C31  1  0.985600  0.447500  0.423000  1.0  -0.0243
  C  C32  1  0.051600  0.399300  0.595800  1.0  -0.0823
  C  C33  1  0.590600  0.308700  0.606800  1.0  0.0552
  C  C34  1  0.518000  0.297300  0.716100  1.0  -0.1476
  C  C35  1  0.686100  0.078600  0.685600  1.0  0.1674
  C  C36  1  0.806600  0.115100  0.003100  1.0  -0.1108
  C  C37  1  0.732600  0.124300  0.926800  1.0  -0.0646
  C  C38  1  0.617500  0.061700  0.961600  1.0  0.0102
  C  C39  1  0.535900  0.071300  0.886700  1.0  0.0699
  C  C40  1  0.422300  0.010600  0.920500  1.0  -0.0312
  C  C41  1  0.339200  0.019400  0.845500  1.0  -0.0814
  C  C42  1  0.231600  0.957600  0.882800  1.0  -0.0697
  C  C43  1  0.087300  0.688600  0.782000  1.0  0.6591
  C  C44  1  0.041900  0.593600  0.892900  1.0  -0.1421
  C  C45  1  0.950000  0.654300  0.986500  1.0  -0.0425
  C  C46  1  0.091800  0.437300  0.908400  1.0  -0.0672
  C  C47  1  0.925500  0.819200  0.463200  1.0  0.7157
  C  C48  1  0.965500  0.653100  0.481800  1.0  -0.1252
  C  C49  1  0.014400  0.552500  0.577000  1.0  -0.025
  C  C50  1  0.948400  0.600700  0.404200  1.0  -0.081
  C  C51  1  0.409400  0.691300  0.393200  1.0  0.0559
  C  C52  1  0.482000  0.702700  0.283900  1.0  -0.1481
  C  C53  1  0.313900  0.921400  0.314400  1.0  0.1672
  C  C54  1  0.193400  0.884900  0.996900  1.0  -0.1004
  C  C55  1  0.267400  0.875700  0.073200  1.0  -0.0628
  C  C56  1  0.382500  0.938300  0.038400  1.0  0.0093
  C  C57  1  0.464100  0.928700  0.113300  1.0  0.0698
  C  C58  1  0.577700  0.989400  0.079500  1.0  -0.0306
  C  C59  1  0.660800  0.980600  0.154500  1.0  -0.0807
  C  C60  1  0.768400  0.042400  0.117200  1.0  -0.0696
  N  N61  1  0.578200  0.144800  0.767800  1.0  -0.0006
  N  N62  1  0.694700  0.174100  0.586500  1.0  -0.369
  N  N63  1  0.421800  0.855200  0.232200  1.0  0.0003
  N  N64  1  0.305300  0.825900  0.413500  1.0  -0.3709
  O  O65  1  0.801800  0.370700  0.293800  1.0  -0.6078
  O  O66  1  0.983400  0.170400  0.233900  1.0  -0.5698
  O  O67  1  0.049100  0.133600  0.470900  1.0  -0.6961
  O  O68  1  0.145100  0.090900  0.611900  1.0  -0.6013
  O  O69  1  0.198200  0.629300  0.706200  1.0  -0.6073
  O  O70  1  0.016600  0.829600  0.766100  1.0  -0.5686
  O  O71  1  0.950900  0.866400  0.529100  1.0  -0.6952
  O  O72  1  0.854900  0.909100  0.388100  1.0  -0.6017
