# generated using pymatgen
data_Mn2H7C16NO10
_symmetry_space_group_name_H-M   'P 1'
_cell_length_a   9.99700000
_cell_length_b   13.14420000
_cell_length_c   16.45800000
_cell_angle_alpha   101.09600000
_cell_angle_beta   92.79600000
_cell_angle_gamma   96.03000000
_symmetry_Int_Tables_number   1
_chemical_formula_structural   Mn2H7C16NO10
_chemical_formula_sum   'Mn8 H28 C64 N4 O40'
_cell_volume   2105.17199015
_cell_formula_units_Z   4
loop_
 _symmetry_equiv_pos_site_id
 _symmetry_equiv_pos_as_xyz
  1  'x, y, z'
loop_
 _atom_site_type_symbol
 _atom_site_label
 _atom_site_symmetry_multiplicity
 _atom_site_fract_x
 _atom_site_fract_y
 _atom_site_fract_z
 _atom_site_occupancy
 _atom_site_charge
  Mn  Mn1  1  0.117030  0.259820  0.738110  1.0  1.2354
  Mn  Mn2  1  0.083600  0.867580  0.761760  1.0  1.0117
  Mn  Mn3  1  0.460140  0.222980  0.258790  1.0  1.3993
  Mn  Mn4  1  0.623230  0.369860  0.757570  1.0  1.1124
  Mn  Mn5  1  0.882970  0.740180  0.261890  1.0  1.2307
  Mn  Mn6  1  0.916400  0.132420  0.238240  1.0  1.0139
  Mn  Mn7  1  0.539860  0.777020  0.741210  1.0  1.4007
  Mn  Mn8  1  0.376770  0.630140  0.242430  1.0  1.1085
  H  H9  1  0.405400  0.399000  0.006600  1.0  0.1195
  H  H10  1  0.137500  0.093500  0.995500  1.0  0.0997
  H  H11  1  0.944700  0.664400  0.492800  1.0  0.1175
  H  H12  1  0.454600  0.848800  0.546300  1.0  0.1101
  H  H13  1  0.687400  0.382700  0.954400  1.0  0.1415
  H  H14  1  0.669100  0.443300  0.098600  1.0  0.1094
  H  H15  1  0.851900  0.457800  0.182600  1.0  0.2744
  H  H16  1  0.044400  0.407700  0.137400  1.0  0.1336
  H  H17  1  0.064500  0.350000  0.998700  1.0  0.1216
  H  H18  1  0.113800  0.867300  0.961200  1.0  0.125
  H  H19  1  0.110900  0.927900  0.107400  1.0  0.1072
  H  H20  1  0.299900  0.939100  0.192000  1.0  0.2861
  H  H21  1  0.497000  0.920000  0.147500  1.0  0.1138
  H  H22  1  0.516500  0.868400  0.999900  1.0  0.1159
  H  H23  1  0.594600  0.601000  0.993400  1.0  0.12
  H  H24  1  0.862500  0.906500  0.004500  1.0  0.0999
  H  H25  1  0.055300  0.335600  0.507200  1.0  0.1179
  H  H26  1  0.545400  0.151200  0.453700  1.0  0.1092
  H  H27  1  0.312600  0.617300  0.045600  1.0  0.141
  H  H28  1  0.330900  0.556700  0.901400  1.0  0.109
  H  H29  1  0.148100  0.542200  0.817400  1.0  0.2735
  H  H30  1  0.955600  0.592300  0.862600  1.0  0.1333
  H  H31  1  0.935500  0.650000  0.001300  1.0  0.1214
  H  H32  1  0.886200  0.132700  0.038800  1.0  0.1262
  H  H33  1  0.889100  0.072100  0.892600  1.0  0.1082
  H  H34  1  0.700100  0.060900  0.808000  1.0  0.2974
  H  H35  1  0.503000  0.080000  0.852500  1.0  0.1128
  H  H36  1  0.483500  0.131600  0.000100  1.0  0.1158
  C  C37  1  0.235000  0.180500  0.925400  1.0  -0.1665
  C  C38  1  0.317000  0.273900  0.927800  1.0  -0.0721
  C  C39  1  0.355600  0.338100  0.005200  1.0  -0.0543
  C  C40  1  0.317700  0.311100  0.079500  1.0  -0.1184
  C  C41  1  0.236600  0.217000  0.076200  1.0  -0.1094
  C  C42  1  0.195200  0.154700  0.999300  1.0  -0.0587
  C  C43  1  0.188800  0.104600  0.846000  1.0  0.7055
  C  C44  1  0.371000  0.314500  0.853700  1.0  0.705
  C  C45  1  0.360700  0.391200  0.157900  1.0  0.7232
  C  C46  1  0.180800  0.178600  0.150200  1.0  0.6976
  C  C47  1  0.001800  0.575000  0.573200  1.0  -0.0608
  C  C48  1  0.036000  0.475200  0.576100  1.0  -0.1052
  C  C49  1  0.966500  0.599000  0.496900  1.0  -0.0343
  C  C50  1  0.988800  0.653400  0.651900  1.0  0.683
  C  C51  1  0.079200  0.449500  0.658500  1.0  0.703
  C  C52  1  0.440000  0.910500  0.443300  1.0  -0.0374
  C  C53  1  0.466600  0.006000  0.418300  1.0  -0.1302
  C  C54  1  0.474600  0.906200  0.525500  1.0  -0.0233
  C  C55  1  0.377700  0.812500  0.385000  1.0  0.6569
  C  C56  1  0.424400  0.016400  0.331300  1.0  0.6949
  C  C57  1  0.878900  0.362700  0.960600  1.0  -0.095
  C  C58  1  0.757500  0.389300  0.989800  1.0  -0.1001
  C  C59  1  0.749700  0.423500  0.074100  1.0  0.0329
  C  C60  1  0.975300  0.404500  0.100800  1.0  0.087
  C  C61  1  0.988600  0.370500  0.017500  1.0  -0.1157
  C  C62  1  0.893700  0.324100  0.867200  1.0  0.6971
  C  C63  1  0.323200  0.866400  0.968600  1.0  -0.0636
  C  C64  1  0.198300  0.881700  0.999200  1.0  -0.1452
  C  C65  1  0.190400  0.910900  0.083800  1.0  0.0779
  C  C66  1  0.421900  0.908900  0.107600  1.0  0.081
  C  C67  1  0.436000  0.881100  0.023400  1.0  -0.116
  C  C68  1  0.338600  0.832000  0.876200  1.0  0.6725
  C  C69  1  0.765000  0.819500  0.074600  1.0  -0.1658
  C  C70  1  0.683000  0.726100  0.072200  1.0  -0.0709
  C  C71  1  0.644400  0.661900  0.994800  1.0  -0.0545
  C  C72  1  0.682300  0.688900  0.920500  1.0  -0.1173
  C  C73  1  0.763400  0.783000  0.923800  1.0  -0.1084
  C  C74  1  0.804800  0.845300  0.000700  1.0  -0.0609
  C  C75  1  0.811200  0.895400  0.154000  1.0  0.7052
  C  C76  1  0.629000  0.685500  0.146300  1.0  0.6989
  C  C77  1  0.639300  0.608800  0.842100  1.0  0.7249
  C  C78  1  0.819200  0.821400  0.849800  1.0  0.6979
  C  C79  1  0.998200  0.425000  0.426800  1.0  -0.0608
  C  C80  1  0.964000  0.524800  0.423900  1.0  -0.105
  C  C81  1  0.033500  0.401000  0.503100  1.0  -0.0332
  C  C82  1  0.011200  0.346600  0.348100  1.0  0.6848
  C  C83  1  0.920800  0.550500  0.341500  1.0  0.7018
  C  C84  1  0.560000  0.089500  0.556700  1.0  -0.0371
  C  C85  1  0.533400  0.994000  0.581700  1.0  -0.1326
  C  C86  1  0.525400  0.093800  0.474500  1.0  -0.0229
  C  C87  1  0.622300  0.187500  0.615000  1.0  0.6573
  C  C88  1  0.575600  0.983600  0.668700  1.0  0.6946
  C  C89  1  0.121100  0.637300  0.039400  1.0  -0.0954
  C  C90  1  0.242500  0.610700  0.010200  1.0  -0.0998
  C  C91  1  0.250300  0.576500  0.925900  1.0  0.04
  C  C92  1  0.024700  0.595500  0.899200  1.0  0.086
  C  C93  1  0.011400  0.629500  0.982500  1.0  -0.1153
  C  C94  1  0.106300  0.675900  0.132800  1.0  0.6962
  C  C95  1  0.676800  0.133600  0.031400  1.0  -0.0624
  C  C96  1  0.801700  0.118300  0.000800  1.0  -0.1438
  C  C97  1  0.809600  0.089100  0.916200  1.0  0.0786
  C  C98  1  0.578100  0.091100  0.892400  1.0  0.0811
  C  C99  1  0.564000  0.118900  0.976600  1.0  -0.1148
  C  C100  1  0.661400  0.168000  0.123800  1.0  0.6704
  N  N101  1  0.857100  0.430300  0.126800  1.0  -0.1056
  N  N102  1  0.300800  0.923400  0.135100  1.0  -0.1021
  N  N103  1  0.142900  0.569700  0.873200  1.0  -0.1022
  N  N104  1  0.699200  0.076600  0.864900  1.0  -0.103
  O  O105  1  0.213800  0.131800  0.778080  1.0  -0.6386
  O  O106  1  0.130500  0.017300  0.851440  1.0  -0.589
  O  O107  1  0.291900  0.353000  0.808610  1.0  -0.664
  O  O108  1  0.494200  0.313500  0.846470  1.0  -0.5791
  O  O109  1  0.339300  0.482000  0.154760  1.0  -0.5891
  O  O110  1  0.416500  0.365400  0.219160  1.0  -0.673
  O  O111  1  0.055100  0.164700  0.148530  1.0  -0.5504
  O  O112  1  0.259000  0.157500  0.204980  1.0  -0.6433
  O  O113  1  0.072700  0.734200  0.665900  1.0  -0.5804
  O  O114  1  0.894200  0.634900  0.695380  1.0  -0.5394
  O  O115  1  0.150800  0.518000  0.709760  1.0  -0.587
  O  O116  1  0.038200  0.359700  0.668770  1.0  -0.6639
  O  O117  1  0.451600  0.769600  0.331600  1.0  -0.6102
  O  O118  1  0.259900  0.778000  0.394860  1.0  -0.5095
  O  O119  1  0.321000  0.961100  0.296720  1.0  -0.5489
  O  O120  1  0.497700  0.080700  0.298830  1.0  -0.6789
  O  O121  1  0.793000  0.318300  0.819230  1.0  -0.6367
  O  O122  1  0.007700  0.300900  0.849440  1.0  -0.6579
  O  O123  1  0.234700  0.805100  0.828810  1.0  -0.6018
  O  O124  1  0.456600  0.830100  0.855950  1.0  -0.61
  O  O125  1  0.786200  0.868200  0.221920  1.0  -0.6404
  O  O126  1  0.869500  0.982700  0.148560  1.0  -0.5926
  O  O127  1  0.708100  0.647000  0.191390  1.0  -0.6621
  O  O128  1  0.505800  0.686500  0.153530  1.0  -0.5776
  O  O129  1  0.660700  0.518000  0.845240  1.0  -0.5884
  O  O130  1  0.583500  0.634600  0.780840  1.0  -0.6697
  O  O131  1  0.944900  0.835300  0.851470  1.0  -0.551
  O  O132  1  0.741000  0.842500  0.795020  1.0  -0.6431
  O  O133  1  0.927300  0.265800  0.334100  1.0  -0.571
  O  O134  1  0.105800  0.365100  0.304620  1.0  -0.5399
  O  O135  1  0.849200  0.482000  0.290240  1.0  -0.5852
  O  O136  1  0.961800  0.640300  0.331230  1.0  -0.6619
  O  O137  1  0.548400  0.230400  0.668400  1.0  -0.6089
  O  O138  1  0.740100  0.222000  0.605140  1.0  -0.5101
  O  O139  1  0.679000  0.038900  0.703280  1.0  -0.5489
  O  O140  1  0.502300  0.919300  0.701170  1.0  -0.6796
  O  O141  1  0.207000  0.681700  0.180770  1.0  -0.6371
  O  O142  1  0.992300  0.699100  0.150560  1.0  -0.6581
  O  O143  1  0.765300  0.194900  0.171190  1.0  -0.6039
  O  O144  1  0.543400  0.169900  0.144050  1.0  -0.608
