# generated using pymatgen
data_CoH20C30N3O4
_symmetry_space_group_name_H-M   'P 1'
_cell_length_a   11.28670000
_cell_length_b   13.83570000
_cell_length_c   14.86080000
_cell_angle_alpha   85.20900000
_cell_angle_beta   69.74200000
_cell_angle_gamma   73.90900000
_symmetry_Int_Tables_number   1
_chemical_formula_structural   CoH20C30N3O4
_chemical_formula_sum   'Co2 H40 C60 N6 O8'
_cell_volume   2091.61237523
_cell_formula_units_Z   2
loop_
 _symmetry_equiv_pos_site_id
 _symmetry_equiv_pos_as_xyz
  1  'x, y, z'
loop_
 _atom_site_type_symbol
 _atom_site_label
 _atom_site_symmetry_multiplicity
 _atom_site_fract_x
 _atom_site_fract_y
 _atom_site_fract_z
 _atom_site_occupancy
 _atom_site_charge
  Co  Co1  1  0.500000  0.000000  0.000000  1.0  0.8661
  Co  Co2  1  0.500000  0.500000  0.000000  1.0  0.859
  H  H3  1  0.396600  0.197600  0.275500  1.0  0.0994
  H  H4  1  0.488600  0.099800  0.381200  1.0  0.1045
  H  H5  1  0.784000  0.230800  0.296100  1.0  0.1266
  H  H6  1  0.689500  0.332000  0.193200  1.0  0.1081
  H  H7  1  0.419500  0.225400  0.683900  1.0  0.1031
  H  H8  1  0.505000  0.219100  0.518700  1.0  0.1143
  H  H9  1  0.781700  0.966700  0.532000  1.0  0.116
  H  H10  1  0.695300  0.975000  0.696400  1.0  0.1041
  H  H11  1  0.222300  0.527100  0.155300  1.0  0.087
  H  H12  1  0.046900  0.649600  0.246300  1.0  0.12
  H  H13  1  0.274000  0.840400  0.168800  1.0  0.1052
  H  H14  1  0.438900  0.714300  0.076800  1.0  0.0723
  H  H15  1  0.884300  0.799300  0.245600  1.0  0.1104
  H  H16  1  0.711300  0.934200  0.321600  1.0  0.1094
  H  H17  1  0.958300  0.053600  0.385700  1.0  0.1277
  H  H18  1  0.130700  0.918500  0.310400  1.0  0.1078
  H  H19  1  0.219000  0.044800  0.131600  1.0  0.0753
  H  H20  1  0.013400  0.053800  0.133900  1.0  0.1134
  H  H21  1  0.171400  0.935300  0.868900  1.0  0.1098
  H  H22  1  0.372800  0.928100  0.874900  1.0  0.0646
  H  H23  1  0.603400  0.802400  0.724500  1.0  0.0992
  H  H24  1  0.511400  0.900200  0.618800  1.0  0.1046
  H  H25  1  0.216000  0.769200  0.703900  1.0  0.1247
  H  H26  1  0.310500  0.668000  0.806800  1.0  0.1074
  H  H27  1  0.580500  0.774600  0.316100  1.0  0.1016
  H  H28  1  0.495000  0.780900  0.481300  1.0  0.1138
  H  H29  1  0.218300  0.033300  0.468000  1.0  0.1153
  H  H30  1  0.304700  0.025000  0.303600  1.0  0.1046
  H  H31  1  0.777700  0.472900  0.844700  1.0  0.0873
  H  H32  1  0.953100  0.350400  0.753700  1.0  0.1197
  H  H33  1  0.726000  0.159600  0.831200  1.0  0.1053
  H  H34  1  0.561100  0.285700  0.923200  1.0  0.0709
  H  H35  1  0.115700  0.200700  0.754400  1.0  0.1101
  H  H36  1  0.288700  0.065800  0.678400  1.0  0.109
  H  H37  1  0.041700  0.946400  0.614300  1.0  0.128
  H  H38  1  0.869300  0.081500  0.689600  1.0  0.1072
  H  H39  1  0.781000  0.955200  0.868400  1.0  0.076
  H  H40  1  0.986600  0.946200  0.866100  1.0  0.1136
  H  H41  1  0.828600  0.064700  0.131100  1.0  0.1101
  H  H42  1  0.627200  0.071900  0.125100  1.0  0.0654
  C  C43  1  0.479000  0.335300  0.150150  1.0  0.7157
  C  C44  1  0.535100  0.273700  0.222080  1.0  -0.1453
  C  C45  1  0.474300  0.204400  0.279400  1.0  -0.0368
  C  C46  1  0.529900  0.145400  0.342400  1.0  -0.1829
  C  C47  1  0.646400  0.154300  0.347400  1.0  0.1918
  C  C48  1  0.706300  0.224100  0.291900  1.0  -0.1515
  C  C49  1  0.650000  0.284300  0.229800  1.0  -0.0286
  C  C50  1  0.496800  0.105000  0.815110  1.0  0.6829
  C  C51  1  0.548200  0.101300  0.708190  1.0  -0.1783
  C  C52  1  0.492500  0.173700  0.653400  1.0  -0.0404
  C  C53  1  0.543800  0.170100  0.554200  1.0  -0.171
  C  C54  1  0.654200  0.092600  0.506800  1.0  0.1533
  C  C55  1  0.709400  0.019100  0.562100  1.0  -0.1753
  C  C56  1  0.657100  0.024100  0.660700  1.0  -0.0523
  C  C57  1  0.231700  0.591700  0.156400  1.0  0.1583
  C  C58  1  0.125400  0.664900  0.211900  1.0  -0.204
  C  C59  1  0.138200  0.761600  0.215500  1.0  0.0973
  C  C60  1  0.259600  0.777900  0.165600  1.0  -0.2165
  C  C61  1  0.358900  0.701100  0.111000  1.0  0.1706
  C  C62  1  0.026100  0.845000  0.268900  1.0  0.0304
  C  C63  1  0.899700  0.850300  0.273300  1.0  -0.1038
  C  C64  1  0.795800  0.931300  0.318800  1.0  -0.1677
  C  C65  1  0.818200  0.007200  0.359900  1.0  0.1646
  C  C66  1  0.943400  0.002700  0.357300  1.0  -0.201
  C  C67  1  0.046600  0.921700  0.312000  1.0  -0.1345
  C  C68  1  0.209000  0.023000  0.077800  1.0  0.1627
  C  C69  1  0.085100  0.028500  0.079700  1.0  -0.1817
  C  C70  1  0.066400  0.996400  0.001000  1.0  0.0752
  C  C71  1  0.178200  0.958300  0.923400  1.0  -0.1742
  C  C72  1  0.299100  0.954800  0.927400  1.0  0.1672
  C  C73  1  0.521000  0.664700  0.849850  1.0  0.7155
  C  C74  1  0.464900  0.726300  0.777920  1.0  -0.1482
  C  C75  1  0.525700  0.795600  0.720600  1.0  -0.0352
  C  C76  1  0.470100  0.854600  0.657600  1.0  -0.1823
  C  C77  1  0.353600  0.845700  0.652600  1.0  0.1911
  C  C78  1  0.293700  0.775900  0.708100  1.0  -0.1483
  C  C79  1  0.350000  0.715700  0.770200  1.0  -0.0301
  C  C80  1  0.503200  0.895000  0.184890  1.0  0.6803
  C  C81  1  0.451800  0.898700  0.291810  1.0  -0.1783
  C  C82  1  0.507500  0.826300  0.346600  1.0  -0.0434
  C  C83  1  0.456200  0.829900  0.445800  1.0  -0.1711
  C  C84  1  0.345800  0.907400  0.493200  1.0  0.1529
  C  C85  1  0.290600  0.980900  0.437900  1.0  -0.1739
  C  C86  1  0.342900  0.975900  0.339300  1.0  -0.0514
  C  C87  1  0.768300  0.408300  0.843600  1.0  0.1588
  C  C88  1  0.874600  0.335100  0.788100  1.0  -0.2037
  C  C89  1  0.861800  0.238400  0.784500  1.0  0.0981
  C  C90  1  0.740400  0.222100  0.834400  1.0  -0.2157
  C  C91  1  0.641100  0.298900  0.889000  1.0  0.1672
  C  C92  1  0.973900  0.155000  0.731100  1.0  0.0318
  C  C93  1  0.100300  0.149700  0.726700  1.0  -0.1034
  C  C94  1  0.204200  0.068700  0.681200  1.0  -0.1704
  C  C95  1  0.181800  0.992800  0.640100  1.0  0.1639
  C  C96  1  0.056600  0.997300  0.642700  1.0  -0.2012
  C  C97  1  0.953400  0.078300  0.688000  1.0  -0.1343
  C  C98  1  0.791000  0.977000  0.922200  1.0  0.1604
  C  C99  1  0.914900  0.971500  0.920300  1.0  -0.184
  C  C100  1  0.933600  0.003600  0.999000  1.0  0.075
  C  C101  1  0.821800  0.041700  0.076600  1.0  -0.168
  C  C102  1  0.700900  0.045200  0.072600  1.0  0.1668
  N  N103  1  0.710100  0.089770  0.407510  1.0  -0.1685
  N  N104  1  0.347100  0.608900  0.104150  1.0  -0.3272
  N  N105  1  0.316100  0.987660  0.002450  1.0  -0.3222
  N  N106  1  0.289900  0.910230  0.592490  1.0  -0.17
  N  N107  1  0.652900  0.391100  0.895850  1.0  -0.3278
  N  N108  1  0.683900  0.012340  0.997550  1.0  -0.3238
  O  O109  1  0.387400  0.311700  0.134530  1.0  -0.5603
  O  O110  1  0.528800  0.404740  0.110710  1.0  -0.6105
  O  O111  1  0.404700  0.178780  0.857680  1.0  -0.5701
  O  O112  1  0.550500  0.032420  0.857250  1.0  -0.6023
  O  O113  1  0.612600  0.688300  0.865470  1.0  -0.5594
  O  O114  1  0.471200  0.595260  0.889290  1.0  -0.6086
  O  O115  1  0.595300  0.821220  0.142320  1.0  -0.5679
  O  O116  1  0.449500  0.967580  0.142750  1.0  -0.6019
