# generated using pymatgen
data_CoH27C37(NO)4
_symmetry_space_group_name_H-M   'P 1'
_cell_length_a   28.52000000
_cell_length_b   9.92970000
_cell_length_c   30.04400000
_cell_angle_alpha   90.00000000
_cell_angle_beta   116.46600000
_cell_angle_gamma   90.00000000
_symmetry_Int_Tables_number   1
_chemical_formula_structural   CoH27C37(NO)4
_chemical_formula_sum   'Co8 H216 C296 N32 O32'
_cell_volume   7616.63216276
_cell_formula_units_Z   8
loop_
 _symmetry_equiv_pos_site_id
 _symmetry_equiv_pos_as_xyz
  1  'x, y, z'
loop_
 _atom_site_type_symbol
 _atom_site_label
 _atom_site_symmetry_multiplicity
 _atom_site_fract_x
 _atom_site_fract_y
 _atom_site_fract_z
 _atom_site_occupancy
 _atom_site_charge
  Co  Co1  1  0.322320  0.468160  0.497980  1.0  0.9121
  Co  Co2  1  0.822320  0.968160  0.497980  1.0  0.9121
  Co  Co3  1  0.677680  0.468160  0.002020  1.0  0.9115
  Co  Co4  1  0.177680  0.968160  0.002020  1.0  0.9115
  Co  Co5  1  0.677680  0.531840  0.502020  1.0  0.9095
  Co  Co6  1  0.177680  0.031840  0.502020  1.0  0.9095
  Co  Co7  1  0.322320  0.531840  0.997980  1.0  0.9093
  Co  Co8  1  0.822320  0.031840  0.997980  1.0  0.9093
  H  H9  1  0.325600  0.512500  0.345600  1.0  0.0937
  H  H10  1  0.288400  0.554500  0.261800  1.0  0.1037
  H  H11  1  0.146800  0.495200  0.254700  1.0  0.1055
  H  H12  1  0.184600  0.454600  0.338300  1.0  0.0746
  H  H13  1  0.248500  0.664800  0.088900  1.0  0.0793
  H  H14  1  0.209900  0.714300  0.138900  1.0  0.0891
  H  H15  1  0.234500  0.337100  0.190200  1.0  0.1044
  H  H16  1  0.272400  0.287600  0.139400  1.0  0.0791
  H  H17  1  0.903600  0.986100  0.108400  1.0  0.064
  H  H18  1  0.981000  0.882000  0.153700  1.0  0.114
  H  H19  1  0.992500  0.822100  0.028900  1.0  0.1095
  H  H20  1  0.913800  0.927900  0.987300  1.0  0.0706
  H  H21  1  0.038600  0.641800  0.069600  1.0  0.0983
  H  H22  1  0.115900  0.524200  0.111200  1.0  0.1121
  H  H23  1  0.152100  0.758100  0.230200  1.0  0.1055
  H  H24  1  0.074100  0.869400  0.188600  1.0  0.0958
  H  H25  1  0.313600  0.194600  0.554000  1.0  0.0882
  H  H26  1  0.389500  0.238300  0.474600  1.0  0.0907
  H  H27  1  0.407600  0.012600  0.509400  1.0  0.1272
  H  H28  1  0.366700  0.868700  0.557200  1.0  0.1266
  H  H29  1  0.328800  0.943100  0.573700  1.0  0.1032
  H  H30  1  0.372300  0.810300  0.648600  1.0  0.0741
  H  H31  1  0.434400  0.807600  0.729200  1.0  0.0729
  H  H32  1  0.525700  0.014300  0.694100  1.0  0.0933
  H  H33  1  0.461300  0.033800  0.614500  1.0  0.0848
  H  H34  1  0.485000  0.149300  0.708100  1.0  0.0708
  H  H35  1  0.412200  0.152300  0.630500  1.0  0.0908
  H  H36  1  0.825600  0.012500  0.345600  1.0  0.0937
  H  H37  1  0.788400  0.054500  0.261800  1.0  0.1037
  H  H38  1  0.646800  0.995200  0.254700  1.0  0.1055
  H  H39  1  0.684600  0.954600  0.338300  1.0  0.0746
  H  H40  1  0.748500  0.164800  0.088900  1.0  0.0793
  H  H41  1  0.709900  0.214300  0.138900  1.0  0.0891
  H  H42  1  0.734500  0.837100  0.190200  1.0  0.1044
  H  H43  1  0.772400  0.787600  0.139400  1.0  0.0791
  H  H44  1  0.403600  0.486100  0.108400  1.0  0.064
  H  H45  1  0.481000  0.382000  0.153700  1.0  0.114
  H  H46  1  0.492500  0.322100  0.028900  1.0  0.1095
  H  H47  1  0.413800  0.427900  0.987300  1.0  0.0706
  H  H48  1  0.538600  0.141800  0.069600  1.0  0.0983
  H  H49  1  0.615900  0.024200  0.111200  1.0  0.1121
  H  H50  1  0.652100  0.258100  0.230200  1.0  0.1055
  H  H51  1  0.574100  0.369400  0.188600  1.0  0.0958
  H  H52  1  0.813600  0.694600  0.554000  1.0  0.0882
  H  H53  1  0.889500  0.738300  0.474600  1.0  0.0907
  H  H54  1  0.907600  0.512600  0.509400  1.0  0.1272
  H  H55  1  0.866700  0.368700  0.557200  1.0  0.1266
  H  H56  1  0.828800  0.443100  0.573700  1.0  0.1032
  H  H57  1  0.872300  0.310300  0.648600  1.0  0.0741
  H  H58  1  0.934400  0.307600  0.729200  1.0  0.0729
  H  H59  1  0.025700  0.514300  0.694100  1.0  0.0933
  H  H60  1  0.961300  0.533800  0.614500  1.0  0.0848
  H  H61  1  0.985000  0.649300  0.708100  1.0  0.0708
  H  H62  1  0.912200  0.652300  0.630500  1.0  0.0908
  H  H63  1  0.674400  0.512500  0.154400  1.0  0.0928
  H  H64  1  0.711600  0.554500  0.238200  1.0  0.1037
  H  H65  1  0.853200  0.495200  0.245300  1.0  0.106
  H  H66  1  0.815400  0.454600  0.161700  1.0  0.0749
  H  H67  1  0.751500  0.664800  0.411100  1.0  0.0792
  H  H68  1  0.790100  0.714300  0.361100  1.0  0.0891
  H  H69  1  0.765500  0.337100  0.309800  1.0  0.1047
  H  H70  1  0.727600  0.287600  0.360600  1.0  0.0788
  H  H71  1  0.096400  0.986100  0.391600  1.0  0.0641
  H  H72  1  0.019000  0.882000  0.346300  1.0  0.1132
  H  H73  1  0.007500  0.822100  0.471100  1.0  0.1095
  H  H74  1  0.086200  0.927900  0.512700  1.0  0.0701
  H  H75  1  0.961400  0.641800  0.430400  1.0  0.0988
  H  H76  1  0.884100  0.524200  0.388800  1.0  0.112
  H  H77  1  0.847900  0.758100  0.269800  1.0  0.1057
  H  H78  1  0.925900  0.869400  0.311400  1.0  0.0965
  H  H79  1  0.686400  0.194600  0.946000  1.0  0.0882
  H  H80  1  0.610500  0.238300  0.025400  1.0  0.0904
  H  H81  1  0.592400  0.012600  0.990600  1.0  0.1273
  H  H82  1  0.633300  0.868700  0.942800  1.0  0.126
  H  H83  1  0.671200  0.943100  0.926300  1.0  0.1035
  H  H84  1  0.627700  0.810300  0.851400  1.0  0.0744
  H  H85  1  0.565600  0.807600  0.770800  1.0  0.0734
  H  H86  1  0.474300  0.014300  0.805900  1.0  0.0929
  H  H87  1  0.538700  0.033800  0.885500  1.0  0.0825
  H  H88  1  0.515000  0.149300  0.791900  1.0  0.0708
  H  H89  1  0.587800  0.152300  0.869500  1.0  0.0903
  H  H90  1  0.174400  0.012500  0.154400  1.0  0.0928
  H  H91  1  0.211600  0.054500  0.238200  1.0  0.1037
  H  H92  1  0.353200  0.995200  0.245300  1.0  0.106
  H  H93  1  0.315400  0.954600  0.161700  1.0  0.0749
  H  H94  1  0.251500  0.164800  0.411100  1.0  0.0792
  H  H95  1  0.290100  0.214300  0.361100  1.0  0.0891
  H  H96  1  0.265500  0.837100  0.309800  1.0  0.1047
  H  H97  1  0.227600  0.787600  0.360600  1.0  0.0788
  H  H98  1  0.596400  0.486100  0.391600  1.0  0.0641
  H  H99  1  0.519000  0.382000  0.346300  1.0  0.1132
  H  H100  1  0.507500  0.322100  0.471100  1.0  0.1095
  H  H101  1  0.586200  0.427900  0.512700  1.0  0.0701
  H  H102  1  0.461400  0.141800  0.430400  1.0  0.0988
  H  H103  1  0.384100  0.024200  0.388800  1.0  0.112
  H  H104  1  0.347900  0.258100  0.269800  1.0  0.1057
  H  H105  1  0.425900  0.369400  0.311400  1.0  0.0965
  H  H106  1  0.186400  0.694600  0.946000  1.0  0.0882
  H  H107  1  0.110500  0.738300  0.025400  1.0  0.0904
  H  H108  1  0.092400  0.512600  0.990600  1.0  0.1273
  H  H109  1  0.133300  0.368700  0.942800  1.0  0.126
  H  H110  1  0.171200  0.443100  0.926300  1.0  0.1035
  H  H111  1  0.127700  0.310300  0.851400  1.0  0.0744
  H  H112  1  0.065600  0.307600  0.770800  1.0  0.0734
  H  H113  1  0.974300  0.514300  0.805900  1.0  0.0929
  H  H114  1  0.038700  0.533800  0.885500  1.0  0.0825
  H  H115  1  0.015000  0.649300  0.791900  1.0  0.0708
  H  H116  1  0.087800  0.652300  0.869500  1.0  0.0903
  H  H117  1  0.674400  0.487500  0.654400  1.0  0.0927
  H  H118  1  0.711600  0.445500  0.738200  1.0  0.1038
  H  H119  1  0.853200  0.504800  0.745300  1.0  0.1059
  H  H120  1  0.815400  0.545400  0.661700  1.0  0.0751
  H  H121  1  0.751500  0.335200  0.911100  1.0  0.0793
  H  H122  1  0.790100  0.285700  0.861100  1.0  0.089
  H  H123  1  0.765500  0.662900  0.809800  1.0  0.1047
  H  H124  1  0.727600  0.712400  0.860600  1.0  0.0791
  H  H125  1  0.096400  0.013900  0.891600  1.0  0.0643
  H  H126  1  0.019000  0.118000  0.846300  1.0  0.1133
  H  H127  1  0.007500  0.177900  0.971100  1.0  0.1095
  H  H128  1  0.086200  0.072100  0.012700  1.0  0.0701
  H  H129  1  0.961400  0.358200  0.930400  1.0  0.0989
  H  H130  1  0.884100  0.475800  0.888800  1.0  0.1115
  H  H131  1  0.847900  0.241900  0.769800  1.0  0.1059
  H  H132  1  0.925900  0.130600  0.811400  1.0  0.096
  H  H133  1  0.686400  0.805400  0.446000  1.0  0.0878
  H  H134  1  0.610500  0.761700  0.525400  1.0  0.0908
  H  H135  1  0.592400  0.987400  0.490600  1.0  0.127
  H  H136  1  0.633300  0.131300  0.442800  1.0  0.1248
  H  H137  1  0.671200  0.056900  0.426300  1.0  0.1034
  H  H138  1  0.627700  0.189700  0.351400  1.0  0.0754
  H  H139  1  0.565600  0.192400  0.270800  1.0  0.0729
  H  H140  1  0.474300  0.985700  0.305900  1.0  0.0943
  H  H141  1  0.538700  0.966200  0.385500  1.0  0.0826
  H  H142  1  0.515000  0.850700  0.291900  1.0  0.0665
  H  H143  1  0.587800  0.847700  0.369500  1.0  0.0881
  H  H144  1  0.174400  0.987500  0.654400  1.0  0.0927
  H  H145  1  0.211600  0.945500  0.738200  1.0  0.1038
  H  H146  1  0.353200  0.004800  0.745300  1.0  0.1059
  H  H147  1  0.315400  0.045400  0.661700  1.0  0.0751
  H  H148  1  0.251500  0.835200  0.911100  1.0  0.0793
  H  H149  1  0.290100  0.785700  0.861100  1.0  0.089
  H  H150  1  0.265500  0.162900  0.809800  1.0  0.1047
  H  H151  1  0.227600  0.212400  0.860600  1.0  0.0791
  H  H152  1  0.596400  0.513900  0.891600  1.0  0.0643
  H  H153  1  0.519000  0.618000  0.846300  1.0  0.1133
  H  H154  1  0.507500  0.677900  0.971100  1.0  0.1095
  H  H155  1  0.586200  0.572100  0.012700  1.0  0.0701
  H  H156  1  0.461400  0.858200  0.930400  1.0  0.0989
  H  H157  1  0.384100  0.975800  0.888800  1.0  0.1115
  H  H158  1  0.347900  0.741900  0.769800  1.0  0.1059
  H  H159  1  0.425900  0.630600  0.811400  1.0  0.096
  H  H160  1  0.186400  0.305400  0.446000  1.0  0.0878
  H  H161  1  0.110500  0.261700  0.525400  1.0  0.0908
  H  H162  1  0.092400  0.487400  0.490600  1.0  0.127
  H  H163  1  0.133300  0.631300  0.442800  1.0  0.1248
  H  H164  1  0.171200  0.556900  0.426300  1.0  0.1034
  H  H165  1  0.127700  0.689700  0.351400  1.0  0.0754
  H  H166  1  0.065600  0.692400  0.270800  1.0  0.0729
  H  H167  1  0.974300  0.485700  0.305900  1.0  0.0943
  H  H168  1  0.038700  0.466200  0.385500  1.0  0.0826
  H  H169  1  0.015000  0.350700  0.291900  1.0  0.0665
  H  H170  1  0.087800  0.347700  0.369500  1.0  0.0881
  H  H171  1  0.325600  0.487500  0.845600  1.0  0.0937
  H  H172  1  0.288400  0.445500  0.761800  1.0  0.1034
  H  H173  1  0.146800  0.504800  0.754700  1.0  0.106
  H  H174  1  0.184600  0.545400  0.838300  1.0  0.0745
  H  H175  1  0.248500  0.335200  0.588900  1.0  0.0793
  H  H176  1  0.209900  0.285700  0.638900  1.0  0.089
  H  H177  1  0.234500  0.662900  0.690200  1.0  0.1041
  H  H178  1  0.272400  0.712400  0.639400  1.0  0.0793
  H  H179  1  0.903600  0.013900  0.608400  1.0  0.0643
  H  H180  1  0.981000  0.118000  0.653700  1.0  0.1133
  H  H181  1  0.992500  0.177900  0.528900  1.0  0.1097
  H  H182  1  0.913800  0.072100  0.487300  1.0  0.0704
  H  H183  1  0.038600  0.358200  0.569600  1.0  0.0986
  H  H184  1  0.115900  0.475800  0.611200  1.0  0.1121
  H  H185  1  0.152100  0.241900  0.730200  1.0  0.1059
  H  H186  1  0.074100  0.130600  0.688600  1.0  0.0964
  H  H187  1  0.313600  0.805400  0.054000  1.0  0.0882
  H  H188  1  0.389500  0.761700  0.974600  1.0  0.0905
  H  H189  1  0.407600  0.987400  0.009400  1.0  0.1274
  H  H190  1  0.366700  0.131300  0.057200  1.0  0.1278
  H  H191  1  0.328800  0.056900  0.073700  1.0  0.1029
  H  H192  1  0.372300  0.189700  0.148600  1.0  0.0749
  H  H193  1  0.434400  0.192400  0.229200  1.0  0.0721
  H  H194  1  0.525700  0.985700  0.194100  1.0  0.0926
  H  H195  1  0.461300  0.966200  0.114500  1.0  0.0853
  H  H196  1  0.485000  0.850700  0.208100  1.0  0.0677
  H  H197  1  0.412200  0.847700  0.130500  1.0  0.088
  H  H198  1  0.825600  0.987500  0.845600  1.0  0.0937
  H  H199  1  0.788400  0.945500  0.761800  1.0  0.1034
  H  H200  1  0.646800  0.004800  0.754700  1.0  0.106
  H  H201  1  0.684600  0.045400  0.838300  1.0  0.0745
  H  H202  1  0.748500  0.835200  0.588900  1.0  0.0793
  H  H203  1  0.709900  0.785700  0.638900  1.0  0.089
  H  H204  1  0.734500  0.162900  0.690200  1.0  0.1041
  H  H205  1  0.772400  0.212400  0.639400  1.0  0.0793
  H  H206  1  0.403600  0.513900  0.608400  1.0  0.0643
  H  H207  1  0.481000  0.618000  0.653700  1.0  0.1133
  H  H208  1  0.492500  0.677900  0.528900  1.0  0.1097
  H  H209  1  0.413800  0.572100  0.487300  1.0  0.0704
  H  H210  1  0.538600  0.858200  0.569600  1.0  0.0986
  H  H211  1  0.615900  0.975800  0.611200  1.0  0.1121
  H  H212  1  0.652100  0.741900  0.730200  1.0  0.1059
  H  H213  1  0.574100  0.630600  0.688600  1.0  0.0964
  H  H214  1  0.813600  0.305400  0.054000  1.0  0.0882
  H  H215  1  0.889500  0.261700  0.974600  1.0  0.0905
  H  H216  1  0.907600  0.487400  0.009400  1.0  0.1274
  H  H217  1  0.866700  0.631300  0.057200  1.0  0.1278
  H  H218  1  0.828800  0.556900  0.073700  1.0  0.1029
  H  H219  1  0.872300  0.689700  0.148600  1.0  0.0749
  H  H220  1  0.934400  0.692400  0.229200  1.0  0.0721
  H  H221  1  0.025700  0.485700  0.194100  1.0  0.0926
  H  H222  1  0.961300  0.466200  0.114500  1.0  0.0853
  H  H223  1  0.985000  0.350700  0.208100  1.0  0.0677
  H  H224  1  0.912200  0.347700  0.130500  1.0  0.088
  C  C225  1  0.283340  0.462800  0.406170  1.0  0.633
  C  C226  1  0.258890  0.481900  0.351410  1.0  -0.0681
  C  C227  1  0.289320  0.510300  0.327390  1.0  -0.0494
  C  C228  1  0.267110  0.535300  0.277140  1.0  -0.1846
  C  C229  1  0.213590  0.532100  0.249440  1.0  0.1511
  C  C230  1  0.182970  0.500100  0.272990  1.0  -0.2243
  C  C231  1  0.205760  0.475800  0.323100  1.0  -0.0391
  C  C232  1  0.286650  0.436300  0.073150  1.0  0.6951
  C  C233  1  0.263880  0.471100  0.107870  1.0  -0.1532
  C  C234  1  0.245310  0.597800  0.109000  1.0  -0.043
  C  C235  1  0.222220  0.627600  0.138920  1.0  -0.1625
  C  C236  1  0.217020  0.530800  0.169000  1.0  0.1572
  C  C237  1  0.236780  0.403100  0.169280  1.0  -0.2027
  C  C238  1  0.259560  0.373900  0.139130  1.0  -0.0236
  C  C239  1  0.921410  0.950600  0.091560  1.0  0.1626
  C  C240  1  0.968540  0.889400  0.119450  1.0  -0.2274
  C  C241  1  0.997070  0.839500  0.097040  1.0  0.0749
  C  C242  1  0.975120  0.854400  0.046500  1.0  -0.2333
  C  C243  1  0.927200  0.917400  0.021550  1.0  0.1641
  C  C244  1  0.047520  0.768600  0.124900  1.0  0.007
  C  C245  1  0.061220  0.665000  0.102180  1.0  -0.1265
  C  C246  1  0.107870  0.595100  0.126900  1.0  -0.1888
  C  C247  1  0.142490  0.631000  0.174950  1.0  0.1657
  C  C248  1  0.129380  0.733500  0.197770  1.0  -0.2286
  C  C249  1  0.082360  0.800100  0.172520  1.0  -0.1098
  C  C250  1  0.334870  0.178200  0.538400  1.0  0.1326
  C  C251  1  0.376310  0.201200  0.495190  1.0  0.0189
  C  C252  1  0.386490  0.076600  0.514210  1.0  -0.1855
  C  C253  1  0.362550  0.949600  0.573230  1.0  -0.0162
  C  C254  1  0.402950  0.947200  0.624870  1.0  0.1566
  C  C255  1  0.400700  0.868300  0.658070  1.0  -0.1186
  C  C256  1  0.438700  0.866200  0.707120  1.0  -0.1345
  C  C257  1  0.480240  0.942700  0.723640  1.0  0.1861
  C  C258  1  0.491700  0.988200  0.686600  1.0  -0.0379
  C  C259  1  0.453400  0.995500  0.638600  1.0  -0.054
  C  C260  1  0.466200  0.070900  0.694500  1.0  -0.0476
  C  C261  1  0.425100  0.071600  0.647300  1.0  -0.0624
  C  C262  1  0.783340  0.962800  0.406170  1.0  0.633
  C  C263  1  0.758890  0.981900  0.351410  1.0  -0.0681
  C  C264  1  0.789320  0.010300  0.327390  1.0  -0.0494
  C  C265  1  0.767110  0.035300  0.277140  1.0  -0.1846
  C  C266  1  0.713590  0.032100  0.249440  1.0  0.1511
  C  C267  1  0.682970  0.000100  0.272990  1.0  -0.2243
  C  C268  1  0.705760  0.975800  0.323100  1.0  -0.0391
  C  C269  1  0.786650  0.936300  0.073150  1.0  0.6951
  C  C270  1  0.763880  0.971100  0.107870  1.0  -0.1532
  C  C271  1  0.745310  0.097800  0.109000  1.0  -0.043
  C  C272  1  0.722220  0.127600  0.138920  1.0  -0.1625
  C  C273  1  0.717020  0.030800  0.169000  1.0  0.1572
  C  C274  1  0.736780  0.903100  0.169280  1.0  -0.2027
  C  C275  1  0.759560  0.873900  0.139130  1.0  -0.0236
  C  C276  1  0.421410  0.450600  0.091560  1.0  0.1626
  C  C277  1  0.468540  0.389400  0.119450  1.0  -0.2274
  C  C278  1  0.497070  0.339500  0.097040  1.0  0.0749
  C  C279  1  0.475120  0.354400  0.046500  1.0  -0.2333
  C  C280  1  0.427200  0.417400  0.021550  1.0  0.1641
  C  C281  1  0.547520  0.268600  0.124900  1.0  0.007
  C  C282  1  0.561220  0.165000  0.102180  1.0  -0.1265
  C  C283  1  0.607870  0.095100  0.126900  1.0  -0.1888
  C  C284  1  0.642490  0.131000  0.174950  1.0  0.1657
  C  C285  1  0.629380  0.233500  0.197770  1.0  -0.2286
  C  C286  1  0.582360  0.300100  0.172520  1.0  -0.1098
  C  C287  1  0.834870  0.678200  0.538400  1.0  0.1326
  C  C288  1  0.876310  0.701200  0.495190  1.0  0.0189
  C  C289  1  0.886490  0.576600  0.514210  1.0  -0.1855
  C  C290  1  0.862550  0.449600  0.573230  1.0  -0.0162
  C  C291  1  0.902950  0.447200  0.624870  1.0  0.1566
  C  C292  1  0.900700  0.368300  0.658070  1.0  -0.1186
  C  C293  1  0.938700  0.366200  0.707120  1.0  -0.1345
  C  C294  1  0.980240  0.442700  0.723640  1.0  0.1861
  C  C295  1  0.991700  0.488200  0.686600  1.0  -0.0379
  C  C296  1  0.953400  0.495500  0.638600  1.0  -0.054
  C  C297  1  0.966200  0.570900  0.694500  1.0  -0.0476
  C  C298  1  0.925100  0.571600  0.647300  1.0  -0.0624
  C  C299  1  0.716660  0.462800  0.093830  1.0  0.6322
  C  C300  1  0.741110  0.481900  0.148590  1.0  -0.0682
  C  C301  1  0.710680  0.510300  0.172610  1.0  -0.0506
  C  C302  1  0.732890  0.535300  0.222860  1.0  -0.1841
  C  C303  1  0.786410  0.532100  0.250560  1.0  0.1509
  C  C304  1  0.817030  0.500100  0.227010  1.0  -0.2247
  C  C305  1  0.794240  0.475800  0.176900  1.0  -0.0402
  C  C306  1  0.713350  0.436300  0.426850  1.0  0.6957
  C  C307  1  0.736120  0.471100  0.392130  1.0  -0.1533
  C  C308  1  0.754690  0.597800  0.391000  1.0  -0.0437
  C  C309  1  0.777780  0.627600  0.361080  1.0  -0.163
  C  C310  1  0.782980  0.530800  0.331000  1.0  0.1574
  C  C311  1  0.763220  0.403100  0.330720  1.0  -0.2023
  C  C312  1  0.740440  0.373900  0.360870  1.0  -0.0229
  C  C313  1  0.078590  0.950600  0.408440  1.0  0.1626
  C  C314  1  0.031460  0.889400  0.380550  1.0  -0.2299
  C  C315  1  0.002930  0.839500  0.402960  1.0  0.0759
  C  C316  1  0.024880  0.854400  0.453500  1.0  -0.234
  C  C317  1  0.072800  0.917400  0.478450  1.0  0.1642
  C  C318  1  0.952480  0.768600  0.375100  1.0  0.006
  C  C319  1  0.938780  0.665000  0.397820  1.0  -0.1269
  C  C320  1  0.892130  0.595100  0.373100  1.0  -0.1888
  C  C321  1  0.857510  0.631000  0.325050  1.0  0.1662
  C  C322  1  0.870620  0.733500  0.302230  1.0  -0.2273
  C  C323  1  0.917640  0.800100  0.327480  1.0  -0.109
  C  C324  1  0.665130  0.178200  0.961600  1.0  0.1328
  C  C325  1  0.623690  0.201200  0.004810  1.0  0.0179
  C  C326  1  0.613510  0.076600  0.985790  1.0  -0.1846
  C  C327  1  0.637450  0.949600  0.926770  1.0  -0.0161
  C  C328  1  0.597050  0.947200  0.875130  1.0  0.1575
  C  C329  1  0.599300  0.868300  0.841930  1.0  -0.1234
  C  C330  1  0.561300  0.866200  0.792880  1.0  -0.1366
  C  C331  1  0.519760  0.942700  0.776360  1.0  0.1853
  C  C332  1  0.508300  0.988200  0.813400  1.0  -0.0429
  C  C333  1  0.546600  0.995500  0.861400  1.0  -0.0519
  C  C334  1  0.533800  0.070900  0.805500  1.0  -0.0498
  C  C335  1  0.574900  0.071600  0.852700  1.0  -0.0618
  C  C336  1  0.216660  0.962800  0.093830  1.0  0.6322
  C  C337  1  0.241110  0.981900  0.148590  1.0  -0.0682
  C  C338  1  0.210680  0.010300  0.172610  1.0  -0.0506
  C  C339  1  0.232890  0.035300  0.222860  1.0  -0.1841
  C  C340  1  0.286410  0.032100  0.250560  1.0  0.1509
  C  C341  1  0.317030  0.000100  0.227010  1.0  -0.2247
  C  C342  1  0.294240  0.975800  0.176900  1.0  -0.0402
  C  C343  1  0.213350  0.936300  0.426850  1.0  0.6957
  C  C344  1  0.236120  0.971100  0.392130  1.0  -0.1533
  C  C345  1  0.254690  0.097800  0.391000  1.0  -0.0437
  C  C346  1  0.277780  0.127600  0.361080  1.0  -0.163
  C  C347  1  0.282980  0.030800  0.331000  1.0  0.1574
  C  C348  1  0.263220  0.903100  0.330720  1.0  -0.2023
  C  C349  1  0.240440  0.873900  0.360870  1.0  -0.0229
  C  C350  1  0.578590  0.450600  0.408440  1.0  0.1626
  C  C351  1  0.531460  0.389400  0.380550  1.0  -0.2299
  C  C352  1  0.502930  0.339500  0.402960  1.0  0.0759
  C  C353  1  0.524880  0.354400  0.453500  1.0  -0.234
  C  C354  1  0.572800  0.417400  0.478450  1.0  0.1642
  C  C355  1  0.452480  0.268600  0.375100  1.0  0.006
  C  C356  1  0.438780  0.165000  0.397820  1.0  -0.1269
  C  C357  1  0.392130  0.095100  0.373100  1.0  -0.1888
  C  C358  1  0.357510  0.131000  0.325050  1.0  0.1662
  C  C359  1  0.370620  0.233500  0.302230  1.0  -0.2273
  C  C360  1  0.417640  0.300100  0.327480  1.0  -0.109
  C  C361  1  0.165130  0.678200  0.961600  1.0  0.1328
  C  C362  1  0.123690  0.701200  0.004810  1.0  0.0179
  C  C363  1  0.113510  0.576600  0.985790  1.0  -0.1846
  C  C364  1  0.137450  0.449600  0.926770  1.0  -0.0161
  C  C365  1  0.097050  0.447200  0.875130  1.0  0.1575
  C  C366  1  0.099300  0.368300  0.841930  1.0  -0.1234
  C  C367  1  0.061300  0.366200  0.792880  1.0  -0.1366
  C  C368  1  0.019760  0.442700  0.776360  1.0  0.1853
  C  C369  1  0.008300  0.488200  0.813400  1.0  -0.0429
  C  C370  1  0.046600  0.495500  0.861400  1.0  -0.0519
  C  C371  1  0.033800  0.570900  0.805500  1.0  -0.0498
  C  C372  1  0.074900  0.571600  0.852700  1.0  -0.0618
  C  C373  1  0.716660  0.537200  0.593830  1.0  0.6322
  C  C374  1  0.741110  0.518100  0.648590  1.0  -0.0684
  C  C375  1  0.710680  0.489700  0.672610  1.0  -0.0512
  C  C376  1  0.732890  0.464700  0.722860  1.0  -0.1832
  C  C377  1  0.786410  0.467900  0.750560  1.0  0.1511
  C  C378  1  0.817030  0.499900  0.727010  1.0  -0.2248
  C  C379  1  0.794240  0.524200  0.676900  1.0  -0.0405
  C  C380  1  0.713350  0.563700  0.926850  1.0  0.6952
  C  C381  1  0.736120  0.528900  0.892130  1.0  -0.1538
  C  C382  1  0.754690  0.402200  0.891000  1.0  -0.0437
  C  C383  1  0.777780  0.372400  0.861080  1.0  -0.1635
  C  C384  1  0.782980  0.469200  0.831000  1.0  0.1572
  C  C385  1  0.763220  0.596900  0.830720  1.0  -0.2035
  C  C386  1  0.740440  0.626100  0.860870  1.0  -0.0232
  C  C387  1  0.078590  0.049400  0.908440  1.0  0.1619
  C  C388  1  0.031460  0.110600  0.880550  1.0  -0.2291
  C  C389  1  0.002930  0.160500  0.902960  1.0  0.0757
  C  C390  1  0.024880  0.145600  0.953500  1.0  -0.2337
  C  C391  1  0.072800  0.082600  0.978450  1.0  0.1643
  C  C392  1  0.952480  0.231400  0.875100  1.0  0.007
  C  C393  1  0.938780  0.335000  0.897820  1.0  -0.1286
  C  C394  1  0.892130  0.404900  0.873100  1.0  -0.1883
  C  C395  1  0.857510  0.369000  0.825050  1.0  0.1661
  C  C396  1  0.870620  0.266500  0.802230  1.0  -0.2267
  C  C397  1  0.917640  0.199900  0.827480  1.0  -0.1087
  C  C398  1  0.665130  0.821800  0.461600  1.0  0.1331
  C  C399  1  0.623690  0.798800  0.504810  1.0  0.0177
  C  C400  1  0.613510  0.923400  0.485790  1.0  -0.1845
  C  C401  1  0.637450  0.050400  0.426770  1.0  -0.0162
  C  C402  1  0.597050  0.052800  0.375130  1.0  0.1557
  C  C403  1  0.599300  0.131700  0.341930  1.0  -0.1228
  C  C404  1  0.561300  0.133800  0.292880  1.0  -0.1372
  C  C405  1  0.519760  0.057300  0.276360  1.0  0.1825
  C  C406  1  0.508300  0.011800  0.313400  1.0  -0.0424
  C  C407  1  0.546600  0.004500  0.361400  1.0  -0.0523
  C  C408  1  0.533800  0.929100  0.305500  1.0  -0.0503
  C  C409  1  0.574900  0.928400  0.352700  1.0  -0.0625
  C  C410  1  0.216660  0.037200  0.593830  1.0  0.6322
  C  C411  1  0.241110  0.018100  0.648590  1.0  -0.0684
  C  C412  1  0.210680  0.989700  0.672610  1.0  -0.0512
  C  C413  1  0.232890  0.964700  0.722860  1.0  -0.1832
  C  C414  1  0.286410  0.967900  0.750560  1.0  0.1511
  C  C415  1  0.317030  0.999900  0.727010  1.0  -0.2248
  C  C416  1  0.294240  0.024200  0.676900  1.0  -0.0405
  C  C417  1  0.213350  0.063700  0.926850  1.0  0.6952
  C  C418  1  0.236120  0.028900  0.892130  1.0  -0.1538
  C  C419  1  0.254690  0.902200  0.891000  1.0  -0.0437
  C  C420  1  0.277780  0.872400  0.861080  1.0  -0.1635
  C  C421  1  0.282980  0.969200  0.831000  1.0  0.1572
  C  C422  1  0.263220  0.096900  0.830720  1.0  -0.2035
  C  C423  1  0.240440  0.126100  0.860870  1.0  -0.0232
  C  C424  1  0.578590  0.549400  0.908440  1.0  0.1619
  C  C425  1  0.531460  0.610600  0.880550  1.0  -0.2291
  C  C426  1  0.502930  0.660500  0.902960  1.0  0.0757
  C  C427  1  0.524880  0.645600  0.953500  1.0  -0.2337
  C  C428  1  0.572800  0.582600  0.978450  1.0  0.1643
  C  C429  1  0.452480  0.731400  0.875100  1.0  0.007
  C  C430  1  0.438780  0.835000  0.897820  1.0  -0.1286
  C  C431  1  0.392130  0.904900  0.873100  1.0  -0.1883
  C  C432  1  0.357510  0.869000  0.825050  1.0  0.1661
  C  C433  1  0.370620  0.766500  0.802230  1.0  -0.2267
  C  C434  1  0.417640  0.699900  0.827480  1.0  -0.1087
  C  C435  1  0.165130  0.321800  0.461600  1.0  0.1331
  C  C436  1  0.123690  0.298800  0.504810  1.0  0.0177
  C  C437  1  0.113510  0.423400  0.485790  1.0  -0.1845
  C  C438  1  0.137450  0.550400  0.426770  1.0  -0.0162
  C  C439  1  0.097050  0.552800  0.375130  1.0  0.1557
  C  C440  1  0.099300  0.631700  0.341930  1.0  -0.1228
  C  C441  1  0.061300  0.633800  0.292880  1.0  -0.1372
  C  C442  1  0.019760  0.557300  0.276360  1.0  0.1825
  C  C443  1  0.008300  0.511800  0.313400  1.0  -0.0424
  C  C444  1  0.046600  0.504500  0.361400  1.0  -0.0523
  C  C445  1  0.033800  0.429100  0.305500  1.0  -0.0503
  C  C446  1  0.074900  0.428400  0.352700  1.0  -0.0625
  C  C447  1  0.283340  0.537200  0.906170  1.0  0.6334
  C  C448  1  0.258890  0.518100  0.851410  1.0  -0.0677
  C  C449  1  0.289320  0.489700  0.827390  1.0  -0.0504
  C  C450  1  0.267110  0.464700  0.777140  1.0  -0.184
  C  C451  1  0.213590  0.467900  0.749440  1.0  0.1512
  C  C452  1  0.182970  0.499900  0.772990  1.0  -0.2251
  C  C453  1  0.205760  0.524200  0.823100  1.0  -0.0401
  C  C454  1  0.286650  0.563700  0.573150  1.0  0.695
  C  C455  1  0.263880  0.528900  0.607870  1.0  -0.153
  C  C456  1  0.245310  0.402200  0.609000  1.0  -0.0431
  C  C457  1  0.222220  0.372400  0.638920  1.0  -0.1627
  C  C458  1  0.217020  0.469200  0.669000  1.0  0.157
  C  C459  1  0.236780  0.596900  0.669280  1.0  -0.2046
  C  C460  1  0.259560  0.626100  0.639130  1.0  -0.024
  C  C461  1  0.921410  0.049400  0.591560  1.0  0.1636
  C  C462  1  0.968540  0.110600  0.619450  1.0  -0.2288
  C  C463  1  0.997070  0.160500  0.597040  1.0  0.0749
  C  C464  1  0.975120  0.145600  0.546500  1.0  -0.2333
  C  C465  1  0.927200  0.082600  0.521550  1.0  0.1639
  C  C466  1  0.047520  0.231400  0.624900  1.0  0.0075
  C  C467  1  0.061220  0.335000  0.602180  1.0  -0.1281
  C  C468  1  0.107870  0.404900  0.626900  1.0  -0.1876
  C  C469  1  0.142490  0.369000  0.674950  1.0  0.1659
  C  C470  1  0.129380  0.266500  0.697770  1.0  -0.2276
  C  C471  1  0.082360  0.199900  0.672520  1.0  -0.1093
  C  C472  1  0.334870  0.821800  0.038400  1.0  0.1328
  C  C473  1  0.376310  0.798800  0.995190  1.0  0.0184
  C  C474  1  0.386490  0.923400  0.014210  1.0  -0.1855
  C  C475  1  0.362550  0.050400  0.073230  1.0  -0.0161
  C  C476  1  0.402950  0.052800  0.124870  1.0  0.1548
  C  C477  1  0.400700  0.131700  0.158070  1.0  -0.1165
  C  C478  1  0.438700  0.133800  0.207120  1.0  -0.1339
  C  C479  1  0.480240  0.057300  0.223640  1.0  0.1841
  C  C480  1  0.491700  0.011800  0.186600  1.0  -0.0382
  C  C481  1  0.453400  0.004500  0.138600  1.0  -0.0562
  C  C482  1  0.466200  0.929100  0.194500  1.0  -0.0507
  C  C483  1  0.425100  0.928400  0.147300  1.0  -0.0642
  C  C484  1  0.783340  0.037200  0.906170  1.0  0.6334
  C  C485  1  0.758890  0.018100  0.851410  1.0  -0.0677
  C  C486  1  0.789320  0.989700  0.827390  1.0  -0.0504
  C  C487  1  0.767110  0.964700  0.777140  1.0  -0.184
  C  C488  1  0.713590  0.967900  0.749440  1.0  0.1512
  C  C489  1  0.682970  0.999900  0.772990  1.0  -0.2251
  C  C490  1  0.705760  0.024200  0.823100  1.0  -0.0401
  C  C491  1  0.786650  0.063700  0.573150  1.0  0.695
  C  C492  1  0.763880  0.028900  0.607870  1.0  -0.153
  C  C493  1  0.745310  0.902200  0.609000  1.0  -0.0431
  C  C494  1  0.722220  0.872400  0.638920  1.0  -0.1627
  C  C495  1  0.717020  0.969200  0.669000  1.0  0.157
  C  C496  1  0.736780  0.096900  0.669280  1.0  -0.2046
  C  C497  1  0.759560  0.126100  0.639130  1.0  -0.024
  C  C498  1  0.421410  0.549400  0.591560  1.0  0.1636
  C  C499  1  0.468540  0.610600  0.619450  1.0  -0.2288
  C  C500  1  0.497070  0.660500  0.597040  1.0  0.0749
  C  C501  1  0.475120  0.645600  0.546500  1.0  -0.2333
  C  C502  1  0.427200  0.582600  0.521550  1.0  0.1639
  C  C503  1  0.547520  0.731400  0.624900  1.0  0.0075
  C  C504  1  0.561220  0.835000  0.602180  1.0  -0.1281
  C  C505  1  0.607870  0.904900  0.626900  1.0  -0.1876
  C  C506  1  0.642490  0.869000  0.674950  1.0  0.1659
  C  C507  1  0.629380  0.766500  0.697770  1.0  -0.2276
  C  C508  1  0.582360  0.699900  0.672520  1.0  -0.1093
  C  C509  1  0.834870  0.321800  0.038400  1.0  0.1328
  C  C510  1  0.876310  0.298800  0.995190  1.0  0.0184
  C  C511  1  0.886490  0.423400  0.014210  1.0  -0.1855
  C  C512  1  0.862550  0.550400  0.073230  1.0  -0.0161
  C  C513  1  0.902950  0.552800  0.124870  1.0  0.1548
  C  C514  1  0.900700  0.631700  0.158070  1.0  -0.1165
  C  C515  1  0.938700  0.633800  0.207120  1.0  -0.1339
  C  C516  1  0.980240  0.557300  0.223640  1.0  0.1841
  C  C517  1  0.991700  0.511800  0.186600  1.0  -0.0382
  C  C518  1  0.953400  0.504500  0.138600  1.0  -0.0562
  C  C519  1  0.966200  0.429100  0.194500  1.0  -0.0507
  C  C520  1  0.925100  0.428400  0.147300  1.0  -0.0642
  N  N521  1  0.343600  0.266100  0.510520  1.0  -0.3804
  N  N522  1  0.359990  0.062000  0.541890  1.0  0.0445
  N  N523  1  0.899400  0.963100  0.043160  1.0  -0.3277
  N  N524  1  0.190580  0.561800  0.198290  1.0  -0.1619
  N  N525  1  0.843600  0.766100  0.510520  1.0  -0.3804
  N  N526  1  0.859990  0.562000  0.541890  1.0  0.0445
  N  N527  1  0.399400  0.463100  0.043160  1.0  -0.3277
  N  N528  1  0.690580  0.061800  0.198290  1.0  -0.1619
  N  N529  1  0.656400  0.266100  0.989480  1.0  -0.3811
  N  N530  1  0.640010  0.062000  0.958110  1.0  0.0451
  N  N531  1  0.100600  0.963100  0.456840  1.0  -0.3297
  N  N532  1  0.809420  0.561800  0.301710  1.0  -0.1624
  N  N533  1  0.156400  0.766100  0.989480  1.0  -0.3811
  N  N534  1  0.140010  0.562000  0.958110  1.0  0.0451
  N  N535  1  0.600600  0.463100  0.456840  1.0  -0.3297
  N  N536  1  0.309420  0.061800  0.301710  1.0  -0.1624
  N  N537  1  0.656400  0.733900  0.489480  1.0  -0.38
  N  N538  1  0.640010  0.938000  0.458110  1.0  0.0455
  N  N539  1  0.100600  0.036900  0.956840  1.0  -0.3296
  N  N540  1  0.809420  0.438200  0.801710  1.0  -0.1623
  N  N541  1  0.156400  0.233900  0.489480  1.0  -0.38
  N  N542  1  0.140010  0.438000  0.458110  1.0  0.0455
  N  N543  1  0.600600  0.536900  0.956840  1.0  -0.3296
  N  N544  1  0.309420  0.938200  0.801710  1.0  -0.1623
  N  N545  1  0.343600  0.733900  0.010520  1.0  -0.3795
  N  N546  1  0.359990  0.938000  0.041890  1.0  0.0454
  N  N547  1  0.899400  0.036900  0.543160  1.0  -0.3276
  N  N548  1  0.190580  0.438200  0.698290  1.0  -0.162
  N  N549  1  0.843600  0.233900  0.010520  1.0  -0.3795
  N  N550  1  0.859990  0.438000  0.041890  1.0  0.0454
  N  N551  1  0.399400  0.536900  0.543160  1.0  -0.3276
  N  N552  1  0.690580  0.938200  0.698290  1.0  -0.162
  O  O553  1  0.331980  0.468400  0.430550  1.0  -0.5822
  O  O554  1  0.254310  0.445000  0.427340  1.0  -0.5822
  O  O555  1  0.295130  0.315000  0.068270  1.0  -0.5925
  O  O556  1  0.296210  0.533500  0.051030  1.0  -0.6158
  O  O557  1  0.831980  0.968400  0.430550  1.0  -0.5822
  O  O558  1  0.754310  0.945000  0.427340  1.0  -0.5822
  O  O559  1  0.795130  0.815000  0.068270  1.0  -0.5925
  O  O560  1  0.796210  0.033500  0.051030  1.0  -0.6158
  O  O561  1  0.668020  0.468400  0.069450  1.0  -0.5832
  O  O562  1  0.745690  0.445000  0.072660  1.0  -0.5839
  O  O563  1  0.704870  0.315000  0.431730  1.0  -0.5933
  O  O564  1  0.703790  0.533500  0.448970  1.0  -0.6153
  O  O565  1  0.168020  0.968400  0.069450  1.0  -0.5832
  O  O566  1  0.245690  0.945000  0.072660  1.0  -0.5839
  O  O567  1  0.204870  0.815000  0.431730  1.0  -0.5933
  O  O568  1  0.203790  0.033500  0.448970  1.0  -0.6153
  O  O569  1  0.668020  0.531600  0.569450  1.0  -0.583
  O  O570  1  0.745690  0.555000  0.572660  1.0  -0.5838
  O  O571  1  0.704870  0.685000  0.931730  1.0  -0.5919
  O  O572  1  0.703790  0.466500  0.948970  1.0  -0.6153
  O  O573  1  0.168020  0.031600  0.569450  1.0  -0.583
  O  O574  1  0.245690  0.055000  0.572660  1.0  -0.5838
  O  O575  1  0.204870  0.185000  0.931730  1.0  -0.5919
  O  O576  1  0.203790  0.966500  0.948970  1.0  -0.6153
  O  O577  1  0.331980  0.531600  0.930550  1.0  -0.5824
  O  O578  1  0.254310  0.555000  0.927340  1.0  -0.582
  O  O579  1  0.295130  0.685000  0.568270  1.0  -0.5912
  O  O580  1  0.296210  0.466500  0.551030  1.0  -0.6156
  O  O581  1  0.831980  0.031600  0.930550  1.0  -0.5824
  O  O582  1  0.754310  0.055000  0.927340  1.0  -0.582
  O  O583  1  0.795130  0.185000  0.568270  1.0  -0.5912
  O  O584  1  0.796210  0.966500  0.551030  1.0  -0.6156
