# generated using pymatgen
data_ZnH21C31(NO)4
_symmetry_space_group_name_H-M   'P 1'
_cell_length_a   14.22320000
_cell_length_b   26.53950000
_cell_length_c   19.46700000
_cell_angle_alpha   90.00000000
_cell_angle_beta   107.70100000
_cell_angle_gamma   90.00000000
_symmetry_Int_Tables_number   1
_chemical_formula_structural   ZnH21C31(NO)4
_chemical_formula_sum   'Zn8 H168 C248 N32 O32'
_cell_volume   7000.43889471
_cell_formula_units_Z   8
loop_
 _symmetry_equiv_pos_site_id
 _symmetry_equiv_pos_as_xyz
  1  'x, y, z'
loop_
 _atom_site_type_symbol
 _atom_site_label
 _atom_site_symmetry_multiplicity
 _atom_site_fract_x
 _atom_site_fract_y
 _atom_site_fract_z
 _atom_site_occupancy
 _atom_site_charge
  Zn  Zn1  1  0.393330  0.958180  0.810700  1.0  0.917
  Zn  Zn2  1  0.986040  0.458560  0.154390  1.0  0.8287
  Zn  Zn3  1  0.606670  0.041820  0.189300  1.0  0.918
  Zn  Zn4  1  0.013960  0.541440  0.845610  1.0  0.8287
  Zn  Zn5  1  0.606670  0.458180  0.689300  1.0  0.9172
  Zn  Zn6  1  0.013960  0.958560  0.345610  1.0  0.8286
  Zn  Zn7  1  0.393330  0.541820  0.310700  1.0  0.9181
  Zn  Zn8  1  0.986040  0.041440  0.654390  1.0  0.8287
  H  H9  1  0.733400  0.354600  0.025700  1.0  0.0931
  H  H10  1  0.589900  0.310400  0.999800  1.0  0.1139
  H  H11  1  0.523500  0.380500  0.161200  1.0  0.1102
  H  H12  1  0.667700  0.425000  0.185400  1.0  0.0999
  H  H13  1  0.226600  0.307100  0.178400  1.0  0.1048
  H  H14  1  0.357800  0.275000  0.143900  1.0  0.1096
  H  H15  1  0.360300  0.399800  0.031300  1.0  0.1099
  H  H16  1  0.232800  0.432400  0.067300  1.0  0.0893
  H  H17  1  0.428600  0.005100  0.951000  1.0  0.0729
  H  H18  1  0.443600  0.080300  0.009400  1.0  0.1121
  H  H19  1  0.364300  0.148300  0.817600  1.0  0.1152
  H  H20  1  0.356300  0.071000  0.764900  1.0  0.07
  H  H21  1  0.539800  0.156300  0.037700  1.0  0.095
  H  H22  1  0.560700  0.233300  0.094300  1.0  0.1241
  H  H23  1  0.313000  0.282300  0.951300  1.0  0.1048
  H  H24  1  0.293300  0.206400  0.893200  1.0  0.1071
  H  H25  1  0.876700  0.557500  0.154000  1.0  0.0744
  H  H26  1  0.871600  0.637700  0.112600  1.0  0.1206
  H  H27  1  0.074200  0.598800  0.018000  1.0  0.1185
  H  H28  1  0.073900  0.520400  0.062700  1.0  0.0787
  H  H29  1  0.890400  0.714500  0.086400  1.0  0.1099
  H  H30  1  0.879700  0.792300  0.035200  1.0  0.1162
  H  H31  1  0.032200  0.743900  0.907100  1.0  0.1211
  H  H32  1  0.045600  0.665700  0.959800  1.0  0.1163
  H  H33  1  0.620200  0.823100  0.845600  1.0  0.088
  H  H34  1  0.771100  0.785700  0.878600  1.0  0.0973
  H  H35  1  0.897600  0.918600  0.938400  1.0  0.1099
  H  H36  1  0.742100  0.954600  0.904800  1.0  0.0865
  H  H37  1  0.081400  0.908700  0.790000  1.0  0.0916
  H  H38  1  0.948400  0.874000  0.817300  1.0  0.1175
  H  H39  1  0.129600  0.824500  0.004900  1.0  0.1149
  H  H40  1  0.261500  0.861100  0.978700  1.0  0.1048
  H  H41  1  0.923100  0.481900  0.296000  1.0  0.0961
  H  H42  1  0.203900  0.471100  0.409300  1.0  0.1214
  H  H43  1  0.187300  0.459200  0.282800  1.0  0.1009
  H  H44  1  0.142100  0.534800  0.485200  1.0  0.1153
  H  H45  1  0.900600  0.448500  0.411500  1.0  0.1204
  H  H46  1  0.233200  0.939600  0.656800  1.0  0.1064
  H  H47  1  0.263100  0.949500  0.541100  1.0  0.1267
  H  H48  1  0.497100  0.996500  0.694700  1.0  0.0944
  H  H49  1  0.331100  0.010300  0.468800  1.0  0.1101
  H  H50  1  0.586400  0.969800  0.612700  1.0  0.1218
  H  H51  1  0.266600  0.645400  0.974300  1.0  0.0932
  H  H52  1  0.410100  0.689600  0.000200  1.0  0.1138
  H  H53  1  0.476500  0.619500  0.838800  1.0  0.1104
  H  H54  1  0.332300  0.575000  0.814600  1.0  0.0999
  H  H55  1  0.773400  0.692900  0.821600  1.0  0.1042
  H  H56  1  0.642200  0.725000  0.856100  1.0  0.11
  H  H57  1  0.639700  0.600200  0.968700  1.0  0.1092
  H  H58  1  0.767200  0.567600  0.932700  1.0  0.089
  H  H59  1  0.571400  0.994900  0.049000  1.0  0.0728
  H  H60  1  0.556400  0.919700  0.990600  1.0  0.1122
  H  H61  1  0.635700  0.851700  0.182400  1.0  0.1153
  H  H62  1  0.643700  0.929000  0.235100  1.0  0.0696
  H  H63  1  0.460200  0.843700  0.962300  1.0  0.0945
  H  H64  1  0.439300  0.766700  0.905700  1.0  0.1249
  H  H65  1  0.687000  0.717700  0.048700  1.0  0.1054
  H  H66  1  0.706700  0.793600  0.106800  1.0  0.1083
  H  H67  1  0.123300  0.442500  0.846000  1.0  0.0752
  H  H68  1  0.128400  0.362300  0.887400  1.0  0.1209
  H  H69  1  0.925800  0.401200  0.982000  1.0  0.1189
  H  H70  1  0.926100  0.479600  0.937300  1.0  0.079
  H  H71  1  0.109600  0.285500  0.913600  1.0  0.1114
  H  H72  1  0.120300  0.207700  0.964800  1.0  0.1172
  H  H73  1  0.967800  0.256100  0.092900  1.0  0.1208
  H  H74  1  0.954400  0.334300  0.040200  1.0  0.1156
  H  H75  1  0.379800  0.176900  0.154400  1.0  0.0882
  H  H76  1  0.228900  0.214300  0.121400  1.0  0.097
  H  H77  1  0.102400  0.081400  0.061600  1.0  0.1107
  H  H78  1  0.257900  0.045400  0.095200  1.0  0.0879
  H  H79  1  0.918600  0.091300  0.210000  1.0  0.0911
  H  H80  1  0.051600  0.126000  0.182700  1.0  0.1184
  H  H81  1  0.870400  0.175500  0.995100  1.0  0.1156
  H  H82  1  0.738500  0.138900  0.021300  1.0  0.1047
  H  H83  1  0.076900  0.518100  0.704000  1.0  0.096
  H  H84  1  0.796100  0.528900  0.590700  1.0  0.1209
  H  H85  1  0.812700  0.540800  0.717200  1.0  0.1018
  H  H86  1  0.857900  0.465200  0.514800  1.0  0.1149
  H  H87  1  0.099400  0.551500  0.588500  1.0  0.1215
  H  H88  1  0.766800  0.060400  0.343200  1.0  0.1071
  H  H89  1  0.736900  0.050500  0.458900  1.0  0.127
  H  H90  1  0.502900  0.003500  0.305300  1.0  0.0939
  H  H91  1  0.668900  0.989700  0.531200  1.0  0.1091
  H  H92  1  0.413600  0.030200  0.387300  1.0  0.1231
  H  H93  1  0.266600  0.854600  0.474300  1.0  0.0931
  H  H94  1  0.410100  0.810400  0.500200  1.0  0.1142
  H  H95  1  0.476500  0.880500  0.338800  1.0  0.1101
  H  H96  1  0.332300  0.925000  0.314600  1.0  0.0998
  H  H97  1  0.773400  0.807100  0.321600  1.0  0.1041
  H  H98  1  0.642200  0.775000  0.356100  1.0  0.1093
  H  H99  1  0.639700  0.899800  0.468700  1.0  0.1091
  H  H100  1  0.767200  0.932400  0.432700  1.0  0.0889
  H  H101  1  0.571400  0.505100  0.549000  1.0  0.0724
  H  H102  1  0.556400  0.580300  0.490600  1.0  0.1121
  H  H103  1  0.635700  0.648300  0.682400  1.0  0.1151
  H  H104  1  0.643700  0.571000  0.735100  1.0  0.0693
  H  H105  1  0.460200  0.656300  0.462300  1.0  0.0943
  H  H106  1  0.439300  0.733300  0.405700  1.0  0.1246
  H  H107  1  0.687000  0.782300  0.548700  1.0  0.1049
  H  H108  1  0.706700  0.706400  0.606800  1.0  0.1079
  H  H109  1  0.123300  0.057500  0.346000  1.0  0.0753
  H  H110  1  0.128400  0.137700  0.387400  1.0  0.1209
  H  H111  1  0.925800  0.098800  0.482000  1.0  0.119
  H  H112  1  0.926100  0.020400  0.437300  1.0  0.0788
  H  H113  1  0.109600  0.214500  0.413600  1.0  0.1113
  H  H114  1  0.120300  0.292300  0.464800  1.0  0.1174
  H  H115  1  0.967800  0.243900  0.592900  1.0  0.1208
  H  H116  1  0.954400  0.165700  0.540200  1.0  0.1156
  H  H117  1  0.379800  0.323100  0.654400  1.0  0.0882
  H  H118  1  0.228900  0.285700  0.621400  1.0  0.0976
  H  H119  1  0.102400  0.418600  0.561600  1.0  0.1112
  H  H120  1  0.257900  0.454600  0.595200  1.0  0.0861
  H  H121  1  0.918600  0.408700  0.710000  1.0  0.0916
  H  H122  1  0.051600  0.374000  0.682700  1.0  0.1181
  H  H123  1  0.870400  0.324500  0.495100  1.0  0.1156
  H  H124  1  0.738500  0.361100  0.521300  1.0  0.1048
  H  H125  1  0.076900  0.981900  0.204000  1.0  0.0964
  H  H126  1  0.796100  0.971100  0.090700  1.0  0.1217
  H  H127  1  0.812700  0.959200  0.217200  1.0  0.1018
  H  H128  1  0.857900  0.034800  0.014800  1.0  0.1147
  H  H129  1  0.099400  0.948500  0.088500  1.0  0.1212
  H  H130  1  0.766800  0.439600  0.843200  1.0  0.1066
  H  H131  1  0.736900  0.449500  0.958900  1.0  0.1272
  H  H132  1  0.502900  0.496500  0.805300  1.0  0.0935
  H  H133  1  0.668900  0.510300  0.031200  1.0  0.1091
  H  H134  1  0.413600  0.469800  0.887300  1.0  0.1229
  H  H135  1  0.733400  0.145400  0.525700  1.0  0.0932
  H  H136  1  0.589900  0.189600  0.499800  1.0  0.1138
  H  H137  1  0.523500  0.119500  0.661200  1.0  0.1101
  H  H138  1  0.667700  0.075000  0.685400  1.0  0.1002
  H  H139  1  0.226600  0.192900  0.678400  1.0  0.1045
  H  H140  1  0.357800  0.225000  0.643900  1.0  0.1093
  H  H141  1  0.360300  0.100200  0.531300  1.0  0.11
  H  H142  1  0.232800  0.067600  0.567300  1.0  0.0887
  H  H143  1  0.428600  0.494900  0.451000  1.0  0.0728
  H  H144  1  0.443600  0.419700  0.509400  1.0  0.1119
  H  H145  1  0.364300  0.351700  0.317600  1.0  0.1151
  H  H146  1  0.356300  0.429000  0.264900  1.0  0.0697
  H  H147  1  0.539800  0.343700  0.537700  1.0  0.0947
  H  H148  1  0.560700  0.266700  0.594300  1.0  0.1241
  H  H149  1  0.313000  0.217700  0.451300  1.0  0.1047
  H  H150  1  0.293300  0.293600  0.393200  1.0  0.1072
  H  H151  1  0.876700  0.942500  0.654000  1.0  0.0745
  H  H152  1  0.871600  0.862300  0.612600  1.0  0.1207
  H  H153  1  0.074200  0.901200  0.518000  1.0  0.118
  H  H154  1  0.073900  0.979600  0.562700  1.0  0.0788
  H  H155  1  0.890400  0.785500  0.586400  1.0  0.1103
  H  H156  1  0.879700  0.707700  0.535200  1.0  0.1161
  H  H157  1  0.032200  0.756100  0.407100  1.0  0.121
  H  H158  1  0.045600  0.834300  0.459800  1.0  0.1161
  H  H159  1  0.620200  0.676900  0.345600  1.0  0.0879
  H  H160  1  0.771100  0.714300  0.378600  1.0  0.0968
  H  H161  1  0.897600  0.581400  0.438400  1.0  0.1097
  H  H162  1  0.742100  0.545400  0.404800  1.0  0.0879
  H  H163  1  0.081400  0.591300  0.290000  1.0  0.0914
  H  H164  1  0.948400  0.626000  0.317300  1.0  0.1176
  H  H165  1  0.129600  0.675500  0.504900  1.0  0.1151
  H  H166  1  0.261500  0.638900  0.478700  1.0  0.1049
  H  H167  1  0.923100  0.018100  0.796000  1.0  0.096
  H  H168  1  0.203900  0.028900  0.909300  1.0  0.1225
  H  H169  1  0.187300  0.040800  0.782800  1.0  0.1009
  H  H170  1  0.142100  0.965200  0.985200  1.0  0.1158
  H  H171  1  0.900600  0.051500  0.911500  1.0  0.1213
  H  H172  1  0.233200  0.560400  0.156800  1.0  0.1067
  H  H173  1  0.263100  0.550500  0.041100  1.0  0.127
  H  H174  1  0.497100  0.503500  0.194700  1.0  0.0945
  H  H175  1  0.331100  0.489700  0.968800  1.0  0.1099
  H  H176  1  0.586400  0.530200  0.112700  1.0  0.1232
  C  C177  1  0.808700  0.424800  0.124430  1.0  0.6495
  C  C178  1  0.716500  0.395370  0.107700  1.0  -0.129
  C  C179  1  0.690800  0.360240  0.053000  1.0  -0.0433
  C  C180  1  0.605000  0.333570  0.037500  1.0  -0.2212
  C  C181  1  0.540000  0.340580  0.077370  1.0  0.183
  C  C182  1  0.565400  0.375270  0.133300  1.0  -0.1644
  C  C183  1  0.651900  0.401890  0.147720  1.0  -0.0221
  C  C184  1  0.131500  0.393620  0.148230  1.0  0.6561
  C  C185  1  0.215800  0.373000  0.125510  1.0  -0.1532
  C  C186  1  0.253400  0.325980  0.148700  1.0  -0.0381
  C  C187  1  0.331800  0.306520  0.127600  1.0  -0.1797
  C  C188  1  0.370300  0.333930  0.082900  1.0  0.1912
  C  C189  1  0.333500  0.380830  0.061000  1.0  -0.1278
  C  C190  1  0.256800  0.400330  0.082400  1.0  -0.0397
  C  C191  1  0.416600  0.034480  0.923690  1.0  0.1725
  C  C192  1  0.425200  0.079540  0.959290  1.0  -0.2404
  C  C193  1  0.406300  0.124040  0.920160  1.0  0.1183
  C  C194  1  0.379100  0.119660  0.846340  1.0  -0.2252
  C  C195  1  0.373800  0.072750  0.814900  1.0  0.1758
  C  C196  1  0.416400  0.173210  0.957260  1.0  0.0704
  C  C197  1  0.494700  0.181960  0.019120  1.0  -0.1216
  C  C198  1  0.506900  0.227970  0.053500  1.0  -0.1868
  C  C199  1  0.439300  0.266280  0.027500  1.0  0.1871
  C  C200  1  0.359800  0.257120  0.968300  1.0  -0.1572
  C  C201  1  0.348000  0.211650  0.933400  1.0  -0.1308
  C  C202  1  0.916900  0.565930  0.126000  1.0  0.1774
  C  C203  1  0.913500  0.614450  0.101300  1.0  -0.2014
  C  C204  1  0.972420  0.629070  0.059260  1.0  0.0955
  C  C205  1  0.032900  0.591470  0.045710  1.0  -0.1928
  C  C206  1  0.032100  0.544380  0.072510  1.0  0.1755
  C  C207  1  0.969200  0.680410  0.028760  1.0  0.0657
  C  C208  1  0.919500  0.720040  0.050350  1.0  -0.1069
  C  C209  1  0.912900  0.766730  0.019500  1.0  -0.1949
  C  C210  1  0.954600  0.776430  0.965810  1.0  0.1622
  C  C211  1  0.003900  0.738110  0.943520  1.0  -0.1884
  C  C212  1  0.011300  0.690930  0.975130  1.0  -0.1256
  C  C213  1  0.563000  0.914400  0.848000  1.0  0.6985
  C  C214  1  0.664900  0.892650  0.870720  1.0  -0.0653
  C  C215  1  0.676100  0.842950  0.864300  1.0  -0.0595
  C  C216  1  0.766500  0.820330  0.884000  1.0  -0.1925
  C  C217  1  0.850300  0.848060  0.911580  1.0  0.1866
  C  C218  1  0.841800  0.898690  0.919580  1.0  -0.2547
  C  C219  1  0.747900  0.920040  0.898900  1.0  -0.0316
  C  C220  1  0.271700  0.913060  0.865700  1.0  0.6622
  C  C221  1  0.185350  0.888280  0.881560  1.0  -0.1528
  C  C222  1  0.091200  0.892000  0.833620  1.0  -0.0224
  C  C223  1  0.011400  0.871120  0.849860  1.0  -0.1914
  C  C224  1  0.024790  0.846000  0.914340  1.0  0.1829
  C  C225  1  0.119400  0.841930  0.961820  1.0  -0.2087
  C  C226  1  0.198700  0.863460  0.945790  1.0  -0.0505
  C  C227  1  0.991000  0.477270  0.308340  1.0  0.1536
  C  C228  1  0.145500  0.471730  0.371300  1.0  -0.1526
  C  C229  1  0.135400  0.464890  0.301600  1.0  0.0407
  C  C230  1  0.085200  0.520900  0.491380  1.0  -0.1323
  C  C231  1  0.025400  0.490050  0.439210  1.0  0.1295
  C  C232  1  0.940300  0.469140  0.447300  1.0  -0.1354
  C  C233  1  0.290500  0.952470  0.649880  1.0  0.0115
  C  C234  1  0.306700  0.957580  0.586030  1.0  -0.1531
  C  C235  1  0.434900  0.983420  0.671140  1.0  0.1567
  C  C236  1  0.399200  0.006180  0.481310  1.0  -0.1337
  C  C237  1  0.450700  0.988150  0.548770  1.0  0.1367
  C  C238  1  0.551600  0.981960  0.567330  1.0  -0.1788
  C  C239  1  0.191300  0.575200  0.875570  1.0  0.6488
  C  C240  1  0.283500  0.604630  0.892300  1.0  -0.1296
  C  C241  1  0.309200  0.639760  0.947000  1.0  -0.0435
  C  C242  1  0.395000  0.666430  0.962500  1.0  -0.2217
  C  C243  1  0.460000  0.659420  0.922630  1.0  0.1829
  C  C244  1  0.434600  0.624730  0.866700  1.0  -0.1652
  C  C245  1  0.348100  0.598110  0.852280  1.0  -0.0225
  C  C246  1  0.868500  0.606380  0.851770  1.0  0.6576
  C  C247  1  0.784200  0.627000  0.874490  1.0  -0.1532
  C  C248  1  0.746600  0.674020  0.851300  1.0  -0.0378
  C  C249  1  0.668200  0.693480  0.872400  1.0  -0.1814
  C  C250  1  0.629700  0.666070  0.917100  1.0  0.1903
  C  C251  1  0.666500  0.619170  0.939000  1.0  -0.1275
  C  C252  1  0.743200  0.599670  0.917600  1.0  -0.0404
  C  C253  1  0.583400  0.965520  0.076310  1.0  0.172
  C  C254  1  0.574800  0.920460  0.040710  1.0  -0.2399
  C  C255  1  0.593700  0.875960  0.079840  1.0  0.1178
  C  C256  1  0.620900  0.880340  0.153660  1.0  -0.222
  C  C257  1  0.626200  0.927250  0.185100  1.0  0.1775
  C  C258  1  0.583600  0.826790  0.042740  1.0  0.071
  C  C259  1  0.505300  0.818040  0.980880  1.0  -0.1218
  C  C260  1  0.493100  0.772030  0.946500  1.0  -0.1854
  C  C261  1  0.560700  0.733720  0.972500  1.0  0.1867
  C  C262  1  0.640200  0.742880  0.031700  1.0  -0.1596
  C  C263  1  0.652000  0.788350  0.066600  1.0  -0.1302
  C  C264  1  0.083100  0.434070  0.874000  1.0  0.177
  C  C265  1  0.086500  0.385550  0.898700  1.0  -0.2003
  C  C266  1  0.027580  0.370930  0.940740  1.0  0.0969
  C  C267  1  0.967100  0.408530  0.954290  1.0  -0.1929
  C  C268  1  0.967900  0.455620  0.927490  1.0  0.1762
  C  C269  1  0.030800  0.319590  0.971240  1.0  0.0668
  C  C270  1  0.080500  0.279960  0.949650  1.0  -0.1061
  C  C271  1  0.087100  0.233270  0.980500  1.0  -0.193
  C  C272  1  0.045400  0.223570  0.034190  1.0  0.1604
  C  C273  1  0.996100  0.261890  0.056480  1.0  -0.1902
  C  C274  1  0.988700  0.309070  0.024870  1.0  -0.1242
  C  C275  1  0.437000  0.085600  0.152000  1.0  0.703
  C  C276  1  0.335100  0.107350  0.129280  1.0  -0.0614
  C  C277  1  0.323900  0.157050  0.135700  1.0  -0.057
  C  C278  1  0.233500  0.179670  0.116000  1.0  -0.1922
  C  C279  1  0.149700  0.151940  0.088420  1.0  0.188
  C  C280  1  0.158200  0.101310  0.080420  1.0  -0.2546
  C  C281  1  0.252100  0.079960  0.101100  1.0  -0.0316
  C  C282  1  0.728300  0.086940  0.134300  1.0  0.6607
  C  C283  1  0.814650  0.111720  0.118440  1.0  -0.1557
  C  C284  1  0.908800  0.108000  0.166380  1.0  -0.0235
  C  C285  1  0.988600  0.128880  0.150140  1.0  -0.1929
  C  C286  1  0.975210  0.154000  0.085660  1.0  0.1833
  C  C287  1  0.880600  0.158070  0.038180  1.0  -0.2084
  C  C288  1  0.801300  0.136540  0.054210  1.0  -0.0506
  C  C289  1  0.009000  0.522730  0.691660  1.0  0.1535
  C  C290  1  0.854500  0.528270  0.628700  1.0  -0.1533
  C  C291  1  0.864600  0.535110  0.698400  1.0  0.0406
  C  C292  1  0.914800  0.479100  0.508620  1.0  -0.1309
  C  C293  1  0.974600  0.509950  0.560790  1.0  0.1288
  C  C294  1  0.059700  0.530860  0.552700  1.0  -0.1331
  C  C295  1  0.709500  0.047530  0.350120  1.0  0.0122
  C  C296  1  0.693300  0.042420  0.413970  1.0  -0.1513
  C  C297  1  0.565100  0.016580  0.328860  1.0  0.1563
  C  C298  1  0.600800  0.993820  0.518690  1.0  -0.1316
  C  C299  1  0.549300  0.011850  0.451230  1.0  0.1369
  C  C300  1  0.448400  0.018040  0.432670  1.0  -0.1791
  C  C301  1  0.191300  0.924800  0.375570  1.0  0.6488
  C  C302  1  0.283500  0.895370  0.392300  1.0  -0.1297
  C  C303  1  0.309200  0.860240  0.447000  1.0  -0.0422
  C  C304  1  0.395000  0.833570  0.462500  1.0  -0.2213
  C  C305  1  0.460000  0.840580  0.422630  1.0  0.183
  C  C306  1  0.434600  0.875270  0.366700  1.0  -0.1647
  C  C307  1  0.348100  0.901890  0.352280  1.0  -0.0219
  C  C308  1  0.868500  0.893620  0.351770  1.0  0.6574
  C  C309  1  0.784200  0.873000  0.374490  1.0  -0.1528
  C  C310  1  0.746600  0.825980  0.351300  1.0  -0.0379
  C  C311  1  0.668200  0.806520  0.372400  1.0  -0.1817
  C  C312  1  0.629700  0.833930  0.417100  1.0  0.1905
  C  C313  1  0.666500  0.880830  0.439000  1.0  -0.1278
  C  C314  1  0.743200  0.900330  0.417600  1.0  -0.0403
  C  C315  1  0.583400  0.534480  0.576310  1.0  0.1716
  C  C316  1  0.574800  0.579540  0.540710  1.0  -0.2398
  C  C317  1  0.593700  0.624040  0.579840  1.0  0.1181
  C  C318  1  0.620900  0.619660  0.653660  1.0  -0.2238
  C  C319  1  0.626200  0.572750  0.685100  1.0  0.1773
  C  C320  1  0.583600  0.673210  0.542740  1.0  0.0712
  C  C321  1  0.505300  0.681960  0.480880  1.0  -0.1221
  C  C322  1  0.493100  0.727970  0.446500  1.0  -0.1852
  C  C323  1  0.560700  0.766280  0.472500  1.0  0.1867
  C  C324  1  0.640200  0.757120  0.531700  1.0  -0.1597
  C  C325  1  0.652000  0.711650  0.566600  1.0  -0.1307
  C  C326  1  0.083100  0.065930  0.374000  1.0  0.1767
  C  C327  1  0.086500  0.114450  0.398700  1.0  -0.2003
  C  C328  1  0.027580  0.129070  0.440740  1.0  0.097
  C  C329  1  0.967100  0.091470  0.454290  1.0  -0.1927
  C  C330  1  0.967900  0.044380  0.427490  1.0  0.1762
  C  C331  1  0.030800  0.180410  0.471240  1.0  0.0661
  C  C332  1  0.080500  0.220040  0.449650  1.0  -0.1076
  C  C333  1  0.087100  0.266730  0.480500  1.0  -0.1926
  C  C334  1  0.045400  0.276430  0.534190  1.0  0.1605
  C  C335  1  0.996100  0.238110  0.556480  1.0  -0.1902
  C  C336  1  0.988700  0.190930  0.524870  1.0  -0.1241
  C  C337  1  0.437000  0.414400  0.652000  1.0  0.703
  C  C338  1  0.335100  0.392650  0.629280  1.0  -0.0618
  C  C339  1  0.323900  0.342950  0.635700  1.0  -0.0573
  C  C340  1  0.233500  0.320330  0.616000  1.0  -0.1918
  C  C341  1  0.149700  0.348060  0.588420  1.0  0.1877
  C  C342  1  0.158200  0.398690  0.580420  1.0  -0.2547
  C  C343  1  0.252100  0.420040  0.601100  1.0  -0.032
  C  C344  1  0.728300  0.413060  0.634300  1.0  0.6616
  C  C345  1  0.814650  0.388280  0.618440  1.0  -0.1557
  C  C346  1  0.908800  0.392000  0.666380  1.0  -0.0224
  C  C347  1  0.988600  0.371120  0.650140  1.0  -0.1934
  C  C348  1  0.975210  0.346000  0.585660  1.0  0.183
  C  C349  1  0.880600  0.341930  0.538180  1.0  -0.2091
  C  C350  1  0.801300  0.363460  0.554210  1.0  -0.0511
  C  C351  1  0.009000  0.977270  0.191660  1.0  0.1526
  C  C352  1  0.854500  0.971730  0.128700  1.0  -0.1536
  C  C353  1  0.864600  0.964890  0.198400  1.0  0.0404
  C  C354  1  0.914800  0.020900  0.008620  1.0  -0.1317
  C  C355  1  0.974600  0.990050  0.060790  1.0  0.129
  C  C356  1  0.059700  0.969140  0.052700  1.0  -0.1328
  C  C357  1  0.709500  0.452470  0.850120  1.0  0.0108
  C  C358  1  0.693300  0.457580  0.913970  1.0  -0.1512
  C  C359  1  0.565100  0.483420  0.828860  1.0  0.1557
  C  C360  1  0.600800  0.506180  0.018690  1.0  -0.1314
  C  C361  1  0.549300  0.488150  0.951230  1.0  0.137
  C  C362  1  0.448400  0.481960  0.932670  1.0  -0.1794
  C  C363  1  0.808700  0.075200  0.624430  1.0  0.6487
  C  C364  1  0.716500  0.104630  0.607700  1.0  -0.1287
  C  C365  1  0.690800  0.139760  0.553000  1.0  -0.044
  C  C366  1  0.605000  0.166430  0.537500  1.0  -0.2211
  C  C367  1  0.540000  0.159420  0.577370  1.0  0.1827
  C  C368  1  0.565400  0.124730  0.633300  1.0  -0.1649
  C  C369  1  0.651900  0.098110  0.647720  1.0  -0.0218
  C  C370  1  0.131500  0.106380  0.648230  1.0  0.6554
  C  C371  1  0.215800  0.127000  0.625510  1.0  -0.1532
  C  C372  1  0.253400  0.174020  0.648700  1.0  -0.0381
  C  C373  1  0.331800  0.193480  0.627600  1.0  -0.18
  C  C374  1  0.370300  0.166070  0.582900  1.0  0.1911
  C  C375  1  0.333500  0.119170  0.561000  1.0  -0.1275
  C  C376  1  0.256800  0.099670  0.582400  1.0  -0.0397
  C  C377  1  0.416600  0.465520  0.423690  1.0  0.1727
  C  C378  1  0.425200  0.420460  0.459290  1.0  -0.2402
  C  C379  1  0.406300  0.375960  0.420160  1.0  0.1181
  C  C380  1  0.379100  0.380340  0.346340  1.0  -0.2236
  C  C381  1  0.373800  0.427250  0.314900  1.0  0.1765
  C  C382  1  0.416400  0.326790  0.457260  1.0  0.0714
  C  C383  1  0.494700  0.318040  0.519120  1.0  -0.1217
  C  C384  1  0.506900  0.272030  0.553500  1.0  -0.1865
  C  C385  1  0.439300  0.233720  0.527500  1.0  0.1871
  C  C386  1  0.359800  0.242880  0.468300  1.0  -0.1574
  C  C387  1  0.348000  0.288350  0.433400  1.0  -0.1302
  C  C388  1  0.916900  0.934070  0.626000  1.0  0.1772
  C  C389  1  0.913500  0.885550  0.601300  1.0  -0.2009
  C  C390  1  0.972420  0.870930  0.559260  1.0  0.0967
  C  C391  1  0.032900  0.908530  0.545710  1.0  -0.1927
  C  C392  1  0.032100  0.955620  0.572510  1.0  0.175
  C  C393  1  0.969200  0.819590  0.528760  1.0  0.0652
  C  C394  1  0.919500  0.779960  0.550350  1.0  -0.1063
  C  C395  1  0.912900  0.733270  0.519500  1.0  -0.1937
  C  C396  1  0.954600  0.723570  0.465810  1.0  0.1624
  C  C397  1  0.003900  0.761890  0.443520  1.0  -0.1886
  C  C398  1  0.011300  0.809070  0.475130  1.0  -0.1254
  C  C399  1  0.563000  0.585600  0.348000  1.0  0.6988
  C  C400  1  0.664900  0.607350  0.370720  1.0  -0.0669
  C  C401  1  0.676100  0.657050  0.364300  1.0  -0.0593
  C  C402  1  0.766500  0.679670  0.384000  1.0  -0.1912
  C  C403  1  0.850300  0.651940  0.411580  1.0  0.1868
  C  C404  1  0.841800  0.601310  0.419580  1.0  -0.2554
  C  C405  1  0.747900  0.579960  0.398900  1.0  -0.0316
  C  C406  1  0.271700  0.586940  0.365700  1.0  0.6615
  C  C407  1  0.185350  0.611720  0.381560  1.0  -0.1534
  C  C408  1  0.091200  0.608000  0.333620  1.0  -0.0238
  C  C409  1  0.011400  0.628880  0.349860  1.0  -0.1922
  C  C410  1  0.024790  0.654000  0.414340  1.0  0.1836
  C  C411  1  0.119400  0.658070  0.461820  1.0  -0.2101
  C  C412  1  0.198700  0.636540  0.445790  1.0  -0.0509
  C  C413  1  0.991000  0.022730  0.808340  1.0  0.1539
  C  C414  1  0.145500  0.028270  0.871300  1.0  -0.1524
  C  C415  1  0.135400  0.035110  0.801600  1.0  0.0416
  C  C416  1  0.085200  0.979100  0.991380  1.0  -0.1315
  C  C417  1  0.025400  0.009950  0.939210  1.0  0.1295
  C  C418  1  0.940300  0.030860  0.947300  1.0  -0.1346
  C  C419  1  0.290500  0.547530  0.149880  1.0  0.0107
  C  C420  1  0.306700  0.542420  0.086030  1.0  -0.1528
  C  C421  1  0.434900  0.516580  0.171140  1.0  0.1566
  C  C422  1  0.399200  0.493820  0.981310  1.0  -0.1337
  C  C423  1  0.450700  0.511850  0.048770  1.0  0.1366
  C  C424  1  0.551600  0.518040  0.067330  1.0  -0.18
  N  N425  1  0.392140  0.030120  0.851940  1.0  -0.3354
  N  N426  1  0.450540  0.314050  0.061890  1.0  -0.1336
  N  N427  1  0.974170  0.530370  0.112480  1.0  -0.3489
  N  N428  1  0.944600  0.824310  0.932590  1.0  -0.1393
  N  N429  1  0.038440  0.467440  0.261650  1.0  -0.3868
  N  N430  1  0.051830  0.479860  0.375500  1.0  0.0352
  N  N431  1  0.371780  0.969280  0.703750  1.0  -0.3675
  N  N432  1  0.399520  0.976840  0.599480  1.0  0.0426
  N  N433  1  0.607860  0.969880  0.148060  1.0  -0.3335
  N  N434  1  0.549460  0.685950  0.938110  1.0  -0.1344
  N  N435  1  0.025830  0.469630  0.887520  1.0  -0.3493
  N  N436  1  0.055400  0.175690  0.067410  1.0  -0.14
  N  N437  1  0.961560  0.532560  0.738350  1.0  -0.387
  N  N438  1  0.948170  0.520140  0.624500  1.0  0.0357
  N  N439  1  0.628220  0.030720  0.296250  1.0  -0.3686
  N  N440  1  0.600480  0.023160  0.400520  1.0  0.0414
  N  N441  1  0.607860  0.530120  0.648060  1.0  -0.3335
  N  N442  1  0.549460  0.814050  0.438110  1.0  -0.1342
  N  N443  1  0.025830  0.030370  0.387520  1.0  -0.3491
  N  N444  1  0.055400  0.324310  0.567410  1.0  -0.14
  N  N445  1  0.961560  0.967440  0.238350  1.0  -0.3868
  N  N446  1  0.948170  0.979860  0.124500  1.0  0.036
  N  N447  1  0.628220  0.469280  0.796250  1.0  -0.3693
  N  N448  1  0.600480  0.476840  0.900520  1.0  0.0418
  N  N449  1  0.392140  0.469880  0.351940  1.0  -0.3345
  N  N450  1  0.450540  0.185950  0.561890  1.0  -0.1338
  N  N451  1  0.974170  0.969630  0.612480  1.0  -0.3497
  N  N452  1  0.944600  0.675690  0.432590  1.0  -0.1393
  N  N453  1  0.038440  0.032560  0.761650  1.0  -0.3857
  N  N454  1  0.051830  0.020140  0.875500  1.0  0.0356
  N  N455  1  0.371780  0.530720  0.203750  1.0  -0.3675
  N  N456  1  0.399520  0.523160  0.099480  1.0  0.0419
  O  O457  1  0.870970  0.415550  0.092950  1.0  -0.5832
  O  O458  1  0.823600  0.460040  0.171010  1.0  -0.6204
  O  O459  1  0.099690  0.436940  0.124330  1.0  -0.5931
  O  O460  1  0.096070  0.368610  0.187960  1.0  -0.5627
  O  O461  1  0.263780  0.924560  0.800800  1.0  -0.5905
  O  O462  1  0.348260  0.922260  0.915960  1.0  -0.6017
  O  O463  1  0.550300  0.957400  0.859360  1.0  -0.5639
  O  O464  1  0.490800  0.890540  0.817000  1.0  -0.5539
  O  O465  1  0.129030  0.584450  0.907050  1.0  -0.5829
  O  O466  1  0.176400  0.539960  0.828990  1.0  -0.62
  O  O467  1  0.900310  0.563060  0.875670  1.0  -0.5936
  O  O468  1  0.903930  0.631390  0.812040  1.0  -0.5609
  O  O469  1  0.736220  0.075440  0.199200  1.0  -0.5911
  O  O470  1  0.651740  0.077740  0.084040  1.0  -0.6002
  O  O471  1  0.449700  0.042600  0.140640  1.0  -0.5616
  O  O472  1  0.509200  0.109460  0.183000  1.0  -0.5554
  O  O473  1  0.129030  0.915550  0.407050  1.0  -0.5831
  O  O474  1  0.176400  0.960040  0.328990  1.0  -0.6187
  O  O475  1  0.900310  0.936940  0.375670  1.0  -0.5941
  O  O476  1  0.903930  0.868610  0.312040  1.0  -0.5602
  O  O477  1  0.736220  0.424560  0.699200  1.0  -0.5926
  O  O478  1  0.651740  0.422260  0.584040  1.0  -0.6009
  O  O479  1  0.449700  0.457400  0.640640  1.0  -0.5631
  O  O480  1  0.509200  0.390540  0.683000  1.0  -0.5545
  O  O481  1  0.870970  0.084450  0.592950  1.0  -0.5831
  O  O482  1  0.823600  0.039960  0.671010  1.0  -0.6201
  O  O483  1  0.099690  0.063060  0.624330  1.0  -0.5932
  O  O484  1  0.096070  0.131390  0.687960  1.0  -0.5622
  O  O485  1  0.263780  0.575440  0.300800  1.0  -0.5912
  O  O486  1  0.348260  0.577740  0.415960  1.0  -0.6026
  O  O487  1  0.550300  0.542600  0.359360  1.0  -0.5615
  O  O488  1  0.490800  0.609460  0.317000  1.0  -0.5556
