# generated using pymatgen
data_ZnH16C25(NO2)2
_symmetry_space_group_name_H-M   'P 1'
_cell_length_a   16.35830000
_cell_length_b   18.13360000
_cell_length_c   22.59150000
_cell_angle_alpha   90.00000000
_cell_angle_beta   114.10500000
_cell_angle_gamma   90.00000000
_symmetry_Int_Tables_number   1
_chemical_formula_structural   ZnH16C25(NO2)2
_chemical_formula_sum   'Zn8 H128 C200 N16 O32'
_cell_volume   6117.05245454
_cell_formula_units_Z   8
loop_
 _symmetry_equiv_pos_site_id
 _symmetry_equiv_pos_as_xyz
  1  'x, y, z'
loop_
 _atom_site_type_symbol
 _atom_site_label
 _atom_site_symmetry_multiplicity
 _atom_site_fract_x
 _atom_site_fract_y
 _atom_site_fract_z
 _atom_site_occupancy
 _atom_site_charge
  Zn  Zn1  1  0.278450  0.447970  0.720210  1.0  0.9331
  Zn  Zn2  1  0.119570  0.542630  0.659470  1.0  0.9291
  Zn  Zn3  1  0.278450  0.052030  0.220210  1.0  0.9327
  Zn  Zn4  1  0.119570  0.957370  0.159470  1.0  0.9288
  Zn  Zn5  1  0.721550  0.947970  0.779790  1.0  0.9327
  Zn  Zn6  1  0.880430  0.042630  0.840530  1.0  0.9293
  Zn  Zn7  1  0.721550  0.552030  0.279790  1.0  0.9325
  Zn  Zn8  1  0.880430  0.457370  0.340530  1.0  0.9291
  H  H9  1  0.969100  0.385600  0.513200  1.0  0.1041
  H  H10  1  0.905200  0.299200  0.432100  1.0  0.1058
  H  H11  1  0.109000  0.160300  0.526100  1.0  0.1322
  H  H12  1  0.174800  0.248800  0.605000  1.0  0.1119
  H  H13  1  0.196000  0.171000  0.364100  1.0  0.0999
  H  H14  1  0.116400  0.216700  0.419400  1.0  0.0959
  H  H15  1  0.934000  0.055500  0.345100  1.0  0.1199
  H  H16  1  0.010400  0.013700  0.286000  1.0  0.1037
  H  H17  1  0.408400  0.131600  0.338500  1.0  0.0865
  H  H18  1  0.556400  0.163900  0.384100  1.0  0.1133
  H  H19  1  0.572900  0.109300  0.217800  1.0  0.1159
  H  H20  1  0.424400  0.077700  0.176700  1.0  0.0728
  H  H21  1  0.694700  0.178800  0.254600  1.0  0.1053
  H  H22  1  0.847900  0.191800  0.298900  1.0  0.1117
  H  H23  1  0.857400  0.140600  0.473600  1.0  0.1244
  H  H24  1  0.703900  0.127600  0.429500  1.0  0.1157
  H  H25  1  0.240000  0.689800  0.563200  1.0  0.0925
  H  H26  1  0.315800  0.750000  0.511400  1.0  0.1137
  H  H27  1  0.458700  0.567100  0.522400  1.0  0.1138
  H  H28  1  0.384500  0.507600  0.575400  1.0  0.0948
  H  H29  1  0.427600  0.897900  0.358500  1.0  0.1062
  H  H30  1  0.501100  0.819700  0.444600  1.0  0.1233
  H  H31  1  0.281000  0.694300  0.389900  1.0  0.1195
  H  H32  1  0.207800  0.772800  0.303900  1.0  0.105
  H  H33  1  0.949100  0.525200  0.539700  1.0  0.0779
  H  H34  1  0.803200  0.563100  0.498300  1.0  0.1066
  H  H35  1  0.857700  0.675900  0.662800  1.0  0.1192
  H  H36  1  0.002400  0.635700  0.699000  1.0  0.0872
  H  H37  1  0.690900  0.643500  0.454500  1.0  0.1132
  H  H38  1  0.541100  0.673600  0.415500  1.0  0.1117
  H  H39  1  0.565000  0.704300  0.597600  1.0  0.1141
  H  H40  1  0.714000  0.671600  0.636900  1.0  0.1212
  H  H41  1  0.969100  0.114400  0.013200  1.0  0.1041
  H  H42  1  0.905200  0.200800  0.932100  1.0  0.1057
  H  H43  1  0.109000  0.339700  0.026100  1.0  0.1317
  H  H44  1  0.174800  0.251200  0.105000  1.0  0.1117
  H  H45  1  0.196000  0.329000  0.864100  1.0  0.1003
  H  H46  1  0.116400  0.283300  0.919400  1.0  0.0965
  H  H47  1  0.934000  0.444500  0.845100  1.0  0.12
  H  H48  1  0.010400  0.486300  0.786000  1.0  0.1039
  H  H49  1  0.408400  0.368400  0.838500  1.0  0.0868
  H  H50  1  0.556400  0.336100  0.884100  1.0  0.1134
  H  H51  1  0.572900  0.390700  0.717800  1.0  0.1162
  H  H52  1  0.424400  0.422300  0.676700  1.0  0.0727
  H  H53  1  0.694700  0.321200  0.754600  1.0  0.1053
  H  H54  1  0.847900  0.308200  0.798900  1.0  0.1121
  H  H55  1  0.857400  0.359400  0.973600  1.0  0.1241
  H  H56  1  0.703900  0.372400  0.929500  1.0  0.1157
  H  H57  1  0.240000  0.810200  0.063200  1.0  0.0926
  H  H58  1  0.315800  0.750000  0.011400  1.0  0.1138
  H  H59  1  0.458700  0.932900  0.022400  1.0  0.1139
  H  H60  1  0.384500  0.992400  0.075400  1.0  0.0945
  H  H61  1  0.427600  0.602100  0.858500  1.0  0.1062
  H  H62  1  0.501100  0.680300  0.944600  1.0  0.1238
  H  H63  1  0.281000  0.805700  0.889900  1.0  0.1195
  H  H64  1  0.207800  0.727200  0.803900  1.0  0.1048
  H  H65  1  0.949100  0.974800  0.039700  1.0  0.0778
  H  H66  1  0.803200  0.936900  0.998300  1.0  0.1073
  H  H67  1  0.857700  0.824100  0.162800  1.0  0.1191
  H  H68  1  0.002400  0.864300  0.199000  1.0  0.0871
  H  H69  1  0.690900  0.856500  0.954500  1.0  0.1132
  H  H70  1  0.541100  0.826400  0.915500  1.0  0.1115
  H  H71  1  0.565000  0.795700  0.097600  1.0  0.1142
  H  H72  1  0.714000  0.828400  0.136900  1.0  0.121
  H  H73  1  0.030900  0.885600  0.986800  1.0  0.1037
  H  H74  1  0.094800  0.799200  0.067900  1.0  0.1057
  H  H75  1  0.891000  0.660300  0.973900  1.0  0.132
  H  H76  1  0.825200  0.748800  0.895000  1.0  0.1119
  H  H77  1  0.804000  0.671000  0.135900  1.0  0.0993
  H  H78  1  0.883600  0.716700  0.080600  1.0  0.0962
  H  H79  1  0.066000  0.555500  0.154900  1.0  0.1198
  H  H80  1  0.989600  0.513700  0.214000  1.0  0.1034
  H  H81  1  0.591600  0.631600  0.161500  1.0  0.0871
  H  H82  1  0.443600  0.663900  0.115900  1.0  0.1123
  H  H83  1  0.427100  0.609300  0.282200  1.0  0.1154
  H  H84  1  0.575600  0.577700  0.323300  1.0  0.0727
  H  H85  1  0.305300  0.678800  0.245400  1.0  0.106
  H  H86  1  0.152100  0.691800  0.201100  1.0  0.1117
  H  H87  1  0.142600  0.640600  0.026400  1.0  0.124
  H  H88  1  0.296100  0.627600  0.070500  1.0  0.1155
  H  H89  1  0.760000  0.189800  0.936800  1.0  0.0928
  H  H90  1  0.684200  0.250000  0.988600  1.0  0.1133
  H  H91  1  0.541300  0.067100  0.977600  1.0  0.1137
  H  H92  1  0.615500  0.007600  0.924600  1.0  0.0945
  H  H93  1  0.572400  0.397900  0.141500  1.0  0.1061
  H  H94  1  0.498900  0.319700  0.055400  1.0  0.1241
  H  H95  1  0.719000  0.194300  0.110100  1.0  0.1199
  H  H96  1  0.792200  0.272800  0.196100  1.0  0.1047
  H  H97  1  0.050900  0.025200  0.960300  1.0  0.0775
  H  H98  1  0.196800  0.063100  0.001700  1.0  0.1073
  H  H99  1  0.142300  0.175900  0.837200  1.0  0.1192
  H  H100  1  0.997600  0.135700  0.801000  1.0  0.0875
  H  H101  1  0.309100  0.143500  0.045500  1.0  0.1129
  H  H102  1  0.458900  0.173600  0.084500  1.0  0.1116
  H  H103  1  0.435000  0.204300  0.902400  1.0  0.1147
  H  H104  1  0.286000  0.171600  0.863100  1.0  0.1209
  H  H105  1  0.030900  0.614400  0.486800  1.0  0.1039
  H  H106  1  0.094800  0.700800  0.567900  1.0  0.1058
  H  H107  1  0.891000  0.839700  0.473900  1.0  0.1322
  H  H108  1  0.825200  0.751200  0.395000  1.0  0.1119
  H  H109  1  0.804000  0.829000  0.635900  1.0  0.0997
  H  H110  1  0.883600  0.783300  0.580600  1.0  0.0968
  H  H111  1  0.066000  0.944500  0.654900  1.0  0.1197
  H  H112  1  0.989600  0.986300  0.714000  1.0  0.1033
  H  H113  1  0.591600  0.868400  0.661500  1.0  0.0873
  H  H114  1  0.443600  0.836100  0.615900  1.0  0.1128
  H  H115  1  0.427100  0.890700  0.782200  1.0  0.1154
  H  H116  1  0.575600  0.922300  0.823300  1.0  0.0725
  H  H117  1  0.305300  0.821200  0.745400  1.0  0.1056
  H  H118  1  0.152100  0.808200  0.701100  1.0  0.1119
  H  H119  1  0.142600  0.859400  0.526400  1.0  0.1243
  H  H120  1  0.296100  0.872400  0.570500  1.0  0.1151
  H  H121  1  0.760000  0.310200  0.436800  1.0  0.0927
  H  H122  1  0.684200  0.250000  0.488600  1.0  0.1137
  H  H123  1  0.541300  0.432900  0.477600  1.0  0.1138
  H  H124  1  0.615500  0.492400  0.424600  1.0  0.0946
  H  H125  1  0.572400  0.102100  0.641500  1.0  0.1059
  H  H126  1  0.498900  0.180300  0.555400  1.0  0.1243
  H  H127  1  0.719000  0.305700  0.610100  1.0  0.1194
  H  H128  1  0.792200  0.227200  0.696100  1.0  0.1049
  H  H129  1  0.050900  0.474800  0.460300  1.0  0.0774
  H  H130  1  0.196800  0.436900  0.501700  1.0  0.1073
  H  H131  1  0.142300  0.324100  0.337200  1.0  0.1191
  H  H132  1  0.997600  0.364300  0.301000  1.0  0.0874
  H  H133  1  0.309100  0.356500  0.545500  1.0  0.113
  H  H134  1  0.458900  0.326400  0.584500  1.0  0.1115
  H  H135  1  0.435000  0.295700  0.402400  1.0  0.1148
  H  H136  1  0.286000  0.328400  0.363100  1.0  0.1211
  C  C137  1  0.126200  0.387050  0.613820  1.0  0.6719
  C  C138  1  0.080200  0.327140  0.566320  1.0  -0.1494
  C  C139  1  0.998200  0.341040  0.514990  1.0  -0.0511
  C  C140  1  0.959400  0.289190  0.466690  1.0  -0.1671
  C  C141  1  0.002100  0.222130  0.470250  1.0  0.1957
  C  C142  1  0.082000  0.206150  0.522840  1.0  -0.2272
  C  C143  1  0.120800  0.259030  0.570200  1.0  -0.0207
  C  C144  1  0.157200  0.062500  0.277210  1.0  0.7177
  C  C145  1  0.111100  0.088460  0.318180  1.0  -0.1434
  C  C146  1  0.142400  0.148720  0.359160  1.0  -0.0436
  C  C147  1  0.094900  0.175870  0.392560  1.0  -0.1855
  C  C148  1  0.014700  0.142790  0.386620  1.0  0.1603
  C  C149  1  0.985300  0.080010  0.347680  1.0  -0.194
  C  C150  1  0.031900  0.054270  0.313060  1.0  -0.0547
  C  C151  1  0.442500  0.125300  0.314520  1.0  0.1586
  C  C152  1  0.531700  0.144900  0.342180  1.0  -0.1678
  C  C153  1  0.584800  0.136530  0.307900  1.0  0.0888
  C  C154  1  0.541500  0.112600  0.243970  1.0  -0.1796
  C  C155  1  0.451900  0.093800  0.219430  1.0  0.1815
  C  C156  1  0.682500  0.149680  0.336830  1.0  0.0532
  C  C157  1  0.727200  0.170100  0.298680  1.0  -0.1322
  C  C158  1  0.819100  0.177900  0.325150  1.0  -0.1907
  C  C159  1  0.868900  0.165090  0.390530  1.0  0.1449
  C  C160  1  0.824900  0.147400  0.429330  1.0  -0.1737
  C  C161  1  0.732600  0.139700  0.402770  1.0  -0.1235
  C  C162  1  0.255700  0.553770  0.609910  1.0  0.6737
  C  C163  1  0.303000  0.591800  0.574220  1.0  -0.1452
  C  C164  1  0.284000  0.664880  0.554980  1.0  -0.0064
  C  C165  1  0.329300  0.701030  0.523840  1.0  -0.2033
  C  C166  1  0.394700  0.665000  0.511030  1.0  0.1878
  C  C167  1  0.414700  0.591900  0.530650  1.0  -0.2
  C  C168  1  0.369900  0.556200  0.562080  1.0  -0.0302
  C  C169  1  0.262000  0.895670  0.267280  1.0  0.6915
  C  C170  1  0.309900  0.843560  0.321910  1.0  -0.1451
  C  C171  1  0.397900  0.856900  0.364690  1.0  -0.0375
  C  C172  1  0.442100  0.810000  0.416460  1.0  -0.2065
  C  C173  1  0.398400  0.748640  0.426330  1.0  0.1852
  C  C174  1  0.310800  0.735260  0.383800  1.0  -0.2114
  C  C175  1  0.266800  0.782470  0.332010  1.0  -0.0295
  C  C176  1  0.930500  0.556470  0.564330  1.0  0.1764
  C  C177  1  0.842400  0.578900  0.539270  1.0  -0.1664
  C  C178  1  0.812100  0.625000  0.575090  1.0  0.1032
  C  C179  1  0.874800  0.645700  0.636580  1.0  -0.1859
  C  C180  1  0.961700  0.621330  0.658070  1.0  0.1767
  C  C181  1  0.718000  0.650120  0.550000  1.0  0.04
  C  C182  1  0.665300  0.653630  0.483520  1.0  -0.136
  C  C183  1  0.575300  0.671900  0.459990  1.0  -0.2278
  C  C184  1  0.536400  0.687700  0.502520  1.0  0.1748
  C  C185  1  0.589800  0.689900  0.569010  1.0  -0.1918
  C  C186  1  0.679200  0.670800  0.592520  1.0  -0.1122
  C  C187  1  0.126200  0.112950  0.113820  1.0  0.6723
  C  C188  1  0.080200  0.172860  0.066320  1.0  -0.147
  C  C189  1  0.998200  0.158960  0.014990  1.0  -0.0516
  C  C190  1  0.959400  0.210810  0.966690  1.0  -0.1665
  C  C191  1  0.002100  0.277870  0.970250  1.0  0.1946
  C  C192  1  0.082000  0.293850  0.022840  1.0  -0.2252
  C  C193  1  0.120800  0.240970  0.070200  1.0  -0.02
  C  C194  1  0.157200  0.437500  0.777210  1.0  0.7179
  C  C195  1  0.111100  0.411540  0.818180  1.0  -0.1424
  C  C196  1  0.142400  0.351280  0.859160  1.0  -0.0432
  C  C197  1  0.094900  0.324130  0.892560  1.0  -0.1853
  C  C198  1  0.014700  0.357210  0.886620  1.0  0.1606
  C  C199  1  0.985300  0.419990  0.847680  1.0  -0.196
  C  C200  1  0.031900  0.445730  0.813060  1.0  -0.0555
  C  C201  1  0.442500  0.374700  0.814520  1.0  0.1584
  C  C202  1  0.531700  0.355100  0.842180  1.0  -0.1683
  C  C203  1  0.584800  0.363470  0.807900  1.0  0.0883
  C  C204  1  0.541500  0.387400  0.743970  1.0  -0.1798
  C  C205  1  0.451900  0.406200  0.719430  1.0  0.1818
  C  C206  1  0.682500  0.350320  0.836830  1.0  0.0531
  C  C207  1  0.727200  0.329900  0.798680  1.0  -0.132
  C  C208  1  0.819100  0.322100  0.825150  1.0  -0.1907
  C  C209  1  0.868900  0.334910  0.890530  1.0  0.1448
  C  C210  1  0.824900  0.352600  0.929330  1.0  -0.175
  C  C211  1  0.732600  0.360300  0.902770  1.0  -0.1243
  C  C212  1  0.255700  0.946230  0.109910  1.0  0.6738
  C  C213  1  0.303000  0.908200  0.074220  1.0  -0.1452
  C  C214  1  0.284000  0.835120  0.054980  1.0  -0.0064
  C  C215  1  0.329300  0.798970  0.023840  1.0  -0.2049
  C  C216  1  0.394700  0.835000  0.011030  1.0  0.1876
  C  C217  1  0.414700  0.908100  0.030650  1.0  -0.2002
  C  C218  1  0.369900  0.943800  0.062080  1.0  -0.0303
  C  C219  1  0.262000  0.604330  0.767280  1.0  0.6911
  C  C220  1  0.309900  0.656440  0.821910  1.0  -0.1454
  C  C221  1  0.397900  0.643100  0.864690  1.0  -0.0373
  C  C222  1  0.442100  0.690000  0.916460  1.0  -0.2058
  C  C223  1  0.398400  0.751360  0.926330  1.0  0.1854
  C  C224  1  0.310800  0.764740  0.883800  1.0  -0.2113
  C  C225  1  0.266800  0.717530  0.832010  1.0  -0.0296
  C  C226  1  0.930500  0.943530  0.064330  1.0  0.1777
  C  C227  1  0.842400  0.921100  0.039270  1.0  -0.167
  C  C228  1  0.812100  0.875000  0.075090  1.0  0.1036
  C  C229  1  0.874800  0.854300  0.136580  1.0  -0.1864
  C  C230  1  0.961700  0.878670  0.158070  1.0  0.1765
  C  C231  1  0.718000  0.849880  0.050000  1.0  0.0403
  C  C232  1  0.665300  0.846370  0.983520  1.0  -0.1357
  C  C233  1  0.575300  0.828100  0.959990  1.0  -0.228
  C  C234  1  0.536400  0.812300  0.002520  1.0  0.1749
  C  C235  1  0.589800  0.810100  0.069010  1.0  -0.1919
  C  C236  1  0.679200  0.829200  0.092520  1.0  -0.1114
  C  C237  1  0.873800  0.887050  0.886180  1.0  0.672
  C  C238  1  0.919800  0.827140  0.933680  1.0  -0.1494
  C  C239  1  0.001800  0.841040  0.985010  1.0  -0.0513
  C  C240  1  0.040600  0.789190  0.033310  1.0  -0.1683
  C  C241  1  0.997900  0.722130  0.029750  1.0  0.1946
  C  C242  1  0.918000  0.706150  0.977160  1.0  -0.2247
  C  C243  1  0.879200  0.759030  0.929800  1.0  -0.0175
  C  C244  1  0.842800  0.562500  0.222790  1.0  0.7185
  C  C245  1  0.888900  0.588460  0.181820  1.0  -0.1424
  C  C246  1  0.857600  0.648720  0.140840  1.0  -0.0421
  C  C247  1  0.905100  0.675870  0.107440  1.0  -0.186
  C  C248  1  0.985300  0.642790  0.113380  1.0  0.1597
  C  C249  1  0.014700  0.580010  0.152320  1.0  -0.193
  C  C250  1  0.968100  0.554270  0.186940  1.0  -0.0555
  C  C251  1  0.557500  0.625300  0.185480  1.0  0.1587
  C  C252  1  0.468300  0.644900  0.157820  1.0  -0.1695
  C  C253  1  0.415200  0.636530  0.192100  1.0  0.0885
  C  C254  1  0.458500  0.612600  0.256030  1.0  -0.1795
  C  C255  1  0.548100  0.593800  0.280570  1.0  0.1817
  C  C256  1  0.317500  0.649680  0.163170  1.0  0.0523
  C  C257  1  0.272800  0.670100  0.201320  1.0  -0.1325
  C  C258  1  0.180900  0.677900  0.174850  1.0  -0.1892
  C  C259  1  0.131100  0.665090  0.109470  1.0  0.1445
  C  C260  1  0.175100  0.647400  0.070670  1.0  -0.1707
  C  C261  1  0.267400  0.639700  0.097230  1.0  -0.1226
  C  C262  1  0.744300  0.053770  0.890090  1.0  0.6738
  C  C263  1  0.697000  0.091800  0.925780  1.0  -0.1459
  C  C264  1  0.716000  0.164880  0.945020  1.0  -0.0079
  C  C265  1  0.670700  0.201030  0.976160  1.0  -0.2025
  C  C266  1  0.605300  0.165000  0.988970  1.0  0.1881
  C  C267  1  0.585300  0.091900  0.969350  1.0  -0.2006
  C  C268  1  0.630100  0.056200  0.937920  1.0  -0.0297
  C  C269  1  0.738000  0.395670  0.232720  1.0  0.6909
  C  C270  1  0.690100  0.343560  0.178090  1.0  -0.1439
  C  C271  1  0.602100  0.356900  0.135310  1.0  -0.0382
  C  C272  1  0.557900  0.310000  0.083540  1.0  -0.2085
  C  C273  1  0.601600  0.248640  0.073670  1.0  0.1852
  C  C274  1  0.689200  0.235260  0.116200  1.0  -0.2106
  C  C275  1  0.733200  0.282470  0.167990  1.0  -0.0312
  C  C276  1  0.069500  0.056470  0.935670  1.0  0.1761
  C  C277  1  0.157600  0.078900  0.960730  1.0  -0.1677
  C  C278  1  0.187900  0.125000  0.924910  1.0  0.1036
  C  C279  1  0.125200  0.145700  0.863420  1.0  -0.1835
  C  C280  1  0.038300  0.121330  0.841930  1.0  0.1765
  C  C281  1  0.282000  0.150120  0.950000  1.0  0.0393
  C  C282  1  0.334700  0.153630  0.016480  1.0  -0.1357
  C  C283  1  0.424700  0.171900  0.040010  1.0  -0.2277
  C  C284  1  0.463600  0.187700  0.997480  1.0  0.175
  C  C285  1  0.410200  0.189900  0.930990  1.0  -0.1908
  C  C286  1  0.320800  0.170800  0.907480  1.0  -0.108
  C  C287  1  0.873800  0.612950  0.386180  1.0  0.6732
  C  C288  1  0.919800  0.672860  0.433680  1.0  -0.1499
  C  C289  1  0.001800  0.658960  0.485010  1.0  -0.0508
  C  C290  1  0.040600  0.710810  0.533310  1.0  -0.168
  C  C291  1  0.997900  0.777870  0.529750  1.0  0.1949
  C  C292  1  0.918000  0.793850  0.477160  1.0  -0.2236
  C  C293  1  0.879200  0.740970  0.429800  1.0  -0.0197
  C  C294  1  0.842800  0.937500  0.722790  1.0  0.7186
  C  C295  1  0.888900  0.911540  0.681820  1.0  -0.1417
  C  C296  1  0.857600  0.851280  0.640840  1.0  -0.0424
  C  C297  1  0.905100  0.824130  0.607440  1.0  -0.1861
  C  C298  1  0.985300  0.857210  0.613380  1.0  0.1603
  C  C299  1  0.014700  0.919990  0.652320  1.0  -0.1946
  C  C300  1  0.968100  0.945730  0.686940  1.0  -0.0554
  C  C301  1  0.557500  0.874700  0.685480  1.0  0.1584
  C  C302  1  0.468300  0.855100  0.657820  1.0  -0.1693
  C  C303  1  0.415200  0.863470  0.692100  1.0  0.0885
  C  C304  1  0.458500  0.887400  0.756030  1.0  -0.18
  C  C305  1  0.548100  0.906200  0.780570  1.0  0.1817
  C  C306  1  0.317500  0.850320  0.663170  1.0  0.0522
  C  C307  1  0.272800  0.829900  0.701320  1.0  -0.1324
  C  C308  1  0.180900  0.822100  0.674850  1.0  -0.1891
  C  C309  1  0.131100  0.834910  0.609470  1.0  0.1446
  C  C310  1  0.175100  0.852600  0.570670  1.0  -0.1733
  C  C311  1  0.267400  0.860300  0.597230  1.0  -0.1234
  C  C312  1  0.744300  0.446230  0.390090  1.0  0.6736
  C  C313  1  0.697000  0.408200  0.425780  1.0  -0.1455
  C  C314  1  0.716000  0.335120  0.445020  1.0  -0.008
  C  C315  1  0.670700  0.298970  0.476160  1.0  -0.2035
  C  C316  1  0.605300  0.335000  0.488970  1.0  0.1881
  C  C317  1  0.585300  0.408100  0.469350  1.0  -0.2021
  C  C318  1  0.630100  0.443800  0.437920  1.0  -0.0303
  C  C319  1  0.738000  0.104330  0.732720  1.0  0.6907
  C  C320  1  0.690100  0.156440  0.678090  1.0  -0.1447
  C  C321  1  0.602100  0.143100  0.635310  1.0  -0.0367
  C  C322  1  0.557900  0.190000  0.583540  1.0  -0.2072
  C  C323  1  0.601600  0.251360  0.573670  1.0  0.1854
  C  C324  1  0.689200  0.264740  0.616200  1.0  -0.2107
  C  C325  1  0.733200  0.217530  0.667990  1.0  -0.0314
  C  C326  1  0.069500  0.443530  0.435670  1.0  0.1772
  C  C327  1  0.157600  0.421100  0.460730  1.0  -0.1684
  C  C328  1  0.187900  0.375000  0.424910  1.0  0.1031
  C  C329  1  0.125200  0.354300  0.363420  1.0  -0.1836
  C  C330  1  0.038300  0.378670  0.341930  1.0  0.1768
  C  C331  1  0.282000  0.349880  0.450000  1.0  0.0397
  C  C332  1  0.334700  0.346370  0.516480  1.0  -0.135
  C  C333  1  0.424700  0.328100  0.540010  1.0  -0.2276
  C  C334  1  0.463600  0.312300  0.497480  1.0  0.1752
  C  C335  1  0.410200  0.310100  0.430990  1.0  -0.191
  C  C336  1  0.320800  0.329200  0.407480  1.0  -0.1077
  N  N337  1  0.963760  0.171040  0.418480  1.0  -0.1712
  N  N338  1  0.402940  0.097570  0.254440  1.0  -0.3135
  N  N339  1  0.443100  0.702080  0.480150  1.0  -0.1452
  N  N340  1  0.990520  0.577790  0.622680  1.0  -0.3437
  N  N341  1  0.963760  0.328960  0.918480  1.0  -0.171
  N  N342  1  0.402940  0.402430  0.754440  1.0  -0.3132
  N  N343  1  0.443100  0.797920  0.980150  1.0  -0.1453
  N  N344  1  0.990520  0.922210  0.122680  1.0  -0.3443
  N  N345  1  0.036240  0.671040  0.081520  1.0  -0.1724
  N  N346  1  0.597060  0.597570  0.245560  1.0  -0.3136
  N  N347  1  0.556900  0.202080  0.019850  1.0  -0.1456
  N  N348  1  0.009480  0.077790  0.877320  1.0  -0.3425
  N  N349  1  0.036240  0.828960  0.581520  1.0  -0.172
  N  N350  1  0.597060  0.902430  0.745560  1.0  -0.3138
  N  N351  1  0.556900  0.297920  0.519850  1.0  -0.1456
  N  N352  1  0.009480  0.422210  0.377320  1.0  -0.342
  O  O353  1  0.091260  0.450200  0.601250  1.0  -0.5726
  O  O354  1  0.196950  0.370240  0.662120  1.0  -0.5783
  O  O355  1  0.237020  0.082590  0.291050  1.0  -0.5722
  O  O356  1  0.111410  0.022880  0.229440  1.0  -0.6107
  O  O357  1  0.288700  0.493890  0.638510  1.0  -0.5907
  O  O358  1  0.187080  0.584750  0.610180  1.0  -0.566
  O  O359  1  0.306230  0.949520  0.260870  1.0  -0.6174
  O  O360  1  0.181440  0.882130  0.231430  1.0  -0.5666
  O  O361  1  0.091260  0.049800  0.101250  1.0  -0.5733
  O  O362  1  0.196950  0.129760  0.162120  1.0  -0.5772
  O  O363  1  0.237020  0.417410  0.791050  1.0  -0.5716
  O  O364  1  0.111410  0.477120  0.729440  1.0  -0.6104
  O  O365  1  0.288700  0.006110  0.138510  1.0  -0.5912
  O  O366  1  0.187080  0.915250  0.110180  1.0  -0.5661
  O  O367  1  0.306230  0.550480  0.760870  1.0  -0.6156
  O  O368  1  0.181440  0.617870  0.731430  1.0  -0.5657
  O  O369  1  0.908740  0.950200  0.898750  1.0  -0.5721
  O  O370  1  0.803050  0.870240  0.837880  1.0  -0.5779
  O  O371  1  0.762980  0.582590  0.208950  1.0  -0.5732
  O  O372  1  0.888590  0.522880  0.270560  1.0  -0.6105
  O  O373  1  0.711300  0.993890  0.861490  1.0  -0.5908
  O  O374  1  0.812920  0.084750  0.889820  1.0  -0.5658
  O  O375  1  0.693770  0.449520  0.239130  1.0  -0.6185
  O  O376  1  0.818560  0.382130  0.268570  1.0  -0.567
  O  O377  1  0.908740  0.549800  0.398750  1.0  -0.5727
  O  O378  1  0.803050  0.629760  0.337880  1.0  -0.5766
  O  O379  1  0.762980  0.917410  0.708950  1.0  -0.5732
  O  O380  1  0.888590  0.977120  0.770560  1.0  -0.61
  O  O381  1  0.711300  0.506110  0.361490  1.0  -0.5917
  O  O382  1  0.812920  0.415250  0.389820  1.0  -0.5661
  O  O383  1  0.693770  0.050480  0.739130  1.0  -0.6168
  O  O384  1  0.818560  0.117870  0.768570  1.0  -0.5666
