# generated using pymatgen
data_Mn3Si2H32(C7O2)8
_symmetry_space_group_name_H-M   'P 1'
_cell_length_a   13.73600000
_cell_length_b   22.64000000
_cell_length_c   23.01000000
_cell_angle_alpha   65.02600000
_cell_angle_beta   75.11800000
_cell_angle_gamma   87.59100000
_symmetry_Int_Tables_number   1
_chemical_formula_structural   Mn3Si2H32(C7O2)8
_chemical_formula_sum   'Mn9 Si6 H96 C168 O48'
_cell_volume   6251.04009422
_cell_formula_units_Z   3
loop_
 _symmetry_equiv_pos_site_id
 _symmetry_equiv_pos_as_xyz
  1  'x, y, z'
loop_
 _atom_site_type_symbol
 _atom_site_label
 _atom_site_symmetry_multiplicity
 _atom_site_fract_x
 _atom_site_fract_y
 _atom_site_fract_z
 _atom_site_occupancy
 _atom_site_charge
  Mn  Mn1  1  0.043560  0.751450  0.342700  1.0  1.1348
  Mn  Mn2  1  0.821750  0.824020  0.332900  1.0  1.1612
  Mn  Mn3  1  0.589510  0.887900  0.335950  1.0  1.109
  Mn  Mn4  1  0.772150  0.459250  0.968850  1.0  1.1257
  Mn  Mn5  1  0.956440  0.248550  0.657300  1.0  1.1349
  Mn  Mn6  1  0.178250  0.175980  0.667100  1.0  1.1613
  Mn  Mn7  1  0.410490  0.112100  0.664050  1.0  1.1073
  Mn  Mn8  1  0.227850  0.540750  0.031150  1.0  1.1252
  Mn  Mn9  1  0.000000  0.500000  0.000000  1.0  1.1531
  Si  Si10  1  0.924400  0.872440  0.671400  1.0  0.9239
  Si  Si11  1  0.209000  0.162100  0.038700  1.0  0.9222
  Si  Si12  1  0.439200  0.484960  0.656100  1.0  0.8996
  Si  Si13  1  0.075600  0.127560  0.328600  1.0  0.9242
  Si  Si14  1  0.791000  0.837900  0.961300  1.0  0.9219
  Si  Si15  1  0.560800  0.515040  0.343900  1.0  0.8994
  H  H16  1  0.880800  0.910800  0.454800  1.0  0.0981
  H  H17  1  0.023300  0.748200  0.538200  1.0  0.1183
  H  H18  1  0.985800  0.964700  0.137000  1.0  0.1195
  H  H19  1  0.192400  0.955500  0.237900  1.0  0.1178
  H  H20  1  0.870300  0.934300  0.545800  1.0  0.1083
  H  H21  1  0.012800  0.771700  0.629200  1.0  0.1165
  H  H22  1  0.050200  0.071100  0.061000  1.0  0.113
  H  H23  1  0.256900  0.061900  0.161900  1.0  0.1091
  H  H24  1  0.705400  0.646700  0.489300  1.0  0.1132
  H  H25  1  0.426400  0.714400  0.502500  1.0  0.1196
  H  H26  1  0.635000  0.543400  0.570800  1.0  0.1099
  H  H27  1  0.356000  0.611100  0.583900  1.0  0.1157
  H  H28  1  0.255500  0.929400  0.381700  1.0  0.1179
  H  H29  1  0.433200  0.095700  0.256500  1.0  0.12
  H  H30  1  0.886400  0.009800  0.616900  1.0  0.1085
  H  H31  1  0.708800  0.843600  0.742100  1.0  0.1158
  H  H32  1  0.966500  0.945500  0.740600  1.0  0.1058
  H  H33  1  0.131700  0.913500  0.584700  1.0  0.119
  H  H34  1  0.782500  0.758800  0.728700  1.0  0.1197
  H  H35  1  0.024100  0.803800  0.777000  1.0  0.1134
  H  H36  1  0.214200  0.300100  0.987300  1.0  0.1231
  H  H37  1  0.983100  0.159300  0.083500  1.0  0.1094
  H  H38  1  0.149100  0.224300  0.915500  1.0  0.1069
  H  H39  1  0.340600  0.084300  0.977900  1.0  0.1136
  H  H40  1  0.257200  0.194800  0.138900  1.0  0.1133
  H  H41  1  0.421500  0.190800  0.967100  1.0  0.1117
  H  H42  1  0.098500  0.016300  0.726800  1.0  0.1092
  H  H43  1  0.263600  0.984300  0.570800  1.0  0.115
  H  H44  1  0.767200  0.652900  0.813400  1.0  0.1179
  H  H45  1  0.008800  0.698000  0.861700  1.0  0.1053
  H  H46  1  0.098300  0.380400  0.970000  1.0  0.1066
  H  H47  1  0.867100  0.239600  0.066200  1.0  0.1165
  H  H48  1  0.185200  0.217300  0.813600  1.0  0.1148
  H  H49  1  0.376700  0.077300  0.876000  1.0  0.1231
  H  H50  1  0.402600  0.231500  0.152800  1.0  0.1171
  H  H51  1  0.566900  0.227600  0.981000  1.0  0.1216
  H  H52  1  0.489500  0.556200  0.726200  1.0  0.1144
  H  H53  1  0.253900  0.433700  0.759700  1.0  0.1067
  H  H54  1  0.380800  0.349400  0.699800  1.0  0.1203
  H  H55  1  0.285000  0.516800  0.578500  1.0  0.1068
  H  H56  1  0.564600  0.422800  0.581100  1.0  0.1099
  H  H57  1  0.566500  0.433300  0.752300  1.0  0.1113
  H  H58  1  0.410400  0.567600  0.823500  1.0  0.1154
  H  H59  1  0.174800  0.445200  0.856900  1.0  0.113
  H  H60  1  0.250700  0.289000  0.695600  1.0  0.1161
  H  H61  1  0.155000  0.456500  0.574300  1.0  0.121
  H  H62  1  0.701300  0.357300  0.590200  1.0  0.1148
  H  H63  1  0.703200  0.367800  0.761500  1.0  0.1169
  H  H64  1  0.119200  0.089200  0.545200  1.0  0.098
  H  H65  1  0.976700  0.251800  0.461800  1.0  0.1184
  H  H66  1  0.014200  0.035300  0.863000  1.0  0.1203
  H  H67  1  0.807600  0.044500  0.762100  1.0  0.1183
  H  H68  1  0.129700  0.065700  0.454200  1.0  0.1085
  H  H69  1  0.987200  0.228300  0.370800  1.0  0.1166
  H  H70  1  0.949800  0.928900  0.939000  1.0  0.1123
  H  H71  1  0.743100  0.938100  0.838100  1.0  0.1077
  H  H72  1  0.294600  0.353300  0.510700  1.0  0.114
  H  H73  1  0.573600  0.285600  0.497500  1.0  0.119
  H  H74  1  0.365000  0.456600  0.429200  1.0  0.1099
  H  H75  1  0.644000  0.388900  0.416100  1.0  0.1147
  H  H76  1  0.744500  0.070600  0.618300  1.0  0.1173
  H  H77  1  0.566800  0.904300  0.743500  1.0  0.1198
  H  H78  1  0.113600  0.990200  0.383100  1.0  0.1102
  H  H79  1  0.291200  0.156400  0.257900  1.0  0.1153
  H  H80  1  0.033500  0.054500  0.259400  1.0  0.1055
  H  H81  1  0.868300  0.086500  0.415300  1.0  0.1186
  H  H82  1  0.217500  0.241200  0.271300  1.0  0.1195
  H  H83  1  0.975900  0.196200  0.223000  1.0  0.1134
  H  H84  1  0.785800  0.699900  0.012700  1.0  0.1239
  H  H85  1  0.016900  0.840700  0.916500  1.0  0.1098
  H  H86  1  0.850900  0.775700  0.084500  1.0  0.1072
  H  H87  1  0.659400  0.915700  0.022100  1.0  0.114
  H  H88  1  0.742800  0.805200  0.861100  1.0  0.1126
  H  H89  1  0.578500  0.809200  0.032900  1.0  0.1115
  H  H90  1  0.901500  0.983700  0.273200  1.0  0.1092
  H  H91  1  0.736400  0.015700  0.429200  1.0  0.115
  H  H92  1  0.232800  0.347100  0.186600  1.0  0.1182
  H  H93  1  0.991200  0.302000  0.138300  1.0  0.1047
  H  H94  1  0.901700  0.619600  0.030000  1.0  0.1065
  H  H95  1  0.132900  0.760400  0.933800  1.0  0.1169
  H  H96  1  0.814800  0.782700  0.186400  1.0  0.1151
  H  H97  1  0.623300  0.922700  0.124000  1.0  0.123
  H  H98  1  0.597400  0.768500  0.847200  1.0  0.1165
  H  H99  1  0.433100  0.772400  0.019000  1.0  0.1211
  H  H100  1  0.510500  0.443800  0.273800  1.0  0.1144
  H  H101  1  0.746100  0.566300  0.240300  1.0  0.1071
  H  H102  1  0.619200  0.650600  0.300200  1.0  0.1212
  H  H103  1  0.715000  0.483200  0.421500  1.0  0.1068
  H  H104  1  0.435400  0.577200  0.418900  1.0  0.1092
  H  H105  1  0.433500  0.566700  0.247700  1.0  0.1105
  H  H106  1  0.589600  0.432400  0.176500  1.0  0.1149
  H  H107  1  0.825200  0.554800  0.143100  1.0  0.1127
  H  H108  1  0.749300  0.711000  0.304400  1.0  0.1161
  H  H109  1  0.845000  0.543500  0.425700  1.0  0.1197
  H  H110  1  0.298700  0.642700  0.409800  1.0  0.1144
  H  H111  1  0.296800  0.632200  0.238500  1.0  0.1169
  C  C112  1  0.950900  0.809200  0.432000  1.0  0.7362
  C  C113  1  0.030700  0.881600  0.244700  1.0  0.6981
  C  C114  1  0.953000  0.827300  0.487900  1.0  -0.1232
  C  C115  1  0.083000  0.950100  0.194600  1.0  -0.135
  C  C116  1  0.907600  0.882600  0.490200  1.0  -0.0241
  C  C117  1  0.992200  0.786000  0.539700  1.0  -0.0411
  C  C118  1  0.040800  0.984400  0.142000  1.0  -0.0385
  C  C119  1  0.163600  0.978900  0.202000  1.0  -0.0309
  C  C120  1  0.621900  0.751100  0.435100  1.0  0.6477
  C  C121  1  0.901400  0.896500  0.544300  1.0  -0.015
  C  C122  1  0.986000  0.800000  0.593800  1.0  -0.0048
  C  C123  1  0.079100  0.047600  0.096900  1.0  -0.0477
  C  C124  1  0.201800  0.042200  0.156900  1.0  -0.0005
  C  C125  1  0.572500  0.690300  0.488200  1.0  -0.1433
  C  C126  1  0.940600  0.855200  0.596100  1.0  -0.3197
  C  C127  1  0.159600  0.076500  0.104300  1.0  -0.3409
  C  C128  1  0.634500  0.639500  0.508500  1.0  -0.093
  C  C129  1  0.468700  0.679700  0.516300  1.0  -0.0687
  C  C130  1  0.447900  0.965000  0.323000  1.0  0.6729
  C  C131  1  0.592600  0.578100  0.556900  1.0  -0.043
  C  C132  1  0.426900  0.618300  0.564700  1.0  -0.039
  C  C133  1  0.357700  0.006800  0.319000  1.0  -0.1208
  C  C134  1  0.811000  0.921000  0.679400  1.0  -0.3411
  C  C135  1  0.036700  0.922800  0.663900  1.0  -0.3285
  C  C136  1  0.904700  0.791300  0.744900  1.0  -0.3512
  C  C137  1  0.109500  0.222100  0.037100  1.0  -0.2973
  C  C138  1  0.241400  0.155000  0.956200  1.0  -0.3632
  C  C139  1  0.325700  0.189400  0.051700  1.0  -0.3465
  C  C140  1  0.488800  0.567600  0.585000  1.0  -0.3217
  C  C141  1  0.262800  0.975500  0.356600  1.0  -0.0399
  C  C142  1  0.368300  0.074200  0.282200  1.0  -0.036
  C  C143  1  0.821600  0.988400  0.642600  1.0  -0.0311
  C  C144  1  0.716000  0.889700  0.717000  1.0  -0.0493
  C  C145  1  0.026800  0.953400  0.706200  1.0  -0.0222
  C  C146  1  0.124900  0.934300  0.613500  1.0  -0.0242
  C  C147  1  0.828400  0.746400  0.755700  1.0  -0.0663
  C  C148  1  0.971900  0.773200  0.784400  1.0  -0.0223
  C  C149  1  0.143800  0.287800  0.003300  1.0  -0.0241
  C  C150  1  0.006500  0.204200  0.060500  1.0  -0.0478
  C  C151  1  0.195300  0.194500  0.907400  1.0  -0.0146
  C  C152  1  0.309000  0.111300  0.944500  1.0  -0.0533
  C  C153  1  0.320100  0.201500  0.106900  1.0  -0.0212
  C  C154  1  0.417700  0.199100  0.004800  1.0  -0.0285
  C  C155  1  0.105200  0.995500  0.697900  1.0  -0.013
  C  C156  1  0.203300  0.976400  0.605300  1.0  -0.0881
  C  C157  1  0.819300  0.683600  0.806000  1.0  -0.0438
  C  C158  1  0.962800  0.710300  0.834700  1.0  -0.0288
  C  C159  1  0.074900  0.335500  0.993000  1.0  -0.0558
  C  C160  1  0.937600  0.251900  0.050200  1.0  -0.0387
  C  C161  1  0.216700  0.190300  0.846900  1.0  -0.06
  C  C162  1  0.330500  0.107200  0.884000  1.0  -0.0841
  C  C163  1  0.406500  0.223300  0.115100  1.0  -0.0248
  C  C164  1  0.504100  0.220900  0.013100  1.0  -0.0623
  C  C165  1  0.379200  0.493800  0.733800  1.0  -0.3092
  C  C166  1  0.345100  0.438800  0.639600  1.0  -0.3159
  C  C167  1  0.552700  0.434200  0.665800  1.0  -0.3083
  C  C168  1  0.193500  0.007000  0.647500  1.0  -0.1303
  C  C169  1  0.886600  0.665500  0.845600  1.0  -0.121
  C  C170  1  0.971800  0.317600  0.016400  1.0  -0.0991
  C  C171  1  0.284400  0.146700  0.835200  1.0  -0.0933
  C  C172  1  0.498500  0.233000  0.068200  1.0  -0.1162
  C  C173  1  0.425600  0.533600  0.752700  1.0  -0.0217
  C  C174  1  0.285700  0.460900  0.772600  1.0  -0.0125
  C  C175  1  0.334900  0.371100  0.674300  1.0  -0.0304
  C  C176  1  0.278000  0.470600  0.602300  1.0  -0.0311
  C  C177  1  0.592700  0.411700  0.617700  1.0  -0.0419
  C  C178  1  0.593800  0.417900  0.719400  1.0  -0.0263
  C  C179  1  0.277500  0.053800  0.637600  1.0  0.6806
  C  C180  1  0.875600  0.596200  0.899200  1.0  0.6979
  C  C181  1  0.893900  0.369600  0.003700  1.0  0.7006
  C  C182  1  0.313200  0.144000  0.772100  1.0  0.679
  C  C183  1  0.594200  0.256800  0.075400  1.0  0.6694
  C  C184  1  0.378700  0.540500  0.810500  1.0  -0.0745
  C  C185  1  0.238700  0.467700  0.830400  1.0  -0.057
  C  C186  1  0.257700  0.335300  0.671800  1.0  -0.058
  C  C187  1  0.200800  0.434700  0.599800  1.0  -0.0333
  C  C188  1  0.674000  0.372800  0.623100  1.0  -0.0321
  C  C189  1  0.675100  0.379000  0.724900  1.0  -0.043
  C  C190  1  0.285200  0.507500  0.849300  1.0  -0.1124
  C  C191  1  0.190600  0.367100  0.634500  1.0  -0.1587
  C  C192  1  0.715100  0.356400  0.676700  1.0  -0.1285
  C  C193  1  0.227100  0.515300  0.910900  1.0  0.7243
  C  C194  1  0.105300  0.323100  0.637100  1.0  0.6963
  C  C195  1  0.803600  0.313900  0.684300  1.0  0.7006
  C  C196  1  0.049100  0.190800  0.568000  1.0  0.7369
  C  C197  1  0.969300  0.118400  0.755300  1.0  0.6951
  C  C198  1  0.047000  0.172700  0.512100  1.0  -0.1218
  C  C199  1  0.917000  0.049900  0.805400  1.0  -0.1338
  C  C200  1  0.092400  0.117400  0.509800  1.0  -0.0246
  C  C201  1  0.007800  0.214000  0.460300  1.0  -0.0417
  C  C202  1  0.959200  0.015600  0.858000  1.0  -0.04
  C  C203  1  0.836400  0.021100  0.798000  1.0  -0.0304
  C  C204  1  0.378100  0.248900  0.564900  1.0  0.649
  C  C205  1  0.098600  0.103500  0.455700  1.0  -0.0142
  C  C206  1  0.014000  0.200000  0.406200  1.0  -0.0039
  C  C207  1  0.920900  0.952400  0.903100  1.0  -0.0497
  C  C208  1  0.798200  0.957800  0.843100  1.0  -0.002
  C  C209  1  0.427500  0.309700  0.511800  1.0  -0.1439
  C  C210  1  0.059400  0.144800  0.403900  1.0  -0.3185
  C  C211  1  0.840400  0.923500  0.895700  1.0  -0.3428
  C  C212  1  0.365500  0.360500  0.491500  1.0  -0.0913
  C  C213  1  0.531300  0.320300  0.483700  1.0  -0.0676
  C  C214  1  0.552100  0.035000  0.677000  1.0  0.6731
  C  C215  1  0.407400  0.421900  0.443100  1.0  -0.0446
  C  C216  1  0.573100  0.381700  0.435300  1.0  -0.0357
  C  C217  1  0.642300  0.993200  0.681000  1.0  -0.1205
  C  C218  1  0.189000  0.079000  0.320600  1.0  -0.3527
  C  C219  1  0.963300  0.077200  0.336100  1.0  -0.3258
  C  C220  1  0.095300  0.208700  0.255100  1.0  -0.3512
  C  C221  1  0.890500  0.777900  0.962900  1.0  -0.2987
  C  C222  1  0.758600  0.845000  0.043800  1.0  -0.362
  C  C223  1  0.674300  0.810600  0.948300  1.0  -0.3453
  C  C224  1  0.511200  0.432400  0.415000  1.0  -0.3217
  C  C225  1  0.737200  0.024500  0.643400  1.0  -0.0404
  C  C226  1  0.631700  0.925800  0.717800  1.0  -0.037
  C  C227  1  0.178400  0.011600  0.357400  1.0  -0.0263
  C  C228  1  0.284000  0.110300  0.283000  1.0  -0.0527
  C  C229  1  0.973200  0.046600  0.293800  1.0  -0.0229
  C  C230  1  0.875100  0.065700  0.386500  1.0  -0.0227
  C  C231  1  0.171600  0.253600  0.244300  1.0  -0.067
  C  C232  1  0.028100  0.226800  0.215600  1.0  -0.022
  C  C233  1  0.856200  0.712200  0.996700  1.0  -0.0218
  C  C234  1  0.993500  0.795800  0.939500  1.0  -0.0501
  C  C235  1  0.804700  0.805500  0.092600  1.0  -0.0142
  C  C236  1  0.691000  0.888700  0.055500  1.0  -0.0527
  C  C237  1  0.679900  0.798500  0.893100  1.0  -0.0246
  C  C238  1  0.582300  0.800900  0.995200  1.0  -0.0295
  C  C239  1  0.894800  0.004500  0.302100  1.0  -0.0128
  C  C240  1  0.796700  0.023600  0.394700  1.0  -0.087
  C  C241  1  0.180700  0.316400  0.194000  1.0  -0.0445
  C  C242  1  0.037200  0.289700  0.165300  1.0  -0.0287
  C  C243  1  0.925100  0.664500  0.007000  1.0  -0.0556
  C  C244  1  0.062400  0.748100  0.949800  1.0  -0.0395
  C  C245  1  0.783300  0.809700  0.153100  1.0  -0.0617
  C  C246  1  0.669500  0.892800  0.116000  1.0  -0.0849
  C  C247  1  0.593500  0.776700  0.884900  1.0  -0.025
  C  C248  1  0.495900  0.779100  0.986900  1.0  -0.0636
  C  C249  1  0.620800  0.506200  0.266200  1.0  -0.3096
  C  C250  1  0.654900  0.561200  0.360400  1.0  -0.3176
  C  C251  1  0.447300  0.565800  0.334200  1.0  -0.3091
  C  C252  1  0.806500  0.993000  0.352500  1.0  -0.1314
  C  C253  1  0.113400  0.334500  0.154400  1.0  -0.1214
  C  C254  1  0.028200  0.682400  0.983600  1.0  -0.1005
  C  C255  1  0.715600  0.853300  0.164800  1.0  -0.0927
  C  C256  1  0.501500  0.767000  0.931800  1.0  -0.1167
  C  C257  1  0.574400  0.466400  0.247300  1.0  -0.0198
  C  C258  1  0.714300  0.539100  0.227400  1.0  -0.0127
  C  C259  1  0.665100  0.628900  0.325700  1.0  -0.0292
  C  C260  1  0.722000  0.529400  0.397700  1.0  -0.0309
  C  C261  1  0.407300  0.588300  0.382300  1.0  -0.0427
  C  C262  1  0.406200  0.582100  0.280600  1.0  -0.0263
  C  C263  1  0.722500  0.946200  0.362400  1.0  0.6816
  C  C264  1  0.124400  0.403800  0.100800  1.0  0.6978
  C  C265  1  0.106100  0.630400  0.996300  1.0  0.7006
  C  C266  1  0.686800  0.856000  0.227900  1.0  0.682
  C  C267  1  0.405800  0.743200  0.924600  1.0  0.6694
  C  C268  1  0.621300  0.459500  0.189500  1.0  -0.0739
  C  C269  1  0.761300  0.532300  0.169600  1.0  -0.0572
  C  C270  1  0.742300  0.664700  0.328200  1.0  -0.0569
  C  C271  1  0.799200  0.565300  0.400200  1.0  -0.0325
  C  C272  1  0.326000  0.627200  0.376900  1.0  -0.0344
  C  C273  1  0.324900  0.621000  0.275100  1.0  -0.0419
  C  C274  1  0.714800  0.492500  0.150700  1.0  -0.1128
  C  C275  1  0.809400  0.632900  0.365500  1.0  -0.1615
  C  C276  1  0.284900  0.643600  0.323300  1.0  -0.1281
  C  C277  1  0.772900  0.484700  0.089100  1.0  0.7224
  C  C278  1  0.894700  0.676900  0.362900  1.0  0.695
  C  C279  1  0.196400  0.686100  0.315700  1.0  0.6993
  O  O280  1  0.006800  0.766000  0.426400  1.0  -0.587
  O  O281  1  0.089600  0.844500  0.274200  1.0  -0.5911
  O  O282  1  0.901800  0.734900  0.331200  1.0  -0.62
  O  O283  1  0.951600  0.646100  0.396400  1.0  -0.5981
  O  O284  1  0.170700  0.705700  0.359900  1.0  -0.5705
  O  O285  1  0.897600  0.840800  0.393700  1.0  -0.6143
  O  O286  1  0.940000  0.873100  0.249700  1.0  -0.5974
  O  O287  1  0.710800  0.763500  0.414000  1.0  -0.6199
  O  O288  1  0.739000  0.914700  0.327600  1.0  -0.6672
  O  O289  1  0.731200  0.822800  0.270700  1.0  -0.6512
  O  O290  1  0.556200  0.796100  0.412600  1.0  -0.6122
  O  O291  1  0.434300  0.907400  0.359000  1.0  -0.5187
  O  O292  1  0.533200  0.996400  0.285900  1.0  -0.5985
  O  O293  1  0.618100  0.890700  0.244100  1.0  -0.5881
  O  O294  1  0.357500  0.060100  0.597300  1.0  -0.6161
  O  O295  1  0.958700  0.578900  0.919100  1.0  -0.6395
  O  O296  1  0.803900  0.560100  0.913600  1.0  -0.6027
  O  O297  1  0.927500  0.428200  0.980800  1.0  -0.6692
  O  O298  1  0.805200  0.351800  0.018500  1.0  -0.5377
  O  O299  1  0.668500  0.276500  0.022800  1.0  -0.469
  O  O300  1  0.589500  0.262500  0.127000  1.0  -0.4696
  O  O301  1  0.721900  0.460100  0.062400  1.0  -0.6492
  O  O302  1  0.860000  0.502800  0.064900  1.0  -0.6084
  O  O303  1  0.845600  0.301800  0.726900  1.0  -0.6062
  O  O304  1  0.993200  0.234000  0.573600  1.0  -0.5861
  O  O305  1  0.910400  0.155500  0.725800  1.0  -0.5934
  O  O306  1  0.098200  0.265100  0.668800  1.0  -0.6189
  O  O307  1  0.048400  0.353900  0.603600  1.0  -0.5968
  O  O308  1  0.829300  0.294300  0.640100  1.0  -0.5719
  O  O309  1  0.102400  0.159200  0.606300  1.0  -0.6151
  O  O310  1  0.060000  0.126900  0.750300  1.0  -0.5993
  O  O311  1  0.289200  0.236500  0.586000  1.0  -0.6189
  O  O312  1  0.261000  0.085300  0.672400  1.0  -0.6661
  O  O313  1  0.268800  0.177200  0.729300  1.0  -0.6501
  O  O314  1  0.443800  0.203900  0.587400  1.0  -0.6108
  O  O315  1  0.565700  0.092600  0.641000  1.0  -0.5167
  O  O316  1  0.466800  0.003600  0.714100  1.0  -0.5985
  O  O317  1  0.381900  0.109300  0.755900  1.0  -0.5889
  O  O318  1  0.642500  0.939900  0.402700  1.0  -0.617
  O  O319  1  0.041300  0.421100  0.080900  1.0  -0.6426
  O  O320  1  0.196100  0.439900  0.086400  1.0  -0.6033
  O  O321  1  0.072500  0.571800  0.019200  1.0  -0.6687
  O  O322  1  0.194800  0.648200  0.981500  1.0  -0.5368
  O  O323  1  0.331500  0.723500  0.977200  1.0  -0.4694
  O  O324  1  0.410500  0.737500  0.873000  1.0  -0.4655
  O  O325  1  0.278100  0.539900  0.937600  1.0  -0.6499
  O  O326  1  0.140000  0.497200  0.935100  1.0  -0.6091
  O  O327  1  0.154400  0.698200  0.273100  1.0  -0.6055
