# generated using pymatgen
data_Mn3Si2H32(C7O2)8
_symmetry_space_group_name_H-M   'P 1'
_cell_length_a   13.73000000
_cell_length_b   14.03000000
_cell_length_c   14.10000000
_cell_angle_alpha   115.65500000
_cell_angle_beta   111.02700000
_cell_angle_gamma   100.39700000
_symmetry_Int_Tables_number   1
_chemical_formula_structural   Mn3Si2H32(C7O2)8
_chemical_formula_sum   'Mn3 Si2 H32 C56 O16'
_cell_volume   2095.40716479
_cell_formula_units_Z   1
loop_
 _symmetry_equiv_pos_site_id
 _symmetry_equiv_pos_as_xyz
  1  'x, y, z'
loop_
 _atom_site_type_symbol
 _atom_site_label
 _atom_site_symmetry_multiplicity
 _atom_site_fract_x
 _atom_site_fract_y
 _atom_site_fract_z
 _atom_site_occupancy
 _atom_site_charge
  Mn  Mn1  1  0.794800  0.618100  0.621200  1.0  1.054
  Mn  Mn2  1  0.205200  0.381900  0.378800  1.0  1.0564
  Mn  Mn3  1  0.500000  0.500000  0.500000  1.0  1.254
  Si  Si4  1  0.520800  0.849400  0.117100  1.0  0.9215
  Si  Si5  1  0.479200  0.150600  0.882900  1.0  0.921
  H  H6  1  0.763200  0.909600  0.945300  1.0  0.1208
  H  H7  1  0.697500  0.966900  0.084500  1.0  0.1134
  H  H8  1  0.487400  0.634300  0.919700  1.0  0.1172
  H  H9  1  0.553100  0.577000  0.780600  1.0  0.1157
  H  H10  1  0.110000  0.683000  0.976600  1.0  0.1191
  H  H11  1  0.303700  0.740700  0.103100  1.0  0.1218
  H  H12  1  0.380800  0.835200  0.896400  1.0  0.109
  H  H13  1  0.187100  0.777400  0.769800  1.0  0.1121
  H  H14  1  0.699900  0.644500  0.283200  1.0  0.1227
  H  H15  1  0.653800  0.713900  0.156100  1.0  0.117
  H  H16  1  0.456400  0.838900  0.288900  1.0  0.1219
  H  H17  1  0.502600  0.769500  0.415900  1.0  0.1222
  H  H18  1  0.470500  0.209800  0.288600  1.0  0.1126
  H  H19  1  0.412200  0.010700  0.162300  1.0  0.1075
  H  H20  1  0.741000  0.047700  0.306100  1.0  0.1204
  H  H21  1  0.799200  0.246800  0.432400  1.0  0.1207
  H  H22  1  0.236800  0.090400  0.054700  1.0  0.1203
  H  H23  1  0.302500  0.033100  0.915500  1.0  0.1131
  H  H24  1  0.512600  0.365700  0.080300  1.0  0.1168
  H  H25  1  0.446900  0.423000  0.219400  1.0  0.1158
  H  H26  1  0.890000  0.317000  0.023400  1.0  0.1194
  H  H27  1  0.696300  0.259300  0.896900  1.0  0.122
  H  H28  1  0.619200  0.164800  0.103600  1.0  0.1102
  H  H29  1  0.812900  0.222600  0.230200  1.0  0.1123
  H  H30  1  0.300100  0.355500  0.716800  1.0  0.123
  H  H31  1  0.346200  0.286100  0.843900  1.0  0.1169
  H  H32  1  0.543600  0.161100  0.711100  1.0  0.1221
  H  H33  1  0.497400  0.230500  0.584100  1.0  0.1228
  H  H34  1  0.529500  0.790200  0.711400  1.0  0.1135
  H  H35  1  0.587800  0.989300  0.837700  1.0  0.108
  H  H36  1  0.259000  0.952300  0.693900  1.0  0.121
  H  H37  1  0.200800  0.753200  0.567600  1.0  0.1209
  C  C38  1  0.704000  0.699700  0.758000  1.0  0.6506
  C  C39  1  0.664300  0.737900  0.849900  1.0  -0.1289
  C  C40  1  0.707200  0.853700  0.940100  1.0  -0.0686
  C  C41  1  0.668200  0.887700  0.022800  1.0  -0.0148
  C  C42  1  0.586300  0.806000  0.015200  1.0  -0.3155
  C  C43  1  0.543400  0.690200  0.924900  1.0  -0.0141
  C  C44  1  0.582400  0.656100  0.842300  1.0  -0.0127
  C  C45  1  0.005100  0.685000  0.779000  1.0  0.6526
  C  C46  1  0.130300  0.724800  0.861300  1.0  -0.1077
  C  C47  1  0.165000  0.713900  0.960300  1.0  -0.0509
  C  C48  1  0.280100  0.748200  0.035500  1.0  -0.0366
  C  C49  1  0.360500  0.793400  0.011600  1.0  -0.3218
  C  C50  1  0.325800  0.804300  0.912600  1.0  -0.0133
  C  C51  1  0.210800  0.770000  0.837500  1.0  -0.0158
  C  C52  1  0.640000  0.661000  0.448000  1.0  0.7034
  C  C53  1  0.605600  0.700500  0.361500  1.0  -0.1257
  C  C54  1  0.650500  0.684000  0.284300  1.0  -0.0589
  C  C55  1  0.623100  0.725200  0.208900  1.0  -0.0376
  C  C56  1  0.550800  0.782900  0.210600  1.0  -0.3034
  C  C57  1  0.505900  0.799400  0.287700  1.0  -0.0437
  C  C58  1  0.533300  0.758200  0.363200  1.0  -0.0534
  C  C59  1  0.670900  0.374900  0.447000  1.0  0.6664
  C  C60  1  0.640300  0.247000  0.372400  1.0  -0.1003
  C  C61  1  0.525400  0.176900  0.292200  1.0  -0.0275
  C  C62  1  0.490800  0.058600  0.217100  1.0  -0.0185
  C  C63  1  0.571100  0.010500  0.222300  1.0  -0.3308
  C  C64  1  0.686100  0.080600  0.302600  1.0  -0.0326
  C  C65  1  0.720700  0.198800  0.377600  1.0  -0.0664
  C  C66  1  0.296000  0.300300  0.242000  1.0  0.6481
  C  C67  1  0.335700  0.262100  0.150100  1.0  -0.1269
  C  C68  1  0.292800  0.146300  0.059900  1.0  -0.0686
  C  C69  1  0.331800  0.112300  0.977200  1.0  -0.0128
  C  C70  1  0.413700  0.194000  0.984800  1.0  -0.3165
  C  C71  1  0.456600  0.309800  0.075100  1.0  -0.0149
  C  C72  1  0.417600  0.343900  0.157700  1.0  -0.0122
  C  C73  1  0.994900  0.315000  0.221000  1.0  0.6525
  C  C74  1  0.869700  0.275200  0.138700  1.0  -0.1085
  C  C75  1  0.835000  0.286100  0.039700  1.0  -0.05
  C  C76  1  0.719900  0.251800  0.964500  1.0  -0.0345
  C  C77  1  0.639500  0.206600  0.988400  1.0  -0.3239
  C  C78  1  0.674200  0.195700  0.087400  1.0  -0.0099
  C  C79  1  0.789200  0.230000  0.162500  1.0  -0.0158
  C  C80  1  0.360000  0.339000  0.552000  1.0  0.7018
  C  C81  1  0.394400  0.299500  0.638500  1.0  -0.1247
  C  C82  1  0.349500  0.316000  0.715700  1.0  -0.0578
  C  C83  1  0.376900  0.274800  0.791100  1.0  -0.0347
  C  C84  1  0.449200  0.217100  0.789400  1.0  -0.3048
  C  C85  1  0.494100  0.200600  0.712300  1.0  -0.0458
  C  C86  1  0.466700  0.241800  0.636800  1.0  -0.0528
  C  C87  1  0.329100  0.625100  0.553000  1.0  0.6645
  C  C88  1  0.359700  0.753000  0.627600  1.0  -0.1028
  C  C89  1  0.474600  0.823100  0.707800  1.0  -0.026
  C  C90  1  0.509200  0.941400  0.782900  1.0  -0.0146
  C  C91  1  0.428900  0.989500  0.777700  1.0  -0.3254
  C  C92  1  0.313900  0.919400  0.697400  1.0  -0.0307
  C  C93  1  0.279300  0.801200  0.622400  1.0  -0.0691
  O  O94  1  0.783300  0.774400  0.769300  1.0  -0.5892
  O  O95  1  0.665100  0.593500  0.674800  1.0  -0.6657
  O  O96  1  0.979000  0.705000  0.694900  1.0  -0.5575
  O  O97  1  0.932800  0.637100  0.797000  1.0  -0.5973
  O  O98  1  0.559900  0.629000  0.467900  1.0  -0.6541
  O  O99  1  0.733500  0.659800  0.489700  1.0  -0.5585
  O  O100  1  0.592000  0.411500  0.429000  1.0  -0.6491
  O  O101  1  0.773100  0.448400  0.519500  1.0  -0.5903
  O  O102  1  0.216700  0.225600  0.230700  1.0  -0.5862
  O  O103  1  0.334900  0.406500  0.325200  1.0  -0.6632
  O  O104  1  0.021000  0.295000  0.305100  1.0  -0.5577
  O  O105  1  0.067200  0.362900  0.203000  1.0  -0.5995
  O  O106  1  0.440100  0.371000  0.532100  1.0  -0.6533
  O  O107  1  0.266500  0.340200  0.510300  1.0  -0.5564
  O  O108  1  0.408000  0.588500  0.571000  1.0  -0.6495
  O  O109  1  0.226900  0.551600  0.480500  1.0  -0.5881
