# generated using pymatgen
data_CoH5(C3N2)2
_symmetry_space_group_name_H-M   'P 1'
_cell_length_a   9.26300000
_cell_length_b   10.35370000
_cell_length_c   13.02010000
_cell_angle_alpha   80.84410000
_cell_angle_beta   69.16270000
_cell_angle_gamma   63.42760000
_symmetry_Int_Tables_number   1
_chemical_formula_structural   CoH5(C3N2)2
_chemical_formula_sum   'Co4 H20 C24 N16'
_cell_volume   1043.76282981
_cell_formula_units_Z   4
loop_
 _symmetry_equiv_pos_site_id
 _symmetry_equiv_pos_as_xyz
  1  'x, y, z'
loop_
 _atom_site_type_symbol
 _atom_site_label
 _atom_site_symmetry_multiplicity
 _atom_site_fract_x
 _atom_site_fract_y
 _atom_site_fract_z
 _atom_site_occupancy
 _atom_site_charge
  Co  Co1  1  0.896650  0.087940  0.369960  1.0  0.7845
  Co  Co2  1  0.354550  0.912060  0.630040  1.0  0.7857
  Co  Co3  1  0.016610  0.587940  0.130040  1.0  0.786
  Co  Co4  1  0.734590  0.412060  0.869960  1.0  0.7842
  H  H5  1  0.738900  0.125800  0.645400  1.0  0.0708
  H  H6  1  0.605100  0.999600  0.439000  1.0  0.0486
  H  H7  1  0.066900  0.776200  0.268600  1.0  0.0582
  H  H8  1  0.736600  0.914600  0.107400  1.0  0.0798
  H  H9  1  0.700200  0.123400  0.198800  1.0  0.0771
  H  H10  1  0.510100  0.874200  0.354600  1.0  0.0745
  H  H11  1  0.043700  0.000400  0.561000  1.0  0.0482
  H  H12  1  0.111700  0.223800  0.731400  1.0  0.0581
  H  H13  1  0.758600  0.085400  0.892600  1.0  0.0794
  H  H14  1  0.022400  0.876600  0.801200  1.0  0.0783
  H  H15  1  0.134300  0.625800  0.854600  1.0  0.072
  H  H16  1  0.794100  0.499600  0.061000  1.0  0.0481
  H  H17  1  0.085500  0.276200  0.231400  1.0  0.0576
  H  H18  1  0.594000  0.414600  0.392600  1.0  0.0791
  H  H19  1  0.649000  0.623400  0.301200  1.0  0.0779
  H  H20  1  0.614700  0.374200  0.145400  1.0  0.0713
  H  H21  1  0.354700  0.500400  0.939000  1.0  0.0489
  H  H22  1  0.593100  0.723800  0.768600  1.0  0.0579
  H  H23  1  0.401200  0.585400  0.607400  1.0  0.0798
  H  H24  1  0.573600  0.376600  0.698800  1.0  0.0772
  C  C25  1  0.680200  0.093000  0.615400  1.0  0.1265
  C  C26  1  0.612100  0.022200  0.505200  1.0  0.1651
  C  C27  1  0.513000  0.005800  0.602000  1.0  0.1439
  C  C28  1  0.978800  0.838800  0.238000  1.0  0.1957
  C  C29  1  0.800900  0.911200  0.152400  1.0  -0.0415
  C  C30  1  0.781500  0.025600  0.202200  1.0  -0.036
  C  C31  1  0.388600  0.907000  0.384600  1.0  0.1262
  C  C32  1  0.139500  0.977800  0.494800  1.0  0.1652
  C  C33  1  0.120800  0.994200  0.398000  1.0  0.1484
  C  C34  1  0.055600  0.161200  0.762000  1.0  0.1914
  C  C35  1  0.864500  0.088800  0.847600  1.0  -0.0424
  C  C36  1  0.009300  0.974400  0.797800  1.0  -0.035
  C  C37  1  0.045600  0.593000  0.884600  1.0  0.1265
  C  C38  1  0.867300  0.522200  0.994800  1.0  0.1653
  C  C39  1  0.865000  0.505800  0.898000  1.0  0.1484
  C  C40  1  0.966800  0.338800  0.262000  1.0  0.192
  C  C41  1  0.703300  0.411200  0.347600  1.0  -0.0424
  C  C42  1  0.733700  0.525600  0.297800  1.0  -0.0356
  C  C43  1  0.523200  0.407000  0.115400  1.0  0.127
  C  C44  1  0.384300  0.477800  0.005200  1.0  0.1653
  C  C45  1  0.268800  0.494200  0.102000  1.0  0.1438
  C  C46  1  0.567600  0.661200  0.738000  1.0  0.1942
  C  C47  1  0.462100  0.588800  0.652400  1.0  -0.0415
  C  C48  1  0.557100  0.474400  0.702200  1.0  -0.0358
  N  N49  1  0.717400  0.069200  0.507000  1.0  -0.4077
  N  N50  1  0.550600  0.056200  0.676600  1.0  -0.365
  N  N51  1  0.892100  0.980600  0.259600  1.0  -0.4599
  N  N52  1  0.928400  0.791400  0.173600  1.0  -0.4438
  N  N53  1  0.293600  0.930800  0.493000  1.0  -0.4059
  N  N54  1  0.283400  0.943800  0.323400  1.0  -0.3616
  N  N55  1  0.132300  0.019400  0.740400  1.0  -0.4613
  N  N56  1  0.893400  0.208600  0.826400  1.0  -0.4439
  N  N57  1  0.974400  0.569200  0.993000  1.0  -0.4057
  N  N58  1  0.977200  0.556200  0.823400  1.0  -0.3618
  N  N59  1  0.901700  0.480600  0.240400  1.0  -0.4609
  N  N60  1  0.852000  0.291400  0.326400  1.0  -0.4439
  N  N61  1  0.536600  0.430800  0.007000  1.0  -0.4079
  N  N62  1  0.356800  0.443800  0.176600  1.0  -0.3647
  N  N63  1  0.622700  0.519400  0.759600  1.0  -0.4604
  N  N64  1  0.469800  0.708600  0.673600  1.0  -0.4433
