# generated using pymatgen
data_MgH8(C9O4)2
_symmetry_space_group_name_H-M   'P 1'
_cell_length_a   10.71700000
_cell_length_b   23.11400000
_cell_length_c   10.07000000
_cell_angle_alpha   90.00000000
_cell_angle_beta   104.78000000
_cell_angle_gamma   90.00000000
_symmetry_Int_Tables_number   1
_chemical_formula_structural   MgH8(C9O4)2
_chemical_formula_sum   'Mg4 H32 C72 O32'
_cell_volume   2411.93157855
_cell_formula_units_Z   4
loop_
 _symmetry_equiv_pos_site_id
 _symmetry_equiv_pos_as_xyz
  1  'x, y, z'
loop_
 _atom_site_type_symbol
 _atom_site_label
 _atom_site_symmetry_multiplicity
 _atom_site_fract_x
 _atom_site_fract_y
 _atom_site_fract_z
 _atom_site_occupancy
 _atom_site_charge
  Mg  Mg1  1  0.500000  0.157860  0.750000  1.0  1.6013
  Mg  Mg2  1  0.000000  0.657860  0.750000  1.0  1.6013
  Mg  Mg3  1  0.500000  0.842140  0.250000  1.0  1.6053
  Mg  Mg4  1  0.000000  0.342140  0.250000  1.0  1.6053
  H  H5  1  0.689800  0.268400  0.813400  1.0  0.3306
  H  H6  1  0.593700  0.387400  0.923500  1.0  0.1228
  H  H7  1  0.411500  0.258000  0.060100  1.0  0.1121
  H  H8  1  0.337000  0.422200  0.142800  1.0  0.123
  H  H9  1  0.189800  0.768400  0.813400  1.0  0.3306
  H  H10  1  0.093700  0.887400  0.923500  1.0  0.1228
  H  H11  1  0.911500  0.758000  0.060100  1.0  0.1121
  H  H12  1  0.837000  0.922200  0.142800  1.0  0.123
  H  H13  1  0.310200  0.268400  0.686600  1.0  0.3293
  H  H14  1  0.406300  0.387400  0.576500  1.0  0.1235
  H  H15  1  0.588500  0.258000  0.439900  1.0  0.1118
  H  H16  1  0.663000  0.422200  0.357200  1.0  0.1226
  H  H17  1  0.810200  0.768400  0.686600  1.0  0.3293
  H  H18  1  0.906300  0.887400  0.576500  1.0  0.1235
  H  H19  1  0.088500  0.758000  0.439900  1.0  0.1118
  H  H20  1  0.163000  0.922200  0.357200  1.0  0.1226
  H  H21  1  0.310200  0.731600  0.186600  1.0  0.3282
  H  H22  1  0.406300  0.612600  0.076500  1.0  0.1225
  H  H23  1  0.588500  0.742000  0.939900  1.0  0.1111
  H  H24  1  0.663000  0.577800  0.857200  1.0  0.1234
  H  H25  1  0.810200  0.231600  0.186600  1.0  0.3282
  H  H26  1  0.906300  0.112600  0.076500  1.0  0.1225
  H  H27  1  0.088500  0.242000  0.939900  1.0  0.1111
  H  H28  1  0.163000  0.077800  0.857200  1.0  0.1234
  H  H29  1  0.689800  0.731600  0.313400  1.0  0.3291
  H  H30  1  0.593700  0.612600  0.423500  1.0  0.1223
  H  H31  1  0.411500  0.742000  0.560100  1.0  0.1112
  H  H32  1  0.337000  0.577800  0.642800  1.0  0.1233
  H  H33  1  0.189800  0.231600  0.313400  1.0  0.3291
  H  H34  1  0.093700  0.112600  0.423500  1.0  0.1223
  H  H35  1  0.911500  0.242000  0.560100  1.0  0.1112
  H  H36  1  0.837000  0.077800  0.642800  1.0  0.1233
  C  C37  1  0.574460  0.273850  0.905200  1.0  0.6814
  C  C38  1  0.511440  0.316180  0.979600  1.0  -0.1434
  C  C39  1  0.534370  0.374780  0.970500  1.0  -0.0791
  C  C40  1  0.469270  0.415080  0.031000  1.0  -0.0062
  C  C41  1  0.360870  0.336730  0.114490  1.0  -0.1466
  C  C42  1  0.425680  0.297410  0.052600  1.0  0.0132
  C  C43  1  0.381550  0.395620  0.102800  1.0  -0.0529
  C  C44  1  0.267160  0.315390  0.191500  1.0  0.6886
  C  C45  1  0.490030  0.475290  0.011800  1.0  -0.1032
  C  C46  1  0.074460  0.773850  0.905200  1.0  0.6814
  C  C47  1  0.011440  0.816180  0.979600  1.0  -0.1434
  C  C48  1  0.034370  0.874780  0.970500  1.0  -0.0791
  C  C49  1  0.969270  0.915080  0.031000  1.0  -0.0062
  C  C50  1  0.860870  0.836730  0.114490  1.0  -0.1466
  C  C51  1  0.925680  0.797410  0.052600  1.0  0.0132
  C  C52  1  0.881550  0.895620  0.102800  1.0  -0.0529
  C  C53  1  0.767160  0.815390  0.191500  1.0  0.6886
  C  C54  1  0.990030  0.975290  0.011800  1.0  -0.1032
  C  C55  1  0.425540  0.273850  0.594800  1.0  0.6814
  C  C56  1  0.488560  0.316180  0.520400  1.0  -0.1432
  C  C57  1  0.465630  0.374780  0.529500  1.0  -0.079
  C  C58  1  0.530730  0.415080  0.469000  1.0  -0.0072
  C  C59  1  0.639130  0.336730  0.385510  1.0  -0.147
  C  C60  1  0.574320  0.297410  0.447400  1.0  0.014
  C  C61  1  0.618450  0.395620  0.397200  1.0  -0.0527
  C  C62  1  0.732840  0.315390  0.308500  1.0  0.6899
  C  C63  1  0.509970  0.475290  0.488200  1.0  -0.1023
  C  C64  1  0.925540  0.773850  0.594800  1.0  0.6814
  C  C65  1  0.988560  0.816180  0.520400  1.0  -0.1432
  C  C66  1  0.965630  0.874780  0.529500  1.0  -0.079
  C  C67  1  0.030730  0.915080  0.469000  1.0  -0.0072
  C  C68  1  0.139130  0.836730  0.385510  1.0  -0.147
  C  C69  1  0.074320  0.797410  0.447400  1.0  0.014
  C  C70  1  0.118450  0.895620  0.397200  1.0  -0.0527
  C  C71  1  0.232840  0.815390  0.308500  1.0  0.6899
  C  C72  1  0.009970  0.975290  0.488200  1.0  -0.1023
  C  C73  1  0.425540  0.726150  0.094800  1.0  0.6815
  C  C74  1  0.488560  0.683820  0.020400  1.0  -0.143
  C  C75  1  0.465630  0.625220  0.029500  1.0  -0.0767
  C  C76  1  0.530730  0.584920  0.969000  1.0  -0.0078
  C  C77  1  0.639130  0.663270  0.885510  1.0  -0.1473
  C  C78  1  0.574320  0.702590  0.947400  1.0  0.0136
  C  C79  1  0.618450  0.604380  0.897200  1.0  -0.053
  C  C80  1  0.732840  0.684610  0.808500  1.0  0.6895
  C  C81  1  0.509970  0.524710  0.988200  1.0  -0.1017
  C  C82  1  0.925540  0.226150  0.094800  1.0  0.6815
  C  C83  1  0.988560  0.183820  0.020400  1.0  -0.143
  C  C84  1  0.965630  0.125220  0.029500  1.0  -0.0767
  C  C85  1  0.030730  0.084920  0.969000  1.0  -0.0078
  C  C86  1  0.139130  0.163270  0.885510  1.0  -0.1473
  C  C87  1  0.074320  0.202590  0.947400  1.0  0.0136
  C  C88  1  0.118450  0.104380  0.897200  1.0  -0.053
  C  C89  1  0.232840  0.184610  0.808500  1.0  0.6895
  C  C90  1  0.009970  0.024710  0.988200  1.0  -0.1017
  C  C91  1  0.574460  0.726150  0.405200  1.0  0.6811
  C  C92  1  0.511440  0.683820  0.479600  1.0  -0.143
  C  C93  1  0.534370  0.625220  0.470500  1.0  -0.079
  C  C94  1  0.469270  0.584920  0.531000  1.0  -0.0079
  C  C95  1  0.360870  0.663270  0.614490  1.0  -0.1471
  C  C96  1  0.425680  0.702590  0.552600  1.0  0.0136
  C  C97  1  0.381550  0.604380  0.602800  1.0  -0.0523
  C  C98  1  0.267160  0.684610  0.691500  1.0  0.6885
  C  C99  1  0.490030  0.524710  0.511800  1.0  -0.1032
  C  C100  1  0.074460  0.226150  0.405200  1.0  0.6811
  C  C101  1  0.011440  0.183820  0.479600  1.0  -0.143
  C  C102  1  0.034370  0.125220  0.470500  1.0  -0.079
  C  C103  1  0.969270  0.084920  0.531000  1.0  -0.0079
  C  C104  1  0.860870  0.163270  0.614490  1.0  -0.1471
  C  C105  1  0.925680  0.202590  0.552600  1.0  0.0136
  C  C106  1  0.881550  0.104380  0.602800  1.0  -0.0523
  C  C107  1  0.767160  0.184610  0.691500  1.0  0.6885
  C  C108  1  0.990030  0.024710  0.511800  1.0  -0.1032
  O  O109  1  0.660370  0.294370  0.851790  1.0  -0.5157
  O  O110  1  0.537680  0.222720  0.896660  1.0  -0.5943
  O  O111  1  0.281160  0.262070  0.225340  1.0  -0.6053
  O  O112  1  0.185110  0.348150  0.216140  1.0  -0.6253
  O  O113  1  0.160370  0.794370  0.851790  1.0  -0.5157
  O  O114  1  0.037680  0.722720  0.896660  1.0  -0.5943
  O  O115  1  0.781160  0.762070  0.225340  1.0  -0.6053
  O  O116  1  0.685110  0.848150  0.216140  1.0  -0.6253
  O  O117  1  0.339630  0.294370  0.648210  1.0  -0.5141
  O  O118  1  0.462320  0.222720  0.603340  1.0  -0.5948
  O  O119  1  0.718840  0.262070  0.274660  1.0  -0.6052
  O  O120  1  0.814890  0.348150  0.283860  1.0  -0.6248
  O  O121  1  0.839630  0.794370  0.648210  1.0  -0.5141
  O  O122  1  0.962320  0.722720  0.603340  1.0  -0.5948
  O  O123  1  0.218840  0.762070  0.274660  1.0  -0.6052
  O  O124  1  0.314890  0.848150  0.283860  1.0  -0.6248
  O  O125  1  0.339630  0.705630  0.148210  1.0  -0.5165
  O  O126  1  0.462320  0.777280  0.103340  1.0  -0.5932
  O  O127  1  0.718840  0.737930  0.774660  1.0  -0.6064
  O  O128  1  0.814890  0.651850  0.783860  1.0  -0.6259
  O  O129  1  0.839630  0.205630  0.148210  1.0  -0.5165
  O  O130  1  0.962320  0.277280  0.103340  1.0  -0.5932
  O  O131  1  0.218840  0.237930  0.774660  1.0  -0.6064
  O  O132  1  0.314890  0.151850  0.783860  1.0  -0.6259
  O  O133  1  0.660370  0.705630  0.351790  1.0  -0.5172
  O  O134  1  0.537680  0.777280  0.396660  1.0  -0.5932
  O  O135  1  0.281160  0.737930  0.725340  1.0  -0.6061
  O  O136  1  0.185110  0.651850  0.716140  1.0  -0.6272
  O  O137  1  0.160370  0.205630  0.351790  1.0  -0.5172
  O  O138  1  0.037680  0.277280  0.396660  1.0  -0.5932
  O  O139  1  0.781160  0.237930  0.725340  1.0  -0.6061
  O  O140  1  0.685110  0.151850  0.716140  1.0  -0.6272
