# generated using pymatgen
data_KY(CO2)4
_symmetry_space_group_name_H-M   'P 1'
_cell_length_a   8.92060000
_cell_length_b   9.25820000
_cell_length_c   9.25820000
_cell_angle_alpha   76.57920000
_cell_angle_beta   61.19900000
_cell_angle_gamma   61.19900000
_symmetry_Int_Tables_number   1
_chemical_formula_structural   KY(CO2)4
_chemical_formula_sum   'K2 Y2 C8 O16'
_cell_volume   587.15274164
_cell_formula_units_Z   2
loop_
 _symmetry_equiv_pos_site_id
 _symmetry_equiv_pos_as_xyz
  1  'x, y, z'
loop_
 _atom_site_type_symbol
 _atom_site_label
 _atom_site_symmetry_multiplicity
 _atom_site_fract_x
 _atom_site_fract_y
 _atom_site_fract_z
 _atom_site_occupancy
 _atom_site_charge
  K  K1  1  0.625000  0.750000  0.750000  1.0  0.9578
  K  K2  1  0.375000  0.250000  0.250000  1.0  0.9644
  Y  Y3  1  0.125000  0.750000  0.750000  1.0  1.9046
  Y  Y4  1  0.875000  0.250000  0.250000  1.0  1.9043
  C  C5  1  0.556300  0.521500  0.525700  1.0  0.558
  C  C6  1  0.103500  0.978500  0.974300  1.0  0.5582
  C  C7  1  0.082000  0.474300  0.021500  1.0  0.5578
  C  C8  1  0.077800  0.025700  0.478500  1.0  0.5583
  C  C9  1  0.443700  0.478500  0.474300  1.0  0.5578
  C  C10  1  0.896500  0.021500  0.025700  1.0  0.5578
  C  C11  1  0.918000  0.525700  0.978500  1.0  0.5576
  C  C12  1  0.922200  0.974300  0.521500  1.0  0.557
  O  O13  1  0.463000  0.627100  0.636500  1.0  -0.6397
  O  O14  1  0.180400  0.951500  0.555100  1.0  -0.6355
  O  O15  1  0.226600  0.872900  0.863500  1.0  -0.6394
  O  O16  1  0.187000  0.548500  0.944900  1.0  -0.6344
  O  O17  1  0.099500  0.363500  0.127100  1.0  -0.639
  O  O18  1  0.735500  0.444900  0.451500  1.0  -0.6341
  O  O19  1  0.090100  0.136500  0.372900  1.0  -0.6388
  O  O20  1  0.131900  0.055100  0.048500  1.0  -0.6353
  O  O21  1  0.537000  0.372900  0.363500  1.0  -0.6411
  O  O22  1  0.819600  0.048500  0.444900  1.0  -0.6359
  O  O23  1  0.773400  0.127100  0.136500  1.0  -0.6391
  O  O24  1  0.813000  0.451500  0.055100  1.0  -0.6334
  O  O25  1  0.900500  0.636500  0.872900  1.0  -0.6395
  O  O26  1  0.264500  0.555100  0.548500  1.0  -0.6333
  O  O27  1  0.909900  0.863500  0.627100  1.0  -0.6393
  O  O28  1  0.868100  0.944900  0.951500  1.0  -0.6356
