# generated using pymatgen
data_KY(CO2)4
_symmetry_space_group_name_H-M   'P 1'
_cell_length_a   8.90400000
_cell_length_b   9.24660000
_cell_length_c   9.24660000
_cell_angle_alpha   76.59590000
_cell_angle_beta   61.21830000
_cell_angle_gamma   61.21830000
_symmetry_Int_Tables_number   1
_chemical_formula_structural   KY(CO2)4
_chemical_formula_sum   'K2 Y2 C8 O16'
_cell_volume   584.80892859
_cell_formula_units_Z   2
loop_
 _symmetry_equiv_pos_site_id
 _symmetry_equiv_pos_as_xyz
  1  'x, y, z'
loop_
 _atom_site_type_symbol
 _atom_site_label
 _atom_site_symmetry_multiplicity
 _atom_site_fract_x
 _atom_site_fract_y
 _atom_site_fract_z
 _atom_site_occupancy
 _atom_site_charge
  K  K1  1  0.875000  0.250000  0.250000  1.0  0.9311
  K  K2  1  0.125000  0.750000  0.750000  1.0  0.9346
  Y  Y3  1  0.625000  0.750000  0.750000  1.0  1.9065
  Y  Y4  1  0.375000  0.250000  0.250000  1.0  1.9068
  C  C5  1  0.578500  0.478500  0.025500  1.0  0.5481
  C  C6  1  0.582500  0.021500  0.474500  1.0  0.5488
  C  C7  1  0.604000  0.974500  0.978500  1.0  0.5473
  C  C8  1  0.057000  0.525500  0.521500  1.0  0.5473
  C  C9  1  0.421500  0.521500  0.974500  1.0  0.5488
  C  C10  1  0.417500  0.978500  0.525500  1.0  0.5483
  C  C11  1  0.396000  0.025500  0.021500  1.0  0.5469
  C  C12  1  0.943000  0.474500  0.478500  1.0  0.5475
  O  O13  1  0.691900  0.543600  0.940600  1.0  -0.6186
  O  O14  1  0.608700  0.353400  0.118000  1.0  -0.6373
  O  O15  1  0.676100  0.956400  0.559400  1.0  -0.6199
  O  O16  1  0.580100  0.146600  0.382000  1.0  -0.6387
  O  O17  1  0.632500  0.059400  0.043600  1.0  -0.6197
  O  O18  1  0.726700  0.882000  0.853400  1.0  -0.6382
  O  O19  1  0.235500  0.440600  0.456400  1.0  -0.6183
  O  O20  1  0.962100  0.618000  0.646600  1.0  -0.641
  O  O21  1  0.308100  0.456400  0.059400  1.0  -0.6171
  O  O22  1  0.391300  0.646600  0.882000  1.0  -0.6384
  O  O23  1  0.323900  0.043600  0.440600  1.0  -0.6202
  O  O24  1  0.419900  0.853400  0.618000  1.0  -0.6379
  O  O25  1  0.367500  0.940600  0.956400  1.0  -0.6205
  O  O26  1  0.273300  0.118000  0.146600  1.0  -0.6381
  O  O27  1  0.764500  0.559400  0.543600  1.0  -0.6178
  O  O28  1  0.037900  0.382000  0.353400  1.0  -0.6402
