# generated using pymatgen
data_AgH6C6N4O3
_symmetry_space_group_name_H-M   'P 1'
_cell_length_a   11.94200000
_cell_length_b   21.57580000
_cell_length_c   25.11630000
_cell_angle_alpha   90.00000000
_cell_angle_beta   90.00000000
_cell_angle_gamma   90.00000000
_symmetry_Int_Tables_number   1
_chemical_formula_structural   AgH6C6N4O3
_chemical_formula_sum   'Ag24 H144 C144 N96 O72'
_cell_volume   6471.42073908
_cell_formula_units_Z   24
loop_
 _symmetry_equiv_pos_site_id
 _symmetry_equiv_pos_as_xyz
  1  'x, y, z'
loop_
 _atom_site_type_symbol
 _atom_site_label
 _atom_site_symmetry_multiplicity
 _atom_site_fract_x
 _atom_site_fract_y
 _atom_site_fract_z
 _atom_site_occupancy
 _atom_site_charge
  Ag  Ag1  1  0.546530  0.817030  0.744860  1.0  0.33
  Ag  Ag2  1  0.546530  0.682970  0.255140  1.0  0.3303
  Ag  Ag3  1  0.953470  0.682970  0.244860  1.0  0.3303
  Ag  Ag4  1  0.953470  0.817030  0.755140  1.0  0.3301
  Ag  Ag5  1  0.453470  0.182970  0.255140  1.0  0.3303
  Ag  Ag6  1  0.453470  0.317030  0.744860  1.0  0.3301
  Ag  Ag7  1  0.046530  0.317030  0.755140  1.0  0.3302
  Ag  Ag8  1  0.046530  0.182970  0.244860  1.0  0.3301
  Ag  Ag9  1  0.500000  0.500000  0.500000  1.0  0.4919
  Ag  Ag10  1  0.500000  0.000000  0.500000  1.0  0.4919
  Ag  Ag11  1  0.000000  0.000000  0.000000  1.0  0.4919
  Ag  Ag12  1  0.000000  0.500000  0.000000  1.0  0.4919
  Ag  Ag13  1  0.750000  0.617690  0.750000  1.0  0.3766
  Ag  Ag14  1  0.750000  0.882310  0.250000  1.0  0.3773
  Ag  Ag15  1  0.250000  0.382310  0.250000  1.0  0.3773
  Ag  Ag16  1  0.250000  0.117690  0.750000  1.0  0.3766
  Ag  Ag17  1  0.259070  0.750000  0.000000  1.0  0.4824
  Ag  Ag18  1  0.240930  0.750000  0.500000  1.0  0.4826
  Ag  Ag19  1  0.740930  0.250000  0.000000  1.0  0.4826
  Ag  Ag20  1  0.759070  0.250000  0.500000  1.0  0.4824
  Ag  Ag21  1  0.250000  0.922380  0.750000  1.0  0.4086
  Ag  Ag22  1  0.250000  0.577620  0.250000  1.0  0.4084
  Ag  Ag23  1  0.750000  0.077620  0.250000  1.0  0.4084
  Ag  Ag24  1  0.750000  0.422380  0.750000  1.0  0.4086
  H  H25  1  0.486300  0.609300  0.589700  1.0  0.1123
  H  H26  1  0.819800  0.533000  0.648400  1.0  0.1213
  H  H27  1  0.746900  0.501700  0.567300  1.0  0.1244
  H  H28  1  0.402700  0.715200  0.687800  1.0  0.1379
  H  H29  1  0.443600  0.699900  0.628600  1.0  0.1332
  H  H30  1  0.370900  0.650200  0.661000  1.0  0.1462
  H  H31  1  0.475000  0.600600  0.790200  1.0  0.1452
  H  H32  1  0.475700  0.618100  0.852100  1.0  0.1558
  H  H33  1  0.361900  0.622700  0.818600  1.0  0.1512
  H  H34  1  0.353200  0.690300  0.894000  1.0  0.113
  H  H35  1  0.334300  0.868400  0.925800  1.0  0.1181
  H  H36  1  0.426300  0.890400  0.846900  1.0  0.1214
  H  H37  1  0.664100  0.529600  0.402000  1.0  0.1189
  H  H38  1  0.409100  0.681900  0.369200  1.0  0.1196
  H  H39  1  0.403100  0.626400  0.447600  1.0  0.1188
  H  H40  1  0.862900  0.545900  0.297000  1.0  0.1427
  H  H41  1  0.835900  0.555400  0.358800  1.0  0.1589
  H  H42  1  0.775800  0.501000  0.326300  1.0  0.1531
  H  H43  1  0.486300  0.890700  0.410300  1.0  0.1118
  H  H44  1  0.819800  0.967000  0.351600  1.0  0.1211
  H  H45  1  0.746900  0.998300  0.432700  1.0  0.1241
  H  H46  1  0.402700  0.784800  0.312200  1.0  0.137
  H  H47  1  0.443600  0.800100  0.371400  1.0  0.1341
  H  H48  1  0.370900  0.849800  0.339000  1.0  0.1462
  H  H49  1  0.475000  0.899400  0.209800  1.0  0.1456
  H  H50  1  0.475700  0.881900  0.147900  1.0  0.1558
  H  H51  1  0.361900  0.877300  0.181400  1.0  0.1518
  H  H52  1  0.353200  0.809700  0.106000  1.0  0.1132
  H  H53  1  0.334300  0.631600  0.074200  1.0  0.1179
  H  H54  1  0.426300  0.609600  0.153100  1.0  0.1214
  H  H55  1  0.664100  0.970400  0.598000  1.0  0.1184
  H  H56  1  0.409100  0.818100  0.630800  1.0  0.1193
  H  H57  1  0.403100  0.873600  0.552400  1.0  0.1181
  H  H58  1  0.862900  0.954100  0.703000  1.0  0.1432
  H  H59  1  0.835900  0.944600  0.641200  1.0  0.1589
  H  H60  1  0.775800  0.999000  0.673700  1.0  0.1543
  H  H61  1  0.013700  0.890700  0.089700  1.0  0.1108
  H  H62  1  0.680200  0.967000  0.148400  1.0  0.1212
  H  H63  1  0.753100  0.998300  0.067300  1.0  0.1235
  H  H64  1  0.097300  0.784800  0.187800  1.0  0.1387
  H  H65  1  0.056400  0.800100  0.128600  1.0  0.1337
  H  H66  1  0.129100  0.849800  0.161000  1.0  0.1453
  H  H67  1  0.025000  0.899400  0.290200  1.0  0.1454
  H  H68  1  0.024300  0.881900  0.352100  1.0  0.1558
  H  H69  1  0.138100  0.877300  0.318600  1.0  0.152
  H  H70  1  0.146800  0.809700  0.394000  1.0  0.1122
  H  H71  1  0.165700  0.631600  0.425800  1.0  0.1181
  H  H72  1  0.073700  0.609600  0.346900  1.0  0.1214
  H  H73  1  0.835900  0.970400  0.902000  1.0  0.1185
  H  H74  1  0.090900  0.818100  0.869200  1.0  0.1196
  H  H75  1  0.096900  0.873600  0.947600  1.0  0.1187
  H  H76  1  0.637100  0.954100  0.797000  1.0  0.1425
  H  H77  1  0.664100  0.944600  0.858800  1.0  0.1595
  H  H78  1  0.724200  0.999000  0.826300  1.0  0.1544
  H  H79  1  0.013700  0.609300  0.910300  1.0  0.1109
  H  H80  1  0.680200  0.533000  0.851600  1.0  0.1212
  H  H81  1  0.753100  0.501700  0.932700  1.0  0.1243
  H  H82  1  0.097300  0.715200  0.812200  1.0  0.1381
  H  H83  1  0.056400  0.699900  0.871400  1.0  0.1337
  H  H84  1  0.129100  0.650200  0.839000  1.0  0.146
  H  H85  1  0.025000  0.600600  0.709800  1.0  0.1454
  H  H86  1  0.024300  0.618100  0.647900  1.0  0.1551
  H  H87  1  0.138100  0.622700  0.681400  1.0  0.1523
  H  H88  1  0.146800  0.690300  0.606000  1.0  0.112
  H  H89  1  0.165700  0.868400  0.574200  1.0  0.1171
  H  H90  1  0.073700  0.890400  0.653100  1.0  0.1212
  H  H91  1  0.835900  0.529600  0.098000  1.0  0.1186
  H  H92  1  0.090900  0.681900  0.130800  1.0  0.1194
  H  H93  1  0.096900  0.626400  0.052400  1.0  0.1182
  H  H94  1  0.637100  0.545900  0.203000  1.0  0.1422
  H  H95  1  0.664100  0.555400  0.141200  1.0  0.1577
  H  H96  1  0.724200  0.501000  0.173700  1.0  0.1516
  H  H97  1  0.513700  0.390700  0.410300  1.0  0.1112
  H  H98  1  0.180200  0.467000  0.351600  1.0  0.1212
  H  H99  1  0.253100  0.498300  0.432700  1.0  0.1241
  H  H100  1  0.597300  0.284800  0.312200  1.0  0.1375
  H  H101  1  0.556400  0.300100  0.371400  1.0  0.1344
  H  H102  1  0.629100  0.349800  0.339000  1.0  0.1456
  H  H103  1  0.525000  0.399400  0.209800  1.0  0.1452
  H  H104  1  0.524300  0.381900  0.147900  1.0  0.1549
  H  H105  1  0.638100  0.377300  0.181400  1.0  0.1521
  H  H106  1  0.646800  0.309700  0.106000  1.0  0.1123
  H  H107  1  0.665700  0.131600  0.074200  1.0  0.1176
  H  H108  1  0.573700  0.109600  0.153100  1.0  0.1211
  H  H109  1  0.335900  0.470400  0.598000  1.0  0.1182
  H  H110  1  0.590900  0.318100  0.630800  1.0  0.1196
  H  H111  1  0.596900  0.373600  0.552400  1.0  0.1181
  H  H112  1  0.137100  0.454100  0.703000  1.0  0.1426
  H  H113  1  0.164100  0.444600  0.641200  1.0  0.1582
  H  H114  1  0.224200  0.499000  0.673700  1.0  0.1541
  H  H115  1  0.513700  0.109300  0.589700  1.0  0.111
  H  H116  1  0.180200  0.033000  0.648400  1.0  0.1212
  H  H117  1  0.253100  0.001700  0.567300  1.0  0.1236
  H  H118  1  0.597300  0.215200  0.687800  1.0  0.1383
  H  H119  1  0.556400  0.199900  0.628600  1.0  0.1331
  H  H120  1  0.629100  0.150200  0.661000  1.0  0.1459
  H  H121  1  0.525000  0.100600  0.790200  1.0  0.145
  H  H122  1  0.524300  0.118100  0.852100  1.0  0.1559
  H  H123  1  0.638100  0.122700  0.818600  1.0  0.152
  H  H124  1  0.646800  0.190300  0.894000  1.0  0.1126
  H  H125  1  0.665700  0.368400  0.925800  1.0  0.1179
  H  H126  1  0.573700  0.390400  0.846900  1.0  0.1213
  H  H127  1  0.335900  0.029600  0.402000  1.0  0.1191
  H  H128  1  0.590900  0.181900  0.369200  1.0  0.1194
  H  H129  1  0.596900  0.126400  0.447600  1.0  0.1187
  H  H130  1  0.137100  0.045900  0.297000  1.0  0.1427
  H  H131  1  0.164100  0.055400  0.358800  1.0  0.1592
  H  H132  1  0.224200  0.001000  0.326300  1.0  0.152
  H  H133  1  0.986300  0.109300  0.910300  1.0  0.1119
  H  H134  1  0.319800  0.033000  0.851600  1.0  0.1211
  H  H135  1  0.246900  0.001700  0.932700  1.0  0.1244
  H  H136  1  0.902700  0.215200  0.812200  1.0  0.1378
  H  H137  1  0.943600  0.199900  0.871400  1.0  0.1337
  H  H138  1  0.870900  0.150200  0.839000  1.0  0.1465
  H  H139  1  0.975000  0.100600  0.709800  1.0  0.1458
  H  H140  1  0.975700  0.118100  0.647900  1.0  0.1562
  H  H141  1  0.861900  0.122700  0.681400  1.0  0.1511
  H  H142  1  0.853200  0.190300  0.606000  1.0  0.1129
  H  H143  1  0.834300  0.368400  0.574200  1.0  0.1182
  H  H144  1  0.926300  0.390400  0.653100  1.0  0.1214
  H  H145  1  0.164100  0.029600  0.098000  1.0  0.1191
  H  H146  1  0.909100  0.181900  0.130800  1.0  0.1195
  H  H147  1  0.903100  0.126400  0.052400  1.0  0.1184
  H  H148  1  0.362900  0.045900  0.203000  1.0  0.143
  H  H149  1  0.335900  0.055400  0.141200  1.0  0.1587
  H  H150  1  0.275800  0.001000  0.173700  1.0  0.1528
  H  H151  1  0.986300  0.390700  0.089700  1.0  0.1118
  H  H152  1  0.319800  0.467000  0.148400  1.0  0.1211
  H  H153  1  0.246900  0.498300  0.067300  1.0  0.1242
  H  H154  1  0.902700  0.284800  0.187800  1.0  0.138
  H  H155  1  0.943600  0.300100  0.128600  1.0  0.1333
  H  H156  1  0.870900  0.349800  0.161000  1.0  0.1458
  H  H157  1  0.975000  0.399400  0.290200  1.0  0.1453
  H  H158  1  0.975700  0.381900  0.352100  1.0  0.1558
  H  H159  1  0.861900  0.377300  0.318600  1.0  0.152
  H  H160  1  0.853200  0.309700  0.394000  1.0  0.1125
  H  H161  1  0.834300  0.131600  0.425800  1.0  0.1185
  H  H162  1  0.926300  0.109600  0.346900  1.0  0.1216
  H  H163  1  0.164100  0.470400  0.902000  1.0  0.1183
  H  H164  1  0.909100  0.318100  0.869200  1.0  0.1194
  H  H165  1  0.903100  0.373600  0.947600  1.0  0.1187
  H  H166  1  0.362900  0.454100  0.797000  1.0  0.1425
  H  H167  1  0.335900  0.444600  0.858800  1.0  0.1591
  H  H168  1  0.275800  0.499000  0.826300  1.0  0.1545
  C  C169  1  0.555600  0.592600  0.601600  1.0  0.1537
  C  C170  1  0.596900  0.610500  0.650920  1.0  0.1411
  C  C171  1  0.749500  0.549000  0.637130  1.0  0.1551
  C  C172  1  0.706400  0.530700  0.588310  1.0  0.1683
  C  C173  1  0.533300  0.654520  0.685530  1.0  0.2993
  C  C174  1  0.428700  0.682300  0.663890  1.0  -0.3454
  C  C175  1  0.443300  0.628160  0.817270  1.0  -0.3542
  C  C176  1  0.469900  0.693810  0.803440  1.0  0.2708
  C  C177  1  0.428800  0.744930  0.838560  1.0  0.124
  C  C178  1  0.369700  0.732160  0.885290  1.0  0.1584
  C  C179  1  0.357600  0.835220  0.903490  1.0  0.1796
  C  C180  1  0.413600  0.848340  0.856440  1.0  0.1751
  C  C181  1  0.611000  0.561660  0.395910  1.0  0.1515
  C  C182  1  0.618600  0.596290  0.349460  1.0  0.1247
  C  C183  1  0.463700  0.650690  0.375430  1.0  0.1638
  C  C184  1  0.459300  0.617100  0.422090  1.0  0.1693
  C  C185  1  0.711200  0.586540  0.310220  1.0  0.2713
  C  C186  1  0.804400  0.543500  0.324290  1.0  -0.3464
  C  C187  1  0.555600  0.907400  0.398400  1.0  0.1536
  C  C188  1  0.596900  0.889500  0.349080  1.0  0.1423
  C  C189  1  0.749500  0.951000  0.362870  1.0  0.1552
  C  C190  1  0.706400  0.969300  0.411690  1.0  0.1689
  C  C191  1  0.533300  0.845480  0.314470  1.0  0.2989
  C  C192  1  0.428700  0.817700  0.336110  1.0  -0.3448
  C  C193  1  0.443300  0.871840  0.182730  1.0  -0.3531
  C  C194  1  0.469900  0.806190  0.196560  1.0  0.2716
  C  C195  1  0.428800  0.755070  0.161440  1.0  0.1249
  C  C196  1  0.369700  0.767840  0.114710  1.0  0.1573
  C  C197  1  0.357600  0.664780  0.096510  1.0  0.1799
  C  C198  1  0.413600  0.651660  0.143560  1.0  0.1753
  C  C199  1  0.611000  0.938340  0.604090  1.0  0.1525
  C  C200  1  0.618600  0.903710  0.650540  1.0  0.1253
  C  C201  1  0.463700  0.849310  0.624570  1.0  0.1645
  C  C202  1  0.459300  0.882900  0.577910  1.0  0.171
  C  C203  1  0.711200  0.913460  0.689780  1.0  0.2708
  C  C204  1  0.804400  0.956500  0.675710  1.0  -0.3458
  C  C205  1  0.944400  0.907400  0.101600  1.0  0.1547
  C  C206  1  0.903100  0.889500  0.150920  1.0  0.141
  C  C207  1  0.750500  0.951000  0.137130  1.0  0.1551
  C  C208  1  0.793600  0.969300  0.088310  1.0  0.1695
  C  C209  1  0.966700  0.845480  0.185530  1.0  0.2982
  C  C210  1  0.071300  0.817700  0.163890  1.0  -0.3446
  C  C211  1  0.056700  0.871840  0.317270  1.0  -0.3507
  C  C212  1  0.030100  0.806190  0.303440  1.0  0.2721
  C  C213  1  0.071200  0.755070  0.338560  1.0  0.1237
  C  C214  1  0.130300  0.767840  0.385290  1.0  0.1565
  C  C215  1  0.142400  0.664780  0.403490  1.0  0.1785
  C  C216  1  0.086400  0.651660  0.356440  1.0  0.1748
  C  C217  1  0.889000  0.938340  0.895910  1.0  0.1514
  C  C218  1  0.881400  0.903710  0.849460  1.0  0.1246
  C  C219  1  0.036300  0.849310  0.875430  1.0  0.1642
  C  C220  1  0.040700  0.882900  0.922090  1.0  0.1703
  C  C221  1  0.788800  0.913460  0.810220  1.0  0.2713
  C  C222  1  0.695600  0.956500  0.824290  1.0  -0.3468
  C  C223  1  0.944400  0.592600  0.898400  1.0  0.1546
  C  C224  1  0.903100  0.610500  0.849080  1.0  0.1425
  C  C225  1  0.750500  0.549000  0.862870  1.0  0.1554
  C  C226  1  0.793600  0.530700  0.911690  1.0  0.1678
  C  C227  1  0.966700  0.654520  0.814470  1.0  0.2994
  C  C228  1  0.071300  0.682300  0.836110  1.0  -0.3449
  C  C229  1  0.056700  0.628160  0.682730  1.0  -0.3526
  C  C230  1  0.030100  0.693810  0.696560  1.0  0.2716
  C  C231  1  0.071200  0.744930  0.661440  1.0  0.1249
  C  C232  1  0.130300  0.732160  0.614710  1.0  0.1579
  C  C233  1  0.142400  0.835220  0.596510  1.0  0.1777
  C  C234  1  0.086400  0.848340  0.643560  1.0  0.175
  C  C235  1  0.889000  0.561660  0.104090  1.0  0.1519
  C  C236  1  0.881400  0.596290  0.150540  1.0  0.1236
  C  C237  1  0.036300  0.650690  0.124570  1.0  0.1653
  C  C238  1  0.040700  0.617100  0.077910  1.0  0.1702
  C  C239  1  0.788800  0.586540  0.189780  1.0  0.2694
  C  C240  1  0.695600  0.543500  0.175710  1.0  -0.3456
  C  C241  1  0.444400  0.407400  0.398400  1.0  0.1549
  C  C242  1  0.403100  0.389500  0.349080  1.0  0.1418
  C  C243  1  0.250500  0.451000  0.362870  1.0  0.1552
  C  C244  1  0.293600  0.469300  0.411690  1.0  0.1695
  C  C245  1  0.466700  0.345480  0.314470  1.0  0.2988
  C  C246  1  0.571300  0.317700  0.336110  1.0  -0.3447
  C  C247  1  0.556700  0.371840  0.182730  1.0  -0.3509
  C  C248  1  0.530100  0.306190  0.196560  1.0  0.2719
  C  C249  1  0.571200  0.255070  0.161440  1.0  0.1249
  C  C250  1  0.630300  0.267840  0.114710  1.0  0.1555
  C  C251  1  0.642400  0.164780  0.096510  1.0  0.1781
  C  C252  1  0.586400  0.151660  0.143560  1.0  0.1753
  C  C253  1  0.389000  0.438340  0.604090  1.0  0.1521
  C  C254  1  0.381400  0.403710  0.650540  1.0  0.1241
  C  C255  1  0.536300  0.349310  0.624570  1.0  0.1648
  C  C256  1  0.540700  0.382900  0.577910  1.0  0.1708
  C  C257  1  0.288800  0.413460  0.689780  1.0  0.2706
  C  C258  1  0.195600  0.456500  0.675710  1.0  -0.3461
  C  C259  1  0.444400  0.092600  0.601600  1.0  0.1548
  C  C260  1  0.403100  0.110500  0.650920  1.0  0.1413
  C  C261  1  0.250500  0.049000  0.637130  1.0  0.1549
  C  C262  1  0.293600  0.030700  0.588310  1.0  0.1686
  C  C263  1  0.466700  0.154520  0.685530  1.0  0.299
  C  C264  1  0.571300  0.182300  0.663890  1.0  -0.3447
  C  C265  1  0.556700  0.128160  0.817270  1.0  -0.3527
  C  C266  1  0.530100  0.193810  0.803440  1.0  0.2718
  C  C267  1  0.571200  0.244930  0.838560  1.0  0.1236
  C  C268  1  0.630300  0.232160  0.885290  1.0  0.1578
  C  C269  1  0.642400  0.335220  0.903490  1.0  0.1778
  C  C270  1  0.586400  0.348340  0.856440  1.0  0.1755
  C  C271  1  0.389000  0.061660  0.395910  1.0  0.1509
  C  C272  1  0.381400  0.096290  0.349460  1.0  0.1241
  C  C273  1  0.536300  0.150690  0.375430  1.0  0.1649
  C  C274  1  0.540700  0.117100  0.422090  1.0  0.1695
  C  C275  1  0.288800  0.086540  0.310220  1.0  0.271
  C  C276  1  0.195600  0.043500  0.324290  1.0  -0.347
  C  C277  1  0.055600  0.092600  0.898400  1.0  0.1531
  C  C278  1  0.096900  0.110500  0.849080  1.0  0.1425
  C  C279  1  0.249500  0.049000  0.862870  1.0  0.1557
  C  C280  1  0.206400  0.030700  0.911690  1.0  0.1681
  C  C281  1  0.033300  0.154520  0.814470  1.0  0.2991
  C  C282  1  0.928700  0.182300  0.836110  1.0  -0.3454
  C  C283  1  0.943300  0.128160  0.682730  1.0  -0.3542
  C  C284  1  0.969900  0.193810  0.696560  1.0  0.2713
  C  C285  1  0.928800  0.244930  0.661440  1.0  0.1249
  C  C286  1  0.869700  0.232160  0.614710  1.0  0.1591
  C  C287  1  0.857600  0.335220  0.596510  1.0  0.1796
  C  C288  1  0.913600  0.348340  0.643560  1.0  0.1752
  C  C289  1  0.111000  0.061660  0.104090  1.0  0.1522
  C  C290  1  0.118600  0.096290  0.150540  1.0  0.1244
  C  C291  1  0.963700  0.150690  0.124570  1.0  0.1644
  C  C292  1  0.959300  0.117100  0.077910  1.0  0.1701
  C  C293  1  0.211200  0.086540  0.189780  1.0  0.2699
  C  C294  1  0.304400  0.043500  0.175710  1.0  -0.3457
  C  C295  1  0.055600  0.407400  0.101600  1.0  0.1538
  C  C296  1  0.096900  0.389500  0.150920  1.0  0.1415
  C  C297  1  0.249500  0.451000  0.137130  1.0  0.155
  C  C298  1  0.206400  0.469300  0.088310  1.0  0.1689
  C  C299  1  0.033300  0.345480  0.185530  1.0  0.2988
  C  C300  1  0.928700  0.317700  0.163890  1.0  -0.3449
  C  C301  1  0.943300  0.371840  0.317270  1.0  -0.3528
  C  C302  1  0.969900  0.306190  0.303440  1.0  0.2714
  C  C303  1  0.928800  0.255070  0.338560  1.0  0.124
  C  C304  1  0.869700  0.267840  0.385290  1.0  0.1577
  C  C305  1  0.857600  0.164780  0.403490  1.0  0.1801
  C  C306  1  0.913600  0.151660  0.356440  1.0  0.1749
  C  C307  1  0.111000  0.438340  0.895910  1.0  0.1521
  C  C308  1  0.118600  0.403710  0.849460  1.0  0.1255
  C  C309  1  0.963700  0.349310  0.875430  1.0  0.1638
  C  C310  1  0.959300  0.382900  0.922090  1.0  0.1702
  C  C311  1  0.211200  0.413460  0.810220  1.0  0.2713
  C  C312  1  0.304400  0.456500  0.824290  1.0  -0.3461
  N  N313  1  0.610000  0.552630  0.570390  1.0  -0.3526
  N  N314  1  0.695000  0.588210  0.668470  1.0  -0.3059
  N  N315  1  0.575200  0.665170  0.731180  1.0  -0.1992
  N  N316  1  0.526200  0.710700  0.762620  1.0  -0.2151
  N  N317  1  0.450000  0.803770  0.824260  1.0  -0.3082
  N  N318  1  0.335600  0.777160  0.918180  1.0  -0.314
  N  N319  1  0.531900  0.571830  0.432120  1.0  -0.3157
  N  N320  1  0.542700  0.640550  0.338860  1.0  -0.3205
  N  N321  1  0.704400  0.617570  0.267000  1.0  -0.2099
  N  N322  1  0.746500  0.408150  0.455900  1.0  0.8118
  N  N323  1  0.610000  0.947370  0.429610  1.0  -0.3504
  N  N324  1  0.695000  0.911790  0.331530  1.0  -0.3057
  N  N325  1  0.575200  0.834830  0.268820  1.0  -0.1986
  N  N326  1  0.526200  0.789300  0.237380  1.0  -0.2152
  N  N327  1  0.450000  0.696230  0.175740  1.0  -0.3072
  N  N328  1  0.335600  0.722840  0.081820  1.0  -0.3152
  N  N329  1  0.531900  0.928170  0.567880  1.0  -0.3242
  N  N330  1  0.542700  0.859450  0.661140  1.0  -0.3191
  N  N331  1  0.704400  0.882430  0.733000  1.0  -0.2077
  N  N332  1  0.746500  0.091850  0.544100  1.0  0.8133
  N  N333  1  0.890000  0.947370  0.070390  1.0  -0.3494
  N  N334  1  0.805000  0.911790  0.168470  1.0  -0.3058
  N  N335  1  0.924800  0.834830  0.231180  1.0  -0.1963
  N  N336  1  0.973800  0.789300  0.262620  1.0  -0.2123
  N  N337  1  0.050000  0.696230  0.324260  1.0  -0.3078
  N  N338  1  0.164400  0.722840  0.418180  1.0  -0.3122
  N  N339  1  0.968100  0.928170  0.932120  1.0  -0.3169
  N  N340  1  0.957300  0.859450  0.838860  1.0  -0.3194
  N  N341  1  0.795600  0.882430  0.767000  1.0  -0.2074
  N  N342  1  0.753500  0.091850  0.955900  1.0  0.8127
  N  N343  1  0.890000  0.552630  0.929610  1.0  -0.3491
  N  N344  1  0.805000  0.588210  0.831530  1.0  -0.3057
  N  N345  1  0.924800  0.665170  0.768820  1.0  -0.1975
  N  N346  1  0.973800  0.710700  0.737380  1.0  -0.2116
  N  N347  1  0.050000  0.803770  0.675740  1.0  -0.3091
  N  N348  1  0.164400  0.777160  0.581820  1.0  -0.3162
  N  N349  1  0.968100  0.571830  0.067880  1.0  -0.3253
  N  N350  1  0.957300  0.640550  0.161140  1.0  -0.3202
  N  N351  1  0.795600  0.617570  0.233000  1.0  -0.21
  N  N352  1  0.753500  0.408150  0.044100  1.0  0.8123
  N  N353  1  0.390000  0.447370  0.429610  1.0  -0.3491
  N  N354  1  0.305000  0.411790  0.331530  1.0  -0.3058
  N  N355  1  0.424800  0.334830  0.268820  1.0  -0.1966
  N  N356  1  0.473800  0.289300  0.237380  1.0  -0.2134
  N  N357  1  0.550000  0.196230  0.175740  1.0  -0.3087
  N  N358  1  0.664400  0.222840  0.081820  1.0  -0.314
  N  N359  1  0.468100  0.428170  0.567880  1.0  -0.3237
  N  N360  1  0.457300  0.359450  0.661140  1.0  -0.3191
  N  N361  1  0.295600  0.382430  0.733000  1.0  -0.2076
  N  N362  1  0.253500  0.591850  0.544100  1.0  0.8132
  N  N363  1  0.390000  0.052630  0.570390  1.0  -0.3508
  N  N364  1  0.305000  0.088210  0.668470  1.0  -0.306
  N  N365  1  0.424800  0.165170  0.731180  1.0  -0.1973
  N  N366  1  0.473800  0.210700  0.762620  1.0  -0.211
  N  N367  1  0.550000  0.303770  0.824260  1.0  -0.3084
  N  N368  1  0.664400  0.277160  0.918180  1.0  -0.312
  N  N369  1  0.468100  0.071830  0.432120  1.0  -0.3171
  N  N370  1  0.457300  0.140550  0.338860  1.0  -0.3204
  N  N371  1  0.295600  0.117570  0.267000  1.0  -0.2106
  N  N372  1  0.253500  0.908150  0.455900  1.0  0.812
  N  N373  1  0.110000  0.052630  0.929610  1.0  -0.35
  N  N374  1  0.195000  0.088210  0.831530  1.0  -0.3063
  N  N375  1  0.075200  0.165170  0.768820  1.0  -0.1995
  N  N376  1  0.026200  0.210700  0.737380  1.0  -0.2154
  N  N377  1  0.950000  0.303770  0.675740  1.0  -0.3084
  N  N378  1  0.835600  0.277160  0.581820  1.0  -0.317
  N  N379  1  0.031900  0.071830  0.067880  1.0  -0.3259
  N  N380  1  0.042700  0.140550  0.161140  1.0  -0.3202
  N  N381  1  0.204400  0.117570  0.233000  1.0  -0.2095
  N  N382  1  0.246500  0.908150  0.044100  1.0  0.8126
  N  N383  1  0.110000  0.447370  0.070390  1.0  -0.3517
  N  N384  1  0.195000  0.411790  0.168470  1.0  -0.3056
  N  N385  1  0.075200  0.334830  0.231180  1.0  -0.1979
  N  N386  1  0.026200  0.289300  0.262620  1.0  -0.2143
  N  N387  1  0.950000  0.196230  0.324260  1.0  -0.307
  N  N388  1  0.835600  0.222840  0.418180  1.0  -0.3142
  N  N389  1  0.031900  0.428170  0.932120  1.0  -0.3157
  N  N390  1  0.042700  0.359450  0.838860  1.0  -0.3195
  N  N391  1  0.204400  0.382430  0.767000  1.0  -0.2073
  N  N392  1  0.246500  0.591850  0.955900  1.0  0.8124
  N  N393  1  0.008300  0.750000  0.000000  1.0  0.857
  N  N394  1  0.491700  0.750000  0.500000  1.0  0.8588
  N  N395  1  0.991700  0.250000  0.000000  1.0  0.8588
  N  N396  1  0.508300  0.250000  0.500000  1.0  0.857
  N  N397  1  0.456500  0.988030  0.732390  1.0  0.7743
  N  N398  1  0.043500  0.988030  0.767610  1.0  0.7754
  N  N399  1  0.250000  0.787500  0.750000  1.0  0.7439
  N  N400  1  0.456500  0.511970  0.267610  1.0  0.7746
  N  N401  1  0.043500  0.511970  0.232390  1.0  0.7753
  N  N402  1  0.250000  0.712500  0.250000  1.0  0.7435
  N  N403  1  0.543500  0.011970  0.267610  1.0  0.7755
  N  N404  1  0.956500  0.011970  0.232390  1.0  0.7744
  N  N405  1  0.750000  0.212500  0.250000  1.0  0.7435
  N  N406  1  0.543500  0.488030  0.732390  1.0  0.7753
  N  N407  1  0.956500  0.488030  0.767610  1.0  0.7745
  N  N408  1  0.750000  0.287500  0.750000  1.0  0.7439
  O  O409  1  0.702400  0.447400  0.484930  1.0  -0.6127
  O  O410  1  0.736600  0.411150  0.407600  1.0  -0.4824
  O  O411  1  0.807900  0.367660  0.475550  1.0  -0.6169
  O  O412  1  0.062600  0.726700  0.963740  1.0  -0.6499
  O  O413  1  0.702400  0.052600  0.515070  1.0  -0.613
  O  O414  1  0.736600  0.088850  0.592400  1.0  -0.4843
  O  O415  1  0.807900  0.132340  0.524450  1.0  -0.618
  O  O416  1  0.062600  0.773300  0.036260  1.0  -0.6504
  O  O417  1  0.797600  0.052600  0.984930  1.0  -0.6123
  O  O418  1  0.763400  0.088850  0.907600  1.0  -0.483
  O  O419  1  0.692100  0.132340  0.975550  1.0  -0.6158
  O  O420  1  0.437400  0.773300  0.463740  1.0  -0.6484
  O  O421  1  0.797600  0.447400  0.015070  1.0  -0.6126
  O  O422  1  0.763400  0.411150  0.092400  1.0  -0.4845
  O  O423  1  0.692100  0.367660  0.024450  1.0  -0.6161
  O  O424  1  0.437400  0.726700  0.536260  1.0  -0.6505
  O  O425  1  0.297600  0.552600  0.515070  1.0  -0.6137
  O  O426  1  0.263400  0.588850  0.592400  1.0  -0.4844
  O  O427  1  0.192100  0.632340  0.524450  1.0  -0.6166
  O  O428  1  0.937400  0.273300  0.036260  1.0  -0.6487
  O  O429  1  0.297600  0.947400  0.484930  1.0  -0.6125
  O  O430  1  0.263400  0.911150  0.407600  1.0  -0.4828
  O  O431  1  0.192100  0.867660  0.475550  1.0  -0.6153
  O  O432  1  0.937400  0.226700  0.963740  1.0  -0.6504
  O  O433  1  0.202400  0.947400  0.015070  1.0  -0.612
  O  O434  1  0.236600  0.911150  0.092400  1.0  -0.4842
  O  O435  1  0.307900  0.867660  0.024450  1.0  -0.6172
  O  O436  1  0.562600  0.226700  0.536260  1.0  -0.6492
  O  O437  1  0.202400  0.552600  0.984930  1.0  -0.6128
  O  O438  1  0.236600  0.588850  0.907600  1.0  -0.4825
  O  O439  1  0.307900  0.632340  0.975550  1.0  -0.6176
  O  O440  1  0.562600  0.273300  0.463740  1.0  -0.651
  O  O441  1  0.907200  0.750000  0.000000  1.0  -0.3829
  O  O442  1  0.592800  0.750000  0.500000  1.0  -0.3807
  O  O443  1  0.092800  0.250000  0.000000  1.0  -0.3807
  O  O444  1  0.407200  0.250000  0.500000  1.0  -0.3829
  O  O445  1  0.303000  0.817560  0.714840  1.0  -0.6437
  O  O446  1  0.424900  0.982130  0.779820  1.0  -0.6416
  O  O447  1  0.398700  0.963780  0.696030  1.0  -0.6239
  O  O448  1  0.542900  0.016980  0.721260  1.0  -0.4091
  O  O449  1  0.197000  0.817560  0.785160  1.0  -0.6444
  O  O450  1  0.075100  0.982130  0.720180  1.0  -0.6433
  O  O451  1  0.101300  0.963780  0.803970  1.0  -0.6247
  O  O452  1  0.957100  0.016980  0.778740  1.0  -0.4092
  O  O453  1  0.250000  0.730500  0.750000  1.0  -0.4792
  O  O454  1  0.303000  0.682440  0.285160  1.0  -0.6447
  O  O455  1  0.424900  0.517870  0.220180  1.0  -0.6428
  O  O456  1  0.398700  0.536220  0.303970  1.0  -0.6239
  O  O457  1  0.542900  0.483020  0.278740  1.0  -0.4085
  O  O458  1  0.197000  0.682440  0.214840  1.0  -0.6456
  O  O459  1  0.075100  0.517870  0.279820  1.0  -0.6415
  O  O460  1  0.101300  0.536220  0.196030  1.0  -0.6243
  O  O461  1  0.957100  0.483020  0.221260  1.0  -0.4099
  O  O462  1  0.250000  0.769500  0.250000  1.0  -0.4793
  O  O463  1  0.697000  0.182440  0.285160  1.0  -0.645
  O  O464  1  0.575100  0.017870  0.220180  1.0  -0.6428
  O  O465  1  0.601300  0.036220  0.303970  1.0  -0.6243
  O  O466  1  0.457100  0.983020  0.278740  1.0  -0.4095
  O  O467  1  0.803000  0.182440  0.214840  1.0  -0.6454
  O  O468  1  0.924900  0.017870  0.279820  1.0  -0.6417
  O  O469  1  0.898700  0.036220  0.196030  1.0  -0.624
  O  O470  1  0.042900  0.983020  0.221260  1.0  -0.409
  O  O471  1  0.750000  0.269500  0.250000  1.0  -0.4793
  O  O472  1  0.697000  0.317560  0.714840  1.0  -0.6445
  O  O473  1  0.575100  0.482130  0.779820  1.0  -0.6414
  O  O474  1  0.601300  0.463780  0.696030  1.0  -0.6242
  O  O475  1  0.457100  0.516980  0.721260  1.0  -0.4094
  O  O476  1  0.803000  0.317560  0.785160  1.0  -0.6437
  O  O477  1  0.924900  0.482130  0.720180  1.0  -0.6433
  O  O478  1  0.898700  0.463780  0.803970  1.0  -0.6243
  O  O479  1  0.042900  0.516980  0.778740  1.0  -0.4087
  O  O480  1  0.750000  0.230500  0.750000  1.0  -0.4792
