# generated using pymatgen
data_Ga3P3(O6F)2
_symmetry_space_group_name_H-M   'P 1'
_cell_length_a   15.85000000
_cell_length_b   10.13570000
_cell_length_c   18.50600000
_cell_angle_alpha   90.00000000
_cell_angle_beta   90.00000000
_cell_angle_gamma   90.00000000
_symmetry_Int_Tables_number   1
_chemical_formula_structural   Ga3P3(O6F)2
_chemical_formula_sum   'Ga24 P24 O96 F16'
_cell_volume   2973.00453757
_cell_formula_units_Z   8
loop_
 _symmetry_equiv_pos_site_id
 _symmetry_equiv_pos_as_xyz
  1  'x, y, z'
loop_
 _atom_site_type_symbol
 _atom_site_label
 _atom_site_symmetry_multiplicity
 _atom_site_fract_x
 _atom_site_fract_y
 _atom_site_fract_z
 _atom_site_occupancy
 _atom_site_charge
  Ga  Ga1  1  0.149810  0.834350  0.174550  1.0  1.7261
  Ga  Ga2  1  0.958750  0.684950  0.218000  1.0  1.6441
  Ga  Ga3  1  0.991450  0.653190  0.405530  1.0  1.7009
  Ga  Ga4  1  0.350190  0.165650  0.674550  1.0  1.7254
  Ga  Ga5  1  0.541250  0.315050  0.718000  1.0  1.6425
  Ga  Ga6  1  0.508550  0.346810  0.905530  1.0  1.6984
  Ga  Ga7  1  0.850190  0.334350  0.325450  1.0  1.727
  Ga  Ga8  1  0.041250  0.184950  0.282000  1.0  1.6439
  Ga  Ga9  1  0.008550  0.153190  0.094470  1.0  1.6993
  Ga  Ga10  1  0.649810  0.665650  0.825450  1.0  1.7266
  Ga  Ga11  1  0.458750  0.815050  0.782000  1.0  1.644
  Ga  Ga12  1  0.491450  0.846810  0.594470  1.0  1.6973
  Ga  Ga13  1  0.850190  0.165650  0.825450  1.0  1.7265
  Ga  Ga14  1  0.041250  0.315050  0.782000  1.0  1.6434
  Ga  Ga15  1  0.008550  0.346810  0.594470  1.0  1.6977
  Ga  Ga16  1  0.649810  0.834350  0.325450  1.0  1.7274
  Ga  Ga17  1  0.458750  0.684950  0.282000  1.0  1.6444
  Ga  Ga18  1  0.491450  0.653190  0.094470  1.0  1.6988
  Ga  Ga19  1  0.149810  0.665650  0.674550  1.0  1.7256
  Ga  Ga20  1  0.958750  0.815050  0.718000  1.0  1.6436
  Ga  Ga21  1  0.991450  0.846810  0.905530  1.0  1.6988
  Ga  Ga22  1  0.350190  0.334350  0.174550  1.0  1.7255
  Ga  Ga23  1  0.541250  0.184950  0.218000  1.0  1.6432
  Ga  Ga24  1  0.508550  0.153190  0.405530  1.0  1.7007
  P  P25  1  0.314480  0.649910  0.167510  1.0  1.8363
  P  P26  1  0.984710  0.863390  0.078010  1.0  1.8461
  P  P27  1  0.062670  0.878750  0.314580  1.0  1.8737
  P  P28  1  0.185520  0.350090  0.667510  1.0  1.8398
  P  P29  1  0.515290  0.136610  0.578010  1.0  1.8469
  P  P30  1  0.437330  0.121250  0.814580  1.0  1.8721
  P  P31  1  0.685520  0.149910  0.332490  1.0  1.8396
  P  P32  1  0.015290  0.363390  0.421990  1.0  1.8476
  P  P33  1  0.937330  0.378750  0.185420  1.0  1.871
  P  P34  1  0.814480  0.850090  0.832490  1.0  1.8362
  P  P35  1  0.484710  0.636610  0.921990  1.0  1.8472
  P  P36  1  0.562670  0.621250  0.685420  1.0  1.8719
  P  P37  1  0.685520  0.350090  0.832490  1.0  1.8393
  P  P38  1  0.015290  0.136610  0.921990  1.0  1.8475
  P  P39  1  0.937330  0.121250  0.685420  1.0  1.8709
  P  P40  1  0.814480  0.649910  0.332490  1.0  1.8365
  P  P41  1  0.484710  0.863390  0.421990  1.0  1.8471
  P  P42  1  0.562670  0.878750  0.185420  1.0  1.8718
  P  P43  1  0.314480  0.850090  0.667510  1.0  1.8359
  P  P44  1  0.984710  0.636610  0.578010  1.0  1.8462
  P  P45  1  0.062670  0.621250  0.814580  1.0  1.8741
  P  P46  1  0.185520  0.149910  0.167510  1.0  1.8401
  P  P47  1  0.515290  0.363390  0.078010  1.0  1.847
  P  P48  1  0.437330  0.378750  0.314580  1.0  1.872
  O  O49  1  0.235150  0.726700  0.145870  1.0  -0.968
  O  O50  1  0.077250  0.877400  0.099980  1.0  -0.8572
  O  O51  1  0.145940  0.846500  0.275370  1.0  -0.7805
  O  O52  1  0.292600  0.502500  0.166840  1.0  -0.7707
  O  O53  1  0.987300  0.848200  0.266660  1.0  -0.7951
  O  O54  1  0.063500  0.024700  0.336310  1.0  -0.7429
  O  O55  1  0.345000  0.693200  0.242270  1.0  -0.7478
  O  O56  1  0.930410  0.786500  0.132130  1.0  -0.7441
  O  O57  1  0.378450  0.683900  0.107700  1.0  -0.8486
  O  O58  1  0.947620  0.003300  0.071100  1.0  -0.8136
  O  O59  1  0.060880  0.797300  0.385320  1.0  -0.7474
  O  O60  1  0.978800  0.793600  0.005180  1.0  -0.782
  O  O61  1  0.264850  0.273300  0.645870  1.0  -0.9677
  O  O62  1  0.422750  0.122600  0.599980  1.0  -0.8587
  O  O63  1  0.354060  0.153500  0.775370  1.0  -0.78
  O  O64  1  0.207400  0.497500  0.666840  1.0  -0.7715
  O  O65  1  0.512700  0.151800  0.766660  1.0  -0.7961
  O  O66  1  0.436500  0.975300  0.836310  1.0  -0.7441
  O  O67  1  0.155000  0.306800  0.742270  1.0  -0.7467
  O  O68  1  0.569590  0.213500  0.632130  1.0  -0.7456
  O  O69  1  0.121550  0.316100  0.607700  1.0  -0.8477
  O  O70  1  0.552380  0.996700  0.571100  1.0  -0.8154
  O  O71  1  0.439120  0.202700  0.885320  1.0  -0.7482
  O  O72  1  0.521200  0.206400  0.505180  1.0  -0.7807
  O  O73  1  0.764850  0.226700  0.354130  1.0  -0.9689
  O  O74  1  0.922750  0.377400  0.400020  1.0  -0.859
  O  O75  1  0.854060  0.346500  0.224630  1.0  -0.781
  O  O76  1  0.707400  0.002500  0.333160  1.0  -0.7699
  O  O77  1  0.012700  0.348200  0.233340  1.0  -0.7956
  O  O78  1  0.936500  0.524700  0.163690  1.0  -0.7432
  O  O79  1  0.655000  0.193200  0.257730  1.0  -0.7478
  O  O80  1  0.069590  0.286500  0.367870  1.0  -0.7455
  O  O81  1  0.621550  0.183900  0.392300  1.0  -0.8455
  O  O82  1  0.052380  0.503300  0.428900  1.0  -0.8155
  O  O83  1  0.939120  0.297300  0.114680  1.0  -0.7471
  O  O84  1  0.021200  0.293600  0.494820  1.0  -0.7826
  O  O85  1  0.735150  0.773300  0.854130  1.0  -0.9702
  O  O86  1  0.577250  0.622600  0.900020  1.0  -0.8591
  O  O87  1  0.645940  0.653500  0.724630  1.0  -0.7816
  O  O88  1  0.792600  0.997500  0.833160  1.0  -0.7708
  O  O89  1  0.487300  0.651800  0.733340  1.0  -0.7959
  O  O90  1  0.563500  0.475300  0.663690  1.0  -0.7433
  O  O91  1  0.845000  0.806800  0.757730  1.0  -0.7487
  O  O92  1  0.430410  0.713500  0.867870  1.0  -0.7438
  O  O93  1  0.878450  0.816100  0.892300  1.0  -0.8471
  O  O94  1  0.447620  0.496700  0.928900  1.0  -0.8139
  O  O95  1  0.560880  0.702700  0.614680  1.0  -0.7467
  O  O96  1  0.478800  0.706400  0.994820  1.0  -0.7819
  O  O97  1  0.764850  0.273300  0.854130  1.0  -0.9689
  O  O98  1  0.922750  0.122600  0.900020  1.0  -0.86
  O  O99  1  0.854060  0.153500  0.724630  1.0  -0.781
  O  O100  1  0.707400  0.497500  0.833160  1.0  -0.7711
  O  O101  1  0.012700  0.151800  0.733340  1.0  -0.7963
  O  O102  1  0.936500  0.975300  0.663690  1.0  -0.7432
  O  O103  1  0.655000  0.306800  0.757730  1.0  -0.7485
  O  O104  1  0.069590  0.213500  0.867870  1.0  -0.7454
  O  O105  1  0.621550  0.316100  0.892300  1.0  -0.845
  O  O106  1  0.052380  0.996700  0.928900  1.0  -0.8157
  O  O107  1  0.939120  0.202700  0.614680  1.0  -0.7466
  O  O108  1  0.021200  0.206400  0.994820  1.0  -0.7812
  O  O109  1  0.735150  0.726700  0.354130  1.0  -0.9702
  O  O110  1  0.577250  0.877400  0.400020  1.0  -0.8579
  O  O111  1  0.645940  0.846500  0.224630  1.0  -0.7811
  O  O112  1  0.792600  0.502500  0.333160  1.0  -0.7705
  O  O113  1  0.487300  0.848200  0.233340  1.0  -0.7954
  O  O114  1  0.563500  0.024700  0.163690  1.0  -0.7431
  O  O115  1  0.845000  0.693200  0.257730  1.0  -0.7483
  O  O116  1  0.430410  0.786500  0.367870  1.0  -0.7437
  O  O117  1  0.878450  0.683900  0.392300  1.0  -0.8469
  O  O118  1  0.447620  0.003300  0.428900  1.0  -0.8135
  O  O119  1  0.560880  0.797300  0.114680  1.0  -0.7474
  O  O120  1  0.478800  0.793600  0.494820  1.0  -0.7827
  O  O121  1  0.235150  0.773300  0.645870  1.0  -0.9684
  O  O122  1  0.077250  0.622600  0.599980  1.0  -0.8579
  O  O123  1  0.145940  0.653500  0.775370  1.0  -0.7807
  O  O124  1  0.292600  0.997500  0.666840  1.0  -0.7719
  O  O125  1  0.987300  0.651800  0.766660  1.0  -0.7954
  O  O126  1  0.063500  0.475300  0.836310  1.0  -0.7431
  O  O127  1  0.345000  0.806800  0.742270  1.0  -0.7478
  O  O128  1  0.930410  0.713500  0.632130  1.0  -0.7441
  O  O129  1  0.378450  0.816100  0.607700  1.0  -0.8479
  O  O130  1  0.947620  0.496700  0.571100  1.0  -0.8139
  O  O131  1  0.060880  0.702700  0.885320  1.0  -0.7474
  O  O132  1  0.978800  0.706400  0.505180  1.0  -0.7813
  O  O133  1  0.264850  0.226700  0.145870  1.0  -0.9674
  O  O134  1  0.422750  0.377400  0.099980  1.0  -0.8582
  O  O135  1  0.354060  0.346500  0.275370  1.0  -0.7801
  O  O136  1  0.207400  0.002500  0.166840  1.0  -0.7708
  O  O137  1  0.512700  0.348200  0.266660  1.0  -0.7954
  O  O138  1  0.436500  0.524700  0.336310  1.0  -0.7442
  O  O139  1  0.155000  0.193200  0.242270  1.0  -0.7466
  O  O140  1  0.569590  0.286500  0.132130  1.0  -0.7463
  O  O141  1  0.121550  0.183900  0.107700  1.0  -0.8482
  O  O142  1  0.552380  0.503300  0.071100  1.0  -0.8152
  O  O143  1  0.439120  0.297300  0.385320  1.0  -0.7482
  O  O144  1  0.521200  0.293600  0.005180  1.0  -0.7819
  F  F145  1  0.076360  0.673000  0.186390  1.0  -0.4823
  F  F146  1  0.997060  0.591800  0.303340  1.0  -0.5438
  F  F147  1  0.423640  0.327000  0.686390  1.0  -0.4813
  F  F148  1  0.502940  0.408200  0.803340  1.0  -0.5421
  F  F149  1  0.923640  0.173000  0.313610  1.0  -0.4833
  F  F150  1  0.002940  0.091800  0.196660  1.0  -0.5426
  F  F151  1  0.576360  0.827000  0.813610  1.0  -0.4812
  F  F152  1  0.497060  0.908200  0.696660  1.0  -0.542
  F  F153  1  0.923640  0.327000  0.813610  1.0  -0.4818
  F  F154  1  0.002940  0.408200  0.696660  1.0  -0.5417
  F  F155  1  0.576360  0.673000  0.313610  1.0  -0.4829
  F  F156  1  0.497060  0.591800  0.196660  1.0  -0.5433
  F  F157  1  0.076360  0.827000  0.686390  1.0  -0.48
  F  F158  1  0.997060  0.908200  0.803340  1.0  -0.5423
  F  F159  1  0.423640  0.173000  0.186390  1.0  -0.4832
  F  F160  1  0.502940  0.091800  0.303340  1.0  -0.5431
