# generated using pymatgen
data_Ga4P7(HO3)7
_symmetry_space_group_name_H-M   'P 1'
_cell_length_a   13.34220000
_cell_length_b   13.34220000
_cell_length_c   17.86870000
_cell_angle_alpha   90.00000000
_cell_angle_beta   90.00000000
_cell_angle_gamma   120.00000000
_symmetry_Int_Tables_number   1
_chemical_formula_structural   Ga4P7(HO3)7
_chemical_formula_sum   'Ga16 P28 H28 O84'
_cell_volume   2754.72646950
_cell_formula_units_Z   4
loop_
 _symmetry_equiv_pos_site_id
 _symmetry_equiv_pos_as_xyz
  1  'x, y, z'
loop_
 _atom_site_type_symbol
 _atom_site_label
 _atom_site_symmetry_multiplicity
 _atom_site_fract_x
 _atom_site_fract_y
 _atom_site_fract_z
 _atom_site_occupancy
 _atom_site_charge
  Ga  Ga1  1  0.859580  0.567370  0.460330  1.0  1.651
  Ga  Ga2  1  0.432630  0.292210  0.460330  1.0  1.653
  Ga  Ga3  1  0.707790  0.140420  0.460330  1.0  1.6514
  Ga  Ga4  1  0.567370  0.859580  0.039670  1.0  1.6537
  Ga  Ga5  1  0.292210  0.432630  0.039670  1.0  1.6531
  Ga  Ga6  1  0.140420  0.707790  0.039670  1.0  1.6557
  Ga  Ga7  1  0.140420  0.432630  0.539670  1.0  1.6526
  Ga  Ga8  1  0.567370  0.707790  0.539670  1.0  1.6547
  Ga  Ga9  1  0.292210  0.859580  0.539670  1.0  1.6545
  Ga  Ga10  1  0.432630  0.140420  0.960330  1.0  1.6523
  Ga  Ga11  1  0.707790  0.567370  0.960330  1.0  1.6505
  Ga  Ga12  1  0.859580  0.292210  0.960330  1.0  1.6519
  Ga  Ga13  1  0.000000  0.000000  0.250000  1.0  1.4726
  Ga  Ga14  1  0.000000  0.000000  0.750000  1.0  1.4726
  Ga  Ga15  1  0.000000  0.000000  0.500000  1.0  1.4844
  Ga  Ga16  1  0.000000  0.000000  0.000000  1.0  1.4844
  P  P17  1  0.974560  0.813420  0.371090  1.0  1.5182
  P  P18  1  0.872530  0.367840  0.553540  1.0  1.4809
  P  P19  1  0.186580  0.161140  0.371090  1.0  1.5032
  P  P20  1  0.632160  0.504690  0.553540  1.0  1.4825
  P  P21  1  0.838860  0.025440  0.371090  1.0  1.5021
  P  P22  1  0.495310  0.127470  0.553540  1.0  1.4677
  P  P23  1  0.813420  0.974560  0.128910  1.0  1.5012
  P  P24  1  0.367840  0.872530  0.946460  1.0  1.4735
  P  P25  1  0.161140  0.186580  0.128910  1.0  1.5186
  P  P26  1  0.504690  0.632160  0.946460  1.0  1.4792
  P  P27  1  0.025440  0.838860  0.128910  1.0  1.5062
  P  P28  1  0.127470  0.495310  0.946460  1.0  1.4847
  P  P29  1  0.025440  0.186580  0.628910  1.0  1.5109
  P  P30  1  0.127470  0.632160  0.446460  1.0  1.4793
  P  P31  1  0.813420  0.838860  0.628910  1.0  1.513
  P  P32  1  0.367840  0.495310  0.446460  1.0  1.4774
  P  P33  1  0.161140  0.974560  0.628910  1.0  1.5101
  P  P34  1  0.504690  0.872530  0.446460  1.0  1.4808
  P  P35  1  0.186580  0.025440  0.871090  1.0  1.5111
  P  P36  1  0.632160  0.127470  0.053540  1.0  1.4748
  P  P37  1  0.838860  0.813420  0.871090  1.0  1.511
  P  P38  1  0.495310  0.367840  0.053540  1.0  1.4814
  P  P39  1  0.974560  0.161140  0.871090  1.0  1.5104
  P  P40  1  0.872530  0.504690  0.053540  1.0  1.4748
  P  P41  1  0.666667  0.333333  0.362900  1.0  1.474
  P  P42  1  0.333333  0.666667  0.137100  1.0  1.4765
  P  P43  1  0.333333  0.666667  0.637100  1.0  1.4765
  P  P44  1  0.666667  0.333333  0.862900  1.0  1.474
  H  H45  1  0.036700  0.806100  0.347200  1.0  0.0879
  H  H46  1  0.829700  0.323800  0.597800  1.0  0.0945
  H  H47  1  0.193900  0.230600  0.347200  1.0  0.09
  H  H48  1  0.676200  0.505900  0.597800  1.0  0.0937
  H  H49  1  0.769400  0.963300  0.347200  1.0  0.0891
  H  H50  1  0.494100  0.170300  0.597800  1.0  0.0953
  H  H51  1  0.806100  0.036700  0.152800  1.0  0.0895
  H  H52  1  0.323800  0.829700  0.902200  1.0  0.0943
  H  H53  1  0.230600  0.193900  0.152800  1.0  0.0884
  H  H54  1  0.505900  0.676200  0.902200  1.0  0.0944
  H  H55  1  0.963300  0.769400  0.152800  1.0  0.0896
  H  H56  1  0.170300  0.494100  0.902200  1.0  0.0929
  H  H57  1  0.963300  0.193900  0.652800  1.0  0.0889
  H  H58  1  0.170300  0.676200  0.402200  1.0  0.0942
  H  H59  1  0.806100  0.769400  0.652800  1.0  0.0897
  H  H60  1  0.323800  0.494100  0.402200  1.0  0.0929
  H  H61  1  0.230600  0.036700  0.652800  1.0  0.0893
  H  H62  1  0.505900  0.829700  0.402200  1.0  0.0942
  H  H63  1  0.193900  0.963300  0.847200  1.0  0.089
  H  H64  1  0.676200  0.170300  0.097800  1.0  0.0956
  H  H65  1  0.769400  0.806100  0.847200  1.0  0.0887
  H  H66  1  0.494100  0.323800  0.097800  1.0  0.0941
  H  H67  1  0.036700  0.230600  0.847200  1.0  0.0898
  H  H68  1  0.829700  0.505900  0.097800  1.0  0.0933
  H  H69  1  0.666667  0.333333  0.308100  1.0  0.1041
  H  H70  1  0.333333  0.666667  0.191900  1.0  0.104
  H  H71  1  0.333333  0.666667  0.691900  1.0  0.104
  H  H72  1  0.666667  0.333333  0.808100  1.0  0.1041
  O  O73  1  0.925500  0.859800  0.311100  1.0  -0.8591
  O  O74  1  0.028500  0.893400  0.438700  1.0  -0.8323
  O  O75  1  0.830300  0.451900  0.536100  1.0  -0.8507
  O  O76  1  0.719800  0.567400  0.491700  1.0  -0.8366
  O  O77  1  0.000500  0.572600  0.426400  1.0  -0.7958
  O  O78  1  0.774900  0.450600  0.382600  1.0  -0.8405
  O  O79  1  0.881100  0.692100  0.392300  1.0  -0.8276
  O  O80  1  0.140200  0.065700  0.311100  1.0  -0.8588
  O  O81  1  0.106600  0.135100  0.438700  1.0  -0.8345
  O  O82  1  0.548100  0.378400  0.536100  1.0  -0.8508
  O  O83  1  0.432600  0.152400  0.491700  1.0  -0.8359
  O  O84  1  0.427400  0.427900  0.426400  1.0  -0.7945
  O  O85  1  0.549400  0.324300  0.382600  1.0  -0.8419
  O  O86  1  0.307900  0.189000  0.392300  1.0  -0.827
  O  O87  1  0.934300  0.074500  0.311100  1.0  -0.859
  O  O88  1  0.864900  0.971500  0.438700  1.0  -0.833
  O  O89  1  0.621600  0.169700  0.536100  1.0  -0.8503
  O  O90  1  0.847600  0.280200  0.491700  1.0  -0.837
  O  O91  1  0.572100  0.999500  0.426400  1.0  -0.7951
  O  O92  1  0.675700  0.225100  0.382600  1.0  -0.8404
  O  O93  1  0.811000  0.118900  0.392300  1.0  -0.8294
  O  O94  1  0.859800  0.925500  0.188900  1.0  -0.8593
  O  O95  1  0.893400  0.028500  0.061300  1.0  -0.8341
  O  O96  1  0.451900  0.830300  0.963900  1.0  -0.852
  O  O97  1  0.567400  0.719800  0.008300  1.0  -0.8375
  O  O98  1  0.572600  0.000500  0.073600  1.0  -0.795
  O  O99  1  0.450600  0.774900  0.117400  1.0  -0.839
  O  O100  1  0.692100  0.881100  0.107700  1.0  -0.8287
  O  O101  1  0.065700  0.140200  0.188900  1.0  -0.8577
  O  O102  1  0.135100  0.106600  0.061300  1.0  -0.8332
  O  O103  1  0.378400  0.548100  0.963900  1.0  -0.8507
  O  O104  1  0.152400  0.432600  0.008300  1.0  -0.8379
  O  O105  1  0.427900  0.427400  0.073600  1.0  -0.7941
  O  O106  1  0.324300  0.549400  0.117400  1.0  -0.8379
  O  O107  1  0.189000  0.307900  0.107700  1.0  -0.8287
  O  O108  1  0.074500  0.934300  0.188900  1.0  -0.8594
  O  O109  1  0.971500  0.864900  0.061300  1.0  -0.835
  O  O110  1  0.169700  0.621600  0.963900  1.0  -0.8523
  O  O111  1  0.280200  0.847600  0.008300  1.0  -0.8376
  O  O112  1  0.999500  0.572100  0.073600  1.0  -0.7944
  O  O113  1  0.225100  0.675700  0.117400  1.0  -0.8407
  O  O114  1  0.118900  0.811000  0.107700  1.0  -0.8271
  O  O115  1  0.074500  0.140200  0.688900  1.0  -0.8571
  O  O116  1  0.971500  0.106600  0.561300  1.0  -0.8331
  O  O117  1  0.169700  0.548100  0.463900  1.0  -0.8512
  O  O118  1  0.280200  0.432600  0.508300  1.0  -0.838
  O  O119  1  0.999500  0.427400  0.573600  1.0  -0.7944
  O  O120  1  0.225100  0.549400  0.617400  1.0  -0.8395
  O  O121  1  0.118900  0.307900  0.607700  1.0  -0.8282
  O  O122  1  0.859800  0.934300  0.688900  1.0  -0.8583
  O  O123  1  0.893400  0.864900  0.561300  1.0  -0.8344
  O  O124  1  0.451900  0.621600  0.463900  1.0  -0.8518
  O  O125  1  0.567400  0.847600  0.508300  1.0  -0.8377
  O  O126  1  0.572600  0.572100  0.573600  1.0  -0.7945
  O  O127  1  0.450600  0.675700  0.617400  1.0  -0.8379
  O  O128  1  0.692100  0.811000  0.607700  1.0  -0.8265
  O  O129  1  0.065700  0.925500  0.688900  1.0  -0.86
  O  O130  1  0.135100  0.028500  0.561300  1.0  -0.8339
  O  O131  1  0.378400  0.830300  0.463900  1.0  -0.8515
  O  O132  1  0.152400  0.719800  0.508300  1.0  -0.8374
  O  O133  1  0.427900  0.000500  0.573600  1.0  -0.7946
  O  O134  1  0.324300  0.774900  0.617400  1.0  -0.8404
  O  O135  1  0.189000  0.881100  0.607700  1.0  -0.8283
  O  O136  1  0.140200  0.074500  0.811100  1.0  -0.8584
  O  O137  1  0.106600  0.971500  0.938700  1.0  -0.833
  O  O138  1  0.548100  0.169700  0.036100  1.0  -0.8502
  O  O139  1  0.432600  0.280200  0.991700  1.0  -0.8368
  O  O140  1  0.427400  0.999500  0.926400  1.0  -0.7951
  O  O141  1  0.549400  0.225100  0.882600  1.0  -0.8416
  O  O142  1  0.307900  0.118900  0.892300  1.0  -0.8286
  O  O143  1  0.934300  0.859800  0.811100  1.0  -0.8586
  O  O144  1  0.864900  0.893400  0.938700  1.0  -0.8327
  O  O145  1  0.621600  0.451900  0.036100  1.0  -0.8511
  O  O146  1  0.847600  0.567400  0.991700  1.0  -0.8366
  O  O147  1  0.572100  0.572600  0.926400  1.0  -0.7954
  O  O148  1  0.675700  0.450600  0.882600  1.0  -0.8412
  O  O149  1  0.811000  0.692100  0.892300  1.0  -0.8274
  O  O150  1  0.925500  0.065700  0.811100  1.0  -0.8583
  O  O151  1  0.028500  0.135100  0.938700  1.0  -0.8341
  O  O152  1  0.830300  0.378400  0.036100  1.0  -0.8501
  O  O153  1  0.719800  0.152400  0.991700  1.0  -0.836
  O  O154  1  0.000500  0.427900  0.926400  1.0  -0.795
  O  O155  1  0.774900  0.324300  0.882600  1.0  -0.8398
  O  O156  1  0.881100  0.189000  0.892300  1.0  -0.8267
