# generated using pymatgen
data_Ga3P3N(O6F)2
_symmetry_space_group_name_H-M   'P 1'
_cell_length_a   8.65030000
_cell_length_b   10.18710000
_cell_length_c   16.92100000
_cell_angle_alpha   90.00000000
_cell_angle_beta   94.68800000
_cell_angle_gamma   90.00000000
_symmetry_Int_Tables_number   1
_chemical_formula_structural   Ga3P3N(O6F)2
_chemical_formula_sum   'Ga12 P12 N4 O48 F8'
_cell_volume   1486.11496547
_cell_formula_units_Z   4
loop_
 _symmetry_equiv_pos_site_id
 _symmetry_equiv_pos_as_xyz
  1  'x, y, z'
loop_
 _atom_site_type_symbol
 _atom_site_label
 _atom_site_symmetry_multiplicity
 _atom_site_fract_x
 _atom_site_fract_y
 _atom_site_fract_z
 _atom_site_occupancy
 _atom_site_charge
  Ga  Ga1  1  0.232110  0.826790  0.798260  1.0  1.6071
  Ga  Ga2  1  0.083620  0.851170  0.597040  1.0  1.6224
  Ga  Ga3  1  0.576160  0.658850  0.768860  1.0  1.7577
  Ga  Ga4  1  0.267890  0.326790  0.701740  1.0  1.6069
  Ga  Ga5  1  0.416380  0.351170  0.902960  1.0  1.626
  Ga  Ga6  1  0.923840  0.158850  0.731140  1.0  1.759
  Ga  Ga7  1  0.767890  0.173210  0.201740  1.0  1.6079
  Ga  Ga8  1  0.916380  0.148830  0.402960  1.0  1.6254
  Ga  Ga9  1  0.423840  0.341150  0.231140  1.0  1.7588
  Ga  Ga10  1  0.732110  0.673210  0.298260  1.0  1.6078
  Ga  Ga11  1  0.583620  0.648830  0.097040  1.0  1.6218
  Ga  Ga12  1  0.076160  0.841150  0.268860  1.0  1.7579
  P  P13  1  0.876280  0.852230  0.741230  1.0  1.9161
  P  P14  1  0.221960  0.124080  0.836320  1.0  1.8679
  P  P15  1  0.405090  0.642380  0.927950  1.0  1.8503
  P  P16  1  0.623720  0.352230  0.758770  1.0  1.9173
  P  P17  1  0.278040  0.624080  0.663680  1.0  1.8661
  P  P18  1  0.094910  0.142380  0.572050  1.0  1.8496
  P  P19  1  0.123720  0.147770  0.258770  1.0  1.9175
  P  P20  1  0.778040  0.875920  0.163680  1.0  1.8658
  P  P21  1  0.594910  0.357620  0.072050  1.0  1.8486
  P  P22  1  0.376280  0.647770  0.241230  1.0  1.916
  P  P23  1  0.721960  0.375920  0.336320  1.0  1.8678
  P  P24  1  0.905090  0.857620  0.427950  1.0  1.8489
  N  N25  1  0.474000  0.797000  0.016000  1.0  -0.289
  N  N26  1  0.026000  0.297000  0.484000  1.0  -0.2898
  N  N27  1  0.526000  0.203000  0.984000  1.0  -0.2876
  N  N28  1  0.974000  0.703000  0.516000  1.0  -0.2876
  O  O29  1  0.269800  0.983800  0.859300  1.0  -0.7463
  O  O30  1  0.267300  0.721400  0.892100  1.0  -0.7667
  O  O31  1  0.010200  0.833500  0.805300  1.0  -0.7368
  O  O32  1  0.204600  0.665100  0.737800  1.0  -0.7409
  O  O33  1  0.919800  0.815700  0.658200  1.0  -0.8124
  O  O34  1  0.348000  0.503600  0.949100  1.0  -0.8005
  O  O35  1  0.276100  0.212700  0.907500  1.0  -0.7745
  O  O36  1  0.469400  0.711700  0.003600  1.0  -0.7449
  O  O37  1  0.748900  0.758200  0.761700  1.0  -0.9359
  O  O38  1  0.534400  0.624300  0.872000  1.0  -0.8448
  O  O39  1  0.043300  0.135200  0.825800  1.0  -0.787
  O  O40  1  0.812700  0.993700  0.739900  1.0  -0.6816
  O  O41  1  0.230200  0.483800  0.640700  1.0  -0.747
  O  O42  1  0.232700  0.221400  0.607900  1.0  -0.7674
  O  O43  1  0.489800  0.333500  0.694700  1.0  -0.7357
  O  O44  1  0.295400  0.165100  0.762200  1.0  -0.7423
  O  O45  1  0.580200  0.315700  0.841800  1.0  -0.8105
  O  O46  1  0.152000  0.003600  0.550900  1.0  -0.8001
  O  O47  1  0.223900  0.712700  0.592500  1.0  -0.7761
  O  O48  1  0.030600  0.211700  0.496400  1.0  -0.745
  O  O49  1  0.751100  0.258200  0.738300  1.0  -0.935
  O  O50  1  0.965600  0.124300  0.628000  1.0  -0.8447
  O  O51  1  0.456700  0.635200  0.674200  1.0  -0.7898
  O  O52  1  0.687300  0.493700  0.760100  1.0  -0.6824
  O  O53  1  0.730200  0.016200  0.140700  1.0  -0.7462
  O  O54  1  0.732700  0.278600  0.107900  1.0  -0.768
  O  O55  1  0.989800  0.166500  0.194700  1.0  -0.736
  O  O56  1  0.795400  0.334900  0.262200  1.0  -0.7417
  O  O57  1  0.080200  0.184300  0.341800  1.0  -0.8103
  O  O58  1  0.652000  0.496400  0.050900  1.0  -0.8001
  O  O59  1  0.723900  0.787300  0.092500  1.0  -0.7788
  O  O60  1  0.530600  0.288300  0.996400  1.0  -0.7469
  O  O61  1  0.251100  0.241800  0.238300  1.0  -0.9346
  O  O62  1  0.465600  0.375700  0.128000  1.0  -0.8444
  O  O63  1  0.956700  0.864800  0.174200  1.0  -0.7893
  O  O64  1  0.187300  0.006300  0.260100  1.0  -0.6831
  O  O65  1  0.769800  0.516200  0.359300  1.0  -0.7456
  O  O66  1  0.767300  0.778600  0.392100  1.0  -0.7665
  O  O67  1  0.510200  0.666500  0.305300  1.0  -0.7367
  O  O68  1  0.704600  0.834900  0.237800  1.0  -0.7404
  O  O69  1  0.419800  0.684300  0.158200  1.0  -0.8122
  O  O70  1  0.848000  0.996400  0.449100  1.0  -0.8002
  O  O71  1  0.776100  0.287300  0.407500  1.0  -0.7757
  O  O72  1  0.969400  0.788300  0.503600  1.0  -0.7475
  O  O73  1  0.248900  0.741800  0.261700  1.0  -0.9355
  O  O74  1  0.034400  0.875700  0.372000  1.0  -0.8442
  O  O75  1  0.543300  0.364800  0.325800  1.0  -0.787
  O  O76  1  0.312700  0.506300  0.239900  1.0  -0.6826
  F  F77  1  0.203800  0.918700  0.696400  1.0  -0.4946
  F  F78  1  0.452800  0.827100  0.779800  1.0  -0.4637
  F  F79  1  0.296200  0.418700  0.803600  1.0  -0.4931
  F  F80  1  0.047200  0.327100  0.720200  1.0  -0.4646
  F  F81  1  0.796200  0.081300  0.303600  1.0  -0.4928
  F  F82  1  0.547200  0.172900  0.220200  1.0  -0.4657
  F  F83  1  0.703800  0.581300  0.196400  1.0  -0.4948
  F  F84  1  0.952800  0.672900  0.279800  1.0  -0.4655
