# generated using pymatgen
data_Ga4P5H2(CO12)2
_symmetry_space_group_name_H-M   'P 1'
_cell_length_a   20.35500000
_cell_length_b   15.64880000
_cell_length_c   9.05170000
_cell_angle_alpha   90.00000000
_cell_angle_beta   105.78100000
_cell_angle_gamma   90.00000000
_symmetry_Int_Tables_number   1
_chemical_formula_structural   Ga4P5H2(CO12)2
_chemical_formula_sum   'Ga16 P20 H8 C8 O96'
_cell_volume   2774.57519641
_cell_formula_units_Z   4
loop_
 _symmetry_equiv_pos_site_id
 _symmetry_equiv_pos_as_xyz
  1  'x, y, z'
loop_
 _atom_site_type_symbol
 _atom_site_label
 _atom_site_symmetry_multiplicity
 _atom_site_fract_x
 _atom_site_fract_y
 _atom_site_fract_z
 _atom_site_occupancy
 _atom_site_charge
  Ga  Ga1  1  0.339680  0.362540  0.167820  1.0  1.481
  Ga  Ga2  1  0.247500  0.117220  0.433870  1.0  1.7555
  Ga  Ga3  1  0.839680  0.862540  0.167820  1.0  1.481
  Ga  Ga4  1  0.747500  0.617220  0.433870  1.0  1.7555
  Ga  Ga5  1  0.660320  0.362540  0.332180  1.0  1.4851
  Ga  Ga6  1  0.752500  0.117220  0.066130  1.0  1.7553
  Ga  Ga7  1  0.160320  0.862540  0.332180  1.0  1.4851
  Ga  Ga8  1  0.252500  0.617220  0.066130  1.0  1.7553
  Ga  Ga9  1  0.660320  0.637460  0.832180  1.0  1.4864
  Ga  Ga10  1  0.752500  0.882780  0.566130  1.0  1.7558
  Ga  Ga11  1  0.160320  0.137460  0.832180  1.0  1.4864
  Ga  Ga12  1  0.252500  0.382780  0.566130  1.0  1.7558
  Ga  Ga13  1  0.339680  0.637460  0.667820  1.0  1.4828
  Ga  Ga14  1  0.247500  0.882780  0.933870  1.0  1.756
  Ga  Ga15  1  0.839680  0.137460  0.667820  1.0  1.4828
  Ga  Ga16  1  0.747500  0.382780  0.933870  1.0  1.756
  P  P17  1  0.292870  0.519850  0.365910  1.0  1.8543
  P  P18  1  0.356140  0.262630  0.495040  1.0  1.9642
  P  P19  1  0.792870  0.019850  0.365910  1.0  1.8543
  P  P20  1  0.856140  0.762630  0.495040  1.0  1.9642
  P  P21  1  0.707130  0.519850  0.134090  1.0  1.8581
  P  P22  1  0.643860  0.262630  0.004960  1.0  1.958
  P  P23  1  0.207130  0.019850  0.134090  1.0  1.8581
  P  P24  1  0.143860  0.762630  0.004960  1.0  1.958
  P  P25  1  0.707130  0.480150  0.634090  1.0  1.8584
  P  P26  1  0.643860  0.737370  0.504960  1.0  1.9581
  P  P27  1  0.207130  0.980150  0.634090  1.0  1.8584
  P  P28  1  0.143860  0.237370  0.504960  1.0  1.9581
  P  P29  1  0.292870  0.480150  0.865910  1.0  1.8593
  P  P30  1  0.356140  0.737370  0.995040  1.0  1.9645
  P  P31  1  0.792870  0.980150  0.865910  1.0  1.8593
  P  P32  1  0.856140  0.237370  0.995040  1.0  1.9645
  P  P33  1  0.500000  0.305190  0.250000  1.0  1.9955
  P  P34  1  0.000000  0.805190  0.250000  1.0  1.9955
  P  P35  1  0.500000  0.694810  0.750000  1.0  1.9953
  P  P36  1  0.000000  0.194810  0.750000  1.0  1.9953
  H  H37  1  0.356000  0.434000  0.241000  1.0  0.2457
  H  H38  1  0.856000  0.934000  0.241000  1.0  0.2457
  H  H39  1  0.644000  0.434000  0.259000  1.0  0.2491
  H  H40  1  0.144000  0.934000  0.259000  1.0  0.2491
  H  H41  1  0.644000  0.566000  0.759000  1.0  0.2471
  H  H42  1  0.144000  0.066000  0.759000  1.0  0.2471
  H  H43  1  0.356000  0.566000  0.741000  1.0  0.2443
  H  H44  1  0.856000  0.066000  0.741000  1.0  0.2443
  C  C45  1  0.220600  0.276600  0.013700  1.0  0.6477
  C  C46  1  0.720600  0.776600  0.013700  1.0  0.6477
  C  C47  1  0.779400  0.276600  0.486300  1.0  0.6491
  C  C48  1  0.279400  0.776600  0.486300  1.0  0.6491
  C  C49  1  0.779400  0.723400  0.986300  1.0  0.6487
  C  C50  1  0.279400  0.223400  0.986300  1.0  0.6487
  C  C51  1  0.220600  0.723400  0.513700  1.0  0.6481
  C  C52  1  0.720600  0.223400  0.513700  1.0  0.6481
  O  O53  1  0.332700  0.463400  0.285100  1.0  -0.7046
  O  O54  1  0.437620  0.360900  0.229700  1.0  -0.8159
  O  O55  1  0.343130  0.568800  0.492500  1.0  -0.8392
  O  O56  1  0.331890  0.283800  0.327200  1.0  -0.8785
  O  O57  1  0.236460  0.346100  0.084800  1.0  -0.5257
  O  O58  1  0.162080  0.247400  0.962100  1.0  -0.5212
  O  O59  1  0.322400  0.178800  0.525100  1.0  -0.8955
  O  O60  1  0.246720  0.582700  0.252300  1.0  -0.8709
  O  O61  1  0.241840  0.469400  0.430200  1.0  -0.8432
  O  O62  1  0.335120  0.332300  0.593000  1.0  -0.8517
  O  O63  1  0.432440  0.251800  0.554900  1.0  -0.6092
  O  O64  1  0.493000  0.246500  0.111900  1.0  -0.5971
  O  O65  1  0.832700  0.963400  0.285100  1.0  -0.7046
  O  O66  1  0.937620  0.860900  0.229700  1.0  -0.8159
  O  O67  1  0.843130  0.068800  0.492500  1.0  -0.8392
  O  O68  1  0.831890  0.783800  0.327200  1.0  -0.8785
  O  O69  1  0.736460  0.846100  0.084800  1.0  -0.5257
  O  O70  1  0.662080  0.747400  0.962100  1.0  -0.5212
  O  O71  1  0.822400  0.678800  0.525100  1.0  -0.8955
  O  O72  1  0.746720  0.082700  0.252300  1.0  -0.8709
  O  O73  1  0.741840  0.969400  0.430200  1.0  -0.8432
  O  O74  1  0.835120  0.832300  0.593000  1.0  -0.8517
  O  O75  1  0.932440  0.751800  0.554900  1.0  -0.6092
  O  O76  1  0.993000  0.746500  0.111900  1.0  -0.5971
  O  O77  1  0.667300  0.463400  0.214900  1.0  -0.7052
  O  O78  1  0.562380  0.360900  0.270300  1.0  -0.8152
  O  O79  1  0.656870  0.568800  0.007500  1.0  -0.8383
  O  O80  1  0.668110  0.283800  0.172800  1.0  -0.8781
  O  O81  1  0.763540  0.346100  0.415200  1.0  -0.5276
  O  O82  1  0.837920  0.247400  0.537900  1.0  -0.5223
  O  O83  1  0.677600  0.178800  0.974900  1.0  -0.8951
  O  O84  1  0.753280  0.582700  0.247700  1.0  -0.871
  O  O85  1  0.758160  0.469400  0.069800  1.0  -0.8412
  O  O86  1  0.664880  0.332300  0.907000  1.0  -0.8519
  O  O87  1  0.567560  0.251800  0.945100  1.0  -0.6076
  O  O88  1  0.507000  0.246500  0.388100  1.0  -0.5978
  O  O89  1  0.167300  0.963400  0.214900  1.0  -0.7052
  O  O90  1  0.062380  0.860900  0.270300  1.0  -0.8152
  O  O91  1  0.156870  0.068800  0.007500  1.0  -0.8383
  O  O92  1  0.168110  0.783800  0.172800  1.0  -0.8781
  O  O93  1  0.263540  0.846100  0.415200  1.0  -0.5276
  O  O94  1  0.337920  0.747400  0.537900  1.0  -0.5223
  O  O95  1  0.177600  0.678800  0.974900  1.0  -0.8951
  O  O96  1  0.253280  0.082700  0.247700  1.0  -0.871
  O  O97  1  0.258160  0.969400  0.069800  1.0  -0.8412
  O  O98  1  0.164880  0.832300  0.907000  1.0  -0.8519
  O  O99  1  0.067560  0.751800  0.945100  1.0  -0.6076
  O  O100  1  0.007000  0.746500  0.388100  1.0  -0.5978
  O  O101  1  0.667300  0.536600  0.714900  1.0  -0.7016
  O  O102  1  0.562380  0.639100  0.770300  1.0  -0.8136
  O  O103  1  0.656870  0.431200  0.507500  1.0  -0.8384
  O  O104  1  0.668110  0.716200  0.672800  1.0  -0.8785
  O  O105  1  0.763540  0.653900  0.915200  1.0  -0.5286
  O  O106  1  0.837920  0.752600  0.037900  1.0  -0.5227
  O  O107  1  0.677600  0.821200  0.474900  1.0  -0.8973
  O  O108  1  0.753280  0.417300  0.747700  1.0  -0.8716
  O  O109  1  0.758160  0.530600  0.569800  1.0  -0.8416
  O  O110  1  0.664880  0.667700  0.407000  1.0  -0.8519
  O  O111  1  0.567560  0.748200  0.445100  1.0  -0.607
  O  O112  1  0.507000  0.753500  0.888100  1.0  -0.5969
  O  O113  1  0.167300  0.036600  0.714900  1.0  -0.7016
  O  O114  1  0.062380  0.139100  0.770300  1.0  -0.8136
  O  O115  1  0.156870  0.931200  0.507500  1.0  -0.8384
  O  O116  1  0.168110  0.216200  0.672800  1.0  -0.8785
  O  O117  1  0.263540  0.153900  0.915200  1.0  -0.5286
  O  O118  1  0.337920  0.252600  0.037900  1.0  -0.5227
  O  O119  1  0.177600  0.321200  0.474900  1.0  -0.8973
  O  O120  1  0.253280  0.917300  0.747700  1.0  -0.8716
  O  O121  1  0.258160  0.030600  0.569800  1.0  -0.8416
  O  O122  1  0.164880  0.167700  0.407000  1.0  -0.8519
  O  O123  1  0.067560  0.248200  0.445100  1.0  -0.607
  O  O124  1  0.007000  0.253500  0.888100  1.0  -0.5969
  O  O125  1  0.332700  0.536600  0.785100  1.0  -0.7012
  O  O126  1  0.437620  0.639100  0.729700  1.0  -0.814
  O  O127  1  0.343130  0.431200  0.992500  1.0  -0.8398
  O  O128  1  0.331890  0.716200  0.827200  1.0  -0.8784
  O  O129  1  0.236460  0.653900  0.584800  1.0  -0.5254
  O  O130  1  0.162080  0.752600  0.462100  1.0  -0.5219
  O  O131  1  0.322400  0.821200  0.025100  1.0  -0.8977
  O  O132  1  0.246720  0.417300  0.752300  1.0  -0.8708
  O  O133  1  0.241840  0.530600  0.930200  1.0  -0.8416
  O  O134  1  0.335120  0.667700  0.093000  1.0  -0.8521
  O  O135  1  0.432440  0.748200  0.054900  1.0  -0.6088
  O  O136  1  0.493000  0.753500  0.611900  1.0  -0.5983
  O  O137  1  0.832700  0.036600  0.785100  1.0  -0.7012
  O  O138  1  0.937620  0.139100  0.729700  1.0  -0.814
  O  O139  1  0.843130  0.931200  0.992500  1.0  -0.8398
  O  O140  1  0.831890  0.216200  0.827200  1.0  -0.8784
  O  O141  1  0.736460  0.153900  0.584800  1.0  -0.5254
  O  O142  1  0.662080  0.252600  0.462100  1.0  -0.5219
  O  O143  1  0.822400  0.321200  0.025100  1.0  -0.8977
  O  O144  1  0.746720  0.917300  0.752300  1.0  -0.8708
  O  O145  1  0.741840  0.030600  0.930200  1.0  -0.8416
  O  O146  1  0.835120  0.167700  0.093000  1.0  -0.8521
  O  O147  1  0.932440  0.248200  0.054900  1.0  -0.6088
  O  O148  1  0.993000  0.253500  0.611900  1.0  -0.5983
