# generated using pymatgen
data_V7P8(HO18)2
_symmetry_space_group_name_H-M   'P 1'
_cell_length_a   20.69500000
_cell_length_b   9.95950000
_cell_length_c   23.71500000
_cell_angle_alpha   90.00000000
_cell_angle_beta   101.00000000
_cell_angle_gamma   90.00000000
_symmetry_Int_Tables_number   1
_chemical_formula_structural   V7P8(HO18)2
_chemical_formula_sum   'V28 P32 H8 O144'
_cell_volume   4798.13730966
_cell_formula_units_Z   4
loop_
 _symmetry_equiv_pos_site_id
 _symmetry_equiv_pos_as_xyz
  1  'x, y, z'
loop_
 _atom_site_type_symbol
 _atom_site_label
 _atom_site_symmetry_multiplicity
 _atom_site_fract_x
 _atom_site_fract_y
 _atom_site_fract_z
 _atom_site_occupancy
 _atom_site_charge
  V  V1  1  0.439900  0.577630  0.564180  1.0  1.3552
  V  V2  1  0.278760  0.408270  0.722340  1.0  1.2795
  V  V3  1  0.326220  0.903730  0.672840  1.0  1.3355
  V  V4  1  0.939900  0.077630  0.564180  1.0  1.3552
  V  V5  1  0.778760  0.908270  0.722340  1.0  1.2795
  V  V6  1  0.826220  0.403730  0.672840  1.0  1.3355
  V  V7  1  0.560100  0.577630  0.935820  1.0  1.3556
  V  V8  1  0.721240  0.408270  0.777660  1.0  1.2785
  V  V9  1  0.673780  0.903730  0.827160  1.0  1.3351
  V  V10  1  0.060100  0.077630  0.935820  1.0  1.3556
  V  V11  1  0.221240  0.908270  0.777660  1.0  1.2785
  V  V12  1  0.173780  0.403730  0.827160  1.0  1.3351
  V  V13  1  0.560100  0.422370  0.435820  1.0  1.3561
  V  V14  1  0.721240  0.591730  0.277660  1.0  1.278
  V  V15  1  0.673780  0.096270  0.327160  1.0  1.3355
  V  V16  1  0.060100  0.922370  0.435820  1.0  1.3561
  V  V17  1  0.221240  0.091730  0.277660  1.0  1.278
  V  V18  1  0.173780  0.596270  0.327160  1.0  1.3355
  V  V19  1  0.439900  0.422370  0.064180  1.0  1.3554
  V  V20  1  0.278760  0.591730  0.222340  1.0  1.2789
  V  V21  1  0.326220  0.096270  0.172840  1.0  1.3359
  V  V22  1  0.939900  0.922370  0.064180  1.0  1.3554
  V  V23  1  0.778760  0.091730  0.222340  1.0  1.2789
  V  V24  1  0.826220  0.596270  0.172840  1.0  1.3359
  V  V25  1  0.250000  0.750000  0.500000  1.0  1.7359
  V  V26  1  0.750000  0.750000  0.000000  1.0  1.7359
  V  V27  1  0.750000  0.250000  0.500000  1.0  1.7356
  V  V28  1  0.250000  0.250000  0.000000  1.0  1.7357
  P  P29  1  0.441880  0.314740  0.495440  1.0  1.6888
  P  P30  1  0.393940  0.871180  0.560650  1.0  1.8153
  P  P31  1  0.285520  0.623120  0.825180  1.0  1.7457
  P  P32  1  0.310300  0.615830  0.623690  1.0  1.8517
  P  P33  1  0.941880  0.814740  0.495440  1.0  1.6888
  P  P34  1  0.893940  0.371180  0.560650  1.0  1.8153
  P  P35  1  0.785520  0.123120  0.825180  1.0  1.7457
  P  P36  1  0.810300  0.115830  0.623690  1.0  1.8517
  P  P37  1  0.558120  0.314740  0.004560  1.0  1.6886
  P  P38  1  0.606060  0.871180  0.939350  1.0  1.8151
  P  P39  1  0.714480  0.623120  0.674820  1.0  1.7458
  P  P40  1  0.689700  0.615830  0.876310  1.0  1.8524
  P  P41  1  0.058120  0.814740  0.004560  1.0  1.6886
  P  P42  1  0.106060  0.371180  0.939350  1.0  1.8151
  P  P43  1  0.214480  0.123120  0.674820  1.0  1.7458
  P  P44  1  0.189700  0.115830  0.876310  1.0  1.8524
  P  P45  1  0.558120  0.685260  0.504560  1.0  1.6886
  P  P46  1  0.606060  0.128820  0.439350  1.0  1.8145
  P  P47  1  0.714480  0.376880  0.174820  1.0  1.7461
  P  P48  1  0.689700  0.384170  0.376310  1.0  1.854
  P  P49  1  0.058120  0.185260  0.504560  1.0  1.6886
  P  P50  1  0.106060  0.628820  0.439350  1.0  1.8145
  P  P51  1  0.214480  0.876880  0.174820  1.0  1.7461
  P  P52  1  0.189700  0.884170  0.376310  1.0  1.854
  P  P53  1  0.441880  0.685260  0.995440  1.0  1.6891
  P  P54  1  0.393940  0.128820  0.060650  1.0  1.8151
  P  P55  1  0.285520  0.376880  0.325180  1.0  1.7461
  P  P56  1  0.310300  0.384170  0.123690  1.0  1.8525
  P  P57  1  0.941880  0.185260  0.995440  1.0  1.6891
  P  P58  1  0.893940  0.628820  0.060650  1.0  1.8151
  P  P59  1  0.785520  0.876880  0.325180  1.0  1.7461
  P  P60  1  0.810300  0.884170  0.123690  1.0  1.8525
  H  H61  1  0.183700  0.946600  0.511500  1.0  0.4217
  H  H62  1  0.683700  0.446600  0.511500  1.0  0.4217
  H  H63  1  0.816300  0.946600  0.988500  1.0  0.4197
  H  H64  1  0.316300  0.446600  0.988500  1.0  0.4197
  H  H65  1  0.816300  0.053400  0.488500  1.0  0.4208
  H  H66  1  0.316300  0.553400  0.488500  1.0  0.4208
  H  H67  1  0.183700  0.053400  0.011500  1.0  0.4229
  H  H68  1  0.683700  0.553400  0.011500  1.0  0.4229
  O  O69  1  0.405110  0.445400  0.502990  1.0  -0.7337
  O  O70  1  0.407450  0.252700  0.435850  1.0  -0.5018
  O  O71  1  0.432840  0.214700  0.541370  1.0  -0.5512
  O  O72  1  0.514360  0.341330  0.495470  1.0  -0.7175
  O  O73  1  0.344850  0.813100  0.509560  1.0  -0.7356
  O  O74  1  0.436380  0.760300  0.592000  1.0  -0.7449
  O  O75  1  0.439610  0.966400  0.533670  1.0  -0.5466
  O  O76  1  0.359630  0.950150  0.601390  1.0  -0.7524
  O  O77  1  0.275900  0.582310  0.761280  1.0  -0.7293
  O  O78  1  0.355180  0.588340  0.856140  1.0  -0.5148
  O  O79  1  0.235410  0.550400  0.855110  1.0  -0.7229
  O  O80  1  0.274200  0.775080  0.828740  1.0  -0.717
  O  O81  1  0.268880  0.512810  0.649690  1.0  -0.7395
  O  O82  1  0.348690  0.708250  0.670400  1.0  -0.6978
  O  O83  1  0.261340  0.702900  0.582760  1.0  -0.7661
  O  O84  1  0.357190  0.538240  0.592980  1.0  -0.741
  O  O85  1  0.242010  0.333380  0.786640  1.0  -0.7528
  O  O86  1  0.222800  0.934200  0.524630  1.0  -0.7025
  O  O87  1  0.905110  0.945400  0.502990  1.0  -0.7337
  O  O88  1  0.907450  0.752700  0.435850  1.0  -0.5018
  O  O89  1  0.932840  0.714700  0.541370  1.0  -0.5512
  O  O90  1  0.014360  0.841330  0.495470  1.0  -0.7175
  O  O91  1  0.844850  0.313100  0.509560  1.0  -0.7356
  O  O92  1  0.936380  0.260300  0.592000  1.0  -0.7449
  O  O93  1  0.939610  0.466400  0.533670  1.0  -0.5466
  O  O94  1  0.859630  0.450150  0.601390  1.0  -0.7524
  O  O95  1  0.775900  0.082310  0.761280  1.0  -0.7293
  O  O96  1  0.855180  0.088340  0.856140  1.0  -0.5148
  O  O97  1  0.735410  0.050400  0.855110  1.0  -0.7229
  O  O98  1  0.774200  0.275080  0.828740  1.0  -0.717
  O  O99  1  0.768880  0.012810  0.649690  1.0  -0.7395
  O  O100  1  0.848690  0.208250  0.670400  1.0  -0.6978
  O  O101  1  0.761340  0.202900  0.582760  1.0  -0.7661
  O  O102  1  0.857190  0.038240  0.592980  1.0  -0.741
  O  O103  1  0.742010  0.833380  0.786640  1.0  -0.7528
  O  O104  1  0.722800  0.434200  0.524630  1.0  -0.7025
  O  O105  1  0.594890  0.445400  0.997010  1.0  -0.7332
  O  O106  1  0.592550  0.252700  0.064150  1.0  -0.5005
  O  O107  1  0.567160  0.214700  0.958630  1.0  -0.5489
  O  O108  1  0.485640  0.341330  0.004530  1.0  -0.716
  O  O109  1  0.655150  0.813100  0.990440  1.0  -0.7376
  O  O110  1  0.563620  0.760300  0.908000  1.0  -0.7433
  O  O111  1  0.560390  0.966400  0.966330  1.0  -0.5467
  O  O112  1  0.640370  0.950150  0.898610  1.0  -0.7536
  O  O113  1  0.724100  0.582310  0.738720  1.0  -0.7289
  O  O114  1  0.644820  0.588340  0.643860  1.0  -0.5124
  O  O115  1  0.764590  0.550400  0.644890  1.0  -0.7231
  O  O116  1  0.725800  0.775080  0.671260  1.0  -0.7172
  O  O117  1  0.731120  0.512810  0.850310  1.0  -0.7395
  O  O118  1  0.651310  0.708250  0.829600  1.0  -0.6981
  O  O119  1  0.738660  0.702900  0.917240  1.0  -0.7653
  O  O120  1  0.642810  0.538240  0.907020  1.0  -0.7396
  O  O121  1  0.757990  0.333380  0.713360  1.0  -0.75
  O  O122  1  0.777200  0.934200  0.975370  1.0  -0.7021
  O  O123  1  0.094890  0.945400  0.997010  1.0  -0.7332
  O  O124  1  0.092550  0.752700  0.064150  1.0  -0.5005
  O  O125  1  0.067160  0.714700  0.958630  1.0  -0.5489
  O  O126  1  0.985640  0.841330  0.004530  1.0  -0.716
  O  O127  1  0.155150  0.313100  0.990440  1.0  -0.7376
  O  O128  1  0.063620  0.260300  0.908000  1.0  -0.7433
  O  O129  1  0.060390  0.466400  0.966330  1.0  -0.5467
  O  O130  1  0.140370  0.450150  0.898610  1.0  -0.7536
  O  O131  1  0.224100  0.082310  0.738720  1.0  -0.7289
  O  O132  1  0.144820  0.088340  0.643860  1.0  -0.5124
  O  O133  1  0.264590  0.050400  0.644890  1.0  -0.7231
  O  O134  1  0.225800  0.275080  0.671260  1.0  -0.7172
  O  O135  1  0.231120  0.012810  0.850310  1.0  -0.7395
  O  O136  1  0.151310  0.208250  0.829600  1.0  -0.6981
  O  O137  1  0.238660  0.202900  0.917240  1.0  -0.7653
  O  O138  1  0.142810  0.038240  0.907020  1.0  -0.7396
  O  O139  1  0.257990  0.833380  0.713360  1.0  -0.75
  O  O140  1  0.277200  0.434200  0.975370  1.0  -0.7021
  O  O141  1  0.594890  0.554600  0.497010  1.0  -0.7342
  O  O142  1  0.592550  0.747300  0.564150  1.0  -0.5001
  O  O143  1  0.567160  0.785300  0.458630  1.0  -0.5483
  O  O144  1  0.485640  0.658670  0.504530  1.0  -0.716
  O  O145  1  0.655150  0.186900  0.490440  1.0  -0.737
  O  O146  1  0.563620  0.239700  0.408000  1.0  -0.7427
  O  O147  1  0.560390  0.033600  0.466330  1.0  -0.5463
  O  O148  1  0.640370  0.049850  0.398610  1.0  -0.7518
  O  O149  1  0.724100  0.417690  0.238720  1.0  -0.7291
  O  O150  1  0.644820  0.411660  0.143860  1.0  -0.5114
  O  O151  1  0.764590  0.449600  0.144890  1.0  -0.723
  O  O152  1  0.725800  0.224920  0.171260  1.0  -0.717
  O  O153  1  0.731120  0.487190  0.350310  1.0  -0.7385
  O  O154  1  0.651310  0.291750  0.329600  1.0  -0.6986
  O  O155  1  0.738660  0.297100  0.417240  1.0  -0.7657
  O  O156  1  0.642810  0.461760  0.407020  1.0  -0.7423
  O  O157  1  0.757990  0.666667  0.213360  1.0  -0.7519
  O  O158  1  0.777200  0.065800  0.475370  1.0  -0.7029
  O  O159  1  0.094890  0.054600  0.497010  1.0  -0.7342
  O  O160  1  0.092550  0.247300  0.564150  1.0  -0.5001
  O  O161  1  0.067160  0.285300  0.458630  1.0  -0.5483
  O  O162  1  0.985640  0.158670  0.504530  1.0  -0.716
  O  O163  1  0.155150  0.686900  0.490440  1.0  -0.737
  O  O164  1  0.063620  0.739700  0.408000  1.0  -0.7427
  O  O165  1  0.060390  0.533600  0.466330  1.0  -0.5463
  O  O166  1  0.140370  0.549850  0.398610  1.0  -0.7518
  O  O167  1  0.224100  0.917690  0.238720  1.0  -0.7294
  O  O168  1  0.144820  0.911660  0.143860  1.0  -0.5114
  O  O169  1  0.264590  0.949600  0.144890  1.0  -0.723
  O  O170  1  0.225800  0.724920  0.171260  1.0  -0.717
  O  O171  1  0.231120  0.987190  0.350310  1.0  -0.7385
  O  O172  1  0.151310  0.791750  0.329600  1.0  -0.6986
  O  O173  1  0.238660  0.797100  0.417240  1.0  -0.7657
  O  O174  1  0.142810  0.961760  0.407020  1.0  -0.7423
  O  O175  1  0.257990  0.166620  0.213360  1.0  -0.7519
  O  O176  1  0.277200  0.565800  0.475370  1.0  -0.7029
  O  O177  1  0.405110  0.554600  0.002990  1.0  -0.7344
  O  O178  1  0.407450  0.747300  0.935850  1.0  -0.5025
  O  O179  1  0.432840  0.785300  0.041370  1.0  -0.5502
  O  O180  1  0.514360  0.658670  0.995470  1.0  -0.718
  O  O181  1  0.344850  0.186900  0.009560  1.0  -0.736
  O  O182  1  0.436380  0.239700  0.092000  1.0  -0.7437
  O  O183  1  0.439610  0.033600  0.033670  1.0  -0.5462
  O  O184  1  0.359630  0.049850  0.101390  1.0  -0.7523
  O  O185  1  0.275900  0.417690  0.261280  1.0  -0.7293
  O  O186  1  0.355180  0.411660  0.356140  1.0  -0.5142
  O  O187  1  0.235410  0.449600  0.355110  1.0  -0.7226
  O  O188  1  0.274200  0.224920  0.328740  1.0  -0.7169
  O  O189  1  0.268880  0.487190  0.149690  1.0  -0.7399
  O  O190  1  0.348690  0.291750  0.170400  1.0  -0.6982
  O  O191  1  0.261340  0.297100  0.082760  1.0  -0.7661
  O  O192  1  0.357190  0.461760  0.092980  1.0  -0.7419
  O  O193  1  0.242010  0.666667  0.286640  1.0  -0.7506
  O  O194  1  0.222800  0.065800  0.024630  1.0  -0.7018
  O  O195  1  0.905110  0.054600  0.002990  1.0  -0.7344
  O  O196  1  0.907450  0.247300  0.935850  1.0  -0.5025
  O  O197  1  0.932840  0.285300  0.041370  1.0  -0.5502
  O  O198  1  0.014360  0.158670  0.995470  1.0  -0.718
  O  O199  1  0.844850  0.686900  0.009560  1.0  -0.736
  O  O200  1  0.936380  0.739700  0.092000  1.0  -0.7437
  O  O201  1  0.939610  0.533600  0.033670  1.0  -0.5462
  O  O202  1  0.859630  0.549850  0.101390  1.0  -0.7523
  O  O203  1  0.775900  0.917690  0.261280  1.0  -0.7296
  O  O204  1  0.855180  0.911660  0.356140  1.0  -0.5142
  O  O205  1  0.735410  0.949600  0.355110  1.0  -0.7227
  O  O206  1  0.774200  0.724920  0.328740  1.0  -0.7169
  O  O207  1  0.768880  0.987190  0.149690  1.0  -0.7399
  O  O208  1  0.848690  0.791750  0.170400  1.0  -0.6982
  O  O209  1  0.761340  0.797100  0.082760  1.0  -0.7661
  O  O210  1  0.857190  0.961760  0.092980  1.0  -0.7419
  O  O211  1  0.742010  0.166620  0.286640  1.0  -0.7506
  O  O212  1  0.722800  0.565800  0.024630  1.0  -0.7018
