# generated using pymatgen
data_Zn3H12(C11O5)2
_symmetry_space_group_name_H-M   'P 1'
_cell_length_a   10.86100000
_cell_length_b   6.39140000
_cell_length_c   17.00300000
_cell_angle_alpha   90.00000000
_cell_angle_beta   105.82800000
_cell_angle_gamma   90.00000000
_symmetry_Int_Tables_number   1
_chemical_formula_structural   Zn3H12(C11O5)2
_chemical_formula_sum   'Zn6 H24 C44 O20'
_cell_volume   1135.54598996
_cell_formula_units_Z   2
loop_
 _symmetry_equiv_pos_site_id
 _symmetry_equiv_pos_as_xyz
  1  'x, y, z'
loop_
 _atom_site_type_symbol
 _atom_site_label
 _atom_site_symmetry_multiplicity
 _atom_site_fract_x
 _atom_site_fract_y
 _atom_site_fract_z
 _atom_site_occupancy
 _atom_site_charge
  Zn  Zn1  1  0.469150  0.998080  0.084380  1.0  1.0664
  Zn  Zn2  1  0.530850  0.498080  0.415620  1.0  1.0688
  Zn  Zn3  1  0.530850  0.001920  0.915620  1.0  1.0688
  Zn  Zn4  1  0.469150  0.501920  0.584380  1.0  1.0661
  Zn  Zn5  1  0.500000  0.500000  0.000000  1.0  1.0446
  Zn  Zn6  1  0.500000  0.000000  0.500000  1.0  1.0446
  H  H7  1  0.646900  0.809400  0.044600  1.0  0.4388
  H  H8  1  0.853900  0.618000  0.065000  1.0  0.1028
  H  H9  1  0.949400  0.030900  0.087600  1.0  0.1146
  H  H10  1  0.025300  0.261300  0.194600  1.0  0.1032
  H  H11  1  0.196600  0.170900  0.302400  1.0  0.1052
  H  H12  1  0.211900  0.612000  0.199600  1.0  0.1172
  H  H13  1  0.353100  0.309400  0.455400  1.0  0.4386
  H  H14  1  0.146100  0.118000  0.435000  1.0  0.1025
  H  H15  1  0.050600  0.530900  0.412400  1.0  0.114
  H  H16  1  0.974700  0.761300  0.305400  1.0  0.1031
  H  H17  1  0.803400  0.670900  0.197600  1.0  0.1053
  H  H18  1  0.788100  0.112000  0.300400  1.0  0.1173
  H  H19  1  0.353100  0.190600  0.955400  1.0  0.4386
  H  H20  1  0.146100  0.382000  0.935000  1.0  0.1027
  H  H21  1  0.050600  0.969100  0.912400  1.0  0.1143
  H  H22  1  0.974700  0.738700  0.805400  1.0  0.1034
  H  H23  1  0.803400  0.829100  0.697600  1.0  0.1051
  H  H24  1  0.788100  0.388000  0.800400  1.0  0.1177
  H  H25  1  0.646900  0.690600  0.544600  1.0  0.4389
  H  H26  1  0.853900  0.882000  0.565000  1.0  0.103
  H  H27  1  0.949400  0.469100  0.587600  1.0  0.1144
  H  H28  1  0.025300  0.238700  0.694600  1.0  0.1033
  H  H29  1  0.196600  0.329100  0.802400  1.0  0.1055
  H  H30  1  0.211900  0.888000  0.699600  1.0  0.1173
  C  C31  1  0.256600  0.670100  0.036000  1.0  0.6911
  C  C32  1  0.123500  0.583700  0.019900  1.0  -0.1028
  C  C33  1  0.036400  0.652700  0.062000  1.0  0.0367
  C  C34  1  0.913600  0.568900  0.039200  1.0  -0.0867
  C  C35  1  0.076100  0.802300  0.131100  1.0  0.0107
  C  C36  1  0.018700  0.993600  0.131000  1.0  -0.1078
  C  C37  1  0.063700  0.131000  0.195300  1.0  -0.0964
  C  C38  1  0.165500  0.075600  0.260400  1.0  -0.0238
  C  C39  1  0.222000  0.880400  0.264100  1.0  -0.1993
  C  C40  1  0.175600  0.744200  0.198400  1.0  -0.0651
  C  C41  1  0.330600  0.815400  0.335300  1.0  0.6882
  C  C42  1  0.743400  0.170100  0.464000  1.0  0.6903
  C  C43  1  0.876500  0.083700  0.480100  1.0  -0.1035
  C  C44  1  0.963600  0.152700  0.438000  1.0  0.0355
  C  C45  1  0.086400  0.068900  0.460800  1.0  -0.0863
  C  C46  1  0.923900  0.302300  0.368900  1.0  0.0103
  C  C47  1  0.981300  0.493600  0.369000  1.0  -0.1072
  C  C48  1  0.936300  0.631000  0.304700  1.0  -0.0954
  C  C49  1  0.834500  0.575600  0.239600  1.0  -0.0234
  C  C50  1  0.778000  0.380400  0.235900  1.0  -0.1984
  C  C51  1  0.824400  0.244200  0.301600  1.0  -0.0649
  C  C52  1  0.669400  0.315400  0.164700  1.0  0.6875
  C  C53  1  0.743400  0.329900  0.964000  1.0  0.6902
  C  C54  1  0.876500  0.416300  0.980100  1.0  -0.1033
  C  C55  1  0.963600  0.347300  0.938000  1.0  0.0353
  C  C56  1  0.086400  0.431100  0.960800  1.0  -0.0865
  C  C57  1  0.923900  0.197700  0.868900  1.0  0.0103
  C  C58  1  0.981300  0.006400  0.869000  1.0  -0.1066
  C  C59  1  0.936300  0.869000  0.804700  1.0  -0.0962
  C  C60  1  0.834500  0.924400  0.739600  1.0  -0.023
  C  C61  1  0.778000  0.119600  0.735900  1.0  -0.1983
  C  C62  1  0.824400  0.255800  0.801600  1.0  -0.0652
  C  C63  1  0.669400  0.184600  0.664700  1.0  0.6883
  C  C64  1  0.256600  0.829900  0.536000  1.0  0.691
  C  C65  1  0.123500  0.916300  0.519900  1.0  -0.1023
  C  C66  1  0.036400  0.847300  0.562000  1.0  0.0365
  C  C67  1  0.913600  0.931100  0.539200  1.0  -0.087
  C  C68  1  0.076100  0.697700  0.631100  1.0  0.0106
  C  C69  1  0.018700  0.506400  0.631000  1.0  -0.1071
  C  C70  1  0.063700  0.369000  0.695300  1.0  -0.097
  C  C71  1  0.165500  0.424400  0.760400  1.0  -0.0231
  C  C72  1  0.222000  0.619600  0.764100  1.0  -0.1993
  C  C73  1  0.175600  0.755800  0.698400  1.0  -0.0657
  C  C74  1  0.330600  0.684600  0.835300  1.0  0.6886
  O  O75  1  0.344500  0.532300  0.049900  1.0  -0.6048
  O  O76  1  0.276000  0.860800  0.034600  1.0  -0.5658
  O  O77  1  0.359700  0.627900  0.344600  1.0  -0.5864
  O  O78  1  0.382500  0.960700  0.380800  1.0  -0.5894
  O  O79  1  0.555100  0.809400  0.016700  1.0  -0.9684
  O  O80  1  0.655500  0.032300  0.450100  1.0  -0.6066
  O  O81  1  0.724000  0.360800  0.465400  1.0  -0.5673
  O  O82  1  0.640300  0.127900  0.155400  1.0  -0.5858
  O  O83  1  0.617500  0.460700  0.119200  1.0  -0.5903
  O  O84  1  0.444900  0.309400  0.483300  1.0  -0.9692
  O  O85  1  0.655500  0.467700  0.950100  1.0  -0.6062
  O  O86  1  0.724000  0.139200  0.965400  1.0  -0.566
  O  O87  1  0.640300  0.372100  0.655400  1.0  -0.5852
  O  O88  1  0.617500  0.039300  0.619200  1.0  -0.5898
  O  O89  1  0.444900  0.190600  0.983300  1.0  -0.9695
  O  O90  1  0.344500  0.967700  0.549900  1.0  -0.6056
  O  O91  1  0.276000  0.639200  0.534600  1.0  -0.5656
  O  O92  1  0.359700  0.872100  0.844600  1.0  -0.5859
  O  O93  1  0.382500  0.539300  0.880800  1.0  -0.5894
  O  O94  1  0.555100  0.690600  0.516700  1.0  -0.9686
