# generated using pymatgen
data_ZnH5C11O4
_symmetry_space_group_name_H-M   'P 1'
_cell_length_a   12.20600000
_cell_length_b   17.83300000
_cell_length_c   15.30900000
_cell_angle_alpha   90.00000000
_cell_angle_beta   111.22900000
_cell_angle_gamma   90.00000000
_symmetry_Int_Tables_number   1
_chemical_formula_structural   ZnH5C11O4
_chemical_formula_sum   'Zn8 H40 C88 O32'
_cell_volume   3106.17589130
_cell_formula_units_Z   8
loop_
 _symmetry_equiv_pos_site_id
 _symmetry_equiv_pos_as_xyz
  1  'x, y, z'
loop_
 _atom_site_type_symbol
 _atom_site_label
 _atom_site_symmetry_multiplicity
 _atom_site_fract_x
 _atom_site_fract_y
 _atom_site_fract_z
 _atom_site_occupancy
 _atom_site_charge
  Zn  Zn1  1  0.263970  0.376880  0.229240  1.0  1.0727
  Zn  Zn2  1  0.033880  0.486620  0.205900  1.0  1.1228
  Zn  Zn3  1  0.736030  0.876880  0.270760  1.0  1.0727
  Zn  Zn4  1  0.966120  0.986620  0.294100  1.0  1.1251
  Zn  Zn5  1  0.736030  0.623120  0.770760  1.0  1.0725
  Zn  Zn6  1  0.966120  0.513380  0.794100  1.0  1.1258
  Zn  Zn7  1  0.263970  0.123120  0.729240  1.0  1.0725
  Zn  Zn8  1  0.033880  0.013380  0.705900  1.0  1.1222
  H  H9  1  0.086000  0.246900  0.020500  1.0  0.0913
  H  H10  1  0.981400  0.178500  0.890900  1.0  0.0934
  H  H11  1  0.801700  0.219000  0.795400  1.0  0.1017
  H  H12  1  0.829900  0.396000  0.957200  1.0  0.093
  H  H13  1  0.509900  0.465600  0.696500  1.0  0.0759
  H  H14  1  0.613700  0.231500  0.809500  1.0  0.0779
  H  H15  1  0.367200  0.376600  0.512100  1.0  0.1033
  H  H16  1  0.041600  0.450400  0.472400  1.0  0.0926
  H  H17  1  0.080300  0.439400  0.631800  1.0  0.0905
  H  H18  1  0.262400  0.397100  0.731400  1.0  0.1101
  H  H19  1  0.914000  0.746900  0.479500  1.0  0.0911
  H  H20  1  0.018600  0.678500  0.609100  1.0  0.0941
  H  H21  1  0.198300  0.719000  0.704600  1.0  0.1022
  H  H22  1  0.170100  0.896000  0.542800  1.0  0.0928
  H  H23  1  0.490100  0.965600  0.803500  1.0  0.0751
  H  H24  1  0.386300  0.731500  0.690500  1.0  0.0774
  H  H25  1  0.632800  0.876600  0.987900  1.0  0.104
  H  H26  1  0.958400  0.950400  0.027600  1.0  0.0924
  H  H27  1  0.919700  0.939400  0.868200  1.0  0.0901
  H  H28  1  0.737600  0.897100  0.768600  1.0  0.1109
  H  H29  1  0.914000  0.753100  0.979500  1.0  0.0911
  H  H30  1  0.018600  0.821500  0.109100  1.0  0.0947
  H  H31  1  0.198300  0.781000  0.204600  1.0  0.1022
  H  H32  1  0.170100  0.604000  0.042800  1.0  0.0924
  H  H33  1  0.490100  0.534400  0.303500  1.0  0.0757
  H  H34  1  0.386300  0.768500  0.190500  1.0  0.0777
  H  H35  1  0.632800  0.623400  0.487900  1.0  0.1038
  H  H36  1  0.958400  0.549600  0.527600  1.0  0.0924
  H  H37  1  0.919700  0.560600  0.368200  1.0  0.0901
  H  H38  1  0.737600  0.602900  0.268600  1.0  0.1107
  H  H39  1  0.086000  0.253100  0.520500  1.0  0.0914
  H  H40  1  0.981400  0.321500  0.390900  1.0  0.0944
  H  H41  1  0.801700  0.281000  0.295400  1.0  0.1024
  H  H42  1  0.829900  0.104000  0.457200  1.0  0.0926
  H  H43  1  0.509900  0.034400  0.196500  1.0  0.0762
  H  H44  1  0.613700  0.268500  0.309500  1.0  0.0779
  H  H45  1  0.367200  0.123400  0.012100  1.0  0.1034
  H  H46  1  0.041600  0.049600  0.972400  1.0  0.0922
  H  H47  1  0.080300  0.060600  0.131800  1.0  0.0907
  H  H48  1  0.262400  0.102900  0.231400  1.0  0.1104
  C  C49  1  0.031600  0.370300  0.083800  1.0  0.7473
  C  C50  1  0.968100  0.327600  0.000700  1.0  -0.0968
  C  C51  1  0.012400  0.263400  0.981100  1.0  -0.0226
  C  C52  1  0.950500  0.222700  0.904500  1.0  -0.1328
  C  C53  1  0.843800  0.246800  0.848200  1.0  -0.1726
  C  C54  1  0.796100  0.311300  0.867000  1.0  0.0603
  C  C55  1  0.860200  0.351600  0.943500  1.0  -0.0844
  C  C56  1  0.676800  0.332200  0.806500  1.0  0.044
  C  C57  1  0.645200  0.403400  0.773800  1.0  -0.0638
  C  C58  1  0.531200  0.417000  0.717900  1.0  -0.1776
  C  C59  1  0.448900  0.363500  0.692700  1.0  0.103
  C  C60  1  0.481700  0.292200  0.728300  1.0  -0.0105
  C  C61  1  0.593400  0.279300  0.784600  1.0  -0.1402
  C  C62  1  0.727700  0.466700  0.788800  1.0  0.6865
  C  C63  1  0.395200  0.229700  0.703700  1.0  0.734
  C  C64  1  0.332900  0.382650  0.631590  1.0  0.0755
  C  C65  1  0.309700  0.389220  0.536090  1.0  -0.179
  C  C66  1  0.200600  0.414600  0.476440  1.0  -0.1161
  C  C67  1  0.114630  0.433400  0.512310  1.0  -0.1812
  C  C68  1  0.137800  0.426800  0.607810  1.0  -0.1326
  C  C69  1  0.246900  0.401500  0.667460  1.0  -0.1512
  C  C70  1  0.176100  0.420500  0.378200  1.0  0.7568
  C  C71  1  0.968400  0.870300  0.416200  1.0  0.7483
  C  C72  1  0.031900  0.827600  0.499300  1.0  -0.0951
  C  C73  1  0.987600  0.763400  0.518900  1.0  -0.0236
  C  C74  1  0.049500  0.722700  0.595500  1.0  -0.135
  C  C75  1  0.156200  0.746800  0.651800  1.0  -0.1704
  C  C76  1  0.203900  0.811300  0.633000  1.0  0.0599
  C  C77  1  0.139800  0.851600  0.556500  1.0  -0.083
  C  C78  1  0.323200  0.832200  0.693500  1.0  0.0447
  C  C79  1  0.354800  0.903400  0.726200  1.0  -0.0632
  C  C80  1  0.468800  0.917000  0.782100  1.0  -0.1769
  C  C81  1  0.551100  0.863500  0.807300  1.0  0.1028
  C  C82  1  0.518300  0.792200  0.771700  1.0  -0.0096
  C  C83  1  0.406600  0.779300  0.715400  1.0  -0.1408
  C  C84  1  0.272300  0.966700  0.711200  1.0  0.6858
  C  C85  1  0.604800  0.729700  0.796300  1.0  0.7336
  C  C86  1  0.667100  0.882650  0.868410  1.0  0.0759
  C  C87  1  0.690300  0.889220  0.963910  1.0  -0.1799
  C  C88  1  0.799400  0.914600  0.023560  1.0  -0.1158
  C  C89  1  0.885370  0.933400  0.987690  1.0  -0.1802
  C  C90  1  0.862200  0.926800  0.892190  1.0  -0.1307
  C  C91  1  0.753100  0.901500  0.832540  1.0  -0.1512
  C  C92  1  0.823900  0.920500  0.121800  1.0  0.7528
  C  C93  1  0.968400  0.629700  0.916200  1.0  0.7474
  C  C94  1  0.031900  0.672400  0.999300  1.0  -0.096
  C  C95  1  0.987600  0.736600  0.018900  1.0  -0.0234
  C  C96  1  0.049500  0.777300  0.095500  1.0  -0.1346
  C  C97  1  0.156200  0.753200  0.151800  1.0  -0.1712
  C  C98  1  0.203900  0.688700  0.133000  1.0  0.0596
  C  C99  1  0.139800  0.648400  0.056500  1.0  -0.0828
  C  C100  1  0.323200  0.667800  0.193500  1.0  0.0454
  C  C101  1  0.354800  0.596600  0.226200  1.0  -0.064
  C  C102  1  0.468800  0.583000  0.282100  1.0  -0.1765
  C  C103  1  0.551100  0.636500  0.307300  1.0  0.1029
  C  C104  1  0.518300  0.707800  0.271700  1.0  -0.0097
  C  C105  1  0.406600  0.720700  0.215400  1.0  -0.1408
  C  C106  1  0.272300  0.533300  0.211200  1.0  0.6865
  C  C107  1  0.604800  0.770300  0.296300  1.0  0.7335
  C  C108  1  0.667100  0.617350  0.368410  1.0  0.0762
  C  C109  1  0.690300  0.610780  0.463910  1.0  -0.1796
  C  C110  1  0.799400  0.585400  0.523560  1.0  -0.1153
  C  C111  1  0.885370  0.566600  0.487690  1.0  -0.1807
  C  C112  1  0.862200  0.573200  0.392190  1.0  -0.1299
  C  C113  1  0.753100  0.598500  0.332540  1.0  -0.151
  C  C114  1  0.823900  0.579500  0.621800  1.0  0.7528
  C  C115  1  0.031600  0.129700  0.583800  1.0  0.7473
  C  C116  1  0.968100  0.172400  0.500700  1.0  -0.0961
  C  C117  1  0.012400  0.236600  0.481100  1.0  -0.0225
  C  C118  1  0.950500  0.277300  0.404500  1.0  -0.1331
  C  C119  1  0.843800  0.253200  0.348200  1.0  -0.1729
  C  C120  1  0.796100  0.188700  0.367000  1.0  0.0601
  C  C121  1  0.860200  0.148400  0.443500  1.0  -0.0848
  C  C122  1  0.676800  0.167800  0.306500  1.0  0.0446
  C  C123  1  0.645200  0.096600  0.273800  1.0  -0.0641
  C  C124  1  0.531200  0.083000  0.217900  1.0  -0.1773
  C  C125  1  0.448900  0.136500  0.192700  1.0  0.1032
  C  C126  1  0.481700  0.207800  0.228300  1.0  -0.0104
  C  C127  1  0.593400  0.220700  0.284600  1.0  -0.1398
  C  C128  1  0.727700  0.033300  0.288800  1.0  0.687
  C  C129  1  0.395200  0.270300  0.203700  1.0  0.7339
  C  C130  1  0.332900  0.117350  0.131590  1.0  0.0757
  C  C131  1  0.309700  0.110780  0.036090  1.0  -0.179
  C  C132  1  0.200600  0.085400  0.976440  1.0  -0.1164
  C  C133  1  0.114630  0.066600  0.012310  1.0  -0.1811
  C  C134  1  0.137800  0.073200  0.107810  1.0  -0.1321
  C  C135  1  0.246900  0.098500  0.167460  1.0  -0.1517
  C  C136  1  0.176100  0.079500  0.878200  1.0  0.7564
  O  O137  1  0.821700  0.455940  0.782000  1.0  -0.6097
  O  O138  1  0.119300  0.342220  0.139300  1.0  -0.5992
  O  O139  1  0.995600  0.432900  0.093100  1.0  -0.6061
  O  O140  1  0.688000  0.528370  0.801200  1.0  -0.5929
  O  O141  1  0.377200  0.199100  0.767200  1.0  -0.5756
  O  O142  1  0.350000  0.211100  0.624000  1.0  -0.4649
  O  O143  1  0.248900  0.394800  0.349100  1.0  -0.6225
  O  O144  1  0.084100  0.451100  0.330700  1.0  -0.6037
  O  O145  1  0.178300  0.955940  0.718000  1.0  -0.6099
  O  O146  1  0.880700  0.842220  0.360700  1.0  -0.598
  O  O147  1  0.004400  0.932900  0.406900  1.0  -0.6068
  O  O148  1  0.312000  0.028370  0.698800  1.0  -0.592
  O  O149  1  0.622800  0.699100  0.732800  1.0  -0.5746
  O  O150  1  0.650000  0.711100  0.876000  1.0  -0.4654
  O  O151  1  0.751100  0.894800  0.150900  1.0  -0.6227
  O  O152  1  0.915900  0.951100  0.169300  1.0  -0.6051
  O  O153  1  0.178300  0.544060  0.218000  1.0  -0.6107
  O  O154  1  0.880700  0.657780  0.860700  1.0  -0.5985
  O  O155  1  0.004400  0.567100  0.906900  1.0  -0.6076
  O  O156  1  0.312000  0.471630  0.198800  1.0  -0.5926
  O  O157  1  0.622800  0.800900  0.232800  1.0  -0.5739
  O  O158  1  0.650000  0.788900  0.376000  1.0  -0.465
  O  O159  1  0.751100  0.605200  0.650900  1.0  -0.6225
  O  O160  1  0.915900  0.548900  0.669300  1.0  -0.6041
  O  O161  1  0.821700  0.044060  0.282000  1.0  -0.6102
  O  O162  1  0.119300  0.157780  0.639300  1.0  -0.6
  O  O163  1  0.995600  0.067100  0.593100  1.0  -0.6055
  O  O164  1  0.688000  0.971630  0.301200  1.0  -0.5931
  O  O165  1  0.377200  0.300900  0.267200  1.0  -0.5745
  O  O166  1  0.350000  0.288900  0.124000  1.0  -0.4645
  O  O167  1  0.248900  0.105200  0.849100  1.0  -0.623
  O  O168  1  0.084100  0.048900  0.830700  1.0  -0.6035
