# generated using pymatgen
data_NbV3P6(HO6)4
_symmetry_space_group_name_H-M   'P 1'
_cell_length_a   15.82060000
_cell_length_b   9.02950000
_cell_length_c   18.30050000
_cell_angle_alpha   90.00000000
_cell_angle_beta   90.00000000
_cell_angle_gamma   90.00000000
_symmetry_Int_Tables_number   1
_chemical_formula_structural   NbV3P6(HO6)4
_chemical_formula_sum   'Nb4 V12 P24 H16 O96'
_cell_volume   2614.26499696
_cell_formula_units_Z   4
loop_
 _symmetry_equiv_pos_site_id
 _symmetry_equiv_pos_as_xyz
  1  'x, y, z'
loop_
 _atom_site_type_symbol
 _atom_site_label
 _atom_site_symmetry_multiplicity
 _atom_site_fract_x
 _atom_site_fract_y
 _atom_site_fract_z
 _atom_site_occupancy
 _atom_site_charge
  Nb  Nb1  1  0.290860  0.748570  0.163420  1.0  1.0491
  Nb  Nb2  1  0.209140  0.251430  0.663420  1.0  1.0444
  Nb  Nb3  1  0.709140  0.248570  0.336580  1.0  1.0437
  Nb  Nb4  1  0.790860  0.751430  0.836580  1.0  1.049
  V  V5  1  0.209140  0.248570  0.163420  1.0  1.3942
  V  V6  1  0.787520  0.246210  0.087460  1.0  1.3789
  V  V7  1  0.290860  0.751430  0.663420  1.0  1.3952
  V  V8  1  0.712480  0.753790  0.587460  1.0  1.3783
  V  V9  1  0.790860  0.748570  0.336580  1.0  1.3953
  V  V10  1  0.212480  0.746210  0.412540  1.0  1.3782
  V  V11  1  0.709140  0.251430  0.836580  1.0  1.3941
  V  V12  1  0.287520  0.253790  0.912540  1.0  1.3795
  V  V13  1  0.212480  0.753790  0.912540  1.0  1.3783
  V  V14  1  0.287520  0.246210  0.412540  1.0  1.3791
  V  V15  1  0.787520  0.253790  0.587460  1.0  1.3793
  V  V16  1  0.712480  0.746210  0.087460  1.0  1.3781
  P  P17  1  0.257590  0.507500  0.035920  1.0  1.8993
  P  P18  1  0.244520  0.003900  0.286580  1.0  1.9089
  P  P19  1  0.003800  0.340800  0.108020  1.0  1.7687
  P  P20  1  0.242410  0.492500  0.535920  1.0  1.8989
  P  P21  1  0.255480  0.996100  0.786580  1.0  1.9089
  P  P22  1  0.496200  0.659200  0.608020  1.0  1.7691
  P  P23  1  0.742410  0.007500  0.464080  1.0  1.8995
  P  P24  1  0.755480  0.503900  0.213420  1.0  1.9082
  P  P25  1  0.996200  0.840800  0.391980  1.0  1.7678
  P  P26  1  0.757590  0.992500  0.964080  1.0  1.8999
  P  P27  1  0.744520  0.496100  0.713420  1.0  1.9094
  P  P28  1  0.503800  0.159200  0.891980  1.0  1.7678
  P  P29  1  0.742410  0.492500  0.964080  1.0  1.8996
  P  P30  1  0.755480  0.996100  0.713420  1.0  1.9088
  P  P31  1  0.996200  0.659200  0.891980  1.0  1.7689
  P  P32  1  0.757590  0.507500  0.464080  1.0  1.9
  P  P33  1  0.744520  0.003900  0.213420  1.0  1.9089
  P  P34  1  0.503800  0.340800  0.391980  1.0  1.7685
  P  P35  1  0.257590  0.992500  0.535920  1.0  1.8993
  P  P36  1  0.244520  0.496100  0.786580  1.0  1.9095
  P  P37  1  0.003800  0.159200  0.608020  1.0  1.7679
  P  P38  1  0.242410  0.007500  0.035920  1.0  1.899
  P  P39  1  0.255480  0.503900  0.286580  1.0  1.9083
  P  P40  1  0.496200  0.840800  0.108020  1.0  1.7679
  H  H41  1  0.909100  0.486000  0.150000  1.0  0.4239
  H  H42  1  0.092000  0.462000  0.029000  1.0  0.1815
  H  H43  1  0.590900  0.514000  0.650000  1.0  0.4254
  H  H44  1  0.408000  0.538000  0.529000  1.0  0.1829
  H  H45  1  0.090900  0.986000  0.350000  1.0  0.4266
  H  H46  1  0.908000  0.962000  0.471000  1.0  0.1821
  H  H47  1  0.409100  0.014000  0.850000  1.0  0.4245
  H  H48  1  0.592000  0.038000  0.971000  1.0  0.1835
  H  H49  1  0.090900  0.514000  0.850000  1.0  0.4256
  H  H50  1  0.908000  0.538000  0.971000  1.0  0.1845
  H  H51  1  0.409100  0.486000  0.350000  1.0  0.4256
  H  H52  1  0.592000  0.462000  0.471000  1.0  0.1831
  H  H53  1  0.909100  0.014000  0.650000  1.0  0.4235
  H  H54  1  0.092000  0.038000  0.529000  1.0  0.1842
  H  H55  1  0.590900  0.986000  0.150000  1.0  0.4251
  H  H56  1  0.408000  0.962000  0.029000  1.0  0.1829
  O  O57  1  0.305100  0.103600  0.329600  1.0  -0.7242
  O  O58  1  0.182700  0.096000  0.239900  1.0  -0.7416
  O  O59  1  0.201200  0.406000  0.082800  1.0  -0.7758
  O  O60  1  0.196900  0.605500  0.992300  1.0  -0.7819
  O  O61  1  0.065700  0.275800  0.161400  1.0  -0.8455
  O  O62  1  0.930900  0.240500  0.088600  1.0  -0.819
  O  O63  1  0.190200  0.912500  0.339500  1.0  -0.8297
  O  O64  1  0.317100  0.597700  0.084900  1.0  -0.7266
  O  O65  1  0.313700  0.414000  0.984600  1.0  -0.7216
  O  O66  1  0.300200  0.905000  0.240100  1.0  -0.7842
  O  O67  1  0.968500  0.491500  0.140000  1.0  -0.4988
  O  O68  1  0.050700  0.385300  0.036100  1.0  -0.5375
  O  O69  1  0.194900  0.896400  0.829600  1.0  -0.7225
  O  O70  1  0.317300  0.904000  0.739900  1.0  -0.7421
  O  O71  1  0.298800  0.594000  0.582800  1.0  -0.775
  O  O72  1  0.303100  0.394500  0.492300  1.0  -0.7816
  O  O73  1  0.434300  0.724200  0.661400  1.0  -0.8454
  O  O74  1  0.569100  0.759500  0.588600  1.0  -0.8207
  O  O75  1  0.309800  0.087500  0.839500  1.0  -0.8289
  O  O76  1  0.182900  0.402300  0.584900  1.0  -0.7253
  O  O77  1  0.186300  0.586000  0.484600  1.0  -0.7207
  O  O78  1  0.199800  0.095000  0.740100  1.0  -0.7829
  O  O79  1  0.531500  0.508500  0.640000  1.0  -0.4988
  O  O80  1  0.449300  0.614700  0.536100  1.0  -0.5375
  O  O81  1  0.694900  0.603600  0.170400  1.0  -0.7226
  O  O82  1  0.817300  0.596000  0.260100  1.0  -0.7418
  O  O83  1  0.798800  0.906000  0.417200  1.0  -0.7757
  O  O84  1  0.803100  0.105500  0.507700  1.0  -0.7816
  O  O85  1  0.934300  0.775800  0.338600  1.0  -0.8456
  O  O86  1  0.069100  0.740500  0.411400  1.0  -0.8178
  O  O87  1  0.809800  0.412500  0.160500  1.0  -0.8295
  O  O88  1  0.682900  0.097700  0.415100  1.0  -0.7253
  O  O89  1  0.686300  0.914000  0.515400  1.0  -0.7203
  O  O90  1  0.699800  0.405000  0.259900  1.0  -0.7837
  O  O91  1  0.031500  0.991500  0.360000  1.0  -0.4977
  O  O92  1  0.949300  0.885300  0.463900  1.0  -0.5388
  O  O93  1  0.805100  0.396400  0.670400  1.0  -0.7243
  O  O94  1  0.682700  0.404000  0.760100  1.0  -0.7415
  O  O95  1  0.701200  0.094000  0.917200  1.0  -0.7752
  O  O96  1  0.696900  0.894500  0.007700  1.0  -0.7822
  O  O97  1  0.565700  0.224200  0.838600  1.0  -0.8451
  O  O98  1  0.430900  0.259500  0.911400  1.0  -0.8202
  O  O99  1  0.690200  0.587500  0.660500  1.0  -0.8294
  O  O100  1  0.817100  0.902300  0.915100  1.0  -0.7269
  O  O101  1  0.813700  0.086000  0.015400  1.0  -0.7223
  O  O102  1  0.800200  0.595000  0.759900  1.0  -0.7846
  O  O103  1  0.468500  0.008500  0.860000  1.0  -0.4959
  O  O104  1  0.550700  0.114700  0.963900  1.0  -0.5394
  O  O105  1  0.694900  0.896400  0.670400  1.0  -0.7224
  O  O106  1  0.817300  0.904000  0.760100  1.0  -0.7426
  O  O107  1  0.798800  0.594000  0.917200  1.0  -0.7749
  O  O108  1  0.803100  0.394500  0.007700  1.0  -0.7819
  O  O109  1  0.934300  0.724200  0.838600  1.0  -0.8457
  O  O110  1  0.069100  0.759500  0.911400  1.0  -0.8202
  O  O111  1  0.809800  0.087500  0.660500  1.0  -0.8291
  O  O112  1  0.682900  0.402300  0.915100  1.0  -0.7253
  O  O113  1  0.686300  0.586000  0.015400  1.0  -0.721
  O  O114  1  0.699800  0.095000  0.759900  1.0  -0.7838
  O  O115  1  0.031500  0.508500  0.860000  1.0  -0.4968
  O  O116  1  0.949300  0.614700  0.963900  1.0  -0.5393
  O  O117  1  0.805100  0.103600  0.170400  1.0  -0.7239
  O  O118  1  0.682700  0.096000  0.260100  1.0  -0.7416
  O  O119  1  0.701200  0.406000  0.417200  1.0  -0.776
  O  O120  1  0.696900  0.605500  0.507700  1.0  -0.7821
  O  O121  1  0.565700  0.275800  0.338600  1.0  -0.8455
  O  O122  1  0.430900  0.240500  0.411400  1.0  -0.8193
  O  O123  1  0.690200  0.912500  0.160500  1.0  -0.8298
  O  O124  1  0.817100  0.597700  0.415100  1.0  -0.7266
  O  O125  1  0.813700  0.414000  0.515400  1.0  -0.7223
  O  O126  1  0.800200  0.905000  0.259900  1.0  -0.785
  O  O127  1  0.468500  0.491500  0.360000  1.0  -0.4972
  O  O128  1  0.550700  0.385300  0.463900  1.0  -0.5388
  O  O129  1  0.305100  0.396400  0.829600  1.0  -0.7244
  O  O130  1  0.182700  0.404000  0.739900  1.0  -0.7421
  O  O131  1  0.201200  0.094000  0.582800  1.0  -0.7753
  O  O132  1  0.196900  0.894500  0.492300  1.0  -0.7819
  O  O133  1  0.065700  0.224200  0.661400  1.0  -0.8461
  O  O134  1  0.930900  0.259500  0.588600  1.0  -0.8202
  O  O135  1  0.190200  0.587500  0.839500  1.0  -0.8292
  O  O136  1  0.317100  0.902300  0.584900  1.0  -0.7272
  O  O137  1  0.313700  0.086000  0.484600  1.0  -0.7216
  O  O138  1  0.300200  0.595000  0.740100  1.0  -0.7839
  O  O139  1  0.968500  0.008500  0.640000  1.0  -0.4978
  O  O140  1  0.050700  0.114700  0.536100  1.0  -0.5372
  O  O141  1  0.194900  0.603600  0.329600  1.0  -0.7228
  O  O142  1  0.317300  0.596000  0.239900  1.0  -0.7419
  O  O143  1  0.298800  0.906000  0.082800  1.0  -0.7759
  O  O144  1  0.303100  0.105500  0.992300  1.0  -0.7813
  O  O145  1  0.434300  0.775800  0.161400  1.0  -0.8455
  O  O146  1  0.569100  0.740500  0.088600  1.0  -0.8176
  O  O147  1  0.309800  0.412500  0.339500  1.0  -0.8294
  O  O148  1  0.182900  0.097700  0.084900  1.0  -0.7255
  O  O149  1  0.186300  0.914000  0.984600  1.0  -0.7196
  O  O150  1  0.199800  0.405000  0.240100  1.0  -0.7829
  O  O151  1  0.531500  0.991500  0.140000  1.0  -0.4996
  O  O152  1  0.449300  0.885300  0.036100  1.0  -0.5373
