# generated using pymatgen
data_BiH4C4NO8
_symmetry_space_group_name_H-M   'P 1'
_cell_length_a   9.25450000
_cell_length_b   9.46320000
_cell_length_c   9.46320000
_cell_angle_alpha   76.16700000
_cell_angle_beta   60.72710000
_cell_angle_gamma   60.72700000
_symmetry_Int_Tables_number   1
_chemical_formula_structural   BiH4C4NO8
_chemical_formula_sum   'Bi2 H8 C8 N2 O16'
_cell_volume   630.61015441
_cell_formula_units_Z   2
loop_
 _symmetry_equiv_pos_site_id
 _symmetry_equiv_pos_as_xyz
  1  'x, y, z'
loop_
 _atom_site_type_symbol
 _atom_site_label
 _atom_site_symmetry_multiplicity
 _atom_site_fract_x
 _atom_site_fract_y
 _atom_site_fract_z
 _atom_site_occupancy
 _atom_site_charge
  Bi  Bi1  1  0.875000  0.250000  0.750000  1.0  1.6649
  Bi  Bi2  1  0.125000  0.750000  0.250000  1.0  1.665
  H  H3  1  0.513400  0.809600  0.309600  1.0  0.3745
  H  H4  1  0.632600  0.690400  0.190400  1.0  0.3732
  H  H5  1  0.677000  0.690400  0.309600  1.0  0.3703
  H  H6  1  0.677000  0.809600  0.190400  1.0  0.3759
  H  H7  1  0.323000  0.190400  0.809600  1.0  0.3749
  H  H8  1  0.323000  0.309600  0.690400  1.0  0.3737
  H  H9  1  0.486600  0.190400  0.690400  1.0  0.3746
  H  H10  1  0.367400  0.309600  0.809600  1.0  0.372
  C  C11  1  0.100200  0.976000  0.476000  1.0  0.5511
  C  C12  1  0.552200  0.524000  0.024000  1.0  0.5514
  C  C13  1  0.076200  0.024000  0.976000  1.0  0.5512
  C  C14  1  0.076200  0.476000  0.524000  1.0  0.5513
  C  C15  1  0.899800  0.024000  0.524000  1.0  0.5529
  C  C16  1  0.447800  0.476000  0.976000  1.0  0.5524
  C  C17  1  0.923800  0.524000  0.476000  1.0  0.5526
  C  C18  1  0.923800  0.976000  0.024000  1.0  0.5527
  N  N19  1  0.625000  0.750000  0.250000  1.0  -0.6348
  N  N20  1  0.375000  0.250000  0.750000  1.0  -0.6348
  O  O21  1  0.130500  0.046600  0.546600  1.0  -0.6016
  O  O22  1  0.219100  0.870200  0.370200  1.0  -0.5819
  O  O23  1  0.723700  0.453400  0.953400  1.0  -0.6009
  O  O24  1  0.459500  0.629800  0.129800  1.0  -0.5815
  O  O25  1  0.177100  0.953400  0.046600  1.0  -0.6019
  O  O26  1  0.089300  0.129800  0.870200  1.0  -0.5818
  O  O27  1  0.177100  0.546600  0.453400  1.0  -0.6008
  O  O28  1  0.089300  0.370200  0.629800  1.0  -0.5809
  O  O29  1  0.869500  0.953400  0.453400  1.0  -0.6014
  O  O30  1  0.780900  0.129800  0.629800  1.0  -0.582
  O  O31  1  0.276300  0.546600  0.046600  1.0  -0.6007
  O  O32  1  0.540500  0.370200  0.870200  1.0  -0.5831
  O  O33  1  0.822900  0.453400  0.546600  1.0  -0.6012
  O  O34  1  0.910700  0.629800  0.370200  1.0  -0.5816
  O  O35  1  0.822900  0.046600  0.953400  1.0  -0.6011
  O  O36  1  0.910700  0.870200  0.129800  1.0  -0.5824
