# generated using pymatgen
data_Bi(CO2)4
_symmetry_space_group_name_H-M   'P 1'
_cell_length_a   11.68960000
_cell_length_b   11.68960000
_cell_length_c   9.23570000
_cell_angle_alpha   90.00000000
_cell_angle_beta   90.00000000
_cell_angle_gamma   90.00000000
_symmetry_Int_Tables_number   1
_chemical_formula_structural   Bi(CO2)4
_chemical_formula_sum   'Bi4 C16 O32'
_cell_volume   1262.02837198
_cell_formula_units_Z   4
loop_
 _symmetry_equiv_pos_site_id
 _symmetry_equiv_pos_as_xyz
  1  'x, y, z'
loop_
 _atom_site_type_symbol
 _atom_site_label
 _atom_site_symmetry_multiplicity
 _atom_site_fract_x
 _atom_site_fract_y
 _atom_site_fract_z
 _atom_site_occupancy
 _atom_site_charge
  Bi  Bi1  1  0.000000  0.750000  0.125000  1.0  1.4821
  Bi  Bi2  1  0.500000  0.250000  0.625000  1.0  1.4821
  Bi  Bi3  1  0.500000  0.750000  0.375000  1.0  1.4889
  Bi  Bi4  1  0.000000  0.250000  0.875000  1.0  1.4889
  C  C5  1  0.000000  0.519000  0.923000  1.0  0.7039
  C  C6  1  0.500000  0.019000  0.423000  1.0  0.7039
  C  C7  1  0.500000  0.481000  0.423000  1.0  0.7037
  C  C8  1  0.000000  0.981000  0.923000  1.0  0.7037
  C  C9  1  0.731000  0.750000  0.173000  1.0  0.7046
  C  C10  1  0.769000  0.250000  0.673000  1.0  0.7042
  C  C11  1  0.500000  0.519000  0.577000  1.0  0.7049
  C  C12  1  0.000000  0.019000  0.077000  1.0  0.7049
  C  C13  1  0.000000  0.481000  0.077000  1.0  0.7047
  C  C14  1  0.500000  0.981000  0.577000  1.0  0.7047
  C  C15  1  0.769000  0.750000  0.327000  1.0  0.706
  C  C16  1  0.731000  0.250000  0.827000  1.0  0.7055
  C  C17  1  0.269000  0.250000  0.827000  1.0  0.706
  C  C18  1  0.231000  0.750000  0.327000  1.0  0.7055
  C  C19  1  0.231000  0.250000  0.673000  1.0  0.7046
  C  C20  1  0.269000  0.750000  0.173000  1.0  0.7042
  O  O21  1  0.000000  0.626200  0.909000  1.0  -0.5412
  O  O22  1  0.000000  0.453600  0.820000  1.0  -0.5335
  O  O23  1  0.500000  0.126200  0.409000  1.0  -0.5412
  O  O24  1  0.500000  0.953600  0.320000  1.0  -0.5335
  O  O25  1  0.500000  0.373800  0.409000  1.0  -0.5402
  O  O26  1  0.500000  0.546400  0.320000  1.0  -0.5329
  O  O27  1  0.000000  0.873800  0.909000  1.0  -0.5402
  O  O28  1  0.000000  0.046400  0.820000  1.0  -0.5329
  O  O29  1  0.623800  0.750000  0.159000  1.0  -0.5437
  O  O30  1  0.796400  0.750000  0.070000  1.0  -0.5348
  O  O31  1  0.876200  0.250000  0.659000  1.0  -0.5436
  O  O32  1  0.703600  0.250000  0.570000  1.0  -0.5344
  O  O33  1  0.500000  0.626200  0.591000  1.0  -0.5434
  O  O34  1  0.500000  0.453600  0.680000  1.0  -0.5317
  O  O35  1  0.000000  0.126200  0.091000  1.0  -0.5434
  O  O36  1  0.000000  0.953600  0.180000  1.0  -0.5317
  O  O37  1  0.000000  0.373800  0.091000  1.0  -0.5438
  O  O38  1  0.000000  0.546400  0.180000  1.0  -0.5315
  O  O39  1  0.500000  0.873800  0.591000  1.0  -0.5438
  O  O40  1  0.500000  0.046400  0.680000  1.0  -0.5315
  O  O41  1  0.876200  0.750000  0.341000  1.0  -0.5443
  O  O42  1  0.703600  0.750000  0.430000  1.0  -0.5329
  O  O43  1  0.623800  0.250000  0.841000  1.0  -0.545
  O  O44  1  0.796400  0.250000  0.930000  1.0  -0.5333
  O  O45  1  0.376200  0.250000  0.841000  1.0  -0.5447
  O  O46  1  0.203600  0.250000  0.930000  1.0  -0.5329
  O  O47  1  0.123800  0.750000  0.341000  1.0  -0.5454
  O  O48  1  0.296400  0.750000  0.430000  1.0  -0.5333
  O  O49  1  0.123800  0.250000  0.659000  1.0  -0.5417
  O  O50  1  0.296400  0.250000  0.570000  1.0  -0.5348
  O  O51  1  0.376200  0.750000  0.159000  1.0  -0.5416
  O  O52  1  0.203600  0.750000  0.070000  1.0  -0.5344
