# generated using pymatgen
data_K2Rb2NaYGeH3W11(CO21)2
_symmetry_space_group_name_H-M   'P 1'
_cell_length_a   20.12440000
_cell_length_b   12.66190000
_cell_length_c   21.15180000
_cell_angle_alpha   90.00000000
_cell_angle_beta   110.94600000
_cell_angle_gamma   90.00000000
_symmetry_Int_Tables_number   1
_chemical_formula_structural   K2Rb2NaYGeH3W11(CO21)2
_chemical_formula_sum   'K8 Rb8 Na4 Y4 Ge4 H12 W44 C8 O168'
_cell_volume   5033.58942470
_cell_formula_units_Z   4
loop_
 _symmetry_equiv_pos_site_id
 _symmetry_equiv_pos_as_xyz
  1  'x, y, z'
loop_
 _atom_site_type_symbol
 _atom_site_label
 _atom_site_symmetry_multiplicity
 _atom_site_fract_x
 _atom_site_fract_y
 _atom_site_fract_z
 _atom_site_occupancy
 _atom_site_charge
  K  K1  1  0.809390  0.762900  0.068200  1.0  0.8948
  K  K2  1  0.471630  0.131500  0.738550  1.0  0.8771
  K  K3  1  0.190610  0.262900  0.431800  1.0  0.8945
  K  K4  1  0.528370  0.631500  0.761450  1.0  0.876
  K  K5  1  0.190610  0.237100  0.931800  1.0  0.8952
  K  K6  1  0.528370  0.868500  0.261450  1.0  0.8758
  K  K7  1  0.809390  0.737100  0.568200  1.0  0.8954
  K  K8  1  0.471630  0.368500  0.238550  1.0  0.8769
  Rb  Rb9  1  0.029040  0.118380  0.768640  1.0  0.8715
  Rb  Rb10  1  0.673090  0.341380  0.989860  1.0  0.8982
  Rb  Rb11  1  0.970960  0.618380  0.731360  1.0  0.8673
  Rb  Rb12  1  0.326910  0.841380  0.510140  1.0  0.8999
  Rb  Rb13  1  0.970960  0.881620  0.231360  1.0  0.8729
  Rb  Rb14  1  0.326910  0.658620  0.010140  1.0  0.8994
  Rb  Rb15  1  0.029040  0.381620  0.268640  1.0  0.8665
  Rb  Rb16  1  0.673090  0.158620  0.489860  1.0  0.898
  Na  Na17  1  0.407000  0.255500  0.520600  1.0  0.8807
  Na  Na18  1  0.593000  0.755500  0.979400  1.0  0.895
  Na  Na19  1  0.593000  0.744500  0.479400  1.0  0.8938
  Na  Na20  1  0.407000  0.244500  0.020600  1.0  0.8801
  Y  Y21  1  0.953350  0.110490  0.926270  1.0  2.0416
  Y  Y22  1  0.046650  0.610490  0.573730  1.0  2.0423
  Y  Y23  1  0.046650  0.889510  0.073730  1.0  2.042
  Y  Y24  1  0.953350  0.389510  0.426270  1.0  2.0417
  Ge  Ge25  1  0.755030  0.128500  0.766950  1.0  1.4305
  Ge  Ge26  1  0.244970  0.628500  0.733050  1.0  1.4308
  Ge  Ge27  1  0.244970  0.871500  0.233050  1.0  1.4309
  Ge  Ge28  1  0.755030  0.371500  0.266950  1.0  1.4306
  H  H29  1  0.143400  0.865600  0.962200  1.0  0.1047
  H  H30  1  0.118800  0.887800  0.884300  1.0  0.1069
  H  H31  1  0.175500  0.961100  0.935600  1.0  0.1193
  H  H32  1  0.856600  0.365600  0.537800  1.0  0.1031
  H  H33  1  0.881200  0.387800  0.615700  1.0  0.1076
  H  H34  1  0.824500  0.461100  0.564400  1.0  0.1192
  H  H35  1  0.856600  0.134400  0.037800  1.0  0.1036
  H  H36  1  0.881200  0.112200  0.115700  1.0  0.1071
  H  H37  1  0.824500  0.038900  0.064400  1.0  0.1202
  H  H38  1  0.143400  0.634400  0.462200  1.0  0.1045
  H  H39  1  0.118800  0.612200  0.384300  1.0  0.1061
  H  H40  1  0.175500  0.538900  0.435600  1.0  0.1194
  W  W41  1  0.586270  0.150860  0.631100  1.0  2.4512
  W  W42  1  0.623050  0.927230  0.754310  1.0  2.5905
  W  W43  1  0.715210  0.938710  0.630110  1.0  2.5824
  W  W44  1  0.838480  0.124900  0.647020  1.0  1.2732
  W  W45  1  0.711640  0.335490  0.647880  1.0  1.4273
  W  W46  1  0.630070  0.328540  0.760400  1.0  2.5413
  W  W47  1  0.662660  0.105570  0.879930  1.0  2.3908
  W  W48  1  0.784170  0.920350  0.883360  1.0  2.527
  W  W49  1  0.874710  0.926140  0.761520  1.0  2.4474
  W  W50  1  0.889390  0.318110  0.791690  1.0  2.606
  W  W51  1  0.808660  0.302780  0.902870  1.0  2.4751
  W  W52  1  0.413730  0.650860  0.868900  1.0  2.451
  W  W53  1  0.376950  0.427230  0.745690  1.0  2.5896
  W  W54  1  0.284790  0.438710  0.869890  1.0  2.5808
  W  W55  1  0.161520  0.624900  0.852980  1.0  1.2708
  W  W56  1  0.288360  0.835490  0.852120  1.0  1.4252
  W  W57  1  0.369930  0.828540  0.739600  1.0  2.5413
  W  W58  1  0.337340  0.605570  0.620070  1.0  2.3958
  W  W59  1  0.215830  0.420350  0.616640  1.0  2.5258
  W  W60  1  0.125290  0.426140  0.738480  1.0  2.4454
  W  W61  1  0.110610  0.818110  0.708310  1.0  2.6066
  W  W62  1  0.191340  0.802780  0.597130  1.0  2.4743
  W  W63  1  0.413730  0.849140  0.368900  1.0  2.4505
  W  W64  1  0.376950  0.072770  0.245690  1.0  2.5909
  W  W65  1  0.284790  0.061290  0.369890  1.0  2.5804
  W  W66  1  0.161520  0.875100  0.352980  1.0  1.271
  W  W67  1  0.288360  0.664510  0.352120  1.0  1.4207
  W  W68  1  0.369930  0.671460  0.239600  1.0  2.5387
  W  W69  1  0.337340  0.894430  0.120070  1.0  2.3953
  W  W70  1  0.215830  0.079650  0.116640  1.0  2.5256
  W  W71  1  0.125290  0.073860  0.238480  1.0  2.447
  W  W72  1  0.110610  0.681890  0.208310  1.0  2.6076
  W  W73  1  0.191340  0.697220  0.097130  1.0  2.4726
  W  W74  1  0.586270  0.349140  0.131100  1.0  2.4511
  W  W75  1  0.623050  0.572770  0.254310  1.0  2.5923
  W  W76  1  0.715210  0.561290  0.130110  1.0  2.5816
  W  W77  1  0.838480  0.375100  0.147020  1.0  1.272
  W  W78  1  0.711640  0.164510  0.147880  1.0  1.4206
  W  W79  1  0.630070  0.171460  0.260400  1.0  2.5393
  W  W80  1  0.662660  0.394430  0.379930  1.0  2.3899
  W  W81  1  0.784170  0.579650  0.383360  1.0  2.5271
  W  W82  1  0.874710  0.573860  0.261520  1.0  2.4485
  W  W83  1  0.889390  0.181890  0.291690  1.0  2.6063
  W  W84  1  0.808660  0.197220  0.402870  1.0  2.4736
  C  C85  1  0.074300  0.990600  0.932800  1.0  0.7207
  C  C86  1  0.133500  0.919700  0.928300  1.0  -0.503
  C  C87  1  0.925700  0.490600  0.567200  1.0  0.72
  C  C88  1  0.866500  0.419700  0.571700  1.0  -0.5028
  C  C89  1  0.925700  0.009400  0.067200  1.0  0.7212
  C  C90  1  0.866500  0.080300  0.071700  1.0  -0.503
  C  C91  1  0.074300  0.509400  0.432800  1.0  0.7221
  C  C92  1  0.133500  0.580300  0.428300  1.0  -0.5034
  O  O93  1  0.505300  0.129000  0.566500  1.0  -0.7718
  O  O94  1  0.555300  0.838200  0.727800  1.0  -0.8607
  O  O95  1  0.675400  0.856600  0.563200  1.0  -0.9031
  O  O96  1  0.648900  0.055500  0.609500  1.0  -0.8656
  O  O97  1  0.583500  0.046600  0.696700  1.0  -0.8718
  O  O98  1  0.672600  0.900400  0.694300  1.0  -0.7911
  O  O99  1  0.769800  0.025100  0.590800  1.0  -0.826
  O  O100  1  0.623100  0.262300  0.592400  1.0  -0.8697
  O  O101  1  0.557200  0.254300  0.682000  1.0  -0.8638
  O  O102  1  0.597400  0.004700  0.822800  1.0  -0.819
  O  O103  1  0.690000  0.852400  0.823800  1.0  -0.747
  O  O104  1  0.796400  0.863000  0.678100  1.0  -0.8211
  O  O105  1  0.687900  0.210300  0.714200  1.0  -0.8468
  O  O106  1  0.715800  0.044000  0.808900  1.0  -0.8315
  O  O107  1  0.786500  0.050900  0.715600  1.0  -0.842
  O  O108  1  0.762100  0.224400  0.620200  1.0  -0.8141
  O  O109  1  0.652100  0.402800  0.691300  1.0  -0.7212
  O  O110  1  0.577700  0.423000  0.777300  1.0  -0.8716
  O  O111  1  0.618500  0.210300  0.813000  1.0  -0.9094
  O  O112  1  0.622200  0.131200  0.937300  1.0  -0.8196
  O  O113  1  0.723400  0.989100  0.924700  1.0  -0.7713
  O  O114  1  0.813600  0.815300  0.939900  1.0  -0.8567
  O  O115  1  0.815600  0.881900  0.810200  1.0  -0.7702
  O  O116  1  0.932800  0.819800  0.773300  1.0  -0.835
  O  O117  1  0.896800  0.007700  0.692500  1.0  -0.8478
  O  O118  1  0.883700  0.214400  0.721200  1.0  -0.7984
  O  O119  1  0.792600  0.360800  0.719700  1.0  -0.7418
  O  O120  1  0.716700  0.349200  0.823500  1.0  -0.8004
  O  O121  1  0.742100  0.198300  0.910900  1.0  -0.8526
  O  O122  1  0.852600  0.013900  0.913600  1.0  -0.8212
  O  O123  1  0.922300  0.015800  0.825600  1.0  -0.8703
  O  O124  1  0.821800  0.203100  0.822500  1.0  -0.8078
  O  O125  1  0.934800  0.420300  0.772100  1.0  -0.8297
  O  O126  1  0.856900  0.389200  0.856600  1.0  -0.7446
  O  O127  1  0.797000  0.397900  0.955900  1.0  -0.8129
  O  O128  1  0.887700  0.241100  0.954800  1.0  -0.7052
  O  O129  1  0.959700  0.247300  0.853500  1.0  -0.8332
  O  O130  1  0.032100  0.957000  0.962000  1.0  -0.7903
  O  O131  1  0.066500  0.079700  0.907100  1.0  -0.7414
  O  O132  1  0.175600  0.103500  0.819100  1.0  -0.6034
  O  O133  1  0.367400  0.198900  0.610400  1.0  -0.6219
  O  O134  1  0.684700  0.878200  0.019700  1.0  -0.6305
  O  O135  1  0.494700  0.629000  0.933500  1.0  -0.7715
  O  O136  1  0.444700  0.338200  0.772200  1.0  -0.8604
  O  O137  1  0.324600  0.356600  0.936800  1.0  -0.9006
  O  O138  1  0.351100  0.555500  0.890500  1.0  -0.8649
  O  O139  1  0.416500  0.546600  0.803300  1.0  -0.8688
  O  O140  1  0.327400  0.400400  0.805700  1.0  -0.7906
  O  O141  1  0.230200  0.525100  0.909200  1.0  -0.8223
  O  O142  1  0.376900  0.762300  0.907600  1.0  -0.8669
  O  O143  1  0.442800  0.754300  0.818000  1.0  -0.8639
  O  O144  1  0.402600  0.504700  0.677200  1.0  -0.8197
  O  O145  1  0.310000  0.352400  0.676200  1.0  -0.7464
  O  O146  1  0.203600  0.363000  0.821900  1.0  -0.8222
  O  O147  1  0.312100  0.710300  0.785800  1.0  -0.8478
  O  O148  1  0.284200  0.544000  0.691100  1.0  -0.8316
  O  O149  1  0.213500  0.550900  0.784400  1.0  -0.8418
  O  O150  1  0.237900  0.724400  0.879800  1.0  -0.8136
  O  O151  1  0.347900  0.902800  0.808700  1.0  -0.7193
  O  O152  1  0.422300  0.923000  0.722700  1.0  -0.8712
  O  O153  1  0.381500  0.710300  0.687000  1.0  -0.9036
  O  O154  1  0.377800  0.631200  0.562700  1.0  -0.8204
  O  O155  1  0.276600  0.489100  0.575300  1.0  -0.7718
  O  O156  1  0.186400  0.315300  0.560100  1.0  -0.8553
  O  O157  1  0.184400  0.381900  0.689800  1.0  -0.7705
  O  O158  1  0.067200  0.319800  0.726700  1.0  -0.8349
  O  O159  1  0.103200  0.507700  0.807500  1.0  -0.8449
  O  O160  1  0.116300  0.714400  0.778800  1.0  -0.7991
  O  O161  1  0.207400  0.860800  0.780300  1.0  -0.7426
  O  O162  1  0.283300  0.849200  0.676500  1.0  -0.798
  O  O163  1  0.257900  0.698300  0.589100  1.0  -0.852
  O  O164  1  0.147400  0.513900  0.586400  1.0  -0.8223
  O  O165  1  0.077700  0.515800  0.674400  1.0  -0.8712
  O  O166  1  0.178200  0.703100  0.677500  1.0  -0.8084
  O  O167  1  0.065200  0.920300  0.727900  1.0  -0.8306
  O  O168  1  0.143100  0.889200  0.643400  1.0  -0.7452
  O  O169  1  0.203000  0.897900  0.544100  1.0  -0.814
  O  O170  1  0.112300  0.741100  0.545200  1.0  -0.7068
  O  O171  1  0.040300  0.747300  0.646500  1.0  -0.8331
  O  O172  1  0.967900  0.457000  0.538000  1.0  -0.7905
  O  O173  1  0.933500  0.579700  0.592900  1.0  -0.7434
  O  O174  1  0.824400  0.603500  0.680900  1.0  -0.6043
  O  O175  1  0.632600  0.698900  0.889600  1.0  -0.6213
  O  O176  1  0.315300  0.378200  0.480300  1.0  -0.6305
  O  O177  1  0.494700  0.871000  0.433500  1.0  -0.7708
  O  O178  1  0.444700  0.161800  0.272200  1.0  -0.8602
  O  O179  1  0.324600  0.143400  0.436800  1.0  -0.9005
  O  O180  1  0.351100  0.944500  0.390500  1.0  -0.8647
  O  O181  1  0.416500  0.953400  0.303300  1.0  -0.8692
  O  O182  1  0.327400  0.099600  0.305700  1.0  -0.7908
  O  O183  1  0.230200  0.974900  0.409200  1.0  -0.8215
  O  O184  1  0.376900  0.737700  0.407600  1.0  -0.8676
  O  O185  1  0.442800  0.745700  0.318000  1.0  -0.8643
  O  O186  1  0.402600  0.995300  0.177200  1.0  -0.8195
  O  O187  1  0.310000  0.147600  0.176200  1.0  -0.7416
  O  O188  1  0.203600  0.137000  0.321900  1.0  -0.824
  O  O189  1  0.312100  0.789700  0.285800  1.0  -0.8482
  O  O190  1  0.284200  0.956000  0.191100  1.0  -0.8311
  O  O191  1  0.213500  0.949100  0.284400  1.0  -0.8416
  O  O192  1  0.237900  0.775600  0.379800  1.0  -0.8133
  O  O193  1  0.347900  0.597200  0.308700  1.0  -0.7305
  O  O194  1  0.422300  0.577000  0.222700  1.0  -0.8718
  O  O195  1  0.381500  0.789700  0.187000  1.0  -0.9041
  O  O196  1  0.377800  0.868800  0.062700  1.0  -0.8204
  O  O197  1  0.276600  0.010900  0.075300  1.0  -0.7726
  O  O198  1  0.186400  0.184700  0.060100  1.0  -0.8549
  O  O199  1  0.184400  0.118100  0.189800  1.0  -0.7708
  O  O200  1  0.067200  0.180200  0.226700  1.0  -0.8344
  O  O201  1  0.103200  0.992300  0.307500  1.0  -0.8448
  O  O202  1  0.116300  0.785600  0.278800  1.0  -0.7995
  O  O203  1  0.207400  0.639200  0.280300  1.0  -0.7381
  O  O204  1  0.283300  0.650800  0.176500  1.0  -0.7955
  O  O205  1  0.257900  0.801700  0.089100  1.0  -0.8523
  O  O206  1  0.147400  0.986100  0.086400  1.0  -0.8236
  O  O207  1  0.077700  0.984200  0.174400  1.0  -0.8729
  O  O208  1  0.178200  0.796900  0.177500  1.0  -0.8089
  O  O209  1  0.065200  0.579700  0.227900  1.0  -0.8306
  O  O210  1  0.143100  0.610800  0.143400  1.0  -0.754
  O  O211  1  0.203000  0.602100  0.044100  1.0  -0.8123
  O  O212  1  0.112300  0.758900  0.045200  1.0  -0.7076
  O  O213  1  0.040300  0.752700  0.146500  1.0  -0.8327
  O  O214  1  0.967900  0.043000  0.038000  1.0  -0.7903
  O  O215  1  0.933500  0.920300  0.092900  1.0  -0.7432
  O  O216  1  0.824400  0.896500  0.180900  1.0  -0.6045
  O  O217  1  0.632600  0.801100  0.389600  1.0  -0.6207
  O  O218  1  0.315300  0.121800  0.980300  1.0  -0.6305
  O  O219  1  0.505300  0.371000  0.066500  1.0  -0.7713
  O  O220  1  0.555300  0.661800  0.227800  1.0  -0.8612
  O  O221  1  0.675400  0.643400  0.063200  1.0  -0.9038
  O  O222  1  0.648900  0.444500  0.109500  1.0  -0.8671
  O  O223  1  0.583500  0.453400  0.196700  1.0  -0.8724
  O  O224  1  0.672600  0.599600  0.194300  1.0  -0.7922
  O  O225  1  0.769800  0.474900  0.090800  1.0  -0.8262
  O  O226  1  0.623100  0.237700  0.092400  1.0  -0.8681
  O  O227  1  0.557200  0.245700  0.182000  1.0  -0.8641
  O  O228  1  0.597400  0.495300  0.322800  1.0  -0.8184
  O  O229  1  0.690000  0.647600  0.323800  1.0  -0.7423
  O  O230  1  0.796400  0.637000  0.178100  1.0  -0.8234
  O  O231  1  0.687900  0.289700  0.214200  1.0  -0.8473
  O  O232  1  0.715800  0.456000  0.308900  1.0  -0.8311
  O  O233  1  0.786500  0.449100  0.215600  1.0  -0.8417
  O  O234  1  0.762100  0.275600  0.120200  1.0  -0.8135
  O  O235  1  0.652100  0.097200  0.191300  1.0  -0.7312
  O  O236  1  0.577700  0.077000  0.277300  1.0  -0.8724
  O  O237  1  0.618500  0.289700  0.313000  1.0  -0.9091
  O  O238  1  0.622200  0.368800  0.437300  1.0  -0.8196
  O  O239  1  0.723400  0.510900  0.424700  1.0  -0.77
  O  O240  1  0.813600  0.684700  0.439900  1.0  -0.8547
  O  O241  1  0.815600  0.618100  0.310200  1.0  -0.7698
  O  O242  1  0.932800  0.680200  0.273300  1.0  -0.8346
  O  O243  1  0.896800  0.492300  0.192500  1.0  -0.8481
  O  O244  1  0.883700  0.285600  0.221200  1.0  -0.7987
  O  O245  1  0.792600  0.139200  0.219700  1.0  -0.738
  O  O246  1  0.716700  0.150800  0.323500  1.0  -0.7988
  O  O247  1  0.742100  0.301700  0.410900  1.0  -0.8529
  O  O248  1  0.852600  0.486100  0.413600  1.0  -0.823
  O  O249  1  0.922300  0.484200  0.325600  1.0  -0.8719
  O  O250  1  0.821800  0.296900  0.322500  1.0  -0.8083
  O  O251  1  0.934800  0.079700  0.272100  1.0  -0.8305
  O  O252  1  0.856900  0.110800  0.356600  1.0  -0.7532
  O  O253  1  0.797000  0.102100  0.455900  1.0  -0.8136
  O  O254  1  0.887700  0.258900  0.454800  1.0  -0.7065
  O  O255  1  0.959700  0.252700  0.353500  1.0  -0.8345
  O  O256  1  0.032100  0.543000  0.462000  1.0  -0.7909
  O  O257  1  0.066500  0.420300  0.407100  1.0  -0.7436
  O  O258  1  0.175600  0.396500  0.319100  1.0  -0.6033
  O  O259  1  0.367400  0.301100  0.110400  1.0  -0.6213
  O  O260  1  0.684700  0.621800  0.519700  1.0  -0.6299
