# generated using pymatgen
data_Cs4NaYSiH3W11(CO21)2
_symmetry_space_group_name_H-M   'P 1'
_cell_length_a   20.13990000
_cell_length_b   12.65270000
_cell_length_c   21.14730000
_cell_angle_alpha   90.00000000
_cell_angle_beta   110.70200000
_cell_angle_gamma   90.00000000
_symmetry_Int_Tables_number   1
_chemical_formula_structural   Cs4NaYSiH3W11(CO21)2
_chemical_formula_sum   'Cs16 Na4 Y4 Si4 H12 W44 C8 O168'
_cell_volume   5040.89354992
_cell_formula_units_Z   4
loop_
 _symmetry_equiv_pos_site_id
 _symmetry_equiv_pos_as_xyz
  1  'x, y, z'
loop_
 _atom_site_type_symbol
 _atom_site_label
 _atom_site_symmetry_multiplicity
 _atom_site_fract_x
 _atom_site_fract_y
 _atom_site_fract_z
 _atom_site_occupancy
 _atom_site_charge
  Cs  Cs1  1  0.189100  0.238400  0.430900  1.0  0.916
  Cs  Cs2  1  0.672700  0.157200  0.989400  1.0  0.9065
  Cs  Cs3  1  0.472200  0.368500  0.738900  1.0  0.8852
  Cs  Cs4  1  0.027100  0.382200  0.768200  1.0  0.8898
  Cs  Cs5  1  0.810900  0.738400  0.069100  1.0  0.9154
  Cs  Cs6  1  0.327300  0.657200  0.510600  1.0  0.9061
  Cs  Cs7  1  0.527800  0.868500  0.761100  1.0  0.8847
  Cs  Cs8  1  0.972900  0.882200  0.731800  1.0  0.8891
  Cs  Cs9  1  0.810900  0.761600  0.569100  1.0  0.9151
  Cs  Cs10  1  0.327300  0.842800  0.010600  1.0  0.9058
  Cs  Cs11  1  0.527800  0.631500  0.261100  1.0  0.8849
  Cs  Cs12  1  0.972900  0.617800  0.231800  1.0  0.8919
  Cs  Cs13  1  0.189100  0.261600  0.930900  1.0  0.9154
  Cs  Cs14  1  0.672700  0.342800  0.489400  1.0  0.9067
  Cs  Cs15  1  0.472200  0.131500  0.238900  1.0  0.8854
  Cs  Cs16  1  0.027100  0.117800  0.268200  1.0  0.887
  Na  Na17  1  0.405400  0.246500  0.521000  1.0  0.9258
  Na  Na18  1  0.594600  0.746500  0.979000  1.0  0.9444
  Na  Na19  1  0.594600  0.753500  0.479000  1.0  0.9447
  Na  Na20  1  0.405400  0.253500  0.021000  1.0  0.9257
  Y  Y21  1  0.954900  0.390110  0.926680  1.0  2.0429
  Y  Y22  1  0.045100  0.890110  0.573320  1.0  2.0434
  Y  Y23  1  0.045100  0.609890  0.073320  1.0  2.0431
  Y  Y24  1  0.954900  0.109890  0.426680  1.0  2.0426
  Si  Si25  1  0.753200  0.370300  0.764800  1.0  1.3866
  Si  Si26  1  0.246800  0.870300  0.735200  1.0  1.3862
  Si  Si27  1  0.246800  0.629700  0.235200  1.0  1.3876
  Si  Si28  1  0.753200  0.129700  0.264800  1.0  1.388
  H  H29  1  0.112600  0.622800  0.888200  1.0  0.1122
  H  H30  1  0.145600  0.628100  0.967300  1.0  0.1027
  H  H31  1  0.171000  0.541200  0.928200  1.0  0.1189
  H  H32  1  0.887400  0.122800  0.611800  1.0  0.1125
  H  H33  1  0.854400  0.128100  0.532700  1.0  0.103
  H  H34  1  0.829000  0.041200  0.571800  1.0  0.1201
  H  H35  1  0.887400  0.377200  0.111800  1.0  0.1131
  H  H36  1  0.854400  0.371900  0.032700  1.0  0.1031
  H  H37  1  0.829000  0.458800  0.071800  1.0  0.1197
  H  H38  1  0.112600  0.877200  0.388200  1.0  0.1126
  H  H39  1  0.145600  0.871900  0.467300  1.0  0.1029
  H  H40  1  0.171000  0.958800  0.428200  1.0  0.1192
  W  W41  1  0.587130  0.348900  0.631200  1.0  2.4035
  W  W42  1  0.623900  0.572140  0.753830  1.0  2.5664
  W  W43  1  0.662820  0.392500  0.878710  1.0  2.5112
  W  W44  1  0.807920  0.197420  0.900720  1.0  2.5087
  W  W45  1  0.785160  0.577010  0.882740  1.0  2.3936
  W  W46  1  0.630320  0.170100  0.760230  1.0  2.4372
  W  W47  1  0.838540  0.373610  0.646290  1.0  1.2552
  W  W48  1  0.888560  0.182270  0.790230  1.0  2.5673
  W  W49  1  0.875170  0.571690  0.761490  1.0  2.3745
  W  W50  1  0.715590  0.560190  0.630050  1.0  2.4682
  W  W51  1  0.712570  0.163570  0.647580  1.0  1.4822
  W  W52  1  0.412870  0.848900  0.868800  1.0  2.4038
  W  W53  1  0.376100  0.072140  0.746170  1.0  2.5656
  W  W54  1  0.337180  0.892500  0.621290  1.0  2.5144
  W  W55  1  0.192080  0.697420  0.599280  1.0  2.5075
  W  W56  1  0.214840  0.077010  0.617260  1.0  2.3917
  W  W57  1  0.369680  0.670100  0.739770  1.0  2.4362
  W  W58  1  0.161460  0.873610  0.853710  1.0  1.2536
  W  W59  1  0.111440  0.682270  0.709770  1.0  2.5679
  W  W60  1  0.124830  0.071690  0.738510  1.0  2.3735
  W  W61  1  0.284410  0.060190  0.869950  1.0  2.4664
  W  W62  1  0.287430  0.663570  0.852420  1.0  1.4841
  W  W63  1  0.412870  0.651100  0.368800  1.0  2.4041
  W  W64  1  0.376100  0.427860  0.246170  1.0  2.5645
  W  W65  1  0.337180  0.607500  0.121290  1.0  2.5149
  W  W66  1  0.192080  0.802580  0.099280  1.0  2.5081
  W  W67  1  0.214840  0.422990  0.117260  1.0  2.3904
  W  W68  1  0.369680  0.829900  0.239770  1.0  2.4388
  W  W69  1  0.161460  0.626390  0.353710  1.0  1.2532
  W  W70  1  0.111440  0.817730  0.209770  1.0  2.5658
  W  W71  1  0.124830  0.428310  0.238510  1.0  2.3716
  W  W72  1  0.284410  0.439810  0.369950  1.0  2.468
  W  W73  1  0.287430  0.836430  0.352420  1.0  1.4836
  W  W74  1  0.587130  0.151100  0.131200  1.0  2.4035
  W  W75  1  0.623900  0.927860  0.253830  1.0  2.5652
  W  W76  1  0.662820  0.107500  0.378710  1.0  2.5119
  W  W77  1  0.807920  0.302580  0.400720  1.0  2.5091
  W  W78  1  0.785160  0.922990  0.382740  1.0  2.3919
  W  W79  1  0.630320  0.329900  0.260230  1.0  2.4391
  W  W80  1  0.838540  0.126390  0.146290  1.0  1.2558
  W  W81  1  0.888560  0.317730  0.290230  1.0  2.5664
  W  W82  1  0.875170  0.928310  0.261490  1.0  2.3731
  W  W83  1  0.715590  0.939810  0.130050  1.0  2.4698
  W  W84  1  0.712570  0.336430  0.147580  1.0  1.4853
  C  C85  1  0.075900  0.510400  0.933600  1.0  0.6387
  C  C86  1  0.131000  0.581800  0.928900  1.0  -0.5075
  C  C87  1  0.924100  0.010400  0.566400  1.0  0.6397
  C  C88  1  0.869000  0.081800  0.571100  1.0  -0.5076
  C  C89  1  0.924100  0.489600  0.066400  1.0  0.6401
  C  C90  1  0.869000  0.418200  0.071100  1.0  -0.5076
  C  C91  1  0.075900  0.989600  0.433600  1.0  0.6387
  C  C92  1  0.131000  0.918200  0.428900  1.0  -0.5073
  O  O93  1  0.933200  0.678400  0.771300  1.0  -0.8452
  O  O94  1  0.579000  0.076000  0.778600  1.0  -0.8525
  O  O95  1  0.556500  0.661300  0.727700  1.0  -0.853
  O  O96  1  0.955700  0.253900  0.852300  1.0  -0.8358
  O  O97  1  0.507600  0.373000  0.567700  1.0  -0.7932
  O  O98  1  0.717900  0.145800  0.824000  1.0  -0.7831
  O  O99  1  0.857600  0.111500  0.854600  1.0  -0.7491
  O  O100  1  0.813900  0.682100  0.938900  1.0  -0.8399
  O  O101  1  0.799900  0.102300  0.955800  1.0  -0.8001
  O  O102  1  0.886900  0.261300  0.951100  1.0  -0.711
  O  O103  1  0.620900  0.369700  0.936700  1.0  -0.8055
  O  O104  1  0.854000  0.485300  0.913000  1.0  -0.8275
  O  O105  1  0.814600  0.299900  0.815300  1.0  -0.7816
  O  O106  1  0.717900  0.450800  0.804800  1.0  -0.7897
  O  O107  1  0.785500  0.442400  0.718900  1.0  -0.7612
  O  O108  1  0.618800  0.288700  0.813200  1.0  -0.9036
  O  O109  1  0.924700  0.481500  0.825000  1.0  -0.864
  O  O110  1  0.691400  0.645900  0.823600  1.0  -0.7427
  O  O111  1  0.559700  0.248800  0.683800  1.0  -0.8484
  O  O112  1  0.652000  0.097100  0.690200  1.0  -0.724
  O  O113  1  0.797500  0.632800  0.678400  1.0  -0.8099
  O  O114  1  0.675800  0.647000  0.563600  1.0  -0.8929
  O  O115  1  0.936300  0.079400  0.773000  1.0  -0.8536
  O  O116  1  0.794200  0.133900  0.717700  1.0  -0.6924
  O  O117  1  0.885400  0.284100  0.719500  1.0  -0.7619
  O  O118  1  0.599200  0.495100  0.821600  1.0  -0.83
  O  O119  1  0.720800  0.509100  0.922200  1.0  -0.7661
  O  O120  1  0.739600  0.299300  0.909900  1.0  -0.8287
  O  O121  1  0.672900  0.601800  0.693500  1.0  -0.8129
  O  O122  1  0.624600  0.238700  0.593000  1.0  -0.8639
  O  O123  1  0.647600  0.444500  0.607900  1.0  -0.8704
  O  O124  1  0.897300  0.489300  0.691900  1.0  -0.8545
  O  O125  1  0.771900  0.473900  0.591200  1.0  -0.832
  O  O126  1  0.761700  0.270900  0.619100  1.0  -0.7865
  O  O127  1  0.583300  0.452800  0.695600  1.0  -0.8548
  O  O128  1  0.816400  0.618900  0.809500  1.0  -0.7514
  O  O129  1  0.366800  0.302600  0.612800  1.0  -0.5922
  O  O130  1  0.173700  0.395500  0.817500  1.0  -0.6457
  O  O131  1  0.033500  0.540500  0.962400  1.0  -0.7743
  O  O132  1  0.312100  0.122400  0.480700  1.0  -0.732
  O  O133  1  0.065900  0.422100  0.907800  1.0  -0.7054
  O  O134  1  0.693000  0.294300  0.716100  1.0  -0.7863
  O  O135  1  0.066800  0.178400  0.728700  1.0  -0.8454
  O  O136  1  0.421000  0.576000  0.721400  1.0  -0.851
  O  O137  1  0.443500  0.161300  0.772300  1.0  -0.8517
  O  O138  1  0.044300  0.753900  0.647700  1.0  -0.8337
  O  O139  1  0.492400  0.873000  0.932300  1.0  -0.7919
  O  O140  1  0.282100  0.645800  0.676000  1.0  -0.7808
  O  O141  1  0.142400  0.611500  0.645400  1.0  -0.7493
  O  O142  1  0.186100  0.182100  0.561100  1.0  -0.8405
  O  O143  1  0.200100  0.602300  0.544200  1.0  -0.7987
  O  O144  1  0.113100  0.761300  0.548900  1.0  -0.7112
  O  O145  1  0.379100  0.869700  0.563300  1.0  -0.8034
  O  O146  1  0.146000  0.985300  0.587000  1.0  -0.8283
  O  O147  1  0.185400  0.799900  0.684700  1.0  -0.782
  O  O148  1  0.282100  0.950800  0.695200  1.0  -0.7899
  O  O149  1  0.214500  0.942400  0.781100  1.0  -0.7609
  O  O150  1  0.381200  0.788700  0.686800  1.0  -0.8981
  O  O151  1  0.075300  0.981500  0.675000  1.0  -0.8648
  O  O152  1  0.308600  0.145900  0.676400  1.0  -0.7428
  O  O153  1  0.440300  0.748800  0.816200  1.0  -0.8472
  O  O154  1  0.348000  0.597100  0.809800  1.0  -0.7233
  O  O155  1  0.202500  0.132800  0.821600  1.0  -0.8108
  O  O156  1  0.324200  0.147000  0.936400  1.0  -0.8893
  O  O157  1  0.063700  0.579400  0.727000  1.0  -0.8535
  O  O158  1  0.205800  0.633900  0.782300  1.0  -0.6924
  O  O159  1  0.114600  0.784100  0.780500  1.0  -0.7636
  O  O160  1  0.400800  0.995100  0.678400  1.0  -0.831
  O  O161  1  0.279200  0.009100  0.577800  1.0  -0.7681
  O  O162  1  0.260400  0.799300  0.590100  1.0  -0.8285
  O  O163  1  0.327100  0.101800  0.806500  1.0  -0.8113
  O  O164  1  0.375400  0.738700  0.907000  1.0  -0.8645
  O  O165  1  0.352400  0.944500  0.892100  1.0  -0.8713
  O  O166  1  0.102700  0.989300  0.808100  1.0  -0.8506
  O  O167  1  0.228100  0.973900  0.908800  1.0  -0.8278
  O  O168  1  0.238300  0.770900  0.880900  1.0  -0.7872
  O  O169  1  0.416700  0.952800  0.804400  1.0  -0.8511
  O  O170  1  0.183600  0.118900  0.690500  1.0  -0.7522
  O  O171  1  0.633200  0.802600  0.887200  1.0  -0.5916
  O  O172  1  0.826300  0.895500  0.682500  1.0  -0.6462
  O  O173  1  0.966500  0.040500  0.537600  1.0  -0.775
  O  O174  1  0.687900  0.622400  0.019300  1.0  -0.7323
  O  O175  1  0.934100  0.922100  0.592200  1.0  -0.7053
  O  O176  1  0.307000  0.794300  0.783900  1.0  -0.7869
  O  O177  1  0.066800  0.321600  0.228700  1.0  -0.8461
  O  O178  1  0.421000  0.924000  0.221400  1.0  -0.8511
  O  O179  1  0.443500  0.338700  0.272300  1.0  -0.8518
  O  O180  1  0.044300  0.746100  0.147700  1.0  -0.8351
  O  O181  1  0.492400  0.627000  0.432300  1.0  -0.7928
  O  O182  1  0.282100  0.854200  0.176000  1.0  -0.7825
  O  O183  1  0.142400  0.888500  0.145400  1.0  -0.7415
  O  O184  1  0.186100  0.317900  0.061100  1.0  -0.8413
  O  O185  1  0.200100  0.897700  0.044200  1.0  -0.7997
  O  O186  1  0.113100  0.738700  0.048900  1.0  -0.7113
  O  O187  1  0.379100  0.630300  0.063300  1.0  -0.8033
  O  O188  1  0.146000  0.514700  0.087000  1.0  -0.8273
  O  O189  1  0.185400  0.700100  0.184700  1.0  -0.7816
  O  O190  1  0.282100  0.549200  0.195200  1.0  -0.7906
  O  O191  1  0.214500  0.557600  0.281100  1.0  -0.7608
  O  O192  1  0.381200  0.711300  0.186800  1.0  -0.8983
  O  O193  1  0.075300  0.518500  0.175000  1.0  -0.8636
  O  O194  1  0.308600  0.354100  0.176400  1.0  -0.7493
  O  O195  1  0.440300  0.751200  0.316200  1.0  -0.8479
  O  O196  1  0.348000  0.902900  0.309800  1.0  -0.7143
  O  O197  1  0.202500  0.367200  0.321600  1.0  -0.8112
  O  O198  1  0.324200  0.353000  0.436400  1.0  -0.8886
  O  O199  1  0.063700  0.920600  0.227000  1.0  -0.8531
  O  O200  1  0.205800  0.866100  0.282300  1.0  -0.6952
  O  O201  1  0.114600  0.715900  0.280500  1.0  -0.7633
  O  O202  1  0.400800  0.504900  0.178400  1.0  -0.8308
  O  O203  1  0.279200  0.490900  0.077800  1.0  -0.7678
  O  O204  1  0.260400  0.700700  0.090100  1.0  -0.8289
  O  O205  1  0.327100  0.398200  0.306500  1.0  -0.8117
  O  O206  1  0.375400  0.761300  0.407000  1.0  -0.8643
  O  O207  1  0.352400  0.555500  0.392100  1.0  -0.8713
  O  O208  1  0.102700  0.510700  0.308100  1.0  -0.8506
  O  O209  1  0.228100  0.526100  0.408800  1.0  -0.8276
  O  O210  1  0.238300  0.729100  0.380900  1.0  -0.7876
  O  O211  1  0.416700  0.547200  0.304400  1.0  -0.8511
  O  O212  1  0.183600  0.381100  0.190500  1.0  -0.7531
  O  O213  1  0.633200  0.697400  0.387200  1.0  -0.5923
  O  O214  1  0.826300  0.604500  0.182500  1.0  -0.6462
  O  O215  1  0.966500  0.459500  0.037600  1.0  -0.7748
  O  O216  1  0.687900  0.877600  0.519300  1.0  -0.733
  O  O217  1  0.934100  0.577900  0.092200  1.0  -0.7041
  O  O218  1  0.307000  0.705700  0.283900  1.0  -0.7868
  O  O219  1  0.933200  0.821600  0.271300  1.0  -0.8461
  O  O220  1  0.579000  0.424000  0.278600  1.0  -0.8518
  O  O221  1  0.556500  0.838700  0.227700  1.0  -0.8531
  O  O222  1  0.955700  0.246100  0.352300  1.0  -0.8353
  O  O223  1  0.507600  0.127000  0.067700  1.0  -0.7936
  O  O224  1  0.717900  0.354200  0.324000  1.0  -0.783
  O  O225  1  0.857600  0.388500  0.354600  1.0  -0.741
  O  O226  1  0.813900  0.817900  0.438900  1.0  -0.8422
  O  O227  1  0.799900  0.397700  0.455800  1.0  -0.799
  O  O228  1  0.886900  0.238700  0.451100  1.0  -0.7109
  O  O229  1  0.620900  0.130300  0.436700  1.0  -0.8055
  O  O230  1  0.854000  0.014700  0.413000  1.0  -0.8267
  O  O231  1  0.814600  0.200100  0.315300  1.0  -0.7815
  O  O232  1  0.717900  0.049200  0.304800  1.0  -0.7902
  O  O233  1  0.785500  0.057600  0.218900  1.0  -0.7609
  O  O234  1  0.618800  0.211300  0.313200  1.0  -0.9043
  O  O235  1  0.924700  0.018500  0.325000  1.0  -0.8629
  O  O236  1  0.691400  0.854100  0.323600  1.0  -0.7487
  O  O237  1  0.559700  0.251200  0.183800  1.0  -0.8492
  O  O238  1  0.652000  0.402900  0.190200  1.0  -0.7166
  O  O239  1  0.797500  0.867200  0.178400  1.0  -0.8107
  O  O240  1  0.675800  0.853000  0.063600  1.0  -0.8913
  O  O241  1  0.936300  0.420600  0.273000  1.0  -0.8526
  O  O242  1  0.794200  0.366100  0.217700  1.0  -0.6948
  O  O243  1  0.885400  0.215900  0.219500  1.0  -0.762
  O  O244  1  0.599200  0.004900  0.321600  1.0  -0.8305
  O  O245  1  0.720800  0.990900  0.422200  1.0  -0.7681
  O  O246  1  0.739600  0.200700  0.409900  1.0  -0.8292
  O  O247  1  0.672900  0.898200  0.193500  1.0  -0.812
  O  O248  1  0.624600  0.261300  0.093000  1.0  -0.8652
  O  O249  1  0.647600  0.055500  0.107900  1.0  -0.8696
  O  O250  1  0.897300  0.010700  0.191900  1.0  -0.854
  O  O251  1  0.771900  0.026100  0.091200  1.0  -0.8312
  O  O252  1  0.761700  0.229100  0.119100  1.0  -0.7877
  O  O253  1  0.583300  0.047200  0.195600  1.0  -0.8544
  O  O254  1  0.816400  0.881100  0.309500  1.0  -0.7534
  O  O255  1  0.366800  0.197400  0.112800  1.0  -0.593
  O  O256  1  0.173700  0.104500  0.317500  1.0  -0.646
  O  O257  1  0.033500  0.959500  0.462400  1.0  -0.7736
  O  O258  1  0.312100  0.377600  0.980700  1.0  -0.7321
  O  O259  1  0.065900  0.077900  0.407800  1.0  -0.7017
  O  O260  1  0.693000  0.205700  0.216100  1.0  -0.7858
