# generated using pymatgen
data_CdH7C12(NO2)2
_symmetry_space_group_name_H-M   'P 1'
_cell_length_a   7.62970000
_cell_length_b   26.80790000
_cell_length_c   15.09220000
_cell_angle_alpha   90.00000000
_cell_angle_beta   90.83800000
_cell_angle_gamma   90.00000000
_symmetry_Int_Tables_number   1
_chemical_formula_structural   CdH7C12(NO2)2
_chemical_formula_sum   'Cd8 H56 C96 N16 O32'
_cell_volume   3086.57159771
_cell_formula_units_Z   8
loop_
 _symmetry_equiv_pos_site_id
 _symmetry_equiv_pos_as_xyz
  1  'x, y, z'
loop_
 _atom_site_type_symbol
 _atom_site_label
 _atom_site_symmetry_multiplicity
 _atom_site_fract_x
 _atom_site_fract_y
 _atom_site_fract_z
 _atom_site_occupancy
 _atom_site_charge
  Cd  Cd1  1  0.383200  0.164740  0.244870  1.0  1.0268
  Cd  Cd2  1  0.616800  0.835260  0.755130  1.0  1.0264
  Cd  Cd3  1  0.241690  0.090310  0.670640  1.0  0.9313
  Cd  Cd4  1  0.758310  0.909690  0.329360  1.0  0.931
  Cd  Cd5  1  0.616800  0.664740  0.255130  1.0  1.0256
  Cd  Cd6  1  0.383200  0.335260  0.744870  1.0  1.0259
  Cd  Cd7  1  0.758310  0.590310  0.829360  1.0  0.9313
  Cd  Cd8  1  0.241690  0.409690  0.170640  1.0  0.9317
  H  H9  1  0.790600  0.147000  0.264400  1.0  0.0786
  H  H10  1  0.448300  0.118600  0.447000  1.0  0.0859
  H  H11  1  0.666667  0.093200  0.542600  1.0  0.1156
  H  H12  1  0.409100  0.044000  0.237200  1.0  0.0756
  H  H13  1  0.438100  0.978900  0.140100  1.0  0.1202
  H  H14  1  0.547200  0.078200  0.950700  1.0  0.1293
  H  H15  1  0.509100  0.140200  0.053200  1.0  0.0794
  H  H16  1  0.209400  0.853000  0.735600  1.0  0.0784
  H  H17  1  0.551700  0.881400  0.553000  1.0  0.0835
  H  H18  1  0.333333  0.906800  0.457400  1.0  0.1153
  H  H19  1  0.590900  0.956000  0.762800  1.0  0.0756
  H  H20  1  0.561900  0.021100  0.859900  1.0  0.122
  H  H21  1  0.452800  0.921800  0.049300  1.0  0.1289
  H  H22  1  0.490900  0.859800  0.946800  1.0  0.0798
  H  H23  1  0.171500  0.210700  0.721000  1.0  0.0749
  H  H24  1  0.945400  0.266900  0.724300  1.0  0.1101
  H  H25  1  0.844900  0.099500  0.725500  1.0  0.0686
  H  H26  1  0.189900  0.108600  0.866900  1.0  0.0781
  H  H27  1  0.088600  0.079900  0.998700  1.0  0.1288
  H  H28  1  0.001800  0.948000  0.882200  1.0  0.1261
  H  H29  1  0.096400  0.982300  0.751800  1.0  0.0755
  H  H30  1  0.828500  0.789300  0.279000  1.0  0.0745
  H  H31  1  0.054600  0.733100  0.275700  1.0  0.1104
  H  H32  1  0.155100  0.900500  0.274500  1.0  0.0691
  H  H33  1  0.810100  0.891400  0.133100  1.0  0.0787
  H  H34  1  0.911400  0.920100  0.001300  1.0  0.1283
  H  H35  1  0.998200  0.052000  0.117800  1.0  0.1266
  H  H36  1  0.903600  0.017700  0.248200  1.0  0.0759
  H  H37  1  0.209400  0.647000  0.235600  1.0  0.0783
  H  H38  1  0.551700  0.618600  0.053000  1.0  0.0835
  H  H39  1  0.333333  0.593200  0.957400  1.0  0.1154
  H  H40  1  0.590900  0.544000  0.262800  1.0  0.0755
  H  H41  1  0.561900  0.478900  0.359900  1.0  0.12
  H  H42  1  0.452800  0.578200  0.549300  1.0  0.1287
  H  H43  1  0.490900  0.640200  0.446800  1.0  0.0798
  H  H44  1  0.790600  0.353000  0.764400  1.0  0.0785
  H  H45  1  0.448300  0.381400  0.947000  1.0  0.0859
  H  H46  1  0.666667  0.406800  0.042600  1.0  0.1153
  H  H47  1  0.409100  0.456000  0.737200  1.0  0.0757
  H  H48  1  0.438100  0.521100  0.640100  1.0  0.1212
  H  H49  1  0.547200  0.421800  0.450700  1.0  0.1294
  H  H50  1  0.509100  0.359800  0.553200  1.0  0.0792
  H  H51  1  0.828500  0.710700  0.779000  1.0  0.0742
  H  H52  1  0.054600  0.766900  0.775700  1.0  0.1097
  H  H53  1  0.155100  0.599500  0.774500  1.0  0.0688
  H  H54  1  0.810100  0.608600  0.633100  1.0  0.0783
  H  H55  1  0.911400  0.579900  0.501300  1.0  0.1292
  H  H56  1  0.998200  0.448000  0.617800  1.0  0.1265
  H  H57  1  0.903600  0.482300  0.748200  1.0  0.0759
  H  H58  1  0.171500  0.289300  0.221000  1.0  0.0748
  H  H59  1  0.945400  0.233100  0.224300  1.0  0.1103
  H  H60  1  0.844900  0.400500  0.225500  1.0  0.0689
  H  H61  1  0.189900  0.391400  0.366900  1.0  0.0788
  H  H62  1  0.088600  0.420100  0.498700  1.0  0.1282
  H  H63  1  0.001800  0.552000  0.382200  1.0  0.1272
  H  H64  1  0.096400  0.517700  0.251800  1.0  0.0754
  C  C65  1  0.012700  0.094090  0.527300  1.0  0.696
  C  C66  1  0.869200  0.106450  0.460600  1.0  -0.0653
  C  C67  1  0.905600  0.123500  0.376500  1.0  -0.0952
  C  C68  1  0.766000  0.136650  0.321700  1.0  0.1941
  C  C69  1  0.564000  0.119520  0.428400  1.0  0.1713
  C  C70  1  0.694800  0.104550  0.486300  1.0  -0.1077
  C  C71  1  0.088100  0.128410  0.339100  1.0  0.6741
  C  C72  1  0.433800  0.050950  0.178300  1.0  0.1845
  C  C73  1  0.452500  0.011510  0.120300  1.0  -0.1885
  C  C74  1  0.492900  0.020640  0.032300  1.0  0.0633
  C  C75  1  0.516200  0.070100  0.008300  1.0  -0.2136
  C  C76  1  0.493100  0.107260  0.070600  1.0  0.1772
  C  C77  1  0.987300  0.905910  0.472700  1.0  0.6971
  C  C78  1  0.130800  0.893550  0.539400  1.0  -0.0654
  C  C79  1  0.094400  0.876500  0.623500  1.0  -0.0953
  C  C80  1  0.234000  0.863350  0.678300  1.0  0.1948
  C  C81  1  0.436000  0.880480  0.571600  1.0  0.172
  C  C82  1  0.305200  0.895450  0.513700  1.0  -0.108
  C  C83  1  0.911900  0.871590  0.660900  1.0  0.6764
  C  C84  1  0.566200  0.949050  0.821700  1.0  0.1869
  C  C85  1  0.547500  0.988490  0.879700  1.0  -0.1901
  C  C86  1  0.507100  0.979360  0.967700  1.0  0.0632
  C  C87  1  0.483800  0.929900  0.991700  1.0  -0.2102
  C  C88  1  0.506900  0.892740  0.929400  1.0  0.176
  C  C89  1  0.056800  0.198940  0.721000  1.0  0.1589
  C  C90  1  0.921300  0.232940  0.722100  1.0  -0.1436
  C  C91  1  0.749000  0.216440  0.720000  1.0  -0.0297
  C  C92  1  0.719600  0.165070  0.721800  1.0  -0.1233
  C  C93  1  0.864200  0.133690  0.722700  1.0  0.1557
  C  C94  1  0.543500  0.140230  0.712600  1.0  0.6859
  C  C95  1  0.605100  0.254990  0.721000  1.0  0.6794
  C  C96  1  0.148900  0.075960  0.869700  1.0  0.1753
  C  C97  1  0.089500  0.058930  0.949600  1.0  -0.1993
  C  C98  1  0.030500  0.009890  0.956500  1.0  0.0793
  C  C99  1  0.036900  0.981200  0.880800  1.0  -0.1986
  C  C100  1  0.095800  0.001990  0.802500  1.0  0.1825
  C  C101  1  0.943200  0.801060  0.279000  1.0  0.1585
  C  C102  1  0.078700  0.767060  0.277900  1.0  -0.1429
  C  C103  1  0.251000  0.783560  0.280000  1.0  -0.0291
  C  C104  1  0.280400  0.834930  0.278200  1.0  -0.124
  C  C105  1  0.135800  0.866310  0.277300  1.0  0.157
  C  C106  1  0.456500  0.859770  0.287400  1.0  0.6865
  C  C107  1  0.394900  0.745010  0.279000  1.0  0.6808
  C  C108  1  0.851100  0.924040  0.130300  1.0  0.1746
  C  C109  1  0.910500  0.941070  0.050400  1.0  -0.1988
  C  C110  1  0.969500  0.990110  0.043500  1.0  0.0791
  C  C111  1  0.963100  0.018800  0.119200  1.0  -0.1992
  C  C112  1  0.904200  0.998010  0.197500  1.0  0.181
  C  C113  1  0.987300  0.594090  0.972700  1.0  0.6977
  C  C114  1  0.130800  0.606450  0.039400  1.0  -0.0658
  C  C115  1  0.094400  0.623500  0.123500  1.0  -0.095
  C  C116  1  0.234000  0.636650  0.178300  1.0  0.1945
  C  C117  1  0.436000  0.619520  0.071600  1.0  0.1723
  C  C118  1  0.305200  0.604550  0.013700  1.0  -0.1082
  C  C119  1  0.911900  0.628410  0.160900  1.0  0.6759
  C  C120  1  0.566200  0.550950  0.321700  1.0  0.1864
  C  C121  1  0.547500  0.511510  0.379700  1.0  -0.1884
  C  C122  1  0.507100  0.520640  0.467700  1.0  0.0635
  C  C123  1  0.483800  0.570100  0.491700  1.0  -0.2128
  C  C124  1  0.506900  0.607260  0.429400  1.0  0.1766
  C  C125  1  0.012700  0.405910  0.027300  1.0  0.695
  C  C126  1  0.869200  0.393550  0.960600  1.0  -0.0654
  C  C127  1  0.905600  0.376500  0.876500  1.0  -0.0952
  C  C128  1  0.766000  0.363350  0.821700  1.0  0.1944
  C  C129  1  0.564000  0.380480  0.928400  1.0  0.1713
  C  C130  1  0.694800  0.395450  0.986300  1.0  -0.1083
  C  C131  1  0.088100  0.371590  0.839100  1.0  0.6746
  C  C132  1  0.433800  0.449050  0.678300  1.0  0.1848
  C  C133  1  0.452500  0.488490  0.620300  1.0  -0.1889
  C  C134  1  0.492900  0.479360  0.532300  1.0  0.0629
  C  C135  1  0.516200  0.429900  0.508300  1.0  -0.2107
  C  C136  1  0.493100  0.392740  0.570600  1.0  0.1759
  C  C137  1  0.943200  0.698940  0.779000  1.0  0.1581
  C  C138  1  0.078700  0.732940  0.777900  1.0  -0.1436
  C  C139  1  0.251000  0.716440  0.780000  1.0  -0.029
  C  C140  1  0.280400  0.665070  0.778200  1.0  -0.1237
  C  C141  1  0.135800  0.633690  0.777300  1.0  0.1557
  C  C142  1  0.456500  0.640230  0.787400  1.0  0.6857
  C  C143  1  0.394900  0.754990  0.779000  1.0  0.6809
  C  C144  1  0.851100  0.575960  0.630300  1.0  0.1742
  C  C145  1  0.910500  0.558930  0.550400  1.0  -0.199
  C  C146  1  0.969500  0.509890  0.543500  1.0  0.0789
  C  C147  1  0.963100  0.481200  0.619200  1.0  -0.1974
  C  C148  1  0.904200  0.501990  0.697500  1.0  0.1812
  C  C149  1  0.056800  0.301060  0.221000  1.0  0.1585
  C  C150  1  0.921300  0.267060  0.222100  1.0  -0.1427
  C  C151  1  0.749000  0.283560  0.220000  1.0  -0.0307
  C  C152  1  0.719600  0.334930  0.221800  1.0  -0.124
  C  C153  1  0.864200  0.366310  0.222700  1.0  0.157
  C  C154  1  0.543500  0.359770  0.212600  1.0  0.6862
  C  C155  1  0.605100  0.245010  0.221000  1.0  0.68
  C  C156  1  0.148900  0.424040  0.369700  1.0  0.1753
  C  C157  1  0.089500  0.441070  0.449600  1.0  -0.1981
  C  C158  1  0.030500  0.490110  0.456500  1.0  0.0794
  C  C159  1  0.036900  0.518800  0.380800  1.0  -0.1998
  C  C160  1  0.095800  0.498010  0.302500  1.0  0.1824
  N  N161  1  0.597700  0.135470  0.346000  1.0  -0.3492
  N  N162  1  0.449300  0.098460  0.154000  1.0  -0.3404
  N  N163  1  0.402300  0.864530  0.654000  1.0  -0.3488
  N  N164  1  0.550700  0.901540  0.846000  1.0  -0.3426
  N  N165  1  0.029700  0.149960  0.719800  1.0  -0.3487
  N  N166  1  0.151400  0.048880  0.796800  1.0  -0.3569
  N  N167  1  0.970300  0.850040  0.280200  1.0  -0.3499
  N  N168  1  0.848600  0.951120  0.203200  1.0  -0.3565
  N  N169  1  0.402300  0.635470  0.154000  1.0  -0.3489
  N  N170  1  0.550700  0.598460  0.346000  1.0  -0.3401
  N  N171  1  0.597700  0.364530  0.846000  1.0  -0.3497
  N  N172  1  0.449300  0.401540  0.654000  1.0  -0.3424
  N  N173  1  0.970300  0.649960  0.780200  1.0  -0.3498
  N  N174  1  0.848600  0.548880  0.703200  1.0  -0.3575
  N  N175  1  0.029700  0.350040  0.219800  1.0  -0.349
  N  N176  1  0.151400  0.451120  0.296800  1.0  -0.3574
  O  O177  1  0.984200  0.060840  0.584190  1.0  -0.5983
  O  O178  1  0.150700  0.119130  0.525500  1.0  -0.6096
  O  O179  1  0.174900  0.090840  0.324100  1.0  -0.6181
  O  O180  1  0.137600  0.171810  0.321600  1.0  -0.5597
  O  O181  1  0.015800  0.939160  0.415810  1.0  -0.5961
  O  O182  1  0.849300  0.880870  0.474500  1.0  -0.6094
  O  O183  1  0.825100  0.909160  0.675900  1.0  -0.6183
  O  O184  1  0.862400  0.828190  0.678400  1.0  -0.5585
  O  O185  1  0.620200  0.291750  0.671000  1.0  -0.6552
  O  O186  1  0.483800  0.251060  0.774600  1.0  -0.5881
  O  O187  1  0.515700  0.101330  0.754500  1.0  -0.6062
  O  O188  1  0.436600  0.157440  0.658400  1.0  -0.5896
  O  O189  1  0.379800  0.708250  0.329000  1.0  -0.657
  O  O190  1  0.516200  0.748940  0.225400  1.0  -0.588
  O  O191  1  0.484300  0.898670  0.245500  1.0  -0.6057
  O  O192  1  0.563400  0.842560  0.341600  1.0  -0.5903
  O  O193  1  0.015800  0.560840  0.915810  1.0  -0.5978
  O  O194  1  0.849300  0.619130  0.974500  1.0  -0.6097
  O  O195  1  0.825100  0.590840  0.175900  1.0  -0.6185
  O  O196  1  0.862400  0.671810  0.178400  1.0  -0.5588
  O  O197  1  0.984200  0.439160  0.084190  1.0  -0.5966
  O  O198  1  0.150700  0.380870  0.025500  1.0  -0.6092
  O  O199  1  0.174900  0.409160  0.824100  1.0  -0.6181
  O  O200  1  0.137600  0.328190  0.821600  1.0  -0.5594
  O  O201  1  0.379800  0.791750  0.829000  1.0  -0.6548
  O  O202  1  0.516200  0.751060  0.725400  1.0  -0.5885
  O  O203  1  0.484300  0.601330  0.745500  1.0  -0.6065
  O  O204  1  0.563400  0.657440  0.841600  1.0  -0.591
  O  O205  1  0.620200  0.208250  0.171000  1.0  -0.6546
  O  O206  1  0.483800  0.248940  0.274600  1.0  -0.5878
  O  O207  1  0.515700  0.398670  0.254500  1.0  -0.6058
  O  O208  1  0.436600  0.342560  0.158400  1.0  -0.5894
