# generated using pymatgen
data_MnH8C13(NO2)2
_symmetry_space_group_name_H-M   'P 1'
_cell_length_a   22.75910000
_cell_length_b   11.13120000
_cell_length_c   11.68100000
_cell_angle_alpha   90.00000000
_cell_angle_beta   111.65200000
_cell_angle_gamma   90.00000000
_symmetry_Int_Tables_number   1
_chemical_formula_structural   MnH8C13(NO2)2
_chemical_formula_sum   'Mn8 H64 C104 N16 O32'
_cell_volume   2750.42235616
_cell_formula_units_Z   8
loop_
 _symmetry_equiv_pos_site_id
 _symmetry_equiv_pos_as_xyz
  1  'x, y, z'
loop_
 _atom_site_type_symbol
 _atom_site_label
 _atom_site_symmetry_multiplicity
 _atom_site_fract_x
 _atom_site_fract_y
 _atom_site_fract_z
 _atom_site_occupancy
 _atom_site_charge
  Mn  Mn1  1  0.320210  0.083830  0.062810  1.0  1.0144
  Mn  Mn2  1  0.820210  0.583830  0.062810  1.0  1.0144
  Mn  Mn3  1  0.679790  0.083830  0.437190  1.0  1.0147
  Mn  Mn4  1  0.179790  0.583830  0.437190  1.0  1.0147
  Mn  Mn5  1  0.679790  0.916170  0.937190  1.0  1.015
  Mn  Mn6  1  0.179790  0.416170  0.937190  1.0  1.015
  Mn  Mn7  1  0.320210  0.916170  0.562810  1.0  1.0153
  Mn  Mn8  1  0.820210  0.416170  0.562810  1.0  1.0153
  H  H9  1  0.206400  0.915500  0.062900  1.0  0.0825
  H  H10  1  0.142300  0.760300  0.960200  1.0  0.1284
  H  H11  1  0.276600  0.946300  0.806900  1.0  0.0845
  H  H12  1  0.427900  0.116800  0.334100  1.0  0.0838
  H  H13  1  0.483800  0.259900  0.473000  1.0  0.1272
  H  H14  1  0.397800  0.509300  0.223500  1.0  0.1134
  H  H15  1  0.343200  0.360900  0.095200  1.0  0.0701
  H  H16  1  0.473900  0.592000  0.431000  1.0  0.1957
  H  H17  1  0.706400  0.415500  0.062900  1.0  0.0825
  H  H18  1  0.642300  0.260300  0.960200  1.0  0.1284
  H  H19  1  0.776600  0.446300  0.806900  1.0  0.0845
  H  H20  1  0.927900  0.616800  0.334100  1.0  0.0838
  H  H21  1  0.983800  0.759900  0.473000  1.0  0.1272
  H  H22  1  0.897800  0.009300  0.223500  1.0  0.1134
  H  H23  1  0.843200  0.860900  0.095200  1.0  0.0701
  H  H24  1  0.973900  0.092000  0.431000  1.0  0.1957
  H  H25  1  0.793600  0.915500  0.437100  1.0  0.0828
  H  H26  1  0.857700  0.760300  0.539800  1.0  0.1282
  H  H27  1  0.723400  0.946300  0.693100  1.0  0.0847
  H  H28  1  0.572100  0.116800  0.165900  1.0  0.0836
  H  H29  1  0.516200  0.259900  0.027000  1.0  0.1263
  H  H30  1  0.602200  0.509300  0.276500  1.0  0.1129
  H  H31  1  0.656800  0.360900  0.404800  1.0  0.0708
  H  H32  1  0.526100  0.592000  0.069000  1.0  0.1956
  H  H33  1  0.293600  0.415500  0.437100  1.0  0.0828
  H  H34  1  0.357700  0.260300  0.539800  1.0  0.1282
  H  H35  1  0.223400  0.446300  0.693100  1.0  0.0847
  H  H36  1  0.072100  0.616800  0.165900  1.0  0.0836
  H  H37  1  0.016200  0.759900  0.027000  1.0  0.1263
  H  H38  1  0.102200  0.009300  0.276500  1.0  0.1129
  H  H39  1  0.156800  0.860900  0.404800  1.0  0.0708
  H  H40  1  0.026100  0.092000  0.069000  1.0  0.1956
  H  H41  1  0.793600  0.084500  0.937100  1.0  0.0834
  H  H42  1  0.857700  0.239700  0.039800  1.0  0.1286
  H  H43  1  0.723400  0.053700  0.193100  1.0  0.0849
  H  H44  1  0.572100  0.883200  0.665900  1.0  0.0828
  H  H45  1  0.516200  0.740100  0.527000  1.0  0.1262
  H  H46  1  0.602200  0.490700  0.776500  1.0  0.1129
  H  H47  1  0.656800  0.639100  0.904800  1.0  0.0705
  H  H48  1  0.526100  0.408000  0.569000  1.0  0.1959
  H  H49  1  0.293600  0.584500  0.937100  1.0  0.0834
  H  H50  1  0.357700  0.739700  0.039800  1.0  0.1286
  H  H51  1  0.223400  0.553700  0.193100  1.0  0.0849
  H  H52  1  0.072100  0.383200  0.665900  1.0  0.0828
  H  H53  1  0.016200  0.240100  0.527000  1.0  0.1262
  H  H54  1  0.102200  0.990700  0.776500  1.0  0.1129
  H  H55  1  0.156800  0.139100  0.904800  1.0  0.0705
  H  H56  1  0.026100  0.908000  0.569000  1.0  0.1959
  H  H57  1  0.206400  0.084500  0.562900  1.0  0.082
  H  H58  1  0.142300  0.239700  0.460200  1.0  0.1284
  H  H59  1  0.276600  0.053700  0.306900  1.0  0.0842
  H  H60  1  0.427900  0.883200  0.834100  1.0  0.0827
  H  H61  1  0.483800  0.740100  0.973000  1.0  0.1265
  H  H62  1  0.397800  0.490700  0.723500  1.0  0.1132
  H  H63  1  0.343200  0.639100  0.595200  1.0  0.0702
  H  H64  1  0.473900  0.408000  0.931000  1.0  0.1952
  H  H65  1  0.706400  0.584500  0.562900  1.0  0.082
  H  H66  1  0.642300  0.739700  0.460200  1.0  0.1284
  H  H67  1  0.776600  0.553700  0.306900  1.0  0.0842
  H  H68  1  0.927900  0.383200  0.834100  1.0  0.0827
  H  H69  1  0.983800  0.240100  0.973000  1.0  0.1265
  H  H70  1  0.897800  0.990700  0.723500  1.0  0.1132
  H  H71  1  0.843200  0.139100  0.595200  1.0  0.0702
  H  H72  1  0.973900  0.908000  0.931000  1.0  0.1952
  C  C73  1  0.208440  0.889270  0.988840  1.0  0.1816
  C  C74  1  0.169640  0.795750  0.927580  1.0  -0.1684
  C  C75  1  0.171890  0.755100  0.816610  1.0  -0.1094
  C  C76  1  0.212480  0.813830  0.770410  1.0  -0.153
  C  C77  1  0.249750  0.907390  0.838560  1.0  0.2169
  C  C78  1  0.217580  0.779650  0.649710  1.0  0.7013
  C  C79  1  0.130620  0.650110  0.751960  1.0  0.7425
  C  C80  1  0.421600  0.197200  0.311400  1.0  0.1842
  C  C81  1  0.455500  0.283000  0.395800  1.0  -0.2099
  C  C82  1  0.446770  0.403700  0.364200  1.0  0.0181
  C  C83  1  0.404720  0.429800  0.249500  1.0  -0.2064
  C  C84  1  0.372550  0.339500  0.172000  1.0  0.1847
  C  C85  1  0.478750  0.505500  0.444800  1.0  -0.1181
  C  C86  1  0.708440  0.389270  0.988840  1.0  0.1816
  C  C87  1  0.669640  0.295750  0.927580  1.0  -0.1684
  C  C88  1  0.671890  0.255100  0.816610  1.0  -0.1094
  C  C89  1  0.712480  0.313830  0.770410  1.0  -0.153
  C  C90  1  0.749750  0.407390  0.838560  1.0  0.2169
  C  C91  1  0.717580  0.279650  0.649710  1.0  0.7013
  C  C92  1  0.630620  0.150110  0.751960  1.0  0.7425
  C  C93  1  0.921600  0.697200  0.311400  1.0  0.1842
  C  C94  1  0.955500  0.783000  0.395800  1.0  -0.2099
  C  C95  1  0.946770  0.903700  0.364200  1.0  0.0181
  C  C96  1  0.904720  0.929800  0.249500  1.0  -0.2064
  C  C97  1  0.872550  0.839500  0.172000  1.0  0.1847
  C  C98  1  0.978750  0.005500  0.444800  1.0  -0.1181
  C  C99  1  0.791560  0.889270  0.511160  1.0  0.1817
  C  C100  1  0.830360  0.795750  0.572420  1.0  -0.17
  C  C101  1  0.828110  0.755100  0.683390  1.0  -0.1093
  C  C102  1  0.787520  0.813830  0.729590  1.0  -0.1523
  C  C103  1  0.750250  0.907390  0.661440  1.0  0.2166
  C  C104  1  0.782420  0.779650  0.850290  1.0  0.7009
  C  C105  1  0.869380  0.650110  0.748040  1.0  0.7397
  C  C106  1  0.578400  0.197200  0.188600  1.0  0.1839
  C  C107  1  0.544500  0.283000  0.104200  1.0  -0.211
  C  C108  1  0.553230  0.403700  0.135800  1.0  0.0199
  C  C109  1  0.595280  0.429800  0.250500  1.0  -0.2054
  C  C110  1  0.627450  0.339500  0.328000  1.0  0.1841
  C  C111  1  0.521250  0.505500  0.055200  1.0  -0.1175
  C  C112  1  0.291560  0.389270  0.511160  1.0  0.1817
  C  C113  1  0.330360  0.295750  0.572420  1.0  -0.17
  C  C114  1  0.328110  0.255100  0.683390  1.0  -0.1093
  C  C115  1  0.287520  0.313830  0.729590  1.0  -0.1523
  C  C116  1  0.250250  0.407390  0.661440  1.0  0.2166
  C  C117  1  0.282420  0.279650  0.850290  1.0  0.7009
  C  C118  1  0.369380  0.150110  0.748040  1.0  0.7397
  C  C119  1  0.078400  0.697200  0.188600  1.0  0.1839
  C  C120  1  0.044500  0.783000  0.104200  1.0  -0.211
  C  C121  1  0.053230  0.903700  0.135800  1.0  0.0199
  C  C122  1  0.095280  0.929800  0.250500  1.0  -0.2054
  C  C123  1  0.127450  0.839500  0.328000  1.0  0.1841
  C  C124  1  0.021250  0.005500  0.055200  1.0  -0.1175
  C  C125  1  0.791560  0.110730  0.011160  1.0  0.1826
  C  C126  1  0.830360  0.204250  0.072420  1.0  -0.1701
  C  C127  1  0.828110  0.244900  0.183390  1.0  -0.109
  C  C128  1  0.787520  0.186170  0.229590  1.0  -0.1522
  C  C129  1  0.750250  0.092610  0.161440  1.0  0.2177
  C  C130  1  0.782420  0.220350  0.350290  1.0  0.7016
  C  C131  1  0.869380  0.349890  0.248040  1.0  0.7394
  C  C132  1  0.578400  0.802800  0.688600  1.0  0.184
  C  C133  1  0.544500  0.717000  0.604200  1.0  -0.2124
  C  C134  1  0.553230  0.596300  0.635800  1.0  0.0196
  C  C135  1  0.595280  0.570200  0.750500  1.0  -0.205
  C  C136  1  0.627450  0.660500  0.828000  1.0  0.1846
  C  C137  1  0.521250  0.494500  0.555200  1.0  -0.1202
  C  C138  1  0.291560  0.610730  0.011160  1.0  0.1826
  C  C139  1  0.330360  0.704250  0.072420  1.0  -0.1701
  C  C140  1  0.328110  0.744900  0.183390  1.0  -0.109
  C  C141  1  0.287520  0.686170  0.229590  1.0  -0.1522
  C  C142  1  0.250250  0.592610  0.161440  1.0  0.2177
  C  C143  1  0.282420  0.720350  0.350290  1.0  0.7016
  C  C144  1  0.369380  0.849890  0.248040  1.0  0.7394
  C  C145  1  0.078400  0.302800  0.688600  1.0  0.184
  C  C146  1  0.044500  0.217000  0.604200  1.0  -0.2124
  C  C147  1  0.053230  0.096300  0.635800  1.0  0.0196
  C  C148  1  0.095280  0.070200  0.750500  1.0  -0.205
  C  C149  1  0.127450  0.160500  0.828000  1.0  0.1846
  C  C150  1  0.021250  0.994500  0.555200  1.0  -0.1202
  C  C151  1  0.208440  0.110730  0.488840  1.0  0.1814
  C  C152  1  0.169640  0.204250  0.427580  1.0  -0.1681
  C  C153  1  0.171890  0.244900  0.316610  1.0  -0.1082
  C  C154  1  0.212480  0.186170  0.270410  1.0  -0.1514
  C  C155  1  0.249750  0.092610  0.338560  1.0  0.2167
  C  C156  1  0.217580  0.220350  0.149710  1.0  0.7012
  C  C157  1  0.130620  0.349890  0.251960  1.0  0.7428
  C  C158  1  0.421600  0.802800  0.811400  1.0  0.1845
  C  C159  1  0.455500  0.717000  0.895800  1.0  -0.2117
  C  C160  1  0.446770  0.596300  0.864200  1.0  0.018
  C  C161  1  0.404720  0.570200  0.749500  1.0  -0.2053
  C  C162  1  0.372550  0.660500  0.672000  1.0  0.1849
  C  C163  1  0.478750  0.494500  0.944800  1.0  -0.1205
  C  C164  1  0.708440  0.610730  0.488840  1.0  0.1814
  C  C165  1  0.669640  0.704250  0.427580  1.0  -0.1681
  C  C166  1  0.671890  0.744900  0.316610  1.0  -0.1082
  C  C167  1  0.712480  0.686170  0.270410  1.0  -0.1514
  C  C168  1  0.749750  0.592610  0.338560  1.0  0.2167
  C  C169  1  0.717580  0.720350  0.149710  1.0  0.7012
  C  C170  1  0.630620  0.849890  0.251960  1.0  0.7428
  C  C171  1  0.921600  0.302800  0.811400  1.0  0.1845
  C  C172  1  0.955500  0.217000  0.895800  1.0  -0.2117
  C  C173  1  0.946770  0.096300  0.864200  1.0  0.018
  C  C174  1  0.904720  0.070200  0.749500  1.0  -0.2053
  C  C175  1  0.872550  0.160500  0.672000  1.0  0.1849
  C  C176  1  0.978750  0.994500  0.944800  1.0  -0.1205
  N  N177  1  0.249050  0.944270  0.946590  1.0  -0.3399
  N  N178  1  0.380560  0.223870  0.199600  1.0  -0.3414
  N  N179  1  0.749050  0.444270  0.946590  1.0  -0.3399
  N  N180  1  0.880560  0.723870  0.199600  1.0  -0.3414
  N  N181  1  0.750950  0.944270  0.553410  1.0  -0.3396
  N  N182  1  0.619440  0.223870  0.300400  1.0  -0.338
  N  N183  1  0.250950  0.444270  0.553410  1.0  -0.3396
  N  N184  1  0.119440  0.723870  0.300400  1.0  -0.338
  N  N185  1  0.750950  0.055730  0.053410  1.0  -0.3401
  N  N186  1  0.619440  0.776130  0.800400  1.0  -0.338
  N  N187  1  0.250950  0.555730  0.053410  1.0  -0.3401
  N  N188  1  0.119440  0.276130  0.800400  1.0  -0.338
  N  N189  1  0.249050  0.055730  0.446590  1.0  -0.339
  N  N190  1  0.380560  0.776130  0.699600  1.0  -0.3379
  N  N191  1  0.749050  0.555730  0.446590  1.0  -0.339
  N  N192  1  0.880560  0.276130  0.699600  1.0  -0.3379
  O  O193  1  0.079340  0.674150  0.667450  1.0  -0.6388
  O  O194  1  0.149520  0.548020  0.790760  1.0  -0.6433
  O  O195  1  0.195710  0.680260  0.604980  1.0  -0.6063
  O  O196  1  0.242190  0.855020  0.602310  1.0  -0.5958
  O  O197  1  0.579340  0.174150  0.667450  1.0  -0.6388
  O  O198  1  0.649520  0.048020  0.790760  1.0  -0.6433
  O  O199  1  0.695710  0.180260  0.604980  1.0  -0.6063
  O  O200  1  0.742190  0.355020  0.602310  1.0  -0.5958
  O  O201  1  0.920660  0.674150  0.832550  1.0  -0.6387
  O  O202  1  0.850480  0.548020  0.709240  1.0  -0.6449
  O  O203  1  0.804290  0.680260  0.895020  1.0  -0.6053
  O  O204  1  0.757810  0.855020  0.897690  1.0  -0.5934
  O  O205  1  0.420660  0.174150  0.832550  1.0  -0.6387
  O  O206  1  0.350480  0.048020  0.709240  1.0  -0.6449
  O  O207  1  0.304290  0.180260  0.895020  1.0  -0.6053
  O  O208  1  0.257810  0.355020  0.897690  1.0  -0.5934
  O  O209  1  0.920660  0.325850  0.332550  1.0  -0.6388
  O  O210  1  0.850480  0.451980  0.209240  1.0  -0.6447
  O  O211  1  0.804290  0.319740  0.395020  1.0  -0.6046
  O  O212  1  0.757810  0.144980  0.397690  1.0  -0.5947
  O  O213  1  0.420660  0.825850  0.332550  1.0  -0.6388
  O  O214  1  0.350480  0.951980  0.209240  1.0  -0.6447
  O  O215  1  0.304290  0.819740  0.395020  1.0  -0.6046
  O  O216  1  0.257810  0.644980  0.397690  1.0  -0.5947
  O  O217  1  0.079340  0.325850  0.167450  1.0  -0.6396
  O  O218  1  0.149520  0.451980  0.290760  1.0  -0.6445
  O  O219  1  0.195710  0.319740  0.104980  1.0  -0.6052
  O  O220  1  0.242190  0.144980  0.102310  1.0  -0.5956
  O  O221  1  0.579340  0.825850  0.167450  1.0  -0.6396
  O  O222  1  0.649520  0.951980  0.290760  1.0  -0.6445
  O  O223  1  0.695710  0.819740  0.104980  1.0  -0.6052
  O  O224  1  0.742190  0.644980  0.102310  1.0  -0.5956
