# generated using pymatgen
data_U3Zn2P8H8(CO6)4
_symmetry_space_group_name_H-M   'P 1'
_cell_length_a   5.22100000
_cell_length_b   12.86000000
_cell_length_c   14.56100000
_cell_angle_alpha   64.70100000
_cell_angle_beta   87.32700000
_cell_angle_gamma   89.89400000
_symmetry_Int_Tables_number   1
_chemical_formula_structural   U3Zn2P8H8(CO6)4
_chemical_formula_sum   'U3 Zn2 P8 H8 C4 O24'
_cell_volume   882.74995710
_cell_formula_units_Z   1
loop_
 _symmetry_equiv_pos_site_id
 _symmetry_equiv_pos_as_xyz
  1  'x, y, z'
loop_
 _atom_site_type_symbol
 _atom_site_label
 _atom_site_symmetry_multiplicity
 _atom_site_fract_x
 _atom_site_fract_y
 _atom_site_fract_z
 _atom_site_occupancy
 _atom_site_charge
  U  U1  1  0.167330  0.716300  0.419450  1.0  2.4341
  U  U2  1  0.832670  0.283700  0.580550  1.0  2.4339
  U  U3  1  0.000000  0.000000  0.000000  1.0  1.8959
  Zn  Zn4  1  0.346200  0.845300  0.576100  1.0  1.093
  Zn  Zn5  1  0.653800  0.154700  0.423900  1.0  1.0911
  P  P6  1  0.357500  0.453600  0.409300  1.0  1.6429
  P  P7  1  0.483300  0.934900  0.185900  1.0  1.6839
  P  P8  1  0.677900  0.935000  0.376100  1.0  1.61
  P  P9  1  0.145600  0.288700  0.330700  1.0  1.5443
  P  P10  1  0.642500  0.546400  0.590700  1.0  1.6399
  P  P11  1  0.516700  0.065100  0.814100  1.0  1.6827
  P  P12  1  0.322100  0.065000  0.623900  1.0  1.6085
  P  P13  1  0.854400  0.711300  0.669300  1.0  1.5451
  H  H14  1  0.063500  0.480700  0.283500  1.0  0.2242
  H  H15  1  0.339700  0.467600  0.243100  1.0  0.2304
  H  H16  1  0.412600  0.062600  0.255800  1.0  0.2258
  H  H17  1  0.694600  0.077300  0.209200  1.0  0.2416
  H  H18  1  0.936500  0.519300  0.716500  1.0  0.2251
  H  H19  1  0.660300  0.532400  0.756900  1.0  0.2313
  H  H20  1  0.587400  0.937400  0.744200  1.0  0.2244
  H  H21  1  0.305400  0.922700  0.790800  1.0  0.2424
  C  C22  1  0.219000  0.436600  0.301500  1.0  -0.769
  C  C23  1  0.563000  0.021200  0.249600  1.0  -0.975
  C  C24  1  0.781000  0.563400  0.698500  1.0  -0.7748
  C  C25  1  0.437000  0.978800  0.750400  1.0  -0.9749
  O  O26  1  0.302000  0.006400  0.102300  1.0  -0.8938
  O  O27  1  0.731000  0.906300  0.141600  1.0  -0.8832
  O  O28  1  0.384000  0.582900  0.375900  1.0  -0.8527
  O  O29  1  0.451000  0.853500  0.439800  1.0  -0.8957
  O  O30  1  0.609000  0.393500  0.435500  1.0  -0.8695
  O  O31  1  0.899000  0.865100  0.364900  1.0  -0.9069
  O  O32  1  0.160000  0.402500  0.497000  1.0  -0.9282
  O  O33  1  0.359000  0.825100  0.261100  1.0  -0.905
  O  O34  1  0.974000  0.240700  0.425400  1.0  -0.8439
  O  O35  1  0.385000  0.223800  0.333000  1.0  -0.7906
  O  O36  1  0.751000  0.010800  0.426100  1.0  -0.8166
  O  O37  1  0.978000  0.294400  0.236800  1.0  -0.5453
  O  O38  1  0.698000  0.993600  0.897700  1.0  -0.8924
  O  O39  1  0.269000  0.093700  0.858400  1.0  -0.8799
  O  O40  1  0.616000  0.417100  0.624100  1.0  -0.854
  O  O41  1  0.549000  0.146500  0.560200  1.0  -0.8933
  O  O42  1  0.391000  0.606500  0.564500  1.0  -0.8698
  O  O43  1  0.101000  0.134900  0.635100  1.0  -0.9088
  O  O44  1  0.840000  0.597500  0.503000  1.0  -0.9279
  O  O45  1  0.641000  0.174900  0.738900  1.0  -0.9057
  O  O46  1  0.026000  0.759300  0.574600  1.0  -0.8435
  O  O47  1  0.615000  0.776200  0.667000  1.0  -0.7926
  O  O48  1  0.249000  0.989200  0.573900  1.0  -0.8174
  O  O49  1  0.022000  0.705600  0.763200  1.0  -0.5401
