# generated using pymatgen
data_U5P8H8(CO6)4
_symmetry_space_group_name_H-M   'P 1'
_cell_length_a   9.46170000
_cell_length_b   11.27720000
_cell_length_c   11.34890000
_cell_angle_alpha   79.25400000
_cell_angle_beta   65.72600000
_cell_angle_gamma   80.14300000
_symmetry_Int_Tables_number   1
_chemical_formula_structural   U5P8H8(CO6)4
_chemical_formula_sum   'U5 P8 H8 C4 O24'
_cell_volume   1078.46736185
_cell_formula_units_Z   1
loop_
 _symmetry_equiv_pos_site_id
 _symmetry_equiv_pos_as_xyz
  1  'x, y, z'
loop_
 _atom_site_type_symbol
 _atom_site_label
 _atom_site_symmetry_multiplicity
 _atom_site_fract_x
 _atom_site_fract_y
 _atom_site_fract_z
 _atom_site_occupancy
 _atom_site_charge
  U  U1  1  0.698500  0.444310  0.047710  1.0  2.4426
  U  U2  1  0.279620  0.968500  0.026270  1.0  1.8662
  U  U3  1  0.301500  0.555690  0.952290  1.0  2.444
  U  U4  1  0.720380  0.031500  0.973730  1.0  1.8652
  U  U5  1  0.000000  0.500000  0.500000  1.0  1.9444
  P  P6  1  0.634600  0.619000  0.759600  1.0  1.6053
  P  P7  1  0.552100  0.750800  0.984300  1.0  1.5931
  P  P8  1  0.011900  0.206300  0.956800  1.0  1.5711
  P  P9  1  0.083600  0.460500  0.786500  1.0  1.6606
  P  P10  1  0.365400  0.381000  0.240400  1.0  1.6023
  P  P11  1  0.447900  0.249200  0.015700  1.0  1.595
  P  P12  1  0.988100  0.793700  0.043200  1.0  1.5714
  P  P13  1  0.916400  0.539500  0.213500  1.0  1.6605
  H  H14  1  0.780200  0.742200  0.798200  1.0  0.2051
  H  H15  1  0.646100  0.822400  0.763400  1.0  0.2299
  H  H16  1  0.225800  0.277400  0.781900  1.0  0.2352
  H  H17  1  0.092300  0.273800  0.736500  1.0  0.2382
  H  H18  1  0.219800  0.257800  0.201800  1.0  0.2048
  H  H19  1  0.353900  0.177600  0.236600  1.0  0.2305
  H  H20  1  0.774200  0.722600  0.218100  1.0  0.2339
  H  H21  1  0.907700  0.726200  0.263500  1.0  0.2397
  C  C22  1  0.670900  0.748000  0.813000  1.0  -1.0029
  C  C23  1  0.115100  0.299300  0.803300  1.0  -0.6921
  C  C24  1  0.329100  0.252000  0.187000  1.0  -1.0043
  C  C25  1  0.884900  0.700700  0.196700  1.0  -0.6908
  O  O26  1  0.380600  0.737700  0.008900  1.0  -0.9006
  O  O27  1  0.622100  0.653200  0.060400  1.0  -0.8856
  O  O28  1  0.203700  0.509400  0.818400  1.0  -0.9196
  O  O29  1  0.544500  0.880400  0.015100  1.0  -0.9949
  O  O30  1  0.915600  0.499600  0.873500  1.0  -0.9239
  O  O31  1  0.610000  0.516700  0.875500  1.0  -0.9562
  O  O32  1  0.880100  0.286200  0.045900  1.0  -0.9282
  O  O33  1  0.125600  0.145700  0.020300  1.0  -0.8677
  O  O34  1  0.474900  0.645700  0.749400  1.0  -0.8219
  O  O35  1  0.946100  0.113700  0.918400  1.0  -0.869
  O  O36  1  0.766900  0.594000  0.633200  1.0  -0.954
  O  O37  1  0.111100  0.504300  0.645100  1.0  -0.905
  O  O38  1  0.619400  0.262300  0.991100  1.0  -0.8996
  O  O39  1  0.377900  0.346800  0.939600  1.0  -0.8846
  O  O40  1  0.796300  0.490600  0.181600  1.0  -0.9172
  O  O41  1  0.455500  0.119600  0.984900  1.0  -0.995
  O  O42  1  0.084400  0.500400  0.126500  1.0  -0.9246
  O  O43  1  0.390000  0.483300  0.124500  1.0  -0.9571
  O  O44  1  0.119900  0.713800  0.954100  1.0  -0.9283
  O  O45  1  0.874400  0.854300  0.979700  1.0  -0.8669
  O  O46  1  0.525100  0.354300  0.250600  1.0  -0.8231
  O  O47  1  0.053900  0.886300  0.081600  1.0  -0.8707
  O  O48  1  0.233100  0.406000  0.366800  1.0  -0.9527
  O  O49  1  0.888900  0.495700  0.354900  1.0  -0.9029
