# generated using pymatgen
data_Cd3H22C38(NO3)4
_symmetry_space_group_name_H-M   'P 1'
_cell_length_a   11.68760000
_cell_length_b   13.21260000
_cell_length_c   15.86960000
_cell_angle_alpha   71.50640000
_cell_angle_beta   68.39300000
_cell_angle_gamma   63.74990000
_symmetry_Int_Tables_number   1
_chemical_formula_structural   Cd3H22C38(NO3)4
_chemical_formula_sum   'Cd6 H44 C76 N8 O24'
_cell_volume   2008.16210959
_cell_formula_units_Z   2
loop_
 _symmetry_equiv_pos_site_id
 _symmetry_equiv_pos_as_xyz
  1  'x, y, z'
loop_
 _atom_site_type_symbol
 _atom_site_label
 _atom_site_symmetry_multiplicity
 _atom_site_fract_x
 _atom_site_fract_y
 _atom_site_fract_z
 _atom_site_occupancy
 _atom_site_charge
  Cd  Cd1  1  0.535810  0.025340  0.868020  1.0  0.9882
  Cd  Cd2  1  0.929170  0.474660  0.631980  1.0  0.99
  Cd  Cd3  1  0.464190  0.974660  0.131980  1.0  0.9876
  Cd  Cd4  1  0.070830  0.525340  0.368020  1.0  0.9904
  Cd  Cd5  1  0.550870  0.750000  0.750000  1.0  1.0747
  Cd  Cd6  1  0.449130  0.250000  0.250000  1.0  1.0749
  H  H7  1  0.292900  0.288000  0.118400  1.0  0.1055
  H  H8  1  0.290500  0.608700  0.046500  1.0  0.1048
  H  H9  1  0.454500  0.407100  0.857500  1.0  0.0934
  H  H10  1  0.257000  0.197200  0.828400  1.0  0.083
  H  H11  1  0.062400  0.200700  0.819500  1.0  0.1282
  H  H12  1  0.171900  0.867300  0.931500  1.0  0.1185
  H  H13  1  0.360800  0.871900  0.938500  1.0  0.076
  H  H14  1  0.692000  0.191000  0.823200  1.0  0.0746
  H  H15  1  0.880300  0.201300  0.824500  1.0  0.1329
  H  H16  1  0.014700  0.859900  0.908700  1.0  0.1343
  H  H17  1  0.820800  0.860500  0.905100  1.0  0.0829
  H  H18  1  0.199300  0.212000  0.381600  1.0  0.1065
  H  H19  1  0.445700  0.891300  0.453500  1.0  0.1044
  H  H20  1  0.219100  0.092900  0.642500  1.0  0.0935
  H  H21  1  0.782600  0.302800  0.671600  1.0  0.0823
  H  H22  1  0.582600  0.299300  0.680500  1.0  0.1274
  H  H23  1  0.470700  0.632700  0.568500  1.0  0.1191
  H  H24  1  0.671200  0.628100  0.561500  1.0  0.0759
  H  H25  1  0.206200  0.309000  0.676800  1.0  0.0751
  H  H26  1  0.406100  0.298700  0.675500  1.0  0.132
  H  H27  1  0.283300  0.640100  0.591300  1.0  0.1339
  H  H28  1  0.086400  0.639500  0.594900  1.0  0.0841
  H  H29  1  0.707100  0.712000  0.881600  1.0  0.1057
  H  H30  1  0.709500  0.391300  0.953500  1.0  0.1046
  H  H31  1  0.545500  0.592900  0.142500  1.0  0.0927
  H  H32  1  0.743000  0.802800  0.171600  1.0  0.0834
  H  H33  1  0.937600  0.799300  0.180500  1.0  0.1282
  H  H34  1  0.828100  0.132700  0.068500  1.0  0.1186
  H  H35  1  0.639200  0.128100  0.061500  1.0  0.0755
  H  H36  1  0.308000  0.809000  0.176800  1.0  0.0748
  H  H37  1  0.119700  0.798700  0.175500  1.0  0.1324
  H  H38  1  0.985300  0.140100  0.091300  1.0  0.1351
  H  H39  1  0.179200  0.139500  0.094900  1.0  0.084
  H  H40  1  0.800700  0.788000  0.618400  1.0  0.1072
  H  H41  1  0.554300  0.108700  0.546500  1.0  0.1049
  H  H42  1  0.780900  0.907100  0.357500  1.0  0.0933
  H  H43  1  0.217400  0.697200  0.328400  1.0  0.0827
  H  H44  1  0.417400  0.700700  0.319500  1.0  0.1277
  H  H45  1  0.529300  0.367300  0.431500  1.0  0.1186
  H  H46  1  0.328800  0.371900  0.438500  1.0  0.0756
  H  H47  1  0.793800  0.691000  0.323200  1.0  0.0745
  H  H48  1  0.593900  0.701300  0.324500  1.0  0.1332
  H  H49  1  0.716700  0.359900  0.408700  1.0  0.1343
  H  H50  1  0.913600  0.360500  0.405100  1.0  0.0835
  C  C51  1  0.418700  0.219200  0.955400  1.0  0.6776
  C  C52  1  0.377900  0.331000  0.983000  1.0  -0.1568
  C  C53  1  0.313500  0.347200  0.073400  1.0  -0.0187
  C  C54  1  0.279700  0.451500  0.096900  1.0  -0.1617
  C  C55  1  0.313400  0.538800  0.030800  1.0  0.0063
  C  C56  1  0.381400  0.521900  0.940900  1.0  -0.1588
  C  C57  1  0.411200  0.417800  0.918000  1.0  0.0259
  C  C58  1  0.434600  0.608500  0.870700  1.0  0.639
  C  C59  1  0.211500  0.469900  0.194500  1.0  0.684
  C  C60  1  0.239500  0.130000  0.849200  1.0  0.1645
  C  C61  1  0.122300  0.132500  0.843100  1.0  -0.1749
  C  C62  1  0.095600  0.031500  0.872700  1.0  0.0811
  C  C63  1  0.187000  0.935700  0.909300  1.0  -0.1604
  C  C64  1  0.300800  0.938900  0.913700  1.0  0.1827
  C  C65  1  0.758700  0.123300  0.840300  1.0  0.178
  C  C66  1  0.871400  0.130500  0.840900  1.0  -0.1863
  C  C67  1  0.974200  0.029600  0.866600  1.0  0.1029
  C  C68  1  0.950600  0.929200  0.890600  1.0  -0.1893
  C  C69  1  0.833100  0.929800  0.888200  1.0  0.1801
  C  C70  1  0.093300  0.280800  0.544600  1.0  0.6781
  C  C71  1  0.191900  0.169000  0.517000  1.0  -0.1595
  C  C72  1  0.234100  0.152800  0.426600  1.0  -0.0191
  C  C73  1  0.328100  0.048500  0.403100  1.0  -0.1575
  C  C74  1  0.383000  0.961200  0.469200  1.0  0.0055
  C  C75  1  0.344200  0.978100  0.559100  1.0  -0.1563
  C  C76  1  0.247000  0.082200  0.582000  1.0  0.024
  C  C77  1  0.413800  0.891500  0.629300  1.0  0.6402
  C  C78  1  0.375900  0.030100  0.305500  1.0  0.6887
  C  C79  1  0.718700  0.370000  0.650800  1.0  0.1653
  C  C80  1  0.597900  0.367500  0.656900  1.0  -0.1726
  C  C81  1  0.499800  0.468500  0.627300  1.0  0.0796
  C  C82  1  0.532000  0.564300  0.590700  1.0  -0.1629
  C  C83  1  0.653400  0.561100  0.586300  1.0  0.1829
  C  C84  1  0.222300  0.376700  0.659700  1.0  0.1775
  C  C85  1  0.342800  0.369500  0.659100  1.0  -0.1863
  C  C86  1  0.370400  0.470400  0.633400  1.0  0.1012
  C  C87  1  0.270400  0.570800  0.609400  1.0  -0.1867
  C  C88  1  0.151100  0.570200  0.611800  1.0  0.1814
  C  C89  1  0.581300  0.780800  0.044600  1.0  0.6779
  C  C90  1  0.622100  0.669000  0.017000  1.0  -0.1579
  C  C91  1  0.686500  0.652800  0.926600  1.0  -0.0213
  C  C92  1  0.720300  0.548500  0.903100  1.0  -0.162
  C  C93  1  0.686600  0.461200  0.969200  1.0  0.0057
  C  C94  1  0.618600  0.478100  0.059100  1.0  -0.1599
  C  C95  1  0.588800  0.582200  0.082000  1.0  0.0268
  C  C96  1  0.565400  0.391500  0.129300  1.0  0.6363
  C  C97  1  0.788500  0.530100  0.805500  1.0  0.6832
  C  C98  1  0.760500  0.870000  0.150800  1.0  0.1636
  C  C99  1  0.877700  0.867500  0.156900  1.0  -0.1729
  C  C100  1  0.904400  0.968500  0.127300  1.0  0.0814
  C  C101  1  0.813000  0.064300  0.090700  1.0  -0.1611
  C  C102  1  0.699200  0.061100  0.086300  1.0  0.1811
  C  C103  1  0.241300  0.876700  0.159700  1.0  0.1789
  C  C104  1  0.128600  0.869500  0.159100  1.0  -0.1855
  C  C105  1  0.025800  0.970400  0.133400  1.0  0.1035
  C  C106  1  0.049400  0.070800  0.109400  1.0  -0.1876
  C  C107  1  0.166900  0.070200  0.111800  1.0  0.1819
  C  C108  1  0.906700  0.719200  0.455400  1.0  0.6788
  C  C109  1  0.808100  0.831000  0.483000  1.0  -0.1583
  C  C110  1  0.765900  0.847200  0.573400  1.0  -0.0204
  C  C111  1  0.671900  0.951500  0.596900  1.0  -0.1611
  C  C112  1  0.617000  0.038800  0.530800  1.0  0.0022
  C  C113  1  0.655800  0.021900  0.440900  1.0  -0.1566
  C  C114  1  0.753000  0.917800  0.418000  1.0  0.0247
  C  C115  1  0.586200  0.108500  0.370700  1.0  0.6397
  C  C116  1  0.624100  0.969900  0.694500  1.0  0.6898
  C  C117  1  0.281300  0.630000  0.349200  1.0  0.1643
  C  C118  1  0.402100  0.632500  0.343100  1.0  -0.1741
  C  C119  1  0.500200  0.531500  0.372700  1.0  0.0787
  C  C120  1  0.468000  0.435700  0.409300  1.0  -0.1625
  C  C121  1  0.346600  0.438900  0.413700  1.0  0.1828
  C  C122  1  0.777700  0.623300  0.340300  1.0  0.177
  C  C123  1  0.657200  0.630500  0.340900  1.0  -0.1872
  C  C124  1  0.629600  0.529600  0.366600  1.0  0.1013
  C  C125  1  0.729600  0.429200  0.390600  1.0  -0.1872
  C  C126  1  0.848900  0.429800  0.388200  1.0  0.1824
  N  N127  1  0.328700  0.033500  0.884100  1.0  -0.3493
  N  N128  1  0.737700  0.024300  0.862900  1.0  -0.344
  N  N129  1  0.746300  0.466500  0.615900  1.0  -0.3488
  N  N130  1  0.124900  0.475700  0.637100  1.0  -0.3422
  N  N131  1  0.671300  0.966500  0.115900  1.0  -0.3505
  N  N132  1  0.262300  0.975700  0.137100  1.0  -0.3434
  N  N133  1  0.253700  0.533500  0.384100  1.0  -0.3511
  N  N134  1  0.875100  0.524300  0.362900  1.0  -0.3424
  O  O135  1  0.427400  0.129300  0.014700  1.0  -0.651
  O  O136  1  0.447600  0.219100  0.870700  1.0  -0.5965
  O  O137  1  0.498000  0.587600  0.792200  1.0  -0.5918
  O  O138  1  0.418100  0.697800  0.894600  1.0  -0.6097
  O  O139  1  0.134600  0.568700  0.208300  1.0  -0.5889
  O  O140  1  0.233400  0.384900  0.259900  1.0  -0.6462
  O  O141  1  0.071400  0.370700  0.485300  1.0  -0.6514
  O  O142  1  0.037400  0.280900  0.629300  1.0  -0.5962
  O  O143  1  0.377800  0.912400  0.707800  1.0  -0.59
  O  O144  1  0.510500  0.802200  0.605400  1.0  -0.6101
  O  O145  1  0.411600  0.931300  0.291700  1.0  -0.5902
  O  O146  1  0.378200  0.115100  0.240100  1.0  -0.6475
  O  O147  1  0.572600  0.870700  0.985300  1.0  -0.6515
  O  O148  1  0.552400  0.780900  0.129300  1.0  -0.5963
  O  O149  1  0.502000  0.412400  0.207800  1.0  -0.5907
  O  O150  1  0.581900  0.302200  0.105400  1.0  -0.6084
  O  O151  1  0.865400  0.431300  0.791700  1.0  -0.589
  O  O152  1  0.766600  0.615100  0.740100  1.0  -0.6461
  O  O153  1  0.928600  0.629300  0.514700  1.0  -0.6516
  O  O154  1  0.962600  0.719100  0.370700  1.0  -0.5963
  O  O155  1  0.622200  0.087600  0.292200  1.0  -0.5909
  O  O156  1  0.489500  0.197800  0.394600  1.0  -0.6095
  O  O157  1  0.588400  0.068700  0.708300  1.0  -0.5899
  O  O158  1  0.621800  0.884900  0.759900  1.0  -0.6484
