# generated using pymatgen
data_DyNiH25C48(NO2)4
_symmetry_space_group_name_H-M   'P 1'
_cell_length_a   8.76020000
_cell_length_b   21.22010000
_cell_length_c   27.83080000
_cell_angle_alpha   90.00000000
_cell_angle_beta   90.00000000
_cell_angle_gamma   97.68010000
_symmetry_Int_Tables_number   1
_chemical_formula_structural   DyNiH25C48(NO2)4
_chemical_formula_sum   'Dy4 Ni4 H100 C192 N16 O32'
_cell_volume   5127.12372241
_cell_formula_units_Z   4
loop_
 _symmetry_equiv_pos_site_id
 _symmetry_equiv_pos_as_xyz
  1  'x, y, z'
loop_
 _atom_site_type_symbol
 _atom_site_label
 _atom_site_symmetry_multiplicity
 _atom_site_fract_x
 _atom_site_fract_y
 _atom_site_fract_z
 _atom_site_occupancy
 _atom_site_charge
  Dy  Dy1  1  0.814490  0.753780  0.311470  1.0  2.283
  Dy  Dy2  1  0.230060  0.748340  0.421700  1.0  2.2558
  Dy  Dy3  1  0.185510  0.246220  0.811470  1.0  2.2835
  Dy  Dy4  1  0.769940  0.251660  0.921700  1.0  2.258
  Ni  Ni5  1  0.275610  0.240130  0.313890  1.0  0.4375
  Ni  Ni6  1  0.777400  0.263480  0.408010  1.0  0.4419
  Ni  Ni7  1  0.724390  0.759870  0.813890  1.0  0.4383
  Ni  Ni8  1  0.222600  0.736520  0.908010  1.0  0.4412
  H  H9  1  0.344000  0.051400  0.209200  1.0  0.1294
  H  H10  1  0.226000  0.124400  0.155200  1.0  0.1275
  H  H11  1  0.187600  0.371900  0.167100  1.0  0.1325
  H  H12  1  0.177700  0.445700  0.236100  1.0  0.131
  H  H13  1  0.060600  0.397500  0.420800  1.0  0.1171
  H  H14  1  0.129300  0.316500  0.478100  1.0  0.1284
  H  H15  1  0.502100  0.138900  0.456700  1.0  0.121
  H  H16  1  0.560400  0.071600  0.388500  1.0  0.1254
  H  H17  1  0.953500  0.185700  0.157200  1.0  0.1047
  H  H18  1  0.849400  0.187600  0.079600  1.0  0.1187
  H  H19  1  0.229500  0.296000  0.033600  1.0  0.108
  H  H20  1  0.338700  0.294900  0.111800  1.0  0.098
  H  H21  1  0.920600  0.438200  0.291300  1.0  0.0943
  H  H22  1  0.859900  0.542000  0.298100  1.0  0.1086
  H  H23  1  0.219800  0.587000  0.385300  1.0  0.0827
  H  H24  1  0.283600  0.484300  0.378400  1.0  0.0937
  H  H25  1  0.188600  0.137300  0.495900  1.0  0.0849
  H  H26  1  0.197500  0.128900  0.577900  1.0  0.124
  H  H27  1  0.445900  0.300600  0.583100  1.0  0.0994
  H  H28  1  0.435000  0.309200  0.500500  1.0  0.1146
  H  H29  1  0.274100  0.158700  0.695000  1.0  0.4146
  H  H30  1  0.351900  0.997400  0.350700  1.0  0.0893
  H  H31  1  0.440800  0.897600  0.348100  1.0  0.1055
  H  H32  1  0.692300  0.954600  0.230700  1.0  0.1095
  H  H33  1  0.617500  0.055100  0.237100  1.0  0.1053
  H  H34  1  0.690100  0.443400  0.519600  1.0  0.1332
  H  H35  1  0.789100  0.364500  0.573300  1.0  0.1338
  H  H36  1  0.826300  0.118000  0.550100  1.0  0.1363
  H  H37  1  0.877500  0.053600  0.478500  1.0  0.1263
  H  H38  1  0.001800  0.113400  0.294300  1.0  0.1319
  H  H39  1  0.906600  0.191000  0.241400  1.0  0.1151
  H  H40  1  0.556300  0.374400  0.267400  1.0  0.1257
  H  H41  1  0.507200  0.440300  0.337900  1.0  0.1218
  H  H42  1  0.045100  0.290900  0.584400  1.0  0.1073
  H  H43  1  0.079800  0.286100  0.667300  1.0  0.1214
  H  H44  1  0.652500  0.181400  0.678600  1.0  0.1123
  H  H45  1  0.629100  0.186400  0.595200  1.0  0.1082
  H  H46  1  0.801700  0.027200  0.333400  1.0  0.0911
  H  H47  1  0.867300  0.925100  0.323900  1.0  0.0906
  H  H48  1  0.191800  0.963600  0.428800  1.0  0.1022
  H  H49  1  0.138000  0.066500  0.434100  1.0  0.1069
  H  H50  1  0.857600  0.370800  0.227800  1.0  0.1003
  H  H51  1  0.831900  0.380600  0.143500  1.0  0.1146
  H  H52  1  0.551300  0.212600  0.140000  1.0  0.1108
  H  H53  1  0.589100  0.199600  0.223000  1.0  0.0969
  H  H54  1  0.739400  0.351900  0.028900  1.0  0.4078
  H  H55  1  0.729800  0.519000  0.382100  1.0  0.0946
  H  H56  1  0.637100  0.614200  0.390600  1.0  0.0947
  H  H57  1  0.332300  0.538500  0.491500  1.0  0.0995
  H  H58  1  0.423500  0.440300  0.484300  1.0  0.1165
  H  H59  1  0.656000  0.948600  0.709200  1.0  0.1294
  H  H60  1  0.774000  0.875600  0.655200  1.0  0.1285
  H  H61  1  0.812400  0.628100  0.667100  1.0  0.1309
  H  H62  1  0.822300  0.554300  0.736100  1.0  0.1303
  H  H63  1  0.939400  0.602500  0.920800  1.0  0.1171
  H  H64  1  0.870700  0.683500  0.978100  1.0  0.1284
  H  H65  1  0.497900  0.861100  0.956700  1.0  0.1211
  H  H66  1  0.439600  0.928400  0.888500  1.0  0.1248
  H  H67  1  0.046500  0.814300  0.657200  1.0  0.105
  H  H68  1  0.150600  0.812400  0.579600  1.0  0.1199
  H  H69  1  0.770500  0.704000  0.533600  1.0  0.1083
  H  H70  1  0.661300  0.705100  0.611800  1.0  0.0982
  H  H71  1  0.079400  0.561800  0.791300  1.0  0.0939
  H  H72  1  0.140100  0.458000  0.798100  1.0  0.1089
  H  H73  1  0.780200  0.413000  0.885300  1.0  0.0827
  H  H74  1  0.716400  0.515700  0.878400  1.0  0.0938
  H  H75  1  0.811400  0.862700  0.995900  1.0  0.0849
  H  H76  1  0.802500  0.871100  0.077900  1.0  0.1246
  H  H77  1  0.554100  0.699400  0.083100  1.0  0.0999
  H  H78  1  0.565000  0.690800  0.000500  1.0  0.1148
  H  H79  1  0.725900  0.841300  0.195000  1.0  0.4132
  H  H80  1  0.648100  0.002600  0.850700  1.0  0.0888
  H  H81  1  0.559200  0.102400  0.848100  1.0  0.1051
  H  H82  1  0.307700  0.045400  0.730700  1.0  0.1092
  H  H83  1  0.382500  0.944900  0.737100  1.0  0.1055
  H  H84  1  0.309900  0.556600  0.019600  1.0  0.1339
  H  H85  1  0.210900  0.635500  0.073300  1.0  0.1331
  H  H86  1  0.173700  0.882000  0.050100  1.0  0.1362
  H  H87  1  0.122500  0.946400  0.978500  1.0  0.1252
  H  H88  1  0.998200  0.886600  0.794300  1.0  0.1324
  H  H89  1  0.093400  0.809000  0.741400  1.0  0.1154
  H  H90  1  0.443700  0.625600  0.767400  1.0  0.1257
  H  H91  1  0.492800  0.559700  0.837900  1.0  0.121
  H  H92  1  0.954900  0.709100  0.084400  1.0  0.1075
  H  H93  1  0.920200  0.713900  0.167300  1.0  0.1212
  H  H94  1  0.347500  0.818600  0.178600  1.0  0.1121
  H  H95  1  0.370900  0.813600  0.095200  1.0  0.1083
  H  H96  1  0.198300  0.972800  0.833400  1.0  0.0911
  H  H97  1  0.132700  0.074900  0.823900  1.0  0.091
  H  H98  1  0.808200  0.036400  0.928800  1.0  0.1036
  H  H99  1  0.862000  0.933500  0.934100  1.0  0.1069
  H  H100  1  0.142400  0.629200  0.727800  1.0  0.1012
  H  H101  1  0.168100  0.619400  0.643500  1.0  0.1146
  H  H102  1  0.448700  0.787400  0.640000  1.0  0.1114
  H  H103  1  0.410900  0.800400  0.723000  1.0  0.0968
  H  H104  1  0.260600  0.648100  0.528900  1.0  0.406
  H  H105  1  0.270200  0.481000  0.882100  1.0  0.0945
  H  H106  1  0.362900  0.385800  0.890600  1.0  0.0944
  H  H107  1  0.667700  0.461500  0.991500  1.0  0.0996
  H  H108  1  0.576500  0.559700  0.984300  1.0  0.1162
  C  C109  1  0.350400  0.124000  0.261500  1.0  0.1785
  C  C110  1  0.322100  0.092800  0.217000  1.0  -0.1792
  C  C111  1  0.258000  0.132600  0.187500  1.0  -0.173
  C  C112  1  0.248000  0.188900  0.214000  1.0  0.1837
  C  C113  1  0.208700  0.245700  0.194000  1.0  -0.112
  C  C114  1  0.215000  0.300900  0.220000  1.0  0.1807
  C  C115  1  0.194400  0.361700  0.200200  1.0  -0.1678
  C  C116  1  0.186700  0.401600  0.237800  1.0  -0.1764
  C  C117  1  0.194800  0.365100  0.280800  1.0  0.2061
  C  C118  1  0.156600  0.385100  0.326100  1.0  -0.1042
  C  C119  1  0.164100  0.348400  0.366000  1.0  0.2058
  C  C120  1  0.112800  0.362400  0.412900  1.0  -0.1565
  C  C121  1  0.149600  0.318200  0.444600  1.0  -0.1876
  C  C122  1  0.225300  0.274900  0.416900  1.0  0.1902
  C  C123  1  0.301400  0.227400  0.436300  1.0  -0.095
  C  C124  1  0.369900  0.185500  0.407200  1.0  0.1955
  C  C125  1  0.467200  0.141900  0.424500  1.0  -0.1727
  C  C126  1  0.501100  0.106000  0.387300  1.0  -0.1726
  C  C127  1  0.430700  0.129300  0.345600  1.0  0.1871
  C  C128  1  0.422200  0.098700  0.300600  1.0  -0.0939
  C  C129  1  0.156800  0.243600  0.142900  1.0  0.0773
  C  C130  1  0.010200  0.209400  0.132500  1.0  -0.1395
  C  C131  1  0.948300  0.210100  0.086200  1.0  -0.0641
  C  C132  1  0.030600  0.243300  0.050400  1.0  -0.1142
  C  C133  1  0.172400  0.274000  0.059000  1.0  -0.0307
  C  C134  1  0.237800  0.273800  0.106200  1.0  -0.1379
  C  C135  1  0.952600  0.244300  0.002400  1.0  0.6884
  C  C136  1  0.112900  0.450200  0.331900  1.0  0.0928
  C  C137  1  0.985200  0.468400  0.309900  1.0  -0.1498
  C  C138  1  0.947600  0.530600  0.314300  1.0  -0.0513
  C  C139  1  0.035200  0.574300  0.341500  1.0  -0.167
  C  C140  1  0.159200  0.556900  0.365500  1.0  -0.0095
  C  C141  1  0.197800  0.495500  0.361100  1.0  -0.1564
  C  C142  1  0.997500  0.640300  0.346600  1.0  0.7868
  C  C143  1  0.308700  0.223000  0.489700  1.0  0.1056
  C  C144  1  0.241800  0.171500  0.513800  1.0  -0.1152
  C  C145  1  0.246700  0.165900  0.562200  1.0  -0.1254
  C  C146  1  0.324500  0.215200  0.588300  1.0  -0.1385
  C  C147  1  0.392100  0.266700  0.565100  1.0  -0.0482
  C  C148  1  0.386200  0.272100  0.516100  1.0  -0.1498
  C  C149  1  0.332800  0.213000  0.642800  1.0  0.6512
  C  C150  1  0.477000  0.036900  0.295000  1.0  0.0865
  C  C151  1  0.424600  0.989500  0.326800  1.0  -0.1581
  C  C152  1  0.475800  0.929300  0.325000  1.0  -0.0386
  C  C153  1  0.576800  0.916800  0.289600  1.0  -0.1154
  C  C154  1  0.626100  0.963500  0.256100  1.0  -0.0505
  C  C155  1  0.579200  0.023000  0.259500  1.0  -0.1391
  C  C156  1  0.644200  0.855100  0.291300  1.0  0.7002
  C  C157  1  0.701900  0.375500  0.464000  1.0  0.1985
  C  C158  1  0.714200  0.402700  0.510700  1.0  -0.1899
  C  C159  1  0.766700  0.359800  0.540000  1.0  -0.1657
  C  C160  1  0.781900  0.305500  0.510400  1.0  0.1692
  C  C161  1  0.812100  0.247400  0.528800  1.0  -0.0993
  C  C162  1  0.820800  0.194900  0.500200  1.0  0.1875
  C  C163  1  0.834900  0.132100  0.517700  1.0  -0.1778
  C  C164  1  0.862800  0.097100  0.478400  1.0  -0.1847
  C  C165  1  0.866400  0.137400  0.436800  1.0  0.1832
  C  C166  1  0.910600  0.121200  0.391300  1.0  -0.1226
  C  C167  1  0.898700  0.159600  0.351600  1.0  0.1931
  C  C168  1  0.945100  0.146500  0.303700  1.0  -0.1672
  C  C169  1  0.894800  0.188700  0.275300  1.0  -0.1548
  C  C170  1  0.819800  0.230200  0.304300  1.0  0.2059
  C  C171  1  0.741300  0.278300  0.286500  1.0  -0.1094
  C  C172  1  0.679100  0.319400  0.316800  1.0  0.1807
  C  C173  1  0.589100  0.368800  0.299500  1.0  -0.1684
  C  C174  1  0.562200  0.404600  0.337800  1.0  -0.1729
  C  C175  1  0.633400  0.378400  0.379000  1.0  0.2043
  C  C176  1  0.638000  0.404600  0.424000  1.0  -0.1252
  C  C177  1  0.833100  0.242900  0.583000  1.0  0.0611
  C  C178  1  0.965500  0.269500  0.603800  1.0  -0.1112
  C  C179  1  0.987600  0.266100  0.652800  1.0  -0.0753
  C  C180  1  0.868200  0.231900  0.681200  1.0  -0.1516
  C  C181  1  0.733100  0.203400  0.659700  1.0  -0.0335
  C  C182  1  0.718300  0.207600  0.610500  1.0  -0.1434
  C  C183  1  0.886000  0.230600  0.736000  1.0  0.7594
  C  C184  1  0.961100  0.057200  0.384600  1.0  0.0987
  C  C185  1  0.882200  0.014200  0.352300  1.0  -0.1397
  C  C186  1  0.918800  0.952900  0.347300  1.0  -0.0137
  C  C187  1  0.033000  0.931700  0.377000  1.0  -0.1928
  C  C188  1  0.113000  0.976500  0.409100  1.0  -0.0236
  C  C189  1  0.080600  0.037400  0.412800  1.0  -0.139
  C  C190  1  0.056000  0.863800  0.376300  1.0  0.8254
  C  C191  1  0.722700  0.283400  0.233900  1.0  0.0867
  C  C192  1  0.796900  0.338400  0.210000  1.0  -0.114
  C  C193  1  0.779900  0.344600  0.159700  1.0  -0.0475
  C  C194  1  0.687800  0.298300  0.134200  1.0  -0.131
  C  C195  1  0.614800  0.244300  0.157600  1.0  -0.027
  C  C196  1  0.635900  0.237100  0.207500  1.0  -0.0972
  C  C197  1  0.660000  0.306600  0.082600  1.0  0.6543
  C  C198  1  0.582200  0.467500  0.430800  1.0  0.0681
  C  C199  1  0.647600  0.522300  0.403900  1.0  -0.1239
  C  C200  1  0.593000  0.578900  0.409200  1.0  -0.0372
  C  C201  1  0.473700  0.586800  0.441200  1.0  -0.1549
  C  C202  1  0.412000  0.533900  0.469200  1.0  -0.0358
  C  C203  1  0.465300  0.475000  0.464700  1.0  -0.1467
  C  C204  1  0.400700  0.646500  0.441700  1.0  0.7022
  C  C205  1  0.649600  0.876000  0.761500  1.0  0.1782
  C  C206  1  0.677900  0.907200  0.717000  1.0  -0.1798
  C  C207  1  0.742000  0.867400  0.687500  1.0  -0.1725
  C  C208  1  0.752000  0.811100  0.714000  1.0  0.1832
  C  C209  1  0.791300  0.754300  0.694000  1.0  -0.1123
  C  C210  1  0.785000  0.699100  0.720000  1.0  0.1814
  C  C211  1  0.805600  0.638300  0.700200  1.0  -0.1681
  C  C212  1  0.813300  0.598400  0.737800  1.0  -0.1743
  C  C213  1  0.805200  0.634900  0.780800  1.0  0.2055
  C  C214  1  0.843400  0.614900  0.826100  1.0  -0.1048
  C  C215  1  0.835900  0.651600  0.866000  1.0  0.2066
  C  C216  1  0.887200  0.637600  0.912900  1.0  -0.156
  C  C217  1  0.850400  0.681800  0.944600  1.0  -0.1877
  C  C218  1  0.774700  0.725100  0.916900  1.0  0.1905
  C  C219  1  0.698600  0.772600  0.936300  1.0  -0.0948
  C  C220  1  0.630100  0.814500  0.907200  1.0  0.1961
  C  C221  1  0.532800  0.858100  0.924500  1.0  -0.1737
  C  C222  1  0.498900  0.894000  0.887300  1.0  -0.1733
  C  C223  1  0.569300  0.870700  0.845600  1.0  0.1872
  C  C224  1  0.577800  0.901300  0.800600  1.0  -0.0952
  C  C225  1  0.843200  0.756400  0.642900  1.0  0.0764
  C  C226  1  0.989800  0.790600  0.632500  1.0  -0.1411
  C  C227  1  0.051700  0.789900  0.586200  1.0  -0.0627
  C  C228  1  0.969400  0.756700  0.550400  1.0  -0.116
  C  C229  1  0.827600  0.726000  0.559000  1.0  -0.0298
  C  C230  1  0.762200  0.726200  0.606200  1.0  -0.1374
  C  C231  1  0.047400  0.755700  0.502400  1.0  0.6881
  C  C232  1  0.887100  0.549800  0.831900  1.0  0.0931
  C  C233  1  0.014800  0.531600  0.809900  1.0  -0.1496
  C  C234  1  0.052400  0.469400  0.814300  1.0  -0.0532
  C  C235  1  0.964800  0.425700  0.841500  1.0  -0.1667
  C  C236  1  0.840800  0.443100  0.865500  1.0  -0.0114
  C  C237  1  0.802200  0.504500  0.861100  1.0  -0.1576
  C  C238  1  0.002500  0.359700  0.846600  1.0  0.7685
  C  C239  1  0.691300  0.777000  0.989700  1.0  0.105
  C  C240  1  0.758200  0.828500  0.013800  1.0  -0.1103
  C  C241  1  0.753300  0.834100  0.062200  1.0  -0.1013
  C  C242  1  0.675500  0.784800  0.088300  1.0  -0.1381
  C  C243  1  0.607900  0.733300  0.065100  1.0  -0.0563
  C  C244  1  0.613800  0.727900  0.016100  1.0  -0.1497
  C  C245  1  0.667200  0.787000  0.142800  1.0  0.6506
  C  C246  1  0.523000  0.963100  0.795000  1.0  0.0868
  C  C247  1  0.575400  0.010500  0.826800  1.0  -0.1572
  C  C248  1  0.524200  0.070700  0.825000  1.0  -0.0377
  C  C249  1  0.423200  0.083200  0.789600  1.0  -0.1157
  C  C250  1  0.373900  0.036500  0.756100  1.0  -0.0502
  C  C251  1  0.420800  0.977000  0.759500  1.0  -0.1381
  C  C252  1  0.355800  0.144900  0.791300  1.0  0.7013
  C  C253  1  0.298100  0.624500  0.964000  1.0  0.1975
  C  C254  1  0.285800  0.597300  0.010700  1.0  -0.1884
  C  C255  1  0.233300  0.640200  0.040000  1.0  -0.1667
  C  C256  1  0.218100  0.694500  0.010400  1.0  0.1689
  C  C257  1  0.187900  0.752600  0.028800  1.0  -0.0996
  C  C258  1  0.179200  0.805100  0.000200  1.0  0.1873
  C  C259  1  0.165100  0.867900  0.017700  1.0  -0.177
  C  C260  1  0.137200  0.902900  0.978400  1.0  -0.186
  C  C261  1  0.133600  0.862600  0.936800  1.0  0.1852
  C  C262  1  0.089400  0.878800  0.891300  1.0  -0.123
  C  C263  1  0.101300  0.840400  0.851600  1.0  0.1934
  C  C264  1  0.054900  0.853500  0.803700  1.0  -0.168
  C  C265  1  0.105200  0.811300  0.775300  1.0  -0.1545
  C  C266  1  0.180200  0.769800  0.804300  1.0  0.2057
  C  C267  1  0.258700  0.721700  0.786500  1.0  -0.1088
  C  C268  1  0.320900  0.680600  0.816800  1.0  0.181
  C  C269  1  0.410900  0.631200  0.799500  1.0  -0.1691
  C  C270  1  0.437800  0.595400  0.837800  1.0  -0.1735
  C  C271  1  0.366600  0.621600  0.879000  1.0  0.2044
  C  C272  1  0.362000  0.595400  0.924000  1.0  -0.1256
  C  C273  1  0.166900  0.757100  0.083000  1.0  0.0605
  C  C274  1  0.034500  0.730500  0.103800  1.0  -0.1097
  C  C275  1  0.012400  0.733900  0.152800  1.0  -0.0745
  C  C276  1  0.131800  0.768100  0.181200  1.0  -0.1509
  C  C277  1  0.266900  0.796600  0.159700  1.0  -0.0309
  C  C278  1  0.281700  0.792400  0.110500  1.0  -0.145
  C  C279  1  0.114000  0.769400  0.236000  1.0  0.7609
  C  C280  1  0.038900  0.942800  0.884600  1.0  0.0962
  C  C281  1  0.117800  0.985800  0.852300  1.0  -0.1392
  C  C282  1  0.081200  0.047100  0.847300  1.0  -0.0131
  C  C283  1  0.967000  0.068300  0.877000  1.0  -0.1914
  C  C284  1  0.887000  0.023500  0.909100  1.0  -0.0246
  C  C285  1  0.919400  0.962600  0.912800  1.0  -0.1391
  C  C286  1  0.944000  0.136200  0.876300  1.0  0.8288
  C  C287  1  0.277300  0.716600  0.733900  1.0  0.087
  C  C288  1  0.203100  0.661600  0.710000  1.0  -0.1108
  C  C289  1  0.220100  0.655400  0.659700  1.0  -0.0507
  C  C290  1  0.312200  0.701700  0.634200  1.0  -0.1334
  C  C291  1  0.385200  0.755700  0.657600  1.0  -0.0252
  C  C292  1  0.364100  0.762900  0.707500  1.0  -0.0938
  C  C293  1  0.340000  0.693400  0.582600  1.0  0.6542
  C  C294  1  0.417800  0.532500  0.930800  1.0  0.0601
  C  C295  1  0.352400  0.477700  0.903900  1.0  -0.1274
  C  C296  1  0.407000  0.421100  0.909200  1.0  -0.0329
  C  C297  1  0.526300  0.413200  0.941200  1.0  -0.155
  C  C298  1  0.588000  0.466100  0.969200  1.0  -0.0339
  C  C299  1  0.534700  0.525000  0.964700  1.0  -0.15
  C  C300  1  0.599300  0.353500  0.941700  1.0  0.6998
  N  N301  1  0.299400  0.183900  0.260500  1.0  -0.3456
  N  N302  1  0.220700  0.303800  0.270000  1.0  -0.3239
  N  N303  1  0.226000  0.291700  0.367800  1.0  -0.3266
  N  N304  1  0.355400  0.180300  0.357800  1.0  -0.3219
  N  N305  1  0.746300  0.316300  0.462700  1.0  -0.3357
  N  N306  1  0.832200  0.197300  0.450700  1.0  -0.3196
  N  N307  1  0.828100  0.214900  0.352400  1.0  -0.3294
  N  N308  1  0.699800  0.325000  0.366300  1.0  -0.3195
  N  N309  1  0.700600  0.816100  0.760500  1.0  -0.345
  N  N310  1  0.779300  0.696200  0.770000  1.0  -0.3226
  N  N311  1  0.774000  0.708300  0.867800  1.0  -0.3282
  N  N312  1  0.644600  0.819700  0.857800  1.0  -0.3208
  N  N313  1  0.253700  0.683700  0.962700  1.0  -0.3348
  N  N314  1  0.167800  0.802700  0.950700  1.0  -0.3198
  N  N315  1  0.171900  0.785100  0.852400  1.0  -0.3286
  N  N316  1  0.300200  0.675000  0.866300  1.0  -0.3198
  O  O317  1  0.814800  0.218300  0.999900  1.0  -0.6779
  O  O318  1  0.019100  0.271900  0.966700  1.0  -0.6431
  O  O319  1  0.883000  0.653300  0.323200  1.0  -0.7386
  O  O320  1  0.079400  0.678300  0.373900  1.0  -0.8299
  O  O321  1  0.277300  0.157800  0.662000  1.0  -0.5388
  O  O322  1  0.384800  0.259300  0.667400  1.0  -0.5415
  O  O323  1  0.620600  0.820500  0.328200  1.0  -0.7304
  O  O324  1  0.732300  0.840700  0.258100  1.0  -0.6714
  O  O325  1  0.765300  0.211300  0.758400  1.0  -0.6016
  O  O326  1  0.017600  0.246600  0.751900  1.0  -0.7781
  O  O327  1  0.988700  0.828100  0.344400  1.0  -0.7932
  O  O328  1  0.137800  0.844600  0.408800  1.0  -0.7574
  O  O329  1  0.563000  0.271600  0.060300  1.0  -0.5367
  O  O330  1  0.748800  0.353400  0.061900  1.0  -0.5385
  O  O331  1  0.453400  0.690100  0.413600  1.0  -0.731
  O  O332  1  0.281300  0.651200  0.466800  1.0  -0.6858
  O  O333  1  0.185200  0.781700  0.499900  1.0  -0.6866
  O  O334  1  0.980900  0.728100  0.466700  1.0  -0.6432
  O  O335  1  0.117000  0.346700  0.823200  1.0  -0.7361
  O  O336  1  0.920600  0.321700  0.873900  1.0  -0.8285
  O  O337  1  0.722700  0.842200  0.162000  1.0  -0.5386
  O  O338  1  0.615200  0.740700  0.167400  1.0  -0.5397
  O  O339  1  0.379400  0.179500  0.828200  1.0  -0.7262
  O  O340  1  0.267700  0.159300  0.758100  1.0  -0.6682
  O  O341  1  0.234700  0.788700  0.258400  1.0  -0.6039
  O  O342  1  0.982400  0.753400  0.251900  1.0  -0.777
  O  O343  1  0.011300  0.171900  0.844400  1.0  -0.7936
  O  O344  1  0.862200  0.155400  0.908800  1.0  -0.7575
  O  O345  1  0.437000  0.728400  0.560300  1.0  -0.5362
  O  O346  1  0.251200  0.646600  0.561900  1.0  -0.538
  O  O347  1  0.546600  0.309900  0.913600  1.0  -0.7303
  O  O348  1  0.718700  0.348800  0.966800  1.0  -0.6872
