# generated using pymatgen
data_CoH5C9O5
_symmetry_space_group_name_H-M   'P 1'
_cell_length_a   13.20520000
_cell_length_b   14.12080000
_cell_length_c   14.56610000
_cell_angle_alpha   90.00000000
_cell_angle_beta   114.03100000
_cell_angle_gamma   90.00000000
_symmetry_Int_Tables_number   1
_chemical_formula_structural   CoH5C9O5
_chemical_formula_sum   'Co8 H40 C72 O40'
_cell_volume   2480.69311141
_cell_formula_units_Z   8
loop_
 _symmetry_equiv_pos_site_id
 _symmetry_equiv_pos_as_xyz
  1  'x, y, z'
loop_
 _atom_site_type_symbol
 _atom_site_label
 _atom_site_symmetry_multiplicity
 _atom_site_fract_x
 _atom_site_fract_y
 _atom_site_fract_z
 _atom_site_occupancy
 _atom_site_charge
  Co  Co1  1  0.482200  0.602080  0.738930  1.0  1.152
  Co  Co2  1  0.662390  0.733070  0.924670  1.0  0.9911
  Co  Co3  1  0.017800  0.102080  0.761070  1.0  1.1532
  Co  Co4  1  0.837610  0.233070  0.575330  1.0  0.9904
  Co  Co5  1  0.517800  0.397920  0.261070  1.0  1.1538
  Co  Co6  1  0.337610  0.266930  0.075330  1.0  0.9923
  Co  Co7  1  0.982200  0.897920  0.238930  1.0  1.1526
  Co  Co8  1  0.162390  0.766930  0.424670  1.0  0.9918
  H  H9  1  0.805300  0.452600  0.060000  1.0  0.1305
  H  H10  1  0.971400  0.185800  0.150300  1.0  0.0692
  H  H11  1  0.074300  0.253800  0.177800  1.0  0.0798
  H  H12  1  0.245500  0.419700  0.456700  1.0  0.1284
  H  H13  1  0.761200  0.397400  0.776300  1.0  0.1055
  H  H14  1  0.045300  0.215700  0.476700  1.0  0.1225
  H  H15  1  0.962900  0.235300  0.001900  1.0  0.1208
  H  H16  1  0.064100  0.172800  0.320700  1.0  0.0763
  H  H17  1  0.961100  0.237300  0.304900  1.0  0.0746
  H  H18  1  0.245900  0.355300  0.724200  1.0  0.1098
  H  H19  1  0.694700  0.952600  0.440000  1.0  0.1302
  H  H20  1  0.528600  0.685800  0.349700  1.0  0.0701
  H  H21  1  0.425700  0.753800  0.322200  1.0  0.076
  H  H22  1  0.254500  0.919700  0.043300  1.0  0.1294
  H  H23  1  0.738800  0.897400  0.723700  1.0  0.105
  H  H24  1  0.454700  0.715700  0.023300  1.0  0.1215
  H  H25  1  0.537100  0.735300  0.498100  1.0  0.1217
  H  H26  1  0.435900  0.672800  0.179300  1.0  0.076
  H  H27  1  0.538900  0.737300  0.195100  1.0  0.075
  H  H28  1  0.254100  0.855300  0.775800  1.0  0.1077
  H  H29  1  0.194700  0.547400  0.940000  1.0  0.1303
  H  H30  1  0.028600  0.814200  0.849700  1.0  0.0687
  H  H31  1  0.925700  0.746200  0.822200  1.0  0.0763
  H  H32  1  0.754500  0.580300  0.543300  1.0  0.1294
  H  H33  1  0.238800  0.602600  0.223700  1.0  0.1052
  H  H34  1  0.954700  0.784300  0.523300  1.0  0.1221
  H  H35  1  0.037100  0.764700  0.998100  1.0  0.122
  H  H36  1  0.935900  0.827200  0.679300  1.0  0.0768
  H  H37  1  0.038900  0.762700  0.695100  1.0  0.0751
  H  H38  1  0.754100  0.644700  0.275800  1.0  0.1072
  H  H39  1  0.305300  0.047400  0.560000  1.0  0.1307
  H  H40  1  0.471400  0.314200  0.650300  1.0  0.0698
  H  H41  1  0.574300  0.246200  0.677800  1.0  0.08
  H  H42  1  0.745500  0.080300  0.956700  1.0  0.1287
  H  H43  1  0.261200  0.102600  0.276300  1.0  0.1052
  H  H44  1  0.545300  0.284300  0.976700  1.0  0.1225
  H  H45  1  0.462900  0.264700  0.501900  1.0  0.1219
  H  H46  1  0.564100  0.327200  0.820700  1.0  0.0762
  H  H47  1  0.461100  0.262700  0.804900  1.0  0.0758
  H  H48  1  0.745900  0.144700  0.224200  1.0  0.1098
  C  C49  1  0.819600  0.416000  0.013600  1.0  -0.1398
  C  C50  1  0.006000  0.243000  0.186300  1.0  0.0809
  C  C51  1  0.695700  0.523100  0.876300  1.0  0.7507
  C  C52  1  0.218500  0.383800  0.495400  1.0  -0.1653
  C  C53  1  0.794400  0.383800  0.844700  1.0  -0.0475
  C  C54  1  0.099100  0.261600  0.507100  1.0  -0.2183
  C  C55  1  0.770900  0.440100  0.912000  1.0  -0.1147
  C  C56  1  0.866200  0.308400  0.877900  1.0  -0.1021
  C  C57  1  0.138700  0.315900  0.449800  1.0  0.2825
  C  C58  1  0.888900  0.338400  0.046300  1.0  0.2591
  C  C59  1  0.913900  0.285900  0.979400  1.0  -0.1845
  C  C60  1  0.029600  0.233500  0.295400  1.0  0.0759
  C  C61  1  0.259300  0.399400  0.598200  1.0  -0.0995
  C  C62  1  0.140000  0.275800  0.609900  1.0  -0.1156
  C  C63  1  0.219500  0.345300  0.655300  1.0  -0.0456
  C  C64  1  0.343400  0.473600  0.645900  1.0  0.6549
  C  C65  1  0.097000  0.218700  0.671100  1.0  0.6848
  C  C66  1  0.896800  0.252100  0.806600  1.0  0.7346
  C  C67  1  0.680400  0.916000  0.486400  1.0  -0.1421
  C  C68  1  0.494000  0.743000  0.313700  1.0  0.0803
  C  C69  1  0.804300  0.023100  0.623700  1.0  0.7311
  C  C70  1  0.281500  0.883800  0.004600  1.0  -0.1666
  C  C71  1  0.705600  0.883800  0.655300  1.0  -0.0435
  C  C72  1  0.400900  0.761600  0.992900  1.0  -0.2154
  C  C73  1  0.729100  0.940100  0.588000  1.0  -0.1139
  C  C74  1  0.633800  0.808400  0.622100  1.0  -0.1036
  C  C75  1  0.361300  0.815900  0.050200  1.0  0.2831
  C  C76  1  0.611100  0.838400  0.453700  1.0  0.2602
  C  C77  1  0.586100  0.785900  0.520600  1.0  -0.1847
  C  C78  1  0.470400  0.733500  0.204600  1.0  0.0791
  C  C79  1  0.240700  0.899400  0.901800  1.0  -0.0988
  C  C80  1  0.360000  0.775800  0.890100  1.0  -0.1156
  C  C81  1  0.280500  0.845300  0.844700  1.0  -0.0446
  C  C82  1  0.156600  0.973600  0.854100  1.0  0.653
  C  C83  1  0.403000  0.718700  0.828900  1.0  0.6849
  C  C84  1  0.603200  0.752100  0.693400  1.0  0.7339
  C  C85  1  0.180400  0.584000  0.986400  1.0  -0.1402
  C  C86  1  0.994000  0.757000  0.813700  1.0  0.081
  C  C87  1  0.304300  0.476900  0.123700  1.0  0.7314
  C  C88  1  0.781500  0.616200  0.504600  1.0  -0.1645
  C  C89  1  0.205600  0.616200  0.155300  1.0  -0.0447
  C  C90  1  0.900900  0.738400  0.492900  1.0  -0.2151
  C  C91  1  0.229100  0.559900  0.088000  1.0  -0.1149
  C  C92  1  0.133800  0.691600  0.122100  1.0  -0.1036
  C  C93  1  0.861300  0.684100  0.550200  1.0  0.2911
  C  C94  1  0.111100  0.661600  0.953700  1.0  0.2586
  C  C95  1  0.086100  0.714100  0.020600  1.0  -0.1848
  C  C96  1  0.970400  0.766500  0.704600  1.0  0.077
  C  C97  1  0.740700  0.600600  0.401800  1.0  -0.1
  C  C98  1  0.860000  0.724200  0.390100  1.0  -0.1153
  C  C99  1  0.780500  0.654700  0.344700  1.0  -0.0447
  C  C100  1  0.656600  0.526400  0.354100  1.0  0.6526
  C  C101  1  0.903000  0.781300  0.328900  1.0  0.6851
  C  C102  1  0.103200  0.747900  0.193400  1.0  0.7331
  C  C103  1  0.319600  0.084000  0.513600  1.0  -0.1385
  C  C104  1  0.506000  0.257000  0.686300  1.0  0.0807
  C  C105  1  0.195700  0.976900  0.376300  1.0  0.7304
  C  C106  1  0.718500  0.116200  0.995400  1.0  -0.1628
  C  C107  1  0.294400  0.116200  0.344700  1.0  -0.0475
  C  C108  1  0.599100  0.238400  0.007100  1.0  -0.2181
  C  C109  1  0.270900  0.059900  0.412000  1.0  -0.1154
  C  C110  1  0.366200  0.191600  0.377900  1.0  -0.1019
  C  C111  1  0.638700  0.184100  0.949800  1.0  0.2814
  C  C112  1  0.388900  0.161600  0.546300  1.0  0.2594
  C  C113  1  0.413900  0.214100  0.479400  1.0  -0.1851
  C  C114  1  0.529600  0.266500  0.795400  1.0  0.0774
  C  C115  1  0.759300  0.100600  0.098200  1.0  -0.1005
  C  C116  1  0.640000  0.224200  0.109900  1.0  -0.1158
  C  C117  1  0.719500  0.154700  0.155300  1.0  -0.0447
  C  C118  1  0.843400  0.026400  0.145900  1.0  0.6538
  C  C119  1  0.597000  0.281300  0.171100  1.0  0.6854
  C  C120  1  0.396800  0.247900  0.306600  1.0  0.7347
  O  O121  1  0.102500  0.309000  0.348200  1.0  -0.2839
  O  O122  1  0.717800  0.594700  0.932400  1.0  -0.6273
  O  O123  1  0.932300  0.322700  0.148900  1.0  -0.2931
  O  O124  1  0.614400  0.516600  0.791400  1.0  -0.5865
  O  O125  1  0.363800  0.501200  0.731800  1.0  -0.5687
  O  O126  1  0.398000  0.508500  0.601700  1.0  -0.5728
  O  O127  1  0.151700  0.209100  0.764300  1.0  -0.5664
  O  O128  1  0.004900  0.174600  0.631100  1.0  -0.6874
  O  O129  1  0.845800  0.266300  0.715600  1.0  -0.6602
  O  O130  1  0.974100  0.192300  0.842500  1.0  -0.5937
  O  O131  1  0.397500  0.809000  0.151800  1.0  -0.2837
  O  O132  1  0.782200  0.094700  0.567600  1.0  -0.6276
  O  O133  1  0.567700  0.822700  0.351100  1.0  -0.2933
  O  O134  1  0.885600  0.016600  0.708600  1.0  -0.5866
  O  O135  1  0.136200  0.001200  0.768200  1.0  -0.567
  O  O136  1  0.102000  0.008500  0.898300  1.0  -0.5744
  O  O137  1  0.348300  0.709100  0.735700  1.0  -0.5669
  O  O138  1  0.495100  0.674600  0.868900  1.0  -0.6871
  O  O139  1  0.654200  0.766300  0.784400  1.0  -0.6612
  O  O140  1  0.525900  0.692300  0.657500  1.0  -0.594
  O  O141  1  0.897500  0.691000  0.651800  1.0  -0.2835
  O  O142  1  0.282200  0.405300  0.067600  1.0  -0.6285
  O  O143  1  0.067700  0.677300  0.851100  1.0  -0.2927
  O  O144  1  0.385600  0.483400  0.208600  1.0  -0.5858
  O  O145  1  0.636200  0.498800  0.268200  1.0  -0.5666
  O  O146  1  0.602000  0.491500  0.398300  1.0  -0.5755
  O  O147  1  0.848300  0.790900  0.235700  1.0  -0.5668
  O  O148  1  0.995100  0.825400  0.368900  1.0  -0.6877
  O  O149  1  0.154200  0.733700  0.284400  1.0  -0.6605
  O  O150  1  0.025900  0.807700  0.157500  1.0  -0.5936
  O  O151  1  0.602500  0.191000  0.848200  1.0  -0.2822
  O  O152  1  0.217800  0.905300  0.432400  1.0  -0.628
  O  O153  1  0.432300  0.177300  0.648900  1.0  -0.2942
  O  O154  1  0.114400  0.983400  0.291400  1.0  -0.5862
  O  O155  1  0.863800  0.998800  0.231800  1.0  -0.5684
  O  O156  1  0.898000  0.991500  0.101700  1.0  -0.5736
  O  O157  1  0.651700  0.290900  0.264300  1.0  -0.5665
  O  O158  1  0.504900  0.325400  0.131100  1.0  -0.6867
  O  O159  1  0.345800  0.233700  0.215600  1.0  -0.6606
  O  O160  1  0.474100  0.307700  0.342500  1.0  -0.5935
