# generated using pymatgen
data_CoH19C19N4O5
_symmetry_space_group_name_H-M   'P 1'
_cell_length_a   7.27650000
_cell_length_b   16.97910000
_cell_length_c   17.06680000
_cell_angle_alpha   90.00000000
_cell_angle_beta   96.53800000
_cell_angle_gamma   90.00000000
_symmetry_Int_Tables_number   1
_chemical_formula_structural   CoH19C19N4O5
_chemical_formula_sum   'Co4 H76 C76 N16 O20'
_cell_volume   2094.86319099
_cell_formula_units_Z   4
loop_
 _symmetry_equiv_pos_site_id
 _symmetry_equiv_pos_as_xyz
  1  'x, y, z'
loop_
 _atom_site_type_symbol
 _atom_site_label
 _atom_site_symmetry_multiplicity
 _atom_site_fract_x
 _atom_site_fract_y
 _atom_site_fract_z
 _atom_site_occupancy
 _atom_site_charge
  Co  Co1  1  0.434700  0.798700  0.806620  1.0  0.9129
  Co  Co2  1  0.065300  0.298700  0.693380  1.0  0.9142
  Co  Co3  1  0.565300  0.201300  0.193380  1.0  0.9139
  Co  Co4  1  0.934700  0.701300  0.306620  1.0  0.9134
  H  H5  1  0.822300  0.480500  0.461700  1.0  0.0537
  H  H6  1  0.927700  0.558900  0.446100  1.0  0.0582
  H  H7  1  0.715000  0.632300  0.652600  1.0  0.1165
  H  H8  1  0.235500  0.702100  0.536300  1.0  0.1007
  H  H9  1  0.591300  0.573700  0.426900  1.0  0.1064
  H  H10  1  0.604900  0.032700  0.631700  1.0  0.0692
  H  H11  1  0.641700  0.042500  0.543500  1.0  0.0755
  H  H12  1  0.845900  0.000100  0.732000  1.0  0.0943
  H  H13  1  0.939400  0.082100  0.722400  1.0  0.0829
  H  H14  1  0.372900  0.151200  0.488100  1.0  0.1362
  H  H15  1  0.530600  0.986900  0.798600  1.0  0.0991
  H  H16  1  0.103100  0.220300  0.524600  1.0  0.1049
  H  H17  1  0.970900  0.054400  0.591100  1.0  0.071
  H  H18  1  0.889200  0.969700  0.600100  1.0  0.0825
  H  H19  1  0.743900  0.168100  0.565300  1.0  0.0924
  H  H20  1  0.744600  0.158700  0.656600  1.0  0.0869
  H  H21  1  0.298900  0.086400  0.754900  1.0  0.1303
  H  H22  1  0.475400  0.222800  0.707300  1.0  0.1015
  H  H23  1  0.070100  0.877100  0.735000  1.0  0.0991
  H  H24  1  0.677700  0.980500  0.038300  1.0  0.054
  H  H25  1  0.572300  0.058900  0.053900  1.0  0.058
  H  H26  1  0.785000  0.132300  0.847400  1.0  0.1172
  H  H27  1  0.264500  0.202100  0.963700  1.0  0.1008
  H  H28  1  0.908700  0.073700  0.073100  1.0  0.107
  H  H29  1  0.895100  0.532700  0.868300  1.0  0.0686
  H  H30  1  0.858300  0.542500  0.956500  1.0  0.0757
  H  H31  1  0.654100  0.500100  0.768000  1.0  0.093
  H  H32  1  0.560600  0.582100  0.777600  1.0  0.0837
  H  H33  1  0.127100  0.651200  0.011900  1.0  0.136
  H  H34  1  0.969400  0.486900  0.701400  1.0  0.0994
  H  H35  1  0.396900  0.720300  0.975400  1.0  0.1054
  H  H36  1  0.529100  0.554400  0.908900  1.0  0.0702
  H  H37  1  0.610800  0.469700  0.899900  1.0  0.0827
  H  H38  1  0.756100  0.668100  0.934700  1.0  0.0927
  H  H39  1  0.755400  0.658700  0.843400  1.0  0.0869
  H  H40  1  0.201100  0.586400  0.745100  1.0  0.1306
  H  H41  1  0.024600  0.722800  0.792700  1.0  0.1017
  H  H42  1  0.429900  0.377100  0.765000  1.0  0.0995
  H  H43  1  0.177700  0.519500  0.538300  1.0  0.0532
  H  H44  1  0.072300  0.441100  0.553900  1.0  0.0589
  H  H45  1  0.285000  0.367700  0.347400  1.0  0.117
  H  H46  1  0.764500  0.297900  0.463700  1.0  0.1008
  H  H47  1  0.408700  0.426300  0.573100  1.0  0.1066
  H  H48  1  0.395100  0.967300  0.368300  1.0  0.0699
  H  H49  1  0.358300  0.957500  0.456500  1.0  0.0753
  H  H50  1  0.154100  0.999900  0.268000  1.0  0.0938
  H  H51  1  0.060600  0.917900  0.277600  1.0  0.083
  H  H52  1  0.627100  0.848800  0.511900  1.0  0.1356
  H  H53  1  0.469400  0.013100  0.201400  1.0  0.0995
  H  H54  1  0.896900  0.779700  0.475400  1.0  0.1053
  H  H55  1  0.029100  0.945600  0.408900  1.0  0.0696
  H  H56  1  0.110800  0.030300  0.399900  1.0  0.0833
  H  H57  1  0.256100  0.831900  0.434700  1.0  0.0932
  H  H58  1  0.255400  0.841300  0.343400  1.0  0.0866
  H  H59  1  0.701100  0.913600  0.245100  1.0  0.1306
  H  H60  1  0.524600  0.777200  0.292700  1.0  0.1014
  H  H61  1  0.929900  0.122900  0.265000  1.0  0.0992
  H  H62  1  0.322300  0.019500  0.961700  1.0  0.0538
  H  H63  1  0.427700  0.941100  0.946100  1.0  0.0581
  H  H64  1  0.215000  0.867700  0.152600  1.0  0.1168
  H  H65  1  0.735500  0.797900  0.036300  1.0  0.1007
  H  H66  1  0.091300  0.926300  0.926900  1.0  0.1062
  H  H67  1  0.104900  0.467300  0.131700  1.0  0.0693
  H  H68  1  0.141700  0.457500  0.043500  1.0  0.0753
  H  H69  1  0.345900  0.499900  0.232000  1.0  0.094
  H  H70  1  0.439400  0.417900  0.222400  1.0  0.0831
  H  H71  1  0.872900  0.348800  0.988100  1.0  0.1358
  H  H72  1  0.030600  0.513100  0.298600  1.0  0.0995
  H  H73  1  0.603100  0.279700  0.024600  1.0  0.1051
  H  H74  1  0.470900  0.445600  0.091100  1.0  0.071
  H  H75  1  0.389200  0.530300  0.100100  1.0  0.0841
  H  H76  1  0.243900  0.331900  0.065300  1.0  0.0924
  H  H77  1  0.244600  0.341300  0.156600  1.0  0.0871
  H  H78  1  0.798900  0.413600  0.254900  1.0  0.1301
  H  H79  1  0.975400  0.277200  0.207300  1.0  0.1013
  H  H80  1  0.570100  0.622900  0.235000  1.0  0.0995
  C  C81  1  0.678000  0.594100  0.540800  1.0  0.2639
  C  C82  1  0.909500  0.519300  0.485400  1.0  0.0834
  C  C83  1  0.633200  0.633300  0.606500  1.0  -0.1631
  C  C84  1  0.348100  0.676080  0.537100  1.0  -0.0488
  C  C85  1  0.394200  0.639200  0.469400  1.0  -0.1066
  C  C86  1  0.264800  0.644000  0.394200  1.0  0.6518
  C  C87  1  0.559800  0.598400  0.472100  1.0  -0.1874
  C  C88  1  0.468400  0.674300  0.605300  1.0  -0.1191
  C  C89  1  0.423900  0.718000  0.677700  1.0  0.6353
  C  C90  1  0.686400  0.056700  0.597400  1.0  -0.1407
  C  C91  1  0.938500  0.027500  0.705700  1.0  -0.0355
  C  C92  1  0.361400  0.174300  0.536700  1.0  -0.1717
  C  C93  1  0.408300  0.976800  0.779100  1.0  0.0427
  C  C94  1  0.212500  0.212200  0.557400  1.0  0.0462
  C  C95  1  0.884400  0.023800  0.617900  1.0  -0.1375
  C  C96  1  0.679400  0.144100  0.606000  1.0  -0.0208
  C  C97  1  0.281300  0.032200  0.755000  1.0  -0.167
  C  C98  1  0.415300  0.213900  0.657100  1.0  0.1617
  C  C99  1  0.158400  0.916700  0.743900  1.0  0.1655
  C  C100  1  0.822000  0.094100  0.959200  1.0  0.2642
  C  C101  1  0.590500  0.019300  0.014600  1.0  0.0816
  C  C102  1  0.866800  0.133300  0.893500  1.0  -0.1661
  C  C103  1  0.151900  0.176080  0.962900  1.0  -0.0517
  C  C104  1  0.105800  0.139200  0.030600  1.0  -0.1058
  C  C105  1  0.235200  0.144000  0.105800  1.0  0.6527
  C  C106  1  0.940200  0.098400  0.027900  1.0  -0.1903
  C  C107  1  0.031600  0.174300  0.894700  1.0  -0.1202
  C  C108  1  0.076100  0.218000  0.822300  1.0  0.636
  C  C109  1  0.813600  0.556700  0.902600  1.0  -0.1413
  C  C110  1  0.561500  0.527500  0.794300  1.0  -0.0343
  C  C111  1  0.138600  0.674300  0.963300  1.0  -0.1706
  C  C112  1  0.091700  0.476800  0.720900  1.0  0.0426
  C  C113  1  0.287500  0.712200  0.942600  1.0  0.0469
  C  C114  1  0.615600  0.523800  0.882100  1.0  -0.1366
  C  C115  1  0.820600  0.644100  0.894000  1.0  -0.0177
  C  C116  1  0.218700  0.532200  0.745000  1.0  -0.167
  C  C117  1  0.084700  0.713900  0.842900  1.0  0.1625
  C  C118  1  0.341600  0.416700  0.756100  1.0  0.1649
  C  C119  1  0.322000  0.405900  0.459200  1.0  0.2643
  C  C120  1  0.090500  0.480700  0.514600  1.0  0.0816
  C  C121  1  0.366800  0.366700  0.393500  1.0  -0.166
  C  C122  1  0.651900  0.323920  0.462900  1.0  -0.0532
  C  C123  1  0.605800  0.360800  0.530600  1.0  -0.1051
  C  C124  1  0.735200  0.356000  0.605800  1.0  0.6524
  C  C125  1  0.440200  0.401600  0.527900  1.0  -0.1898
  C  C126  1  0.531600  0.325700  0.394700  1.0  -0.1209
  C  C127  1  0.576100  0.282000  0.322300  1.0  0.6357
  C  C128  1  0.313600  0.943300  0.402600  1.0  -0.1416
  C  C129  1  0.061500  0.972500  0.294300  1.0  -0.0338
  C  C130  1  0.638600  0.825700  0.463300  1.0  -0.1711
  C  C131  1  0.591700  0.023200  0.220900  1.0  0.0428
  C  C132  1  0.787500  0.787800  0.442600  1.0  0.0467
  C  C133  1  0.115600  0.976200  0.382100  1.0  -0.1376
  C  C134  1  0.320600  0.855900  0.394000  1.0  -0.0204
  C  C135  1  0.718700  0.967800  0.245000  1.0  -0.1659
  C  C136  1  0.584700  0.786100  0.342900  1.0  0.163
  C  C137  1  0.841600  0.083300  0.256100  1.0  0.1648
  C  C138  1  0.178000  0.905900  0.040800  1.0  0.2642
  C  C139  1  0.409500  0.980700  0.985400  1.0  0.0833
  C  C140  1  0.133200  0.866700  0.106500  1.0  -0.1634
  C  C141  1  0.848100  0.823920  0.037100  1.0  -0.0497
  C  C142  1  0.894200  0.860800  0.969400  1.0  -0.106
  C  C143  1  0.764800  0.856000  0.894200  1.0  0.6522
  C  C144  1  0.059800  0.901600  0.972100  1.0  -0.1873
  C  C145  1  0.968400  0.825700  0.105300  1.0  -0.1192
  C  C146  1  0.923900  0.782000  0.177700  1.0  0.6358
  C  C147  1  0.186400  0.443300  0.097400  1.0  -0.1412
  C  C148  1  0.438500  0.472500  0.205700  1.0  -0.0361
  C  C149  1  0.861400  0.325700  0.036700  1.0  -0.1725
  C  C150  1  0.908300  0.523200  0.279100  1.0  0.0428
  C  C151  1  0.712500  0.287800  0.057400  1.0  0.046
  C  C152  1  0.384400  0.476200  0.117900  1.0  -0.1363
  C  C153  1  0.179400  0.355900  0.106000  1.0  -0.0227
  C  C154  1  0.781300  0.467800  0.255000  1.0  -0.1661
  C  C155  1  0.915300  0.286100  0.157100  1.0  0.1622
  C  C156  1  0.658400  0.583300  0.243900  1.0  0.165
  N  N157  1  0.245900  0.237250  0.634200  1.0  -0.4154
  N  N158  1  0.330100  0.903510  0.770290  1.0  -0.4211
  N  N159  1  0.121800  0.992480  0.731000  1.0  0.0459
  N  N160  1  0.492400  0.175890  0.600400  1.0  0.045
  N  N161  1  0.254100  0.737250  0.865800  1.0  -0.4138
  N  N162  1  0.169900  0.403510  0.729710  1.0  -0.4208
  N  N163  1  0.378200  0.492480  0.769000  1.0  0.0454
  N  N164  1  0.007600  0.675890  0.899600  1.0  0.0452
  N  N165  1  0.754100  0.762750  0.365800  1.0  -0.4142
  N  N166  1  0.669900  0.096490  0.229710  1.0  -0.4209
  N  N167  1  0.878200  0.007520  0.269000  1.0  0.0458
  N  N168  1  0.507600  0.824110  0.399600  1.0  0.0452
  N  N169  1  0.745900  0.262750  0.134200  1.0  -0.4155
  N  N170  1  0.830100  0.596490  0.270290  1.0  -0.4205
  N  N171  1  0.621800  0.507520  0.231000  1.0  0.0461
  N  N172  1  0.992400  0.324110  0.100400  1.0  0.0451
  O  O173  1  0.842500  0.554090  0.551170  1.0  -0.2699
  O  O174  1  0.115800  0.682980  0.398720  1.0  -0.6152
  O  O175  1  0.266900  0.743980  0.682530  1.0  -0.5883
  O  O176  1  0.305000  0.613200  0.333333  1.0  -0.595
  O  O177  1  0.556000  0.729060  0.733140  1.0  -0.6131
  O  O178  1  0.657500  0.054090  0.948830  1.0  -0.2706
  O  O179  1  0.384200  0.182980  0.101280  1.0  -0.6147
  O  O180  1  0.233100  0.243980  0.817470  1.0  -0.5874
  O  O181  1  0.195000  0.113200  0.166700  1.0  -0.5942
  O  O182  1  0.944000  0.229060  0.766860  1.0  -0.6128
  O  O183  1  0.157500  0.445910  0.448830  1.0  -0.2711
  O  O184  1  0.884200  0.317020  0.601280  1.0  -0.6149
  O  O185  1  0.733100  0.256020  0.317470  1.0  -0.5875
  O  O186  1  0.695000  0.386800  0.666667  1.0  -0.594
  O  O187  1  0.444000  0.270940  0.266860  1.0  -0.6133
  O  O188  1  0.342500  0.945910  0.051170  1.0  -0.2705
  O  O189  1  0.615800  0.817020  0.898720  1.0  -0.6157
  O  O190  1  0.766900  0.756020  0.182530  1.0  -0.5887
  O  O191  1  0.805000  0.886800  0.833300  1.0  -0.5955
  O  O192  1  0.056000  0.770940  0.233140  1.0  -0.6134
