# generated using pymatgen
data_ZnH12C21N2O5
_symmetry_space_group_name_H-M   'P 1'
_cell_length_a   9.32650000
_cell_length_b   9.65870000
_cell_length_c   11.76310000
_cell_angle_alpha   75.36300000
_cell_angle_beta   78.55500000
_cell_angle_gamma   87.17800000
_symmetry_Int_Tables_number   1
_chemical_formula_structural   ZnH12C21N2O5
_chemical_formula_sum   'Zn2 H24 C42 N4 O10'
_cell_volume   1004.86561255
_cell_formula_units_Z   2
loop_
 _symmetry_equiv_pos_site_id
 _symmetry_equiv_pos_as_xyz
  1  'x, y, z'
loop_
 _atom_site_type_symbol
 _atom_site_label
 _atom_site_symmetry_multiplicity
 _atom_site_fract_x
 _atom_site_fract_y
 _atom_site_fract_z
 _atom_site_occupancy
 _atom_site_charge
  Zn  Zn1  1  0.554610  0.114950  0.111630  1.0  1.0203
  Zn  Zn2  1  0.445390  0.885050  0.888370  1.0  1.021
  H  H3  1  0.633100  0.563000  0.066000  1.0  0.1065
  H  H4  1  0.816100  0.797300  0.237400  1.0  0.118
  H  H5  1  0.861900  0.370800  0.317400  1.0  0.1071
  H  H6  1  0.039500  0.422600  0.410900  1.0  0.0765
  H  H7  1  0.883700  0.414400  0.494400  1.0  0.0734
  H  H8  1  0.326500  0.815000  0.515100  1.0  0.1273
  H  H9  1  0.480100  0.826800  0.319700  1.0  0.1047
  H  H10  1  0.414400  0.312700  0.436000  1.0  0.1074
  H  H11  1  0.199100  0.530700  0.113600  1.0  0.1275
  H  H12  1  0.219800  0.277600  0.169800  1.0  0.1248
  H  H13  1  0.392100  0.559400  0.382800  1.0  0.1295
  H  H14  1  0.291000  0.662700  0.218300  1.0  0.1028
  H  H15  1  0.366900  0.437000  0.934000  1.0  0.1065
  H  H16  1  0.183900  0.202700  0.762600  1.0  0.1189
  H  H17  1  0.138100  0.629200  0.682600  1.0  0.1062
  H  H18  1  0.960500  0.577400  0.589100  1.0  0.077
  H  H19  1  0.116300  0.585600  0.505600  1.0  0.0727
  H  H20  1  0.673500  0.185000  0.484900  1.0  0.1275
  H  H21  1  0.519900  0.173200  0.680300  1.0  0.105
  H  H22  1  0.585600  0.687300  0.564000  1.0  0.1075
  H  H23  1  0.800900  0.469300  0.886400  1.0  0.1274
  H  H24  1  0.780200  0.722400  0.830200  1.0  0.1253
  H  H25  1  0.607900  0.440600  0.617200  1.0  0.1296
  H  H26  1  0.709000  0.337300  0.781700  1.0  0.1032
  C  C27  1  0.687400  0.568700  0.122900  1.0  -0.0248
  C  C28  1  0.796400  0.708900  0.225900  1.0  -0.0967
  C  C29  1  0.713700  0.701600  0.141700  1.0  -0.1465
  C  C30  1  0.824300  0.453700  0.273700  1.0  -0.1809
  C  C31  1  0.967800  0.475400  0.455200  1.0  0.0956
  C  C32  1  0.742100  0.446000  0.189000  1.0  -0.1381
  C  C33  1  0.850000  0.585200  0.292900  1.0  0.2943
  C  C34  1  0.343800  0.895800  0.451500  1.0  -0.0885
  C  C35  1  0.709000  0.299000  0.177700  1.0  0.6636
  C  C36  1  0.340900  0.115000  0.340700  1.0  0.3003
  C  C37  1  0.428700  0.903100  0.343300  1.0  0.0526
  C  C38  1  0.318800  0.271500  0.307200  1.0  -0.0418
  C  C39  1  0.173900  0.066700  0.544700  1.0  -0.0136
  C  C40  1  0.371100  0.356300  0.371200  1.0  -0.0843
  C  C41  1  0.242700  0.485800  0.177900  1.0  -0.1648
  C  C42  1  0.254900  0.333700  0.212000  1.0  -0.0582
  C  C43  1  0.359200  0.503100  0.339700  1.0  -0.1559
  C  C44  1  0.296700  0.563400  0.241900  1.0  -0.0825
  C  C45  1  0.029000  0.980300  0.562000  1.0  0.0743
  C  C46  1  0.645700  0.833900  0.077400  1.0  0.7009
  C  C47  1  0.980700  0.934000  0.491500  1.0  -0.0205
  C  C48  1  0.312600  0.431300  0.877100  1.0  -0.0242
  C  C49  1  0.203600  0.291100  0.774100  1.0  -0.0949
  C  C50  1  0.286300  0.298400  0.858300  1.0  -0.148
  C  C51  1  0.175700  0.546300  0.726300  1.0  -0.1816
  C  C52  1  0.032200  0.524600  0.544800  1.0  0.0977
  C  C53  1  0.257900  0.554000  0.811000  1.0  -0.1385
  C  C54  1  0.150000  0.414800  0.707100  1.0  0.2931
  C  C55  1  0.656200  0.104200  0.548500  1.0  -0.0895
  C  C56  1  0.291000  0.701000  0.822300  1.0  0.665
  C  C57  1  0.659100  0.885000  0.659300  1.0  0.301
  C  C58  1  0.571300  0.096900  0.656700  1.0  0.0534
  C  C59  1  0.681200  0.728500  0.692800  1.0  -0.0415
  C  C60  1  0.826100  0.933300  0.455300  1.0  -0.0091
  C  C61  1  0.628900  0.643700  0.628800  1.0  -0.0839
  C  C62  1  0.757300  0.514200  0.822100  1.0  -0.1642
  C  C63  1  0.745100  0.666300  0.788000  1.0  -0.0599
  C  C64  1  0.640800  0.496900  0.660300  1.0  -0.1539
  C  C65  1  0.703300  0.436600  0.758100  1.0  -0.0826
  C  C66  1  0.971000  0.019700  0.438000  1.0  0.0748
  C  C67  1  0.354300  0.166100  0.922600  1.0  0.7
  C  C68  1  0.019300  0.066000  0.508500  1.0  -0.0185
  N  N69  1  0.287700  0.029800  0.450200  1.0  -0.0758
  N  N70  1  0.427800  0.040600  0.272800  1.0  -0.4117
  N  N71  1  0.712300  0.970200  0.549800  1.0  -0.0754
  N  N72  1  0.572200  0.959400  0.727200  1.0  -0.4116
  O  O73  1  0.925700  0.602600  0.377600  1.0  -0.2903
  O  O74  1  0.643000  0.296700  0.092730  1.0  -0.5946
  O  O75  1  0.742800  0.192300  0.248400  1.0  -0.5653
  O  O76  1  0.677900  0.950600  0.094900  1.0  -0.6207
  O  O77  1  0.562100  0.819200  0.012800  1.0  -0.6557
  O  O78  1  0.074300  0.397400  0.622400  1.0  -0.2904
  O  O79  1  0.357000  0.703300  0.907270  1.0  -0.5945
  O  O80  1  0.257200  0.807700  0.751600  1.0  -0.567
  O  O81  1  0.322100  0.049400  0.905100  1.0  -0.6232
  O  O82  1  0.437900  0.180800  0.987200  1.0  -0.6564
