# generated using pymatgen
data_ZnH19C19N4O5
_symmetry_space_group_name_H-M   'P 1'
_cell_length_a   7.21690000
_cell_length_b   16.93890000
_cell_length_c   17.08970000
_cell_angle_alpha   90.00000000
_cell_angle_beta   95.51300000
_cell_angle_gamma   90.00000000
_symmetry_Int_Tables_number   1
_chemical_formula_structural   ZnH19C19N4O5
_chemical_formula_sum   'Zn4 H76 C76 N16 O20'
_cell_volume   2079.48986974
_cell_formula_units_Z   4
loop_
 _symmetry_equiv_pos_site_id
 _symmetry_equiv_pos_as_xyz
  1  'x, y, z'
loop_
 _atom_site_type_symbol
 _atom_site_label
 _atom_site_symmetry_multiplicity
 _atom_site_fract_x
 _atom_site_fract_y
 _atom_site_fract_z
 _atom_site_occupancy
 _atom_site_charge
  Zn  Zn1  1  0.931820  0.799190  0.308640  1.0  0.8772
  Zn  Zn2  1  0.568180  0.299190  0.191360  1.0  0.8778
  Zn  Zn3  1  0.068180  0.200810  0.691360  1.0  0.8778
  Zn  Zn4  1  0.431820  0.700810  0.808640  1.0  0.8772
  H  H5  1  0.593700  0.927800  0.425700  1.0  0.1166
  H  H6  1  0.932600  0.938900  0.447500  1.0  0.0587
  H  H7  1  0.822500  0.017600  0.460100  1.0  0.0547
  H  H8  1  0.246800  0.666667  0.436000  1.0  0.0933
  H  H9  1  0.252800  0.657200  0.345100  1.0  0.0891
  H  H10  1  0.227100  0.799300  0.534100  1.0  0.0978
  H  H11  1  0.703500  0.868500  0.653000  1.0  0.1184
  H  H12  1  0.470400  0.486200  0.198100  1.0  0.1
  H  H13  1  0.392600  0.531100  0.370800  1.0  0.0676
  H  H14  1  0.348700  0.541000  0.458400  1.0  0.0769
  H  H15  1  0.888000  0.724700  0.479300  1.0  0.1075
  H  H16  1  0.614900  0.652500  0.516400  1.0  0.1414
  H  H17  1  0.525600  0.721100  0.295300  1.0  0.1073
  H  H18  1  0.020400  0.551400  0.410300  1.0  0.0702
  H  H19  1  0.104700  0.467100  0.399400  1.0  0.0837
  H  H20  1  0.153500  0.501100  0.269200  1.0  0.0917
  H  H21  1  0.056200  0.582400  0.280800  1.0  0.0851
  H  H22  1  0.925300  0.375100  0.272800  1.0  0.1046
  H  H23  1  0.699200  0.586200  0.243500  1.0  0.1329
  H  H24  1  0.906300  0.427800  0.074300  1.0  0.1172
  H  H25  1  0.567400  0.438900  0.052500  1.0  0.0589
  H  H26  1  0.677500  0.517600  0.039900  1.0  0.0534
  H  H27  1  0.253200  0.166700  0.064000  1.0  0.0938
  H  H28  1  0.247200  0.157200  0.154900  1.0  0.0883
  H  H29  1  0.272900  0.299300  0.965900  1.0  0.0976
  H  H30  1  0.796500  0.368500  0.847000  1.0  0.1188
  H  H31  1  0.029600  0.986200  0.301900  1.0  0.0994
  H  H32  1  0.107400  0.031100  0.129200  1.0  0.069
  H  H33  1  0.151300  0.041000  0.041600  1.0  0.0769
  H  H34  1  0.612000  0.224700  0.020700  1.0  0.107
  H  H35  1  0.885100  0.152500  0.983600  1.0  0.1431
  H  H36  1  0.974400  0.221100  0.204700  1.0  0.1068
  H  H37  1  0.479600  0.051400  0.089700  1.0  0.071
  H  H38  1  0.395300  0.967100  0.100600  1.0  0.0834
  H  H39  1  0.346500  0.001100  0.230800  1.0  0.0928
  H  H40  1  0.443800  0.082400  0.219200  1.0  0.0844
  H  H41  1  0.574700  0.875100  0.227200  1.0  0.1046
  H  H42  1  0.800800  0.086200  0.256500  1.0  0.1327
  H  H43  1  0.406300  0.072200  0.574300  1.0  0.1177
  H  H44  1  0.067400  0.061100  0.552500  1.0  0.0577
  H  H45  1  0.177500  0.982400  0.539900  1.0  0.0541
  H  H46  1  0.753200  0.333333  0.564000  1.0  0.0936
  H  H47  1  0.747200  0.342800  0.654900  1.0  0.0885
  H  H48  1  0.772900  0.200700  0.465900  1.0  0.0976
  H  H49  1  0.296500  0.131500  0.347000  1.0  0.1193
  H  H50  1  0.529600  0.513800  0.801900  1.0  0.0994
  H  H51  1  0.607400  0.468900  0.629200  1.0  0.0684
  H  H52  1  0.651300  0.459000  0.541600  1.0  0.0769
  H  H53  1  0.112000  0.275300  0.520700  1.0  0.1072
  H  H54  1  0.385100  0.347500  0.483600  1.0  0.1426
  H  H55  1  0.474400  0.278900  0.704700  1.0  0.1069
  H  H56  1  0.979600  0.448600  0.589700  1.0  0.0709
  H  H57  1  0.895300  0.532900  0.600600  1.0  0.0849
  H  H58  1  0.846500  0.498900  0.730800  1.0  0.0923
  H  H59  1  0.943800  0.417600  0.719200  1.0  0.0848
  H  H60  1  0.074700  0.624900  0.727200  1.0  0.1045
  H  H61  1  0.300800  0.413800  0.756500  1.0  0.1326
  H  H62  1  0.093700  0.572200  0.925700  1.0  0.1171
  H  H63  1  0.432600  0.561100  0.947500  1.0  0.0583
  H  H64  1  0.322500  0.482400  0.960100  1.0  0.0547
  H  H65  1  0.746800  0.833300  0.936000  1.0  0.0939
  H  H66  1  0.752800  0.842800  0.845100  1.0  0.0888
  H  H67  1  0.727100  0.700700  0.034100  1.0  0.0975
  H  H68  1  0.203500  0.631500  0.153000  1.0  0.1183
  H  H69  1  0.970400  0.013800  0.698100  1.0  0.0978
  H  H70  1  0.892600  0.968900  0.870800  1.0  0.0687
  H  H71  1  0.848700  0.959000  0.958400  1.0  0.0769
  H  H72  1  0.388000  0.775300  0.979300  1.0  0.1075
  H  H73  1  0.114900  0.847500  0.016400  1.0  0.1408
  H  H74  1  0.025600  0.778900  0.795300  1.0  0.1073
  H  H75  1  0.520400  0.948600  0.910300  1.0  0.0698
  H  H76  1  0.604700  0.032900  0.899400  1.0  0.0838
  H  H77  1  0.653500  0.998900  0.769200  1.0  0.0921
  H  H78  1  0.556200  0.917600  0.780800  1.0  0.0847
  H  H79  1  0.425300  0.124900  0.772800  1.0  0.1043
  H  H80  1  0.199200  0.913800  0.743500  1.0  0.1331
  C  C81  1  0.559500  0.902700  0.470600  1.0  -0.1972
  C  C82  1  0.674300  0.905700  0.541100  1.0  0.2645
  C  C83  1  0.909900  0.979700  0.485200  1.0  0.0847
  C  C84  1  0.315100  0.642700  0.395900  1.0  -0.024
  C  C85  1  0.341200  0.825020  0.535640  1.0  -0.0696
  C  C86  1  0.624200  0.867200  0.606810  1.0  -0.1561
  C  C87  1  0.393300  0.861350  0.468880  1.0  -0.1021
  C  C88  1  0.268400  0.856500  0.392300  1.0  0.6461
  C  C89  1  0.591500  0.476200  0.219500  1.0  0.0429
  C  C90  1  0.457700  0.826600  0.605000  1.0  -0.1179
  C  C91  1  0.307600  0.555100  0.404500  1.0  -0.1333
  C  C92  1  0.406200  0.783100  0.676200  1.0  0.6482
  C  C93  1  0.780600  0.714600  0.446300  1.0  0.0426
  C  C94  1  0.629700  0.675000  0.467800  1.0  -0.1723
  C  C95  1  0.583300  0.713100  0.345700  1.0  0.1477
  C  C96  1  0.109300  0.521800  0.382900  1.0  -0.1426
  C  C97  1  0.058300  0.527300  0.296200  1.0  -0.0267
  C  C98  1  0.839400  0.415100  0.260300  1.0  0.1503
  C  C99  1  0.716600  0.531800  0.244200  1.0  -0.1613
  C  C100  1  0.940500  0.402700  0.029400  1.0  -0.1991
  C  C101  1  0.825700  0.405700  0.958900  1.0  0.2646
  C  C102  1  0.590100  0.479700  0.014800  1.0  0.0822
  C  C103  1  0.184900  0.142700  0.104100  1.0  -0.0238
  C  C104  1  0.158800  0.325020  0.964360  1.0  -0.0717
  C  C105  1  0.875800  0.367200  0.893190  1.0  -0.1585
  C  C106  1  0.106700  0.361350  0.031120  1.0  -0.1015
  C  C107  1  0.231600  0.356500  0.107700  1.0  0.6466
  C  C108  1  0.908500  0.976200  0.280500  1.0  0.0424
  C  C109  1  0.042300  0.326600  0.895000  1.0  -0.1188
  C  C110  1  0.192400  0.055100  0.095500  1.0  -0.1322
  C  C111  1  0.093800  0.283100  0.823800  1.0  0.6485
  C  C112  1  0.719400  0.214600  0.053700  1.0  0.0417
  C  C113  1  0.870300  0.175000  0.032200  1.0  -0.1714
  C  C114  1  0.916700  0.213100  0.154300  1.0  0.1473
  C  C115  1  0.390700  0.021800  0.117100  1.0  -0.1427
  C  C116  1  0.441700  0.027300  0.203800  1.0  -0.0286
  C  C117  1  0.660600  0.915100  0.239700  1.0  0.15
  C  C118  1  0.783400  0.031800  0.255800  1.0  -0.1619
  C  C119  1  0.440500  0.097300  0.529400  1.0  -0.1991
  C  C120  1  0.325700  0.094300  0.458900  1.0  0.2646
  C  C121  1  0.090100  0.020300  0.514800  1.0  0.0831
  C  C122  1  0.684900  0.357300  0.604100  1.0  -0.0272
  C  C123  1  0.658800  0.174980  0.464360  1.0  -0.0714
  C  C124  1  0.375800  0.132800  0.393190  1.0  -0.1593
  C  C125  1  0.606700  0.138650  0.531120  1.0  -0.1021
  C  C126  1  0.731600  0.143500  0.607700  1.0  0.6467
  C  C127  1  0.408500  0.523800  0.780500  1.0  0.0424
  C  C128  1  0.542300  0.173400  0.395000  1.0  -0.119
  C  C129  1  0.692400  0.444900  0.595500  1.0  -0.1327
  C  C130  1  0.593800  0.216900  0.323800  1.0  0.649
  C  C131  1  0.219400  0.285400  0.553700  1.0  0.0415
  C  C132  1  0.370300  0.325000  0.532200  1.0  -0.1724
  C  C133  1  0.416700  0.286900  0.654300  1.0  0.1478
  C  C134  1  0.890700  0.478200  0.617100  1.0  -0.1415
  C  C135  1  0.941700  0.472700  0.703800  1.0  -0.0292
  C  C136  1  0.160600  0.584900  0.739700  1.0  0.1501
  C  C137  1  0.283400  0.468200  0.755800  1.0  -0.161
  C  C138  1  0.059500  0.597300  0.970600  1.0  -0.1974
  C  C139  1  0.174300  0.594300  0.041100  1.0  0.2645
  C  C140  1  0.409900  0.520300  0.985200  1.0  0.0855
  C  C141  1  0.815100  0.857300  0.895900  1.0  -0.0264
  C  C142  1  0.841200  0.674980  0.035640  1.0  -0.0704
  C  C143  1  0.124200  0.632800  0.106810  1.0  -0.1566
  C  C144  1  0.893300  0.638650  0.968880  1.0  -0.1025
  C  C145  1  0.768400  0.643500  0.892300  1.0  0.6463
  C  C146  1  0.091500  0.023800  0.719500  1.0  0.0431
  C  C147  1  0.957700  0.673400  0.105000  1.0  -0.1184
  C  C148  1  0.807600  0.944900  0.904500  1.0  -0.1346
  C  C149  1  0.906200  0.716900  0.176200  1.0  0.6478
  C  C150  1  0.280600  0.785400  0.946300  1.0  0.0424
  C  C151  1  0.129700  0.825000  0.967800  1.0  -0.1729
  C  C152  1  0.083300  0.786900  0.845700  1.0  0.1483
  C  C153  1  0.609300  0.978200  0.882900  1.0  -0.1432
  C  C154  1  0.558300  0.972700  0.796200  1.0  -0.0265
  C  C155  1  0.339400  0.084900  0.760300  1.0  0.15
  C  C156  1  0.216600  0.968200  0.744200  1.0  -0.1605
  N  N157  1  0.504000  0.675260  0.402460  1.0  0.0508
  N  N158  1  0.752200  0.737490  0.369260  1.0  -0.387
  N  N159  1  0.668100  0.403070  0.230260  1.0  -0.3908
  N  N160  1  0.875800  0.491480  0.270720  1.0  0.0438
  N  N161  1  0.996000  0.175260  0.097540  1.0  0.0509
  N  N162  1  0.747800  0.237490  0.130740  1.0  -0.389
  N  N163  1  0.831900  0.903070  0.269740  1.0  -0.3903
  N  N164  1  0.624200  0.991480  0.229280  1.0  0.0441
  N  N165  1  0.496000  0.324740  0.597540  1.0  0.0508
  N  N166  1  0.247800  0.262510  0.630740  1.0  -0.3892
  N  N167  1  0.331900  0.596930  0.769740  1.0  -0.3911
  N  N168  1  0.124200  0.508520  0.729280  1.0  0.0442
  N  N169  1  0.004000  0.824740  0.902460  1.0  0.0506
  N  N170  1  0.252200  0.762510  0.869260  1.0  -0.3874
  N  N171  1  0.168100  0.096930  0.730260  1.0  -0.3914
  N  N172  1  0.375800  0.008520  0.770720  1.0  0.0438
  O  O173  1  0.118900  0.815430  0.396710  1.0  -0.6223
  O  O174  1  0.839000  0.946670  0.551310  1.0  -0.269
  O  O175  1  0.243900  0.760700  0.680080  1.0  -0.5996
  O  O176  1  0.310200  0.889070  0.332560  1.0  -0.5958
  O  O177  1  0.537000  0.770090  0.731530  1.0  -0.6229
  O  O178  1  0.381100  0.315430  0.103290  1.0  -0.6212
  O  O179  1  0.661000  0.446670  0.948690  1.0  -0.269
  O  O180  1  0.256100  0.260700  0.819920  1.0  -0.5991
  O  O181  1  0.189800  0.389070  0.167440  1.0  -0.5947
  O  O182  1  0.963000  0.270090  0.768470  1.0  -0.6224
  O  O183  1  0.881100  0.184570  0.603290  1.0  -0.6211
  O  O184  1  0.161000  0.053330  0.448690  1.0  -0.2683
  O  O185  1  0.756100  0.239300  0.319920  1.0  -0.5993
  O  O186  1  0.689800  0.110930  0.667440  1.0  -0.5948
  O  O187  1  0.463000  0.229910  0.268470  1.0  -0.6227
  O  O188  1  0.618900  0.684570  0.896710  1.0  -0.6219
  O  O189  1  0.339000  0.553330  0.051310  1.0  -0.2685
  O  O190  1  0.743900  0.739300  0.180080  1.0  -0.5992
  O  O191  1  0.810200  0.610930  0.832560  1.0  -0.5958
  O  O192  1  0.037000  0.729910  0.231530  1.0  -0.6226
