# generated using pymatgen
data_CuH8C14N2O5
_symmetry_space_group_name_H-M   'P 1'
_cell_length_a   8.40700000
_cell_length_b   10.28000000
_cell_length_c   17.65500000
_cell_angle_alpha   90.00000000
_cell_angle_beta   102.80000000
_cell_angle_gamma   90.00000000
_symmetry_Int_Tables_number   1
_chemical_formula_structural   CuH8C14N2O5
_chemical_formula_sum   'Cu4 H32 C56 N8 O20'
_cell_volume   1487.89752550
_cell_formula_units_Z   4
loop_
 _symmetry_equiv_pos_site_id
 _symmetry_equiv_pos_as_xyz
  1  'x, y, z'
loop_
 _atom_site_type_symbol
 _atom_site_label
 _atom_site_symmetry_multiplicity
 _atom_site_fract_x
 _atom_site_fract_y
 _atom_site_fract_z
 _atom_site_occupancy
 _atom_site_charge
  Cu  Cu1  1  0.825660  0.057180  0.931930  1.0  0.869
  Cu  Cu2  1  0.325660  0.442820  0.431930  1.0  0.869
  Cu  Cu3  1  0.674340  0.557180  0.568070  1.0  0.8692
  Cu  Cu4  1  0.174340  0.942820  0.068070  1.0  0.8691
  H  H5  1  0.893000  0.771400  0.363400  1.0  0.1374
  H  H6  1  0.233500  0.565200  0.564900  1.0  0.1022
  H  H7  1  0.069400  0.728600  0.591800  1.0  0.1379
  H  H8  1  0.535800  0.272000  0.669400  1.0  0.1179
  H  H9  1  0.813300  0.951100  0.699500  1.0  0.1242
  H  H10  1  0.064200  0.610500  0.341900  1.0  0.0945
  H  H11  1  0.642900  0.089400  0.484100  1.0  0.129
  H  H12  1  0.860000  0.845000  0.592000  1.0  0.2748
  H  H13  1  0.393000  0.728600  0.863400  1.0  0.1373
  H  H14  1  0.733500  0.934800  0.064900  1.0  0.1021
  H  H15  1  0.569400  0.771400  0.091800  1.0  0.1379
  H  H16  1  0.035800  0.228000  0.169400  1.0  0.1188
  H  H17  1  0.313300  0.548900  0.199500  1.0  0.1238
  H  H18  1  0.564200  0.889500  0.841900  1.0  0.0942
  H  H19  1  0.142900  0.410600  0.984100  1.0  0.129
  H  H20  1  0.360000  0.655000  0.092000  1.0  0.2737
  H  H21  1  0.607000  0.271400  0.136600  1.0  0.1378
  H  H22  1  0.266500  0.065200  0.935100  1.0  0.1017
  H  H23  1  0.430600  0.228600  0.908200  1.0  0.1387
  H  H24  1  0.964200  0.772000  0.830600  1.0  0.1188
  H  H25  1  0.686700  0.451100  0.800500  1.0  0.1235
  H  H26  1  0.435800  0.110500  0.158100  1.0  0.0938
  H  H27  1  0.857100  0.589400  0.015900  1.0  0.1283
  H  H28  1  0.640000  0.345000  0.908000  1.0  0.2729
  H  H29  1  0.107000  0.228600  0.636600  1.0  0.1379
  H  H30  1  0.766500  0.434800  0.435100  1.0  0.1018
  H  H31  1  0.930600  0.271400  0.408200  1.0  0.1378
  H  H32  1  0.464200  0.728000  0.330600  1.0  0.1188
  H  H33  1  0.186700  0.048900  0.300500  1.0  0.1234
  H  H34  1  0.935800  0.389500  0.658100  1.0  0.0934
  H  H35  1  0.357100  0.910600  0.515900  1.0  0.1281
  H  H36  1  0.140000  0.155000  0.408000  1.0  0.2743
  C  C37  1  0.484800  0.293700  0.516000  1.0  0.5877
  C  C38  1  0.962500  0.731300  0.405200  1.0  -0.1521
  C  C39  1  0.165100  0.608300  0.524000  1.0  0.1691
  C  C40  1  0.066300  0.705700  0.540600  1.0  -0.1545
  C  C41  1  0.576700  0.195300  0.569700  1.0  -0.1166
  C  C42  1  0.587600  0.204700  0.649100  1.0  -0.001
  C  C43  1  0.693700  0.121100  0.783900  1.0  0.6575
  C  C44  1  0.753600  0.012900  0.666500  1.0  -0.1268
  C  C45  1  0.064900  0.634600  0.392700  1.0  0.1819
  C  C46  1  0.652700  0.095100  0.537500  1.0  -0.125
  C  C47  1  0.676900  0.112300  0.697600  1.0  -0.1321
  C  C48  1  0.858900  0.884900  0.490900  1.0  0.5385
  C  C49  1  0.743500  0.003800  0.587600  1.0  0.2065
  C  C50  1  0.962300  0.769600  0.480400  1.0  -0.0399
  C  C51  1  0.984800  0.206300  0.016000  1.0  0.5883
  C  C52  1  0.462500  0.768700  0.905200  1.0  -0.1505
  C  C53  1  0.665100  0.891700  0.024000  1.0  0.1738
  C  C54  1  0.566300  0.794300  0.040600  1.0  -0.1551
  C  C55  1  0.076700  0.304700  0.069700  1.0  -0.117
  C  C56  1  0.087600  0.295300  0.149100  1.0  -0.0009
  C  C57  1  0.193700  0.378900  0.283900  1.0  0.657
  C  C58  1  0.253600  0.487100  0.166500  1.0  -0.1259
  C  C59  1  0.564900  0.865400  0.892700  1.0  0.1794
  C  C60  1  0.152700  0.404900  0.037500  1.0  -0.1248
  C  C61  1  0.176900  0.387700  0.197600  1.0  -0.1321
  C  C62  1  0.358900  0.615100  0.990900  1.0  0.5383
  C  C63  1  0.243500  0.496200  0.087600  1.0  0.2121
  C  C64  1  0.462300  0.730400  0.980400  1.0  -0.0398
  C  C65  1  0.015200  0.793700  0.984000  1.0  0.5899
  C  C66  1  0.537500  0.231300  0.094800  1.0  -0.1437
  C  C67  1  0.334900  0.108300  0.976000  1.0  0.1729
  C  C68  1  0.433700  0.205700  0.959400  1.0  -0.1551
  C  C69  1  0.923300  0.695300  0.930300  1.0  -0.1168
  C  C70  1  0.912400  0.704700  0.850900  1.0  -0.0003
  C  C71  1  0.806300  0.621100  0.716100  1.0  0.6575
  C  C72  1  0.746400  0.512900  0.833500  1.0  -0.1244
  C  C73  1  0.435100  0.134600  0.107300  1.0  0.1811
  C  C74  1  0.847300  0.595100  0.962500  1.0  -0.1248
  C  C75  1  0.823100  0.612300  0.802400  1.0  -0.1313
  C  C76  1  0.641100  0.384900  0.009100  1.0  0.5385
  C  C77  1  0.756500  0.503800  0.912400  1.0  0.2117
  C  C78  1  0.537700  0.269600  0.019600  1.0  -0.0411
  C  C79  1  0.515200  0.706300  0.484000  1.0  0.5909
  C  C80  1  0.037500  0.268700  0.594800  1.0  -0.1441
  C  C81  1  0.834900  0.391700  0.476000  1.0  0.1696
  C  C82  1  0.933700  0.294300  0.459400  1.0  -0.1545
  C  C83  1  0.423300  0.804700  0.430300  1.0  -0.1172
  C  C84  1  0.412400  0.795300  0.350900  1.0  0.0002
  C  C85  1  0.306300  0.878900  0.216100  1.0  0.6579
  C  C86  1  0.246400  0.987100  0.333500  1.0  -0.1246
  C  C87  1  0.935100  0.365400  0.607300  1.0  0.1802
  C  C88  1  0.347300  0.904900  0.462500  1.0  -0.1245
  C  C89  1  0.323100  0.887700  0.302400  1.0  -0.1313
  C  C90  1  0.141100  0.115100  0.509100  1.0  0.5387
  C  C91  1  0.256500  0.996200  0.412400  1.0  0.2134
  C  C92  1  0.037700  0.230400  0.519600  1.0  -0.0408
  N  N93  1  0.166600  0.572900  0.451000  1.0  -0.3921
  N  N94  1  0.825200  0.899000  0.561300  1.0  -0.3343
  N  N95  1  0.666667  0.927100  0.951000  1.0  -0.3921
  N  N96  1  0.325200  0.601000  0.061300  1.0  -0.3342
  N  N97  1  0.333400  0.072900  0.049000  1.0  -0.3929
  N  N98  1  0.674800  0.399000  0.938700  1.0  -0.3348
  N  N99  1  0.833400  0.427100  0.549000  1.0  -0.3935
  N  N100  1  0.174800  0.101000  0.438700  1.0  -0.3347
  O  O101  1  0.469800  0.285500  0.443750  1.0  -0.5054
  O  O102  1  0.420100  0.391500  0.541830  1.0  -0.5825
  O  O103  1  0.790600  0.036000  0.823360  1.0  -0.5735
  O  O104  1  0.619900  0.203200  0.813070  1.0  -0.5828
  O  O105  1  0.812500  0.959200  0.436780  1.0  -0.5196
  O  O106  1  0.969800  0.214500  0.943750  1.0  -0.5016
  O  O107  1  0.920100  0.108500  0.041830  1.0  -0.5824
  O  O108  1  0.290600  0.464000  0.323360  1.0  -0.5739
  O  O109  1  0.119900  0.296800  0.313070  1.0  -0.5828
  O  O110  1  0.312500  0.540800  0.936780  1.0  -0.5196
  O  O111  1  0.030200  0.785500  0.056250  1.0  -0.5083
  O  O112  1  0.079900  0.891500  0.958170  1.0  -0.5817
  O  O113  1  0.709400  0.536000  0.676640  1.0  -0.5745
  O  O114  1  0.880100  0.703200  0.686930  1.0  -0.5825
  O  O115  1  0.687500  0.459200  0.063220  1.0  -0.5197
  O  O116  1  0.530200  0.714500  0.556250  1.0  -0.5046
  O  O117  1  0.579900  0.608500  0.458170  1.0  -0.5851
  O  O118  1  0.209400  0.964000  0.176640  1.0  -0.575
  O  O119  1  0.380100  0.796800  0.186930  1.0  -0.5826
  O  O120  1  0.187500  0.040800  0.563220  1.0  -0.5195
