# generated using pymatgen
data_ErH4(CO2)4
_symmetry_space_group_name_H-M   'P 1'
_cell_length_a   18.12660000
_cell_length_b   13.36110000
_cell_length_c   8.57910000
_cell_angle_alpha   90.00000000
_cell_angle_beta   90.00000000
_cell_angle_gamma   90.00000000
_symmetry_Int_Tables_number   1
_chemical_formula_structural   ErH4(CO2)4
_chemical_formula_sum   'Er8 H32 C32 O64'
_cell_volume   2077.78351275
_cell_formula_units_Z   8
loop_
 _symmetry_equiv_pos_site_id
 _symmetry_equiv_pos_as_xyz
  1  'x, y, z'
loop_
 _atom_site_type_symbol
 _atom_site_label
 _atom_site_symmetry_multiplicity
 _atom_site_fract_x
 _atom_site_fract_y
 _atom_site_fract_z
 _atom_site_occupancy
 _atom_site_charge
  Er  Er1  1  0.600930  0.374680  0.253000  1.0  1.3686
  Er  Er2  1  0.393680  0.124620  0.752750  1.0  1.367
  Er  Er3  1  0.399070  0.625320  0.753000  1.0  1.3787
  Er  Er4  1  0.606320  0.875380  0.252750  1.0  1.3633
  Er  Er5  1  0.100930  0.125320  0.253000  1.0  1.3702
  Er  Er6  1  0.893680  0.375380  0.752750  1.0  1.3671
  Er  Er7  1  0.899070  0.874680  0.753000  1.0  1.3787
  Er  Er8  1  0.106320  0.624620  0.252750  1.0  1.3632
  H  H9  1  0.472800  0.239100  0.446500  1.0  0.085
  H  H10  1  0.566000  0.131400  0.258300  1.0  0.122
  H  H11  1  0.714700  0.303800  0.582900  1.0  0.062
  H  H12  1  0.706000  0.439400  0.905400  1.0  0.1009
  H  H13  1  0.567000  0.630600  0.189200  1.0  0.1283
  H  H14  1  0.527400  0.502200  0.543400  1.0  0.1165
  H  H15  1  0.527500  0.245500  0.948600  1.0  0.0863
  H  H16  1  0.475000  0.998800  0.051000  1.0  0.0832
  H  H17  1  0.527200  0.760900  0.946500  1.0  0.0817
  H  H18  1  0.434000  0.868600  0.758300  1.0  0.1221
  H  H19  1  0.285300  0.696200  0.082900  1.0  0.0631
  H  H20  1  0.294000  0.560600  0.405400  1.0  0.0988
  H  H21  1  0.433000  0.369400  0.689200  1.0  0.1312
  H  H22  1  0.472600  0.497800  0.043400  1.0  0.1151
  H  H23  1  0.472500  0.754500  0.448600  1.0  0.0859
  H  H24  1  0.525000  0.001200  0.551000  1.0  0.0835
  H  H25  1  0.972800  0.260900  0.446500  1.0  0.0834
  H  H26  1  0.066000  0.368600  0.258300  1.0  0.122
  H  H27  1  0.214700  0.196200  0.582900  1.0  0.0635
  H  H28  1  0.206000  0.060600  0.905400  1.0  0.0987
  H  H29  1  0.067000  0.869400  0.189200  1.0  0.1285
  H  H30  1  0.027400  0.997800  0.543400  1.0  0.1164
  H  H31  1  0.027500  0.254500  0.948600  1.0  0.0863
  H  H32  1  0.975000  0.501200  0.051000  1.0  0.0833
  H  H33  1  0.027200  0.739100  0.946500  1.0  0.0819
  H  H34  1  0.934000  0.631400  0.758300  1.0  0.1222
  H  H35  1  0.785300  0.803800  0.082900  1.0  0.0619
  H  H36  1  0.794000  0.939400  0.405400  1.0  0.1006
  H  H37  1  0.933000  0.130600  0.689200  1.0  0.1311
  H  H38  1  0.972600  0.002200  0.043400  1.0  0.1155
  H  H39  1  0.972500  0.745500  0.448600  1.0  0.0859
  H  H40  1  0.025000  0.498800  0.551000  1.0  0.0834
  C  C41  1  0.508600  0.248400  0.522800  1.0  0.5261
  C  C42  1  0.617200  0.129400  0.265000  1.0  0.7337
  C  C43  1  0.735600  0.356100  0.526600  1.0  0.7638
  C  C44  1  0.732400  0.394700  0.967000  1.0  0.7923
  C  C45  1  0.617100  0.630000  0.212700  1.0  0.7783
  C  C46  1  0.490300  0.508100  0.469200  1.0  0.6986
  C  C47  1  0.489400  0.246300  0.021300  1.0  0.7058
  C  C48  1  0.512700  0.999900  0.977600  1.0  0.6688
  C  C49  1  0.491400  0.751600  0.022800  1.0  0.5233
  C  C50  1  0.382800  0.870600  0.765000  1.0  0.7339
  C  C51  1  0.264400  0.643900  0.026600  1.0  0.7618
  C  C52  1  0.267600  0.605300  0.467000  1.0  0.7925
  C  C53  1  0.382900  0.370000  0.712700  1.0  0.7784
  C  C54  1  0.509700  0.491900  0.969200  1.0  0.699
  C  C55  1  0.510600  0.753700  0.521300  1.0  0.7056
  C  C56  1  0.487300  0.000100  0.477600  1.0  0.6685
  C  C57  1  0.008600  0.251600  0.522800  1.0  0.5236
  C  C58  1  0.117200  0.370600  0.265000  1.0  0.7333
  C  C59  1  0.235600  0.143900  0.526600  1.0  0.763
  C  C60  1  0.232400  0.105300  0.967000  1.0  0.792
  C  C61  1  0.117100  0.870000  0.212700  1.0  0.7781
  C  C62  1  0.990300  0.991900  0.469200  1.0  0.6986
  C  C63  1  0.989400  0.253700  0.021300  1.0  0.7058
  C  C64  1  0.012700  0.500100  0.977600  1.0  0.6692
  C  C65  1  0.991400  0.748400  0.022800  1.0  0.5257
  C  C66  1  0.882800  0.629400  0.765000  1.0  0.7339
  C  C67  1  0.764400  0.856100  0.026600  1.0  0.7626
  C  C68  1  0.767600  0.894700  0.467000  1.0  0.7929
  C  C69  1  0.882900  0.130000  0.712700  1.0  0.7783
  C  C70  1  0.009700  0.008100  0.969200  1.0  0.6989
  C  C71  1  0.010600  0.746300  0.521300  1.0  0.7056
  C  C72  1  0.987300  0.499900  0.477600  1.0  0.6683
  O  O73  1  0.563100  0.299200  0.479400  1.0  -0.5713
  O  O74  1  0.494700  0.210100  0.644200  1.0  -0.5675
  O  O75  1  0.648400  0.204500  0.247900  1.0  -0.5281
  O  O76  1  0.648100  0.040500  0.291900  1.0  -0.5969
  O  O77  1  0.700100  0.385800  0.420800  1.0  -0.6056
  O  O78  1  0.792100  0.382600  0.569700  1.0  -0.6115
  O  O79  1  0.703700  0.365200  0.085900  1.0  -0.5922
  O  O80  1  0.794100  0.369500  0.922100  1.0  -0.6146
  O  O81  1  0.647800  0.540500  0.248400  1.0  -0.5967
  O  O82  1  0.648000  0.705800  0.209000  1.0  -0.5188
  O  O83  1  0.503000  0.470100  0.330400  1.0  -0.5449
  O  O84  1  0.435700  0.549100  0.507200  1.0  -0.5569
  O  O85  1  0.504500  0.280500  0.144000  1.0  -0.5598
  O  O86  1  0.427000  0.209800  0.974000  1.0  -0.575
  O  O87  1  0.497100  0.037500  0.843500  1.0  -0.5889
  O  O88  1  0.570600  0.966600  0.017000  1.0  -0.5596
  O  O89  1  0.436900  0.700800  0.979400  1.0  -0.5711
  O  O90  1  0.505300  0.789900  0.144200  1.0  -0.5687
  O  O91  1  0.351600  0.795500  0.747900  1.0  -0.5284
  O  O92  1  0.351900  0.959500  0.791900  1.0  -0.5942
  O  O93  1  0.299900  0.614200  0.920800  1.0  -0.6034
  O  O94  1  0.207900  0.617400  0.069700  1.0  -0.612
  O  O95  1  0.296300  0.634800  0.585900  1.0  -0.5932
  O  O96  1  0.205900  0.630500  0.422100  1.0  -0.6155
  O  O97  1  0.352200  0.459500  0.748400  1.0  -0.5954
  O  O98  1  0.352000  0.294200  0.709000  1.0  -0.5188
  O  O99  1  0.497000  0.529900  0.830400  1.0  -0.5447
  O  O100  1  0.564300  0.450900  0.007200  1.0  -0.5562
  O  O101  1  0.495500  0.719500  0.644000  1.0  -0.5597
  O  O102  1  0.573000  0.790200  0.474000  1.0  -0.5757
  O  O103  1  0.502900  0.962500  0.343500  1.0  -0.5882
  O  O104  1  0.429400  0.033400  0.517000  1.0  -0.5599
  O  O105  1  0.063100  0.200800  0.479400  1.0  -0.571
  O  O106  1  0.994700  0.289900  0.644200  1.0  -0.5683
  O  O107  1  0.148400  0.295500  0.247900  1.0  -0.5291
  O  O108  1  0.148100  0.459500  0.291900  1.0  -0.5954
  O  O109  1  0.200100  0.114200  0.420800  1.0  -0.6051
  O  O110  1  0.292100  0.117400  0.569700  1.0  -0.61
  O  O111  1  0.203700  0.134800  0.085900  1.0  -0.5936
  O  O112  1  0.294100  0.130500  0.922100  1.0  -0.6153
  O  O113  1  0.147800  0.959500  0.248400  1.0  -0.5968
  O  O114  1  0.148000  0.794200  0.209000  1.0  -0.5195
  O  O115  1  0.003000  0.029900  0.330400  1.0  -0.5448
  O  O116  1  0.935700  0.950900  0.507200  1.0  -0.5577
  O  O117  1  0.004500  0.219500  0.144000  1.0  -0.5598
  O  O118  1  0.927000  0.290200  0.974000  1.0  -0.5748
  O  O119  1  0.997100  0.462500  0.843500  1.0  -0.5887
  O  O120  1  0.070600  0.533400  0.017000  1.0  -0.5605
  O  O121  1  0.936900  0.799200  0.979400  1.0  -0.5714
  O  O122  1  0.005300  0.710100  0.144200  1.0  -0.5681
  O  O123  1  0.851600  0.704500  0.747900  1.0  -0.5289
  O  O124  1  0.851900  0.540500  0.791900  1.0  -0.5959
  O  O125  1  0.799900  0.885800  0.920800  1.0  -0.604
  O  O126  1  0.707900  0.882600  0.069700  1.0  -0.6124
  O  O127  1  0.796300  0.865200  0.585900  1.0  -0.5919
  O  O128  1  0.705900  0.869500  0.422100  1.0  -0.6142
  O  O129  1  0.852200  0.040500  0.748400  1.0  -0.5959
  O  O130  1  0.852000  0.205800  0.709000  1.0  -0.5198
  O  O131  1  0.997000  0.970100  0.830400  1.0  -0.5434
  O  O132  1  0.064300  0.049100  0.007200  1.0  -0.5558
  O  O133  1  0.995500  0.780500  0.644000  1.0  -0.5596
  O  O134  1  0.073000  0.709800  0.474000  1.0  -0.5751
  O  O135  1  0.002900  0.537500  0.343500  1.0  -0.5883
  O  O136  1  0.929400  0.466600  0.517000  1.0  -0.5589
