# generated using pymatgen
data_ErH4(CO2)4
_symmetry_space_group_name_H-M   'P 1'
_cell_length_a   14.61630000
_cell_length_b   26.06250000
_cell_length_c   12.67840000
_cell_angle_alpha   90.00000000
_cell_angle_beta   105.04600000
_cell_angle_gamma   90.00000000
_symmetry_Int_Tables_number   1
_chemical_formula_structural   ErH4(CO2)4
_chemical_formula_sum   'Er16 H64 C64 O128'
_cell_volume   4664.10341582
_cell_formula_units_Z   16
loop_
 _symmetry_equiv_pos_site_id
 _symmetry_equiv_pos_as_xyz
  1  'x, y, z'
loop_
 _atom_site_type_symbol
 _atom_site_label
 _atom_site_symmetry_multiplicity
 _atom_site_fract_x
 _atom_site_fract_y
 _atom_site_fract_z
 _atom_site_occupancy
 _atom_site_charge
  Er  Er1  1  0.225330  0.465380  0.304760  1.0  1.3964
  Er  Er2  1  0.248740  0.215810  0.181510  1.0  1.4197
  Er  Er3  1  0.281690  0.714370  0.196050  1.0  1.3671
  Er  Er4  1  0.243790  0.534730  0.808140  1.0  1.4309
  Er  Er5  1  0.774670  0.965380  0.195240  1.0  1.3932
  Er  Er6  1  0.751260  0.715810  0.318490  1.0  1.4222
  Er  Er7  1  0.718310  0.214370  0.303950  1.0  1.3722
  Er  Er8  1  0.756210  0.034730  0.691860  1.0  1.4295
  Er  Er9  1  0.774670  0.534620  0.695240  1.0  1.3945
  Er  Er10  1  0.751260  0.784190  0.818490  1.0  1.4227
  Er  Er11  1  0.718310  0.285630  0.803950  1.0  1.3693
  Er  Er12  1  0.756210  0.465270  0.191860  1.0  1.4328
  Er  Er13  1  0.225330  0.034620  0.804760  1.0  1.3971
  Er  Er14  1  0.248740  0.284190  0.681510  1.0  1.4202
  Er  Er15  1  0.281690  0.785630  0.696050  1.0  1.3661
  Er  Er16  1  0.243790  0.965270  0.308140  1.0  1.4356
  H  H17  1  0.481800  0.494200  0.385600  1.0  0.1126
  H  H18  1  0.998500  0.257800  0.130600  1.0  0.0856
  H  H19  1  0.027000  0.744400  0.120700  1.0  0.0898
  H  H20  1  0.494700  0.494300  0.866100  1.0  0.0817
  H  H21  1  0.161800  0.339100  0.244700  1.0  0.112
  H  H22  1  0.498900  0.146600  0.211000  1.0  0.0899
  H  H23  1  0.187900  0.833300  0.257700  1.0  0.0898
  H  H24  1  0.329100  0.580900  0.249400  1.0  0.1015
  H  H25  1  0.284100  0.506300  0.077100  1.0  0.1096
  H  H26  1  0.266700  0.485800  0.572700  1.0  0.0811
  H  H27  1  0.010500  0.397300  0.281300  1.0  0.0719
  H  H28  1  0.303500  0.380100  0.520600  1.0  0.1219
  H  H29  1  0.207800  0.257900  0.411300  1.0  0.1086
  H  H30  1  0.329200  0.090900  0.243300  1.0  0.0958
  H  H31  1  0.187800  0.637100  0.970600  1.0  0.0846
  H  H32  1  0.238300  0.736200  0.923300  1.0  0.1104
  H  H33  1  0.518200  0.994200  0.114400  1.0  0.1141
  H  H34  1  0.001500  0.757800  0.369400  1.0  0.0852
  H  H35  1  0.973000  0.244400  0.379300  1.0  0.0895
  H  H36  1  0.505300  0.994300  0.633900  1.0  0.083
  H  H37  1  0.838200  0.839100  0.255300  1.0  0.1127
  H  H38  1  0.501100  0.646600  0.289000  1.0  0.0898
  H  H39  1  0.812100  0.333333  0.242300  1.0  0.0913
  H  H40  1  0.670900  0.080900  0.250600  1.0  0.1009
  H  H41  1  0.715900  0.006300  0.422900  1.0  0.1103
  H  H42  1  0.733300  0.985800  0.927300  1.0  0.0808
  H  H43  1  0.989500  0.897300  0.218700  1.0  0.0721
  H  H44  1  0.696500  0.880100  0.979400  1.0  0.1231
  H  H45  1  0.792200  0.757900  0.088700  1.0  0.1085
  H  H46  1  0.670800  0.590900  0.256700  1.0  0.0954
  H  H47  1  0.812200  0.137100  0.529400  1.0  0.084
  H  H48  1  0.761700  0.236200  0.576700  1.0  0.1099
  H  H49  1  0.518200  0.505800  0.614400  1.0  0.1139
  H  H50  1  0.001500  0.742200  0.869400  1.0  0.085
  H  H51  1  0.973000  0.255600  0.879300  1.0  0.09
  H  H52  1  0.505300  0.505700  0.133900  1.0  0.0831
  H  H53  1  0.838200  0.660900  0.755300  1.0  0.1127
  H  H54  1  0.501100  0.853400  0.789000  1.0  0.0904
  H  H55  1  0.812100  0.166700  0.742300  1.0  0.0908
  H  H56  1  0.670900  0.419100  0.750600  1.0  0.1007
  H  H57  1  0.715900  0.493700  0.922900  1.0  0.1104
  H  H58  1  0.733300  0.514200  0.427300  1.0  0.0805
  H  H59  1  0.989500  0.602700  0.718700  1.0  0.0727
  H  H60  1  0.696500  0.619900  0.479400  1.0  0.1231
  H  H61  1  0.792200  0.742100  0.588700  1.0  0.1086
  H  H62  1  0.670800  0.909100  0.756700  1.0  0.0959
  H  H63  1  0.812200  0.362900  0.029400  1.0  0.0842
  H  H64  1  0.761700  0.263800  0.076700  1.0  0.1098
  H  H65  1  0.481800  0.005800  0.885600  1.0  0.1124
  H  H66  1  0.998500  0.242200  0.630600  1.0  0.0854
  H  H67  1  0.027000  0.755600  0.620700  1.0  0.0897
  H  H68  1  0.494700  0.005700  0.366100  1.0  0.0818
  H  H69  1  0.161800  0.160900  0.744700  1.0  0.1121
  H  H70  1  0.498900  0.353400  0.711000  1.0  0.091
  H  H71  1  0.187900  0.666667  0.757700  1.0  0.0903
  H  H72  1  0.329100  0.919100  0.749400  1.0  0.1015
  H  H73  1  0.284100  0.993700  0.577100  1.0  0.1097
  H  H74  1  0.266700  0.014200  0.072700  1.0  0.0806
  H  H75  1  0.010500  0.102700  0.781300  1.0  0.0723
  H  H76  1  0.303500  0.119900  0.020600  1.0  0.122
  H  H77  1  0.207800  0.242100  0.911300  1.0  0.1083
  H  H78  1  0.329200  0.409100  0.743300  1.0  0.0964
  H  H79  1  0.187800  0.862900  0.470600  1.0  0.0848
  H  H80  1  0.238300  0.763800  0.423300  1.0  0.1106
  C  C81  1  0.417400  0.483800  0.363700  1.0  0.6105
  C  C82  1  0.062300  0.246800  0.141700  1.0  0.6858
  C  C83  1  0.091500  0.734100  0.142200  1.0  0.6133
  C  C84  1  0.430500  0.504800  0.851800  1.0  0.654
  C  C85  1  0.226100  0.341300  0.242500  1.0  0.7466
  C  C86  1  0.485700  0.181100  0.227000  1.0  0.7873
  C  C87  1  0.248400  0.839800  0.245700  1.0  0.7446
  C  C88  1  0.268000  0.589100  0.257500  1.0  0.7577
  C  C89  1  0.225200  0.489600  0.047700  1.0  0.7474
  C  C90  1  0.216300  0.509400  0.546500  1.0  0.6759
  C  C91  1  0.995700  0.430800  0.252300  1.0  0.7752
  C  C92  1  0.237000  0.375100  0.495100  1.0  0.7213
  C  C93  1  0.265900  0.240400  0.440300  1.0  0.7336
  C  C94  1  0.265600  0.091800  0.248900  1.0  0.7548
  C  C95  1  0.252000  0.626700  0.997600  1.0  0.7523
  C  C96  1  0.292300  0.757100  0.952600  1.0  0.7285
  C  C97  1  0.582600  0.983800  0.136300  1.0  0.6108
  C  C98  1  0.937700  0.746800  0.358300  1.0  0.6867
  C  C99  1  0.908500  0.234100  0.357800  1.0  0.6139
  C  C100  1  0.569500  0.004800  0.648200  1.0  0.6526
  C  C101  1  0.773900  0.841300  0.257500  1.0  0.7462
  C  C102  1  0.514300  0.681100  0.273000  1.0  0.788
  C  C103  1  0.751600  0.339800  0.254300  1.0  0.7442
  C  C104  1  0.732000  0.089100  0.242500  1.0  0.7574
  C  C105  1  0.774800  0.989600  0.452300  1.0  0.7473
  C  C106  1  0.783700  0.009400  0.953500  1.0  0.6752
  C  C107  1  0.004300  0.930800  0.247700  1.0  0.7746
  C  C108  1  0.763000  0.875100  0.004900  1.0  0.7214
  C  C109  1  0.734100  0.740400  0.059700  1.0  0.7342
  C  C110  1  0.734400  0.591800  0.251100  1.0  0.7543
  C  C111  1  0.748000  0.126700  0.502400  1.0  0.7521
  C  C112  1  0.707700  0.257100  0.547400  1.0  0.7295
  C  C113  1  0.582600  0.516200  0.636300  1.0  0.6102
  C  C114  1  0.937700  0.753200  0.858300  1.0  0.6877
  C  C115  1  0.908500  0.265900  0.857800  1.0  0.6139
  C  C116  1  0.569500  0.495200  0.148200  1.0  0.6521
  C  C117  1  0.773900  0.658700  0.757500  1.0  0.7465
  C  C118  1  0.514300  0.818900  0.773000  1.0  0.7896
  C  C119  1  0.751600  0.160200  0.754300  1.0  0.7456
  C  C120  1  0.732000  0.410900  0.742500  1.0  0.7578
  C  C121  1  0.774800  0.510400  0.952300  1.0  0.7463
  C  C122  1  0.783700  0.490600  0.453500  1.0  0.6763
  C  C123  1  0.004300  0.569200  0.747700  1.0  0.7764
  C  C124  1  0.763000  0.624900  0.504900  1.0  0.7216
  C  C125  1  0.734100  0.759600  0.559700  1.0  0.7335
  C  C126  1  0.734400  0.908200  0.751100  1.0  0.7547
  C  C127  1  0.748000  0.373300  0.002400  1.0  0.7522
  C  C128  1  0.707700  0.242900  0.047400  1.0  0.7305
  C  C129  1  0.417400  0.016200  0.863700  1.0  0.6104
  C  C130  1  0.062300  0.253200  0.641700  1.0  0.6865
  C  C131  1  0.091500  0.765900  0.642200  1.0  0.6133
  C  C132  1  0.430500  0.995200  0.351800  1.0  0.6536
  C  C133  1  0.226100  0.158700  0.742500  1.0  0.7471
  C  C134  1  0.485700  0.318900  0.727000  1.0  0.7889
  C  C135  1  0.248400  0.660200  0.745700  1.0  0.7456
  C  C136  1  0.268000  0.910900  0.757500  1.0  0.7584
  C  C137  1  0.225200  0.010400  0.547700  1.0  0.747
  C  C138  1  0.216300  0.990600  0.046500  1.0  0.6766
  C  C139  1  0.995700  0.069200  0.752300  1.0  0.7764
  C  C140  1  0.237000  0.124900  0.995100  1.0  0.7214
  C  C141  1  0.265900  0.259600  0.940300  1.0  0.7329
  C  C142  1  0.265600  0.408200  0.748900  1.0  0.755
  C  C143  1  0.252000  0.873300  0.497600  1.0  0.752
  C  C144  1  0.292300  0.742900  0.452600  1.0  0.73
  O  O145  1  0.375600  0.470700  0.434100  1.0  -0.5425
  O  O146  1  0.375000  0.483100  0.265900  1.0  -0.5937
  O  O147  1  0.103600  0.255120  0.068500  1.0  -0.5654
  O  O148  1  0.101700  0.224780  0.228300  1.0  -0.5447
  O  O149  1  0.131100  0.720300  0.071900  1.0  -0.5385
  O  O150  1  0.134000  0.734750  0.239100  1.0  -0.5653
  O  O151  1  0.388600  0.499600  0.923900  1.0  -0.5342
  O  O152  1  0.391000  0.523670  0.760000  1.0  -0.5685
  O  O153  1  0.263700  0.384800  0.251900  1.0  -0.5989
  O  O154  1  0.266700  0.301080  0.230400  1.0  -0.6143
  O  O155  1  0.400500  0.192410  0.212200  1.0  -0.6353
  O  O156  1  0.553800  0.208860  0.259400  1.0  -0.6185
  O  O157  1  0.296700  0.802050  0.230800  1.0  -0.6052
  O  O158  1  0.274500  0.884710  0.245700  1.0  -0.6217
  O  O159  1  0.215400  0.553030  0.266300  1.0  -0.592
  O  O160  1  0.246800  0.635080  0.258600  1.0  -0.6075
  O  O161  1  0.187000  0.467930  0.112500  1.0  -0.5739
  O  O162  1  0.191400  0.491030  0.946700  1.0  -0.5762
  O  O163  1  0.184100  0.512780  0.444800  1.0  -0.5696
  O  O164  1  0.188400  0.533820  0.615400  1.0  -0.5372
  O  O165  1  0.063100  0.456920  0.246700  1.0  -0.6118
  O  O166  1  0.910600  0.441860  0.225300  1.0  -0.6374
  O  O167  1  0.192200  0.405980  0.427300  1.0  -0.5839
  O  O168  1  0.202300  0.338190  0.532600  1.0  -0.5823
  O  O169  1  0.302600  0.217060  0.376100  1.0  -0.5525
  O  O170  1  0.302200  0.242040  0.542500  1.0  -0.5783
  O  O171  1  0.228500  0.133840  0.244100  1.0  -0.6029
  O  O172  1  0.229200  0.050140  0.260300  1.0  -0.5993
  O  O173  1  0.302300  0.652620  0.072600  1.0  -0.5833
  O  O174  1  0.277300  0.589020  0.955000  1.0  -0.59
  O  O175  1  0.322400  0.759300  0.053600  1.0  -0.5709
  O  O176  1  0.327800  0.780280  0.887300  1.0  -0.5633
  O  O177  1  0.624400  0.970700  0.065900  1.0  -0.5418
  O  O178  1  0.625000  0.983100  0.234100  1.0  -0.5947
  O  O179  1  0.896400  0.755120  0.431500  1.0  -0.5666
  O  O180  1  0.898300  0.724780  0.271700  1.0  -0.5446
  O  O181  1  0.868900  0.220300  0.428100  1.0  -0.5393
  O  O182  1  0.866000  0.234750  0.260900  1.0  -0.5645
  O  O183  1  0.611400  0.999600  0.576100  1.0  -0.5346
  O  O184  1  0.609000  0.023670  0.740000  1.0  -0.5714
  O  O185  1  0.736300  0.884800  0.248100  1.0  -0.5996
  O  O186  1  0.733300  0.801080  0.269600  1.0  -0.6128
  O  O187  1  0.599500  0.692410  0.287800  1.0  -0.6348
  O  O188  1  0.446200  0.708860  0.240600  1.0  -0.6166
  O  O189  1  0.703300  0.302050  0.269200  1.0  -0.6059
  O  O190  1  0.725500  0.384710  0.254300  1.0  -0.623
  O  O191  1  0.784600  0.053030  0.233700  1.0  -0.5935
  O  O192  1  0.753200  0.135080  0.241400  1.0  -0.6087
  O  O193  1  0.813000  0.967930  0.387500  1.0  -0.5722
  O  O194  1  0.808600  0.991030  0.553300  1.0  -0.5768
  O  O195  1  0.815900  0.012780  0.055200  1.0  -0.5699
  O  O196  1  0.811600  0.033820  0.884600  1.0  -0.5355
  O  O197  1  0.936900  0.956920  0.253300  1.0  -0.6103
  O  O198  1  0.089400  0.941860  0.274700  1.0  -0.637
  O  O199  1  0.807800  0.905980  0.072700  1.0  -0.5832
  O  O200  1  0.797700  0.838190  0.967400  1.0  -0.5818
  O  O201  1  0.697400  0.717060  0.123900  1.0  -0.5515
  O  O202  1  0.697800  0.742040  0.957500  1.0  -0.5781
  O  O203  1  0.771500  0.633840  0.255900  1.0  -0.601
  O  O204  1  0.770800  0.550140  0.239700  1.0  -0.6012
  O  O205  1  0.697700  0.152620  0.427400  1.0  -0.5824
  O  O206  1  0.722700  0.089020  0.545000  1.0  -0.5903
  O  O207  1  0.677600  0.259300  0.446400  1.0  -0.5677
  O  O208  1  0.672200  0.280280  0.612700  1.0  -0.5645
  O  O209  1  0.624400  0.529300  0.565900  1.0  -0.5418
  O  O210  1  0.625000  0.516900  0.734100  1.0  -0.5951
  O  O211  1  0.896400  0.744880  0.931500  1.0  -0.5659
  O  O212  1  0.898300  0.775220  0.771700  1.0  -0.5442
  O  O213  1  0.868900  0.279700  0.928100  1.0  -0.5391
  O  O214  1  0.866000  0.265250  0.760900  1.0  -0.5641
  O  O215  1  0.611400  0.500400  0.076100  1.0  -0.534
  O  O216  1  0.609000  0.476330  0.240000  1.0  -0.5707
  O  O217  1  0.736300  0.615200  0.748100  1.0  -0.6002
  O  O218  1  0.733300  0.698920  0.769600  1.0  -0.6122
  O  O219  1  0.599500  0.807590  0.787800  1.0  -0.6369
  O  O220  1  0.446200  0.791140  0.740600  1.0  -0.6174
  O  O221  1  0.703300  0.197950  0.769200  1.0  -0.6053
  O  O222  1  0.725500  0.115290  0.754300  1.0  -0.623
  O  O223  1  0.784600  0.446970  0.733700  1.0  -0.593
  O  O224  1  0.753200  0.364920  0.741400  1.0  -0.6097
  O  O225  1  0.813000  0.532070  0.887500  1.0  -0.5725
  O  O226  1  0.808600  0.508970  0.053300  1.0  -0.5775
  O  O227  1  0.815900  0.487220  0.555200  1.0  -0.5698
  O  O228  1  0.811600  0.466180  0.384600  1.0  -0.5364
  O  O229  1  0.936900  0.543080  0.753300  1.0  -0.6112
  O  O230  1  0.089400  0.558140  0.774700  1.0  -0.6366
  O  O231  1  0.807800  0.594020  0.572700  1.0  -0.5834
  O  O232  1  0.797700  0.661810  0.467400  1.0  -0.581
  O  O233  1  0.697400  0.782940  0.623900  1.0  -0.552
  O  O234  1  0.697800  0.757960  0.457500  1.0  -0.5786
  O  O235  1  0.771500  0.866160  0.755900  1.0  -0.6029
  O  O236  1  0.770800  0.949860  0.739700  1.0  -0.6001
  O  O237  1  0.697700  0.347380  0.927400  1.0  -0.5826
  O  O238  1  0.722700  0.410980  0.045000  1.0  -0.591
  O  O239  1  0.677600  0.240700  0.946400  1.0  -0.5678
  O  O240  1  0.672200  0.219720  0.112700  1.0  -0.5641
  O  O241  1  0.375600  0.029300  0.934100  1.0  -0.5427
  O  O242  1  0.375000  0.016900  0.765900  1.0  -0.5938
  O  O243  1  0.103600  0.244880  0.568500  1.0  -0.5659
  O  O244  1  0.101700  0.275220  0.728300  1.0  -0.5458
  O  O245  1  0.131100  0.779700  0.571900  1.0  -0.5378
  O  O246  1  0.134000  0.765250  0.739100  1.0  -0.5655
  O  O247  1  0.388600  0.000400  0.423900  1.0  -0.5347
  O  O248  1  0.391000  0.976330  0.260000  1.0  -0.5689
  O  O249  1  0.263700  0.115200  0.751900  1.0  -0.5996
  O  O250  1  0.266700  0.198920  0.730400  1.0  -0.6121
  O  O251  1  0.400500  0.307590  0.712200  1.0  -0.6364
  O  O252  1  0.553800  0.291140  0.759400  1.0  -0.6185
  O  O253  1  0.296700  0.697950  0.730800  1.0  -0.6046
  O  O254  1  0.274500  0.615290  0.745700  1.0  -0.6223
  O  O255  1  0.215400  0.946970  0.766300  1.0  -0.5911
  O  O256  1  0.246800  0.864920  0.758600  1.0  -0.6081
  O  O257  1  0.187000  0.032070  0.612500  1.0  -0.574
  O  O258  1  0.191400  0.008970  0.446700  1.0  -0.5763
  O  O259  1  0.184100  0.987220  0.944800  1.0  -0.5694
  O  O260  1  0.188400  0.966180  0.115400  1.0  -0.5371
  O  O261  1  0.063100  0.043080  0.746700  1.0  -0.6115
  O  O262  1  0.910600  0.058140  0.725300  1.0  -0.6378
  O  O263  1  0.192200  0.094020  0.927300  1.0  -0.5842
  O  O264  1  0.202300  0.161810  0.032600  1.0  -0.5814
  O  O265  1  0.302600  0.282940  0.876100  1.0  -0.553
  O  O266  1  0.302200  0.257960  0.042500  1.0  -0.5791
  O  O267  1  0.228500  0.366160  0.744100  1.0  -0.6034
  O  O268  1  0.229200  0.449860  0.760300  1.0  -0.5994
  O  O269  1  0.302300  0.847380  0.572600  1.0  -0.5836
  O  O270  1  0.277300  0.910980  0.455000  1.0  -0.5897
  O  O271  1  0.322400  0.740700  0.553600  1.0  -0.5699
  O  O272  1  0.327800  0.719720  0.387300  1.0  -0.5626
