# generated using pymatgen
data_ErH4(CO2)4
_symmetry_space_group_name_H-M   'P 1'
_cell_length_a   18.09390000
_cell_length_b   13.31150000
_cell_length_c   8.57750000
_cell_angle_alpha   90.00000000
_cell_angle_beta   90.00000000
_cell_angle_gamma   90.00000000
_symmetry_Int_Tables_number   1
_chemical_formula_structural   ErH4(CO2)4
_chemical_formula_sum   'Er8 H32 C32 O64'
_cell_volume   2065.95048734
_cell_formula_units_Z   8
loop_
 _symmetry_equiv_pos_site_id
 _symmetry_equiv_pos_as_xyz
  1  'x, y, z'
loop_
 _atom_site_type_symbol
 _atom_site_label
 _atom_site_symmetry_multiplicity
 _atom_site_fract_x
 _atom_site_fract_y
 _atom_site_fract_z
 _atom_site_occupancy
 _atom_site_charge
  Er  Er1  1  0.601020  0.374580  0.252640  1.0  1.3575
  Er  Er2  1  0.393800  0.124910  0.752360  1.0  1.3339
  Er  Er3  1  0.398980  0.625420  0.752640  1.0  1.3671
  Er  Er4  1  0.606200  0.875090  0.252360  1.0  1.3282
  Er  Er5  1  0.101020  0.125420  0.252640  1.0  1.3577
  Er  Er6  1  0.893800  0.375090  0.752360  1.0  1.3341
  Er  Er7  1  0.898980  0.874580  0.752640  1.0  1.3671
  Er  Er8  1  0.106200  0.624910  0.252360  1.0  1.328
  H  H9  1  0.473700  0.235700  0.442800  1.0  0.0803
  H  H10  1  0.563100  0.117500  0.269400  1.0  0.1477
  H  H11  1  0.707900  0.301200  0.577800  1.0  0.0889
  H  H12  1  0.707300  0.440500  0.894500  1.0  0.1433
  H  H13  1  0.564100  0.619800  0.208100  1.0  0.0995
  H  H14  1  0.532000  0.502800  0.541500  1.0  0.1214
  H  H15  1  0.527500  0.249600  0.947200  1.0  0.0868
  H  H16  1  0.471300  0.998300  0.048400  1.0  0.0888
  H  H17  1  0.526300  0.764300  0.942800  1.0  0.081
  H  H18  1  0.436900  0.882500  0.769400  1.0  0.1475
  H  H19  1  0.292100  0.698800  0.077800  1.0  0.0904
  H  H20  1  0.292700  0.559500  0.394500  1.0  0.1408
  H  H21  1  0.435900  0.380200  0.708100  1.0  0.0997
  H  H22  1  0.468000  0.497200  0.041500  1.0  0.1209
  H  H23  1  0.472500  0.750400  0.447200  1.0  0.0865
  H  H24  1  0.528700  0.001700  0.548400  1.0  0.0895
  H  H25  1  0.973700  0.264300  0.442800  1.0  0.0803
  H  H26  1  0.063100  0.382500  0.269400  1.0  0.1477
  H  H27  1  0.207900  0.198800  0.577800  1.0  0.0909
  H  H28  1  0.207300  0.059500  0.894500  1.0  0.141
  H  H29  1  0.064100  0.880200  0.208100  1.0  0.0994
  H  H30  1  0.032000  0.997200  0.541500  1.0  0.1214
  H  H31  1  0.027500  0.250400  0.947200  1.0  0.0869
  H  H32  1  0.971300  0.501700  0.048400  1.0  0.0887
  H  H33  1  0.026300  0.735700  0.942800  1.0  0.0809
  H  H34  1  0.936900  0.617500  0.769400  1.0  0.1474
  H  H35  1  0.792100  0.801200  0.077800  1.0  0.0886
  H  H36  1  0.792700  0.940500  0.394500  1.0  0.1425
  H  H37  1  0.935900  0.119800  0.708100  1.0  0.0997
  H  H38  1  0.968000  0.002800  0.041500  1.0  0.1211
  H  H39  1  0.972500  0.749600  0.447200  1.0  0.0863
  H  H40  1  0.028700  0.498300  0.548400  1.0  0.0894
  C  C41  1  0.510200  0.246800  0.520600  1.0  0.6004
  C  C42  1  0.615500  0.118600  0.262900  1.0  0.7261
  C  C43  1  0.732500  0.354200  0.525000  1.0  0.7946
  C  C44  1  0.733000  0.395200  0.960900  1.0  0.7254
  C  C45  1  0.616500  0.621700  0.214100  1.0  0.7635
  C  C46  1  0.493200  0.506900  0.467200  1.0  0.6692
  C  C47  1  0.488100  0.248600  0.020300  1.0  0.7467
  C  C48  1  0.510500  0.000900  0.974900  1.0  0.67
  C  C49  1  0.489800  0.753200  0.020600  1.0  0.5998
  C  C50  1  0.384500  0.881400  0.762900  1.0  0.7255
  C  C51  1  0.267500  0.645800  0.025000  1.0  0.7934
  C  C52  1  0.267000  0.604800  0.460900  1.0  0.7258
  C  C53  1  0.383500  0.378300  0.714100  1.0  0.7629
  C  C54  1  0.506800  0.493100  0.967200  1.0  0.6699
  C  C55  1  0.511900  0.751400  0.520300  1.0  0.7459
  C  C56  1  0.489500  0.999100  0.474900  1.0  0.6698
  C  C57  1  0.010200  0.253200  0.520600  1.0  0.6002
  C  C58  1  0.115500  0.381400  0.262900  1.0  0.726
  C  C59  1  0.232500  0.145800  0.525000  1.0  0.795
  C  C60  1  0.233000  0.104800  0.960900  1.0  0.7252
  C  C61  1  0.116500  0.878300  0.214100  1.0  0.7637
  C  C62  1  0.993200  0.993100  0.467200  1.0  0.6693
  C  C63  1  0.988100  0.251400  0.020300  1.0  0.7467
  C  C64  1  0.010500  0.499100  0.974900  1.0  0.6698
  C  C65  1  0.989800  0.746800  0.020600  1.0  0.6
  C  C66  1  0.884500  0.618600  0.762900  1.0  0.726
  C  C67  1  0.767500  0.854200  0.025000  1.0  0.7932
  C  C68  1  0.767000  0.895200  0.460900  1.0  0.7259
  C  C69  1  0.883500  0.121700  0.714100  1.0  0.7627
  C  C70  1  0.006800  0.006900  0.967200  1.0  0.6698
  C  C71  1  0.011900  0.748600  0.520300  1.0  0.7458
  C  C72  1  0.989500  0.500900  0.474900  1.0  0.67
  O  O73  1  0.563900  0.294100  0.481100  1.0  -0.5619
  O  O74  1  0.497100  0.210800  0.652100  1.0  -0.5728
  O  O75  1  0.648000  0.205700  0.233300  1.0  -0.5831
  O  O76  1  0.647800  0.041500  0.281900  1.0  -0.5513
  O  O77  1  0.703200  0.386400  0.420500  1.0  -0.5955
  O  O78  1  0.795700  0.381100  0.581500  1.0  -0.6182
  O  O79  1  0.701100  0.366000  0.091000  1.0  -0.6221
  O  O80  1  0.791500  0.367800  0.923900  1.0  -0.6167
  O  O81  1  0.647700  0.543300  0.238200  1.0  -0.5366
  O  O82  1  0.647500  0.707600  0.195900  1.0  -0.6292
  O  O83  1  0.503400  0.467100  0.338400  1.0  -0.5474
  O  O84  1  0.434300  0.553200  0.507700  1.0  -0.5708
  O  O85  1  0.501800  0.279800  0.153300  1.0  -0.5509
  O  O86  1  0.427100  0.215900  0.973100  1.0  -0.5697
  O  O87  1  0.497100  0.040600  0.849600  1.0  -0.5487
  O  O88  1  0.571900  0.962800  0.016400  1.0  -0.5665
  O  O89  1  0.436100  0.705900  0.981100  1.0  -0.5625
  O  O90  1  0.502900  0.789200  0.152100  1.0  -0.5748
  O  O91  1  0.352000  0.794300  0.733300  1.0  -0.5835
  O  O92  1  0.352200  0.958500  0.781900  1.0  -0.5495
  O  O93  1  0.296800  0.613600  0.920500  1.0  -0.5959
  O  O94  1  0.204300  0.618900  0.081500  1.0  -0.6175
  O  O95  1  0.298900  0.634000  0.591000  1.0  -0.6235
  O  O96  1  0.208500  0.632200  0.423900  1.0  -0.6179
  O  O97  1  0.352300  0.456700  0.738200  1.0  -0.5367
  O  O98  1  0.352500  0.292400  0.695900  1.0  -0.632
  O  O99  1  0.496600  0.532900  0.838400  1.0  -0.5465
  O  O100  1  0.565700  0.446800  0.007700  1.0  -0.5714
  O  O101  1  0.498200  0.720200  0.653300  1.0  -0.5509
  O  O102  1  0.572900  0.784100  0.473100  1.0  -0.5695
  O  O103  1  0.502900  0.959400  0.349600  1.0  -0.5513
  O  O104  1  0.428100  0.037200  0.516400  1.0  -0.5658
  O  O105  1  0.063900  0.205900  0.481100  1.0  -0.562
  O  O106  1  0.997100  0.289200  0.652100  1.0  -0.5733
  O  O107  1  0.148000  0.294300  0.233300  1.0  -0.5843
  O  O108  1  0.147800  0.458500  0.281900  1.0  -0.5501
  O  O109  1  0.203200  0.113600  0.420500  1.0  -0.5964
  O  O110  1  0.295700  0.118900  0.581500  1.0  -0.6176
  O  O111  1  0.201100  0.134000  0.091000  1.0  -0.6231
  O  O112  1  0.291500  0.132200  0.923900  1.0  -0.6164
  O  O113  1  0.147700  0.956700  0.238200  1.0  -0.5358
  O  O114  1  0.147500  0.792400  0.195900  1.0  -0.6321
  O  O115  1  0.003400  0.032900  0.338400  1.0  -0.5466
  O  O116  1  0.934300  0.946800  0.507700  1.0  -0.5714
  O  O117  1  0.001800  0.220200  0.153300  1.0  -0.5505
  O  O118  1  0.927100  0.284100  0.973100  1.0  -0.5701
  O  O119  1  0.997100  0.459400  0.849600  1.0  -0.5488
  O  O120  1  0.071900  0.537200  0.016400  1.0  -0.5669
  O  O121  1  0.936100  0.794100  0.981100  1.0  -0.5625
  O  O122  1  0.002900  0.710800  0.152100  1.0  -0.5745
  O  O123  1  0.852000  0.705700  0.733300  1.0  -0.5818
  O  O124  1  0.852200  0.541500  0.781900  1.0  -0.5497
  O  O125  1  0.796800  0.886400  0.920500  1.0  -0.5954
  O  O126  1  0.704300  0.881100  0.081500  1.0  -0.6169
  O  O127  1  0.798900  0.866000  0.591000  1.0  -0.6227
  O  O128  1  0.708500  0.867800  0.423900  1.0  -0.6182
  O  O129  1  0.852300  0.043300  0.738200  1.0  -0.5359
  O  O130  1  0.852500  0.207600  0.695900  1.0  -0.6295
  O  O131  1  0.996600  0.967100  0.838400  1.0  -0.5472
  O  O132  1  0.065700  0.053200  0.007700  1.0  -0.5708
  O  O133  1  0.998200  0.779800  0.653300  1.0  -0.5512
  O  O134  1  0.072900  0.715900  0.473100  1.0  -0.5691
  O  O135  1  0.002900  0.540600  0.349600  1.0  -0.5509
  O  O136  1  0.928100  0.462800  0.516400  1.0  -0.5647
