# generated using pymatgen
data_FeH6(C3O)4
_symmetry_space_group_name_H-M   'P 1'
_cell_length_a   11.21890000
_cell_length_b   11.21890000
_cell_length_c   21.25500000
_cell_angle_alpha   95.73890000
_cell_angle_beta   95.73890000
_cell_angle_gamma   107.19200000
_symmetry_Int_Tables_number   1
_chemical_formula_structural   FeH6(C3O)4
_chemical_formula_sum   'Fe6 H36 C72 O24'
_cell_volume   2519.16446308
_cell_formula_units_Z   6
loop_
 _symmetry_equiv_pos_site_id
 _symmetry_equiv_pos_as_xyz
  1  'x, y, z'
loop_
 _atom_site_type_symbol
 _atom_site_label
 _atom_site_symmetry_multiplicity
 _atom_site_fract_x
 _atom_site_fract_y
 _atom_site_fract_z
 _atom_site_occupancy
 _atom_site_charge
  Fe  Fe1  1  0.983160  0.500020  0.192410  1.0  0.973
  Fe  Fe2  1  0.499980  0.016840  0.307590  1.0  0.9746
  Fe  Fe3  1  0.016840  0.499980  0.807590  1.0  0.9749
  Fe  Fe4  1  0.500020  0.983160  0.692410  1.0  0.9732
  Fe  Fe5  1  0.752960  0.247040  0.250000  1.0  1.2017
  Fe  Fe6  1  0.247040  0.752960  0.750000  1.0  1.2025
  H  H7  1  0.007000  0.719200  0.397900  1.0  0.1073
  H  H8  1  0.031900  0.743100  0.506600  1.0  0.0808
  H  H9  1  0.954900  0.348700  0.391300  1.0  0.1029
  H  H10  1  0.904100  0.984300  0.147100  1.0  0.1073
  H  H11  1  0.938000  0.831000  0.077900  1.0  0.1196
  H  H12  1  0.011000  0.238000  0.029000  1.0  0.1083
  H  H13  1  0.481100  0.265900  0.094200  1.0  0.0815
  H  H14  1  0.342500  0.277500  0.009800  1.0  0.104
  H  H15  1  0.713000  0.605400  0.076500  1.0  0.1027
  H  H16  1  0.280800  0.993000  0.102100  1.0  0.1074
  H  H17  1  0.256900  0.968100  0.993400  1.0  0.0811
  H  H18  1  0.651300  0.045100  0.108700  1.0  0.1025
  H  H19  1  0.015700  0.095900  0.352900  1.0  0.1085
  H  H20  1  0.169000  0.062000  0.422100  1.0  0.1195
  H  H21  1  0.762000  0.989000  0.471000  1.0  0.1072
  H  H22  1  0.734100  0.518900  0.405800  1.0  0.0799
  H  H23  1  0.722500  0.657500  0.490200  1.0  0.1048
  H  H24  1  0.394600  0.287000  0.423500  1.0  0.1033
  H  H25  1  0.993000  0.280800  0.602100  1.0  0.1074
  H  H26  1  0.968100  0.256900  0.493400  1.0  0.0808
  H  H27  1  0.045100  0.651300  0.608700  1.0  0.1033
  H  H28  1  0.095900  0.015700  0.852900  1.0  0.1076
  H  H29  1  0.062000  0.169000  0.922100  1.0  0.1196
  H  H30  1  0.989000  0.762000  0.971000  1.0  0.1083
  H  H31  1  0.518900  0.734100  0.905800  1.0  0.0816
  H  H32  1  0.657500  0.722500  0.990200  1.0  0.104
  H  H33  1  0.287000  0.394600  0.923500  1.0  0.1029
  H  H34  1  0.719200  0.007000  0.897900  1.0  0.1073
  H  H35  1  0.743100  0.031900  0.006600  1.0  0.0807
  H  H36  1  0.348700  0.954900  0.891300  1.0  0.1024
  H  H37  1  0.984300  0.904100  0.647100  1.0  0.1081
  H  H38  1  0.831000  0.938000  0.577900  1.0  0.1206
  H  H39  1  0.238000  0.011000  0.529000  1.0  0.1068
  H  H40  1  0.265900  0.481100  0.594200  1.0  0.0807
  H  H41  1  0.277500  0.342500  0.509800  1.0  0.1048
  H  H42  1  0.605400  0.713000  0.576500  1.0  0.1041
  C  C43  1  0.966700  0.517500  0.312400  1.0  0.6893
  C  C44  1  0.977200  0.529400  0.384000  1.0  -0.1323
  C  C45  1  0.001600  0.649600  0.419100  1.0  -0.0619
  C  C46  1  0.017300  0.663700  0.484000  1.0  -0.1025
  C  C47  1  0.012200  0.560400  0.517700  1.0  0.035
  C  C48  1  0.970700  0.427500  0.414900  1.0  -0.0487
  C  C49  1  0.923600  0.223200  0.139600  1.0  0.7161
  C  C50  1  0.952900  0.126900  0.093600  1.0  -0.1423
  C  C51  1  0.931500  0.003700  0.108400  1.0  -0.0428
  C  C52  1  0.950500  0.911500  0.066900  1.0  -0.1389
  C  C53  1  0.993800  0.155600  0.037900  1.0  -0.0721
  C  C54  1  0.988400  0.938400  0.008100  1.0  0.0398
  C  C55  1  0.704300  0.425100  0.148200  1.0  0.7244
  C  C56  1  0.612400  0.434400  0.093700  1.0  -0.1451
  C  C57  1  0.499900  0.336700  0.073200  1.0  -0.0292
  C  C58  1  0.416600  0.343400  0.022700  1.0  -0.1276
  C  C59  1  0.443500  0.450900  0.990000  1.0  0.0396
  C  C60  1  0.639200  0.539600  0.062600  1.0  -0.0747
  C  C61  1  0.482500  0.033300  0.187600  1.0  0.6877
  C  C62  1  0.470600  0.022800  0.116000  1.0  -0.1323
  C  C63  1  0.350400  0.998400  0.080900  1.0  -0.0599
  C  C64  1  0.336300  0.982700  0.016000  1.0  -0.1022
  C  C65  1  0.439600  0.987800  0.982300  1.0  0.0355
  C  C66  1  0.572500  0.029300  0.085100  1.0  -0.0472
  C  C67  1  0.776800  0.076400  0.360400  1.0  0.7146
  C  C68  1  0.873100  0.047100  0.406400  1.0  -0.1433
  C  C69  1  0.996300  0.068500  0.391600  1.0  -0.0429
  C  C70  1  0.088500  0.049500  0.433100  1.0  -0.1403
  C  C71  1  0.844400  0.006200  0.462100  1.0  -0.0741
  C  C72  1  0.061600  0.011600  0.491900  1.0  0.039
  C  C73  1  0.574900  0.295700  0.351800  1.0  0.7268
  C  C74  1  0.565600  0.387600  0.406300  1.0  -0.147
  C  C75  1  0.663300  0.500100  0.426800  1.0  -0.0278
  C  C76  1  0.656600  0.583400  0.477300  1.0  -0.1279
  C  C77  1  0.549100  0.556500  0.510000  1.0  0.0401
  C  C78  1  0.460400  0.360800  0.437400  1.0  -0.0753
  C  C79  1  0.033300  0.482500  0.687600  1.0  0.6891
  C  C80  1  0.022800  0.470600  0.616000  1.0  -0.1332
  C  C81  1  0.998400  0.350400  0.580900  1.0  -0.0619
  C  C82  1  0.982700  0.336300  0.516000  1.0  -0.1022
  C  C83  1  0.987800  0.439600  0.482300  1.0  0.035
  C  C84  1  0.029300  0.572500  0.585100  1.0  -0.0509
  C  C85  1  0.076400  0.776800  0.860400  1.0  0.7163
  C  C86  1  0.047100  0.873100  0.906400  1.0  -0.1417
  C  C87  1  0.068500  0.996300  0.891600  1.0  -0.0415
  C  C88  1  0.049500  0.088500  0.933100  1.0  -0.1405
  C  C89  1  0.006200  0.844400  0.962100  1.0  -0.0737
  C  C90  1  0.011600  0.061600  0.991900  1.0  0.0407
  C  C91  1  0.295700  0.574900  0.851800  1.0  0.7246
  C  C92  1  0.387600  0.565600  0.906300  1.0  -0.1441
  C  C93  1  0.500100  0.663300  0.926800  1.0  -0.03
  C  C94  1  0.583400  0.656600  0.977300  1.0  -0.1276
  C  C95  1  0.556500  0.549100  0.010000  1.0  0.0401
  C  C96  1  0.360800  0.460400  0.937400  1.0  -0.0746
  C  C97  1  0.517500  0.966700  0.812400  1.0  0.6887
  C  C98  1  0.529400  0.977200  0.884000  1.0  -0.1318
  C  C99  1  0.649600  0.001600  0.919100  1.0  -0.062
  C  C100  1  0.663700  0.017300  0.984000  1.0  -0.1042
  C  C101  1  0.560400  0.012200  0.017700  1.0  0.0352
  C  C102  1  0.427500  0.970700  0.914900  1.0  -0.0499
  C  C103  1  0.223200  0.923600  0.639600  1.0  0.715
  C  C104  1  0.126900  0.952900  0.593600  1.0  -0.1442
  C  C105  1  0.003700  0.931500  0.608400  1.0  -0.0438
  C  C106  1  0.911500  0.950500  0.566900  1.0  -0.1403
  C  C107  1  0.155600  0.993800  0.537900  1.0  -0.0756
  C  C108  1  0.938400  0.988400  0.508100  1.0  0.0386
  C  C109  1  0.425100  0.704300  0.648200  1.0  0.7271
  C  C110  1  0.434400  0.612400  0.593700  1.0  -0.1481
  C  C111  1  0.336700  0.499900  0.573200  1.0  -0.0274
  C  C112  1  0.343400  0.416600  0.522700  1.0  -0.1251
  C  C113  1  0.450900  0.443500  0.490000  1.0  0.0395
  C  C114  1  0.539600  0.639200  0.562600  1.0  -0.0746
  O  O115  1  0.006600  0.613000  0.286540  1.0  -0.5656
  O  O116  1  0.922860  0.409140  0.279670  1.0  -0.6367
  O  O117  1  0.961300  0.336100  0.129240  1.0  -0.6257
  O  O118  1  0.863200  0.183200  0.183300  1.0  -0.5773
  O  O119  1  0.808500  0.510300  0.158750  1.0  -0.6212
  O  O120  1  0.670300  0.332100  0.177260  1.0  -0.5875
  O  O121  1  0.387000  0.993400  0.213460  1.0  -0.5666
  O  O122  1  0.590860  0.077140  0.220330  1.0  -0.6345
  O  O123  1  0.663900  0.038700  0.370760  1.0  -0.6218
  O  O124  1  0.816800  0.136800  0.316700  1.0  -0.5779
  O  O125  1  0.489700  0.191500  0.341250  1.0  -0.624
  O  O126  1  0.667900  0.329700  0.322740  1.0  -0.5853
  O  O127  1  0.993400  0.387000  0.713460  1.0  -0.5656
  O  O128  1  0.077140  0.590860  0.720330  1.0  -0.6362
  O  O129  1  0.038700  0.663900  0.870760  1.0  -0.621
  O  O130  1  0.136800  0.816800  0.816700  1.0  -0.5801
  O  O131  1  0.191500  0.489700  0.841250  1.0  -0.6226
  O  O132  1  0.329700  0.667900  0.822740  1.0  -0.5869
  O  O133  1  0.613000  0.006600  0.786540  1.0  -0.5666
  O  O134  1  0.409140  0.922860  0.779670  1.0  -0.634
  O  O135  1  0.336100  0.961300  0.629240  1.0  -0.6232
  O  O136  1  0.183200  0.863200  0.683300  1.0  -0.5786
  O  O137  1  0.510300  0.808500  0.658750  1.0  -0.6239
  O  O138  1  0.332100  0.670300  0.677260  1.0  -0.5874
