# generated using pymatgen
data_CdH54(C9N2)6
_symmetry_space_group_name_H-M   'P 1'
_cell_length_a   10.99800000
_cell_length_b   11.80000000
_cell_length_c   12.79300000
_cell_angle_alpha   70.09000000
_cell_angle_beta   66.74000000
_cell_angle_gamma   73.43000000
_symmetry_Int_Tables_number   1
_chemical_formula_structural   CdH54(C9N2)6
_chemical_formula_sum   'Cd1 H54 C54 N12'
_cell_volume   1412.12672974
_cell_formula_units_Z   1
loop_
 _symmetry_equiv_pos_site_id
 _symmetry_equiv_pos_as_xyz
  1  'x, y, z'
loop_
 _atom_site_type_symbol
 _atom_site_label
 _atom_site_symmetry_multiplicity
 _atom_site_fract_x
 _atom_site_fract_y
 _atom_site_fract_z
 _atom_site_occupancy
 _atom_site_charge
  Cd  Cd1  1  0.000000  0.500000  0.500000  1.0  0.7339
  H  H2  1  0.403900  0.137600  0.184300  1.0  0.1974
  H  H3  1  0.509400  0.760400  0.162100  1.0  0.2404
  H  H4  1  0.823400  0.227200  0.235300  1.0  0.2148
  H  H5  1  0.194800  0.383800  0.280400  1.0  0.0561
  H  H6  1  0.464400  0.091600  0.363400  1.0  0.103
  H  H7  1  0.400400  0.129800  0.544600  1.0  0.092
  H  H8  1  0.234700  0.292100  0.590000  1.0  0.065
  H  H9  1  0.246900  0.339400  0.116300  1.0  0.0616
  H  H10  1  0.361100  0.267000  0.030500  1.0  0.0786
  H  H11  1  0.270100  0.548600  0.045000  1.0  0.0843
  H  H12  1  0.604400  0.299200  0.026400  1.0  0.0886
  H  H13  1  0.290300  0.561400  0.349200  1.0  0.0536
  H  H14  1  0.311300  0.904300  0.147900  1.0  0.1062
  H  H15  1  0.081500  0.944400  0.207200  1.0  0.096
  H  H16  1  0.959800  0.795800  0.345600  1.0  0.0607
  H  H17  1  0.633600  0.586200  0.204900  1.0  0.1
  H  H18  1  0.513600  0.525700  0.226300  1.0  0.0682
  H  H19  1  0.500000  0.704000  0.404600  1.0  0.0928
  H  H20  1  0.531600  0.363100  0.396000  1.0  0.0722
  H  H21  1  0.870700  0.321700  0.442000  1.0  0.0478
  H  H22  1  0.880400  0.419000  0.107400  1.0  0.1044
  H  H23  1  0.945400  0.598900  0.083500  1.0  0.0985
  H  H24  1  0.978200  0.630600  0.236200  1.0  0.0522
  H  H25  1  0.739900  0.101700  0.402900  1.0  0.0963
  H  H26  1  0.728000  0.199300  0.465300  1.0  0.0749
  H  H27  1  0.778700  0.995400  0.608800  1.0  0.084
  H  H28  1  0.060400  0.129100  0.314400  1.0  0.0864
  H  H29  1  0.596100  0.862400  0.815700  1.0  0.1984
  H  H30  1  0.490600  0.239600  0.837900  1.0  0.242
  H  H31  1  0.176600  0.772800  0.764700  1.0  0.2136
  H  H32  1  0.805200  0.616200  0.719600  1.0  0.0563
  H  H33  1  0.535600  0.908400  0.636600  1.0  0.1034
  H  H34  1  0.599600  0.870200  0.455400  1.0  0.0918
  H  H35  1  0.765300  0.707900  0.410000  1.0  0.0646
  H  H36  1  0.753100  0.660600  0.883700  1.0  0.0611
  H  H37  1  0.638900  0.733000  0.969500  1.0  0.0783
  H  H38  1  0.729900  0.451400  0.955000  1.0  0.0836
  H  H39  1  0.395600  0.700800  0.973600  1.0  0.088
  H  H40  1  0.709700  0.438600  0.650800  1.0  0.0536
  H  H41  1  0.688700  0.095700  0.852100  1.0  0.1055
  H  H42  1  0.918500  0.055600  0.792800  1.0  0.0958
  H  H43  1  0.040200  0.204200  0.654400  1.0  0.0599
  H  H44  1  0.366400  0.413800  0.795100  1.0  0.1016
  H  H45  1  0.486400  0.474300  0.773700  1.0  0.0682
  H  H46  1  0.500000  0.296000  0.595400  1.0  0.0928
  H  H47  1  0.468400  0.636900  0.604000  1.0  0.0715
  H  H48  1  0.129300  0.678300  0.558000  1.0  0.0469
  H  H49  1  0.119600  0.581000  0.892600  1.0  0.1031
  H  H50  1  0.054600  0.401100  0.916500  1.0  0.0979
  H  H51  1  0.021800  0.369400  0.763800  1.0  0.0523
  H  H52  1  0.260100  0.898300  0.597100  1.0  0.0963
  H  H53  1  0.272000  0.800700  0.534700  1.0  0.0747
  H  H54  1  0.221300  0.004600  0.391200  1.0  0.0835
  H  H55  1  0.939600  0.870900  0.685600  1.0  0.0872
  C  C56  1  0.237300  0.331300  0.333600  1.0  0.0696
  C  C57  1  0.335700  0.233800  0.300000  1.0  0.1922
  C  C58  1  0.397500  0.157700  0.381800  1.0  -0.0711
  C  C59  1  0.359400  0.180400  0.489700  1.0  -0.1245
  C  C60  1  0.260500  0.278000  0.516300  1.0  0.1009
  C  C61  1  0.341800  0.304300  0.093500  1.0  -0.0561
  C  C62  1  0.422300  0.406300  0.046500  1.0  0.0409
  C  C63  1  0.362800  0.527900  0.027700  1.0  -0.162
  C  C64  1  0.561200  0.380400  0.016500  1.0  -0.1291
  C  C65  1  0.248000  0.640200  0.321700  1.0  0.1417
  C  C66  1  0.328800  0.727700  0.243300  1.0  0.2578
  C  C67  1  0.262300  0.843500  0.200900  1.0  -0.2105
  C  C68  1  0.126200  0.867600  0.236900  1.0  -0.1526
  C  C69  1  0.053200  0.777000  0.318600  1.0  0.1252
  C  C70  1  0.538700  0.585100  0.247600  1.0  -0.0757
  C  C71  1  0.518500  0.541500  0.379300  1.0  -0.0009
  C  C72  1  0.500000  0.621300  0.442400  1.0  -0.1601
  C  C73  1  0.518700  0.419100  0.437500  1.0  -0.142
  C  C74  1  0.887400  0.376900  0.368100  1.0  0.1345
  C  C75  1  0.867900  0.348500  0.279700  1.0  0.2063
  C  C76  1  0.891400  0.433900  0.169700  1.0  -0.2134
  C  C77  1  0.931200  0.540100  0.155400  1.0  -0.1578
  C  C78  1  0.949700  0.558900  0.247800  1.0  0.162
  C  C79  1  0.789300  0.155000  0.407700  1.0  -0.1373
  C  C80  1  0.900400  0.076100  0.453100  1.0  0.0989
  C  C81  1  0.868700  0.997600  0.564000  1.0  -0.1394
  C  C82  1  0.035100  0.077000  0.389600  1.0  -0.1789
  C  C83  1  0.762700  0.668700  0.666400  1.0  0.0698
  C  C84  1  0.664300  0.766200  0.700000  1.0  0.1927
  C  C85  1  0.602500  0.842300  0.618200  1.0  -0.0695
  C  C86  1  0.640600  0.819600  0.510300  1.0  -0.1255
  C  C87  1  0.739500  0.722000  0.483700  1.0  0.1009
  C  C88  1  0.658200  0.695700  0.906500  1.0  -0.0564
  C  C89  1  0.577700  0.593700  0.953500  1.0  0.0409
  C  C90  1  0.637200  0.472100  0.972300  1.0  -0.1642
  C  C91  1  0.438800  0.619600  0.983500  1.0  -0.1271
  C  C92  1  0.752000  0.359800  0.678300  1.0  0.1428
  C  C93  1  0.671200  0.272300  0.756700  1.0  0.2581
  C  C94  1  0.737700  0.156500  0.799100  1.0  -0.2073
  C  C95  1  0.873800  0.132400  0.763100  1.0  -0.154
  C  C96  1  0.946800  0.223000  0.681400  1.0  0.1269
  C  C97  1  0.461300  0.414900  0.752400  1.0  -0.0736
  C  C98  1  0.481500  0.458500  0.620700  1.0  -0.0003
  C  C99  1  0.500000  0.378700  0.557600  1.0  -0.1627
  C  C100  1  0.481300  0.580900  0.562500  1.0  -0.1335
  C  C101  1  0.112600  0.623100  0.631900  1.0  0.1359
  C  C102  1  0.132100  0.651500  0.720300  1.0  0.2064
  C  C103  1  0.108600  0.566100  0.830300  1.0  -0.2135
  C  C104  1  0.068800  0.459900  0.844600  1.0  -0.1587
  C  C105  1  0.050300  0.441100  0.752200  1.0  0.1635
  C  C106  1  0.210700  0.845000  0.592300  1.0  -0.141
  C  C107  1  0.099600  0.923900  0.546900  1.0  0.1004
  C  C108  1  0.131300  0.002400  0.436000  1.0  -0.1389
  C  C109  1  0.964900  0.923000  0.610400  1.0  -0.1777
  N  N110  1  0.200700  0.353100  0.439400  1.0  -0.3834
  N  N111  1  0.367600  0.210500  0.192100  1.0  -0.3774
  N  N112  1  0.113900  0.663800  0.359000  1.0  -0.3934
  N  N113  1  0.465400  0.702600  0.209100  1.0  -0.4108
  N  N114  1  0.928900  0.479700  0.352600  1.0  -0.392
  N  N115  1  0.826700  0.242000  0.295400  1.0  -0.4099
  N  N116  1  0.799300  0.646900  0.560600  1.0  -0.3837
  N  N117  1  0.632400  0.789500  0.807900  1.0  -0.3768
  N  N118  1  0.886100  0.336200  0.641000  1.0  -0.3928
  N  N119  1  0.534600  0.297400  0.790900  1.0  -0.4125
  N  N120  1  0.071100  0.520300  0.647400  1.0  -0.3937
  N  N121  1  0.173300  0.758000  0.704600  1.0  -0.4086
