# generated using pymatgen
data_Eu9H37C72(N6O19)2
_symmetry_space_group_name_H-M   'P 1'
_cell_length_a   17.06150000
_cell_length_b   17.06150000
_cell_length_c   21.25530000
_cell_angle_alpha   66.33760000
_cell_angle_beta   66.33760000
_cell_angle_gamma   60.00000000
_symmetry_Int_Tables_number   1
_chemical_formula_structural   Eu9H37C72(N6O19)2
_chemical_formula_sum   'Eu18 H74 C144 N24 O76'
_cell_volume   4748.21186717
_cell_formula_units_Z   2
loop_
 _symmetry_equiv_pos_site_id
 _symmetry_equiv_pos_as_xyz
  1  'x, y, z'
loop_
 _atom_site_type_symbol
 _atom_site_label
 _atom_site_symmetry_multiplicity
 _atom_site_fract_x
 _atom_site_fract_y
 _atom_site_fract_z
 _atom_site_occupancy
 _atom_site_charge
  Eu  Eu1  1  0.604460  0.447330  0.603160  1.0  2.1107
  Eu  Eu2  1  0.447330  0.345050  0.603160  1.0  2.1116
  Eu  Eu3  1  0.345050  0.604460  0.603160  1.0  2.1113
  Eu  Eu4  1  0.895540  0.154950  0.896840  1.0  2.111
  Eu  Eu5  1  0.052670  0.895540  0.896840  1.0  2.111
  Eu  Eu6  1  0.154950  0.052670  0.896840  1.0  2.1104
  Eu  Eu7  1  0.395540  0.552670  0.396840  1.0  2.111
  Eu  Eu8  1  0.552670  0.654950  0.396840  1.0  2.1108
  Eu  Eu9  1  0.654950  0.395540  0.396840  1.0  2.1107
  Eu  Eu10  1  0.104460  0.845050  0.103160  1.0  2.1114
  Eu  Eu11  1  0.947330  0.104460  0.103160  1.0  2.1109
  Eu  Eu12  1  0.845050  0.947330  0.103160  1.0  2.1106
  Eu  Eu13  1  0.750000  0.276230  0.750000  1.0  2.046
  Eu  Eu14  1  0.276230  0.223770  0.750000  1.0  2.0456
  Eu  Eu15  1  0.223770  0.750000  0.750000  1.0  2.0455
  Eu  Eu16  1  0.250000  0.723770  0.250000  1.0  2.0456
  Eu  Eu17  1  0.723770  0.776230  0.250000  1.0  2.0458
  Eu  Eu18  1  0.776230  0.250000  0.250000  1.0  2.0458
  H  H19  1  0.967900  0.221600  0.447700  1.0  0.0796
  H  H20  1  0.067600  0.125900  0.521200  1.0  0.1055
  H  H21  1  0.011200  0.125500  0.640000  1.0  0.0606
  H  H22  1  0.465900  0.662500  0.796900  1.0  0.0762
  H  H23  1  0.579000  0.596700  0.862000  1.0  0.1115
  H  H24  1  0.683300  0.445700  0.865900  1.0  0.0717
  H  H25  1  0.221600  0.362800  0.447700  1.0  0.0798
  H  H26  1  0.125900  0.285300  0.521200  1.0  0.1065
  H  H27  1  0.125500  0.223300  0.640000  1.0  0.0621
  H  H28  1  0.662500  0.074700  0.796900  1.0  0.075
  H  H29  1  0.596700  0.962300  0.862000  1.0  0.1089
  H  H30  1  0.445700  0.005100  0.865900  1.0  0.0716
  H  H31  1  0.362800  0.967900  0.447700  1.0  0.0802
  H  H32  1  0.285300  0.067600  0.521200  1.0  0.1065
  H  H33  1  0.223300  0.011200  0.640000  1.0  0.0622
  H  H34  1  0.074700  0.465900  0.796900  1.0  0.0747
  H  H35  1  0.962300  0.579000  0.862000  1.0  0.1058
  H  H36  1  0.005100  0.683300  0.865900  1.0  0.0721
  H  H37  1  0.532100  0.137200  0.052300  1.0  0.0802
  H  H38  1  0.432400  0.214700  0.978800  1.0  0.1041
  H  H39  1  0.488800  0.276700  0.860000  1.0  0.063
  H  H40  1  0.034100  0.425300  0.703100  1.0  0.0747
  H  H41  1  0.921000  0.537700  0.638000  1.0  0.1079
  H  H42  1  0.816700  0.494900  0.634100  1.0  0.0711
  H  H43  1  0.278400  0.532100  0.052300  1.0  0.0804
  H  H44  1  0.374100  0.432400  0.978800  1.0  0.1064
  H  H45  1  0.374500  0.488800  0.860000  1.0  0.06
  H  H46  1  0.837500  0.034100  0.703100  1.0  0.0749
  H  H47  1  0.903300  0.921000  0.638000  1.0  0.1099
  H  H48  1  0.054300  0.816700  0.634100  1.0  0.072
  H  H49  1  0.137200  0.278400  0.052300  1.0  0.0808
  H  H50  1  0.214700  0.374100  0.978800  1.0  0.1071
  H  H51  1  0.276700  0.374500  0.860000  1.0  0.0616
  H  H52  1  0.425300  0.837500  0.703100  1.0  0.0749
  H  H53  1  0.537700  0.903300  0.638000  1.0  0.1083
  H  H54  1  0.494900  0.054300  0.634100  1.0  0.0721
  H  H55  1  0.032100  0.778400  0.552300  1.0  0.0801
  H  H56  1  0.932400  0.874100  0.478800  1.0  0.1055
  H  H57  1  0.988800  0.874500  0.360000  1.0  0.0605
  H  H58  1  0.534100  0.337500  0.203100  1.0  0.0761
  H  H59  1  0.421000  0.403300  0.138000  1.0  0.111
  H  H60  1  0.316700  0.554300  0.134100  1.0  0.0717
  H  H61  1  0.778400  0.637200  0.552300  1.0  0.0802
  H  H62  1  0.874100  0.714700  0.478800  1.0  0.107
  H  H63  1  0.874500  0.776700  0.360000  1.0  0.062
  H  H64  1  0.337500  0.925300  0.203100  1.0  0.0745
  H  H65  1  0.403300  0.037700  0.138000  1.0  0.1093
  H  H66  1  0.554300  0.994900  0.134100  1.0  0.0715
  H  H67  1  0.637200  0.032100  0.552300  1.0  0.08
  H  H68  1  0.714700  0.932400  0.478800  1.0  0.1065
  H  H69  1  0.776700  0.988800  0.360000  1.0  0.0621
  H  H70  1  0.925300  0.534100  0.203100  1.0  0.0745
  H  H71  1  0.037700  0.421000  0.138000  1.0  0.1075
  H  H72  1  0.994900  0.316700  0.134100  1.0  0.072
  H  H73  1  0.467900  0.862800  0.947700  1.0  0.0801
  H  H74  1  0.567600  0.785300  0.021200  1.0  0.106
  H  H75  1  0.511200  0.723300  0.140000  1.0  0.063
  H  H76  1  0.965900  0.574700  0.296900  1.0  0.0749
  H  H77  1  0.079000  0.462300  0.362000  1.0  0.108
  H  H78  1  0.183300  0.505100  0.365900  1.0  0.0725
  H  H79  1  0.721600  0.467900  0.947700  1.0  0.0801
  H  H80  1  0.625900  0.567600  0.021200  1.0  0.1068
  H  H81  1  0.625500  0.511200  0.140000  1.0  0.0605
  H  H82  1  0.162500  0.965900  0.296900  1.0  0.0749
  H  H83  1  0.096700  0.079000  0.362000  1.0  0.1103
  H  H84  1  0.945700  0.183300  0.365900  1.0  0.0714
  H  H85  1  0.862800  0.721600  0.947700  1.0  0.0804
  H  H86  1  0.785300  0.625900  0.021200  1.0  0.1068
  H  H87  1  0.723300  0.625500  0.140000  1.0  0.0619
  H  H88  1  0.574700  0.162500  0.296900  1.0  0.0746
  H  H89  1  0.462300  0.096700  0.362000  1.0  0.1086
  H  H90  1  0.505100  0.945700  0.365900  1.0  0.0711
  H  H91  1  0.500000  0.500000  0.500000  1.0  0.2529
  H  H92  1  0.000000  0.000000  0.000000  1.0  0.2529
  C  C93  1  0.830210  0.288710  0.591370  1.0  0.5471
  C  C94  1  0.855160  0.284060  0.520420  1.0  -0.1722
  C  C95  1  0.946900  0.223000  0.495100  1.0  -0.0439
  C  C96  1  0.006500  0.165300  0.538600  1.0  -0.154
  C  C97  1  0.972840  0.167540  0.609280  1.0  0.1334
  C  C98  1  0.788750  0.336350  0.475450  1.0  0.6444
  C  C99  1  0.591390  0.465390  0.754630  1.0  0.4602
  C  C100  1  0.522520  0.558320  0.750940  1.0  -0.2162
  C  C101  1  0.514500  0.604100  0.794200  1.0  -0.0779
  C  C102  1  0.580000  0.563300  0.835900  1.0  -0.1571
  C  C103  1  0.643400  0.474500  0.836200  1.0  0.148
  C  C104  1  0.455940  0.604340  0.705280  1.0  0.691
  C  C105  1  0.288710  0.289710  0.591370  1.0  0.5476
  C  C106  1  0.284060  0.340360  0.520420  1.0  -0.1701
  C  C107  1  0.223000  0.335000  0.495100  1.0  -0.0467
  C  C108  1  0.165300  0.289600  0.538600  1.0  -0.152
  C  C109  1  0.167540  0.250340  0.609280  1.0  0.1317
  C  C110  1  0.336350  0.399450  0.475450  1.0  0.644
  C  C111  1  0.465390  0.188590  0.754630  1.0  0.4566
  C  C112  1  0.558320  0.168220  0.750940  1.0  -0.2162
  C  C113  1  0.604100  0.087200  0.794200  1.0  -0.074
  C  C114  1  0.563300  0.020800  0.835900  1.0  -0.1552
  C  C115  1  0.474500  0.045900  0.836200  1.0  0.1504
  C  C116  1  0.604340  0.234440  0.705280  1.0  0.6839
  C  C117  1  0.289710  0.830210  0.591370  1.0  0.5467
  C  C118  1  0.340360  0.855160  0.520420  1.0  -0.1709
  C  C119  1  0.335000  0.946900  0.495100  1.0  -0.041
  C  C120  1  0.289600  0.006500  0.538600  1.0  -0.1538
  C  C121  1  0.250340  0.972840  0.609280  1.0  0.1303
  C  C122  1  0.399450  0.788750  0.475450  1.0  0.6445
  C  C123  1  0.188590  0.591390  0.754630  1.0  0.4568
  C  C124  1  0.168220  0.522520  0.750940  1.0  -0.2177
  C  C125  1  0.087200  0.514500  0.794200  1.0  -0.0717
  C  C126  1  0.020800  0.580000  0.835900  1.0  -0.1565
  C  C127  1  0.045900  0.643400  0.836200  1.0  0.1526
  C  C128  1  0.234440  0.455940  0.705280  1.0  0.6867
  C  C129  1  0.669790  0.210290  0.908630  1.0  0.5482
  C  C130  1  0.644840  0.159640  0.979580  1.0  -0.1717
  C  C131  1  0.553100  0.165000  0.004900  1.0  -0.0425
  C  C132  1  0.493500  0.210400  0.961400  1.0  -0.1566
  C  C133  1  0.527160  0.249660  0.890720  1.0  0.1311
  C  C134  1  0.711250  0.100550  0.024550  1.0  0.6447
  C  C135  1  0.908610  0.311410  0.745370  1.0  0.4563
  C  C136  1  0.977480  0.331780  0.749060  1.0  -0.217
  C  C137  1  0.985500  0.412800  0.705800  1.0  -0.0757
  C  C138  1  0.920000  0.479200  0.664100  1.0  -0.1586
  C  C139  1  0.856600  0.454100  0.663800  1.0  0.1496
  C  C140  1  0.044060  0.265560  0.794720  1.0  0.6867
  C  C141  1  0.211290  0.669790  0.908630  1.0  0.547
  C  C142  1  0.215940  0.644840  0.979580  1.0  -0.1715
  C  C143  1  0.277000  0.553100  0.004900  1.0  -0.0443
  C  C144  1  0.334700  0.493500  0.961400  1.0  -0.1554
  C  C145  1  0.332460  0.527160  0.890720  1.0  0.1338
  C  C146  1  0.163650  0.711250  0.024550  1.0  0.6459
  C  C147  1  0.034610  0.908610  0.745370  1.0  0.4584
  C  C148  1  0.941680  0.977480  0.749060  1.0  -0.2143
  C  C149  1  0.895900  0.985500  0.705800  1.0  -0.0693
  C  C150  1  0.936700  0.920000  0.664100  1.0  -0.1592
  C  C151  1  0.025500  0.856600  0.663800  1.0  0.1509
  C  C152  1  0.895660  0.044060  0.794720  1.0  0.6897
  C  C153  1  0.210290  0.211290  0.908630  1.0  0.5486
  C  C154  1  0.159640  0.215940  0.979580  1.0  -0.1713
  C  C155  1  0.165000  0.277000  0.004900  1.0  -0.0467
  C  C156  1  0.210400  0.334700  0.961400  1.0  -0.1535
  C  C157  1  0.249660  0.332460  0.890720  1.0  0.1314
  C  C158  1  0.100550  0.163650  0.024550  1.0  0.6428
  C  C159  1  0.311410  0.034610  0.745370  1.0  0.4567
  C  C160  1  0.331780  0.941680  0.749060  1.0  -0.2171
  C  C161  1  0.412800  0.895900  0.705800  1.0  -0.0755
  C  C162  1  0.479200  0.936700  0.664100  1.0  -0.1552
  C  C163  1  0.454100  0.025500  0.663800  1.0  0.1506
  C  C164  1  0.265560  0.895660  0.794720  1.0  0.6825
  C  C165  1  0.169790  0.711290  0.408630  1.0  0.5478
  C  C166  1  0.144840  0.715940  0.479580  1.0  -0.1728
  C  C167  1  0.053100  0.777000  0.504900  1.0  -0.0444
  C  C168  1  0.993500  0.834700  0.461400  1.0  -0.155
  C  C169  1  0.027160  0.832460  0.390720  1.0  0.1338
  C  C170  1  0.211250  0.663650  0.524550  1.0  0.6457
  C  C171  1  0.408610  0.534610  0.245370  1.0  0.4605
  C  C172  1  0.477480  0.441680  0.249060  1.0  -0.2138
  C  C173  1  0.485500  0.395900  0.205800  1.0  -0.0766
  C  C174  1  0.420000  0.436700  0.164100  1.0  -0.1579
  C  C175  1  0.356600  0.525500  0.163800  1.0  0.15
  C  C176  1  0.544060  0.395660  0.294720  1.0  0.6898
  C  C177  1  0.711290  0.710290  0.408630  1.0  0.547
  C  C178  1  0.715940  0.659640  0.479580  1.0  -0.1705
  C  C179  1  0.777000  0.665000  0.504900  1.0  -0.0458
  C  C180  1  0.834700  0.710400  0.461400  1.0  -0.152
  C  C181  1  0.832460  0.749660  0.390720  1.0  0.1312
  C  C182  1  0.663650  0.600550  0.524550  1.0  0.6437
  C  C183  1  0.534610  0.811410  0.245370  1.0  0.4552
  C  C184  1  0.441680  0.831780  0.249060  1.0  -0.2158
  C  C185  1  0.395900  0.912800  0.205800  1.0  -0.0753
  C  C186  1  0.436700  0.979200  0.164100  1.0  -0.1574
  C  C187  1  0.525500  0.954100  0.163800  1.0  0.1496
  C  C188  1  0.395660  0.765560  0.294720  1.0  0.6837
  C  C189  1  0.710290  0.169790  0.408630  1.0  0.5477
  C  C190  1  0.659640  0.144840  0.479580  1.0  -0.1712
  C  C191  1  0.665000  0.053100  0.504900  1.0  -0.042
  C  C192  1  0.710400  0.993500  0.461400  1.0  -0.1562
  C  C193  1  0.749660  0.027160  0.390720  1.0  0.1306
  C  C194  1  0.600550  0.211250  0.524550  1.0  0.6456
  C  C195  1  0.811410  0.408610  0.245370  1.0  0.4561
  C  C196  1  0.831780  0.477480  0.249060  1.0  -0.2183
  C  C197  1  0.912800  0.485500  0.205800  1.0  -0.0709
  C  C198  1  0.979200  0.420000  0.164100  1.0  -0.1557
  C  C199  1  0.954100  0.356600  0.163800  1.0  0.1505
  C  C200  1  0.765560  0.544060  0.294720  1.0  0.686
  C  C201  1  0.330210  0.789710  0.091370  1.0  0.5467
  C  C202  1  0.355160  0.840360  0.020420  1.0  -0.172
  C  C203  1  0.446900  0.835000  0.995100  1.0  -0.0411
  C  C204  1  0.506500  0.789600  0.038600  1.0  -0.1563
  C  C205  1  0.472840  0.750340  0.109280  1.0  0.131
  C  C206  1  0.288750  0.899450  0.975450  1.0  0.6447
  C  C207  1  0.091390  0.688590  0.254630  1.0  0.4568
  C  C208  1  0.022520  0.668220  0.250940  1.0  -0.2178
  C  C209  1  0.014500  0.587200  0.294200  1.0  -0.0718
  C  C210  1  0.080000  0.520800  0.335900  1.0  -0.1577
  C  C211  1  0.143400  0.545900  0.336200  1.0  0.1505
  C  C212  1  0.955940  0.734440  0.205280  1.0  0.6856
  C  C213  1  0.788710  0.330210  0.091370  1.0  0.5462
  C  C214  1  0.784060  0.355160  0.020420  1.0  -0.171
  C  C215  1  0.723000  0.446900  0.995100  1.0  -0.0441
  C  C216  1  0.665300  0.506500  0.038600  1.0  -0.1543
  C  C217  1  0.667540  0.472840  0.109280  1.0  0.1332
  C  C218  1  0.836350  0.288750  0.975450  1.0  0.6446
  C  C219  1  0.965390  0.091390  0.254630  1.0  0.4592
  C  C220  1  0.058320  0.022520  0.250940  1.0  -0.216
  C  C221  1  0.104100  0.014500  0.294200  1.0  -0.0713
  C  C222  1  0.063300  0.080000  0.335900  1.0  -0.1578
  C  C223  1  0.974500  0.143400  0.336200  1.0  0.149
  C  C224  1  0.104340  0.955940  0.205280  1.0  0.6908
  C  C225  1  0.789710  0.788710  0.091370  1.0  0.5491
  C  C226  1  0.840360  0.784060  0.020420  1.0  -0.1726
  C  C227  1  0.835000  0.723000  0.995100  1.0  -0.0468
  C  C228  1  0.789600  0.665300  0.038600  1.0  -0.1539
  C  C229  1  0.750340  0.667540  0.109280  1.0  0.1313
  C  C230  1  0.899450  0.836350  0.975450  1.0  0.642
  C  C231  1  0.688590  0.965390  0.254630  1.0  0.4568
  C  C232  1  0.668220  0.058320  0.250940  1.0  -0.2166
  C  C233  1  0.587200  0.104100  0.294200  1.0  -0.0774
  C  C234  1  0.520800  0.063300  0.335900  1.0  -0.156
  C  C235  1  0.545900  0.974500  0.336200  1.0  0.1513
  C  C236  1  0.734440  0.104340  0.205280  1.0  0.6832
  N  N237  1  0.886460  0.228160  0.635920  1.0  -0.4216
  N  N238  1  0.651600  0.425900  0.796300  1.0  -0.4192
  N  N239  1  0.228160  0.249460  0.635920  1.0  -0.4228
  N  N240  1  0.425900  0.126200  0.796300  1.0  -0.4139
  N  N241  1  0.249460  0.886460  0.635920  1.0  -0.4213
  N  N242  1  0.126200  0.651600  0.796300  1.0  -0.4177
  N  N243  1  0.613540  0.250540  0.864080  1.0  -0.4212
  N  N244  1  0.848400  0.373800  0.703700  1.0  -0.4156
  N  N245  1  0.271840  0.613540  0.864080  1.0  -0.4226
  N  N246  1  0.074100  0.848400  0.703700  1.0  -0.4172
  N  N247  1  0.250540  0.271840  0.864080  1.0  -0.4224
  N  N248  1  0.373800  0.074100  0.703700  1.0  -0.4198
  N  N249  1  0.113540  0.771840  0.364080  1.0  -0.4225
  N  N250  1  0.348400  0.574100  0.203700  1.0  -0.4198
  N  N251  1  0.771840  0.750540  0.364080  1.0  -0.4233
  N  N252  1  0.574100  0.873800  0.203700  1.0  -0.4143
  N  N253  1  0.750540  0.113540  0.364080  1.0  -0.4208
  N  N254  1  0.873800  0.348400  0.203700  1.0  -0.4173
  N  N255  1  0.386460  0.749460  0.135920  1.0  -0.4213
  N  N256  1  0.151600  0.626200  0.296300  1.0  -0.4134
  N  N257  1  0.728160  0.386460  0.135920  1.0  -0.423
  N  N258  1  0.925900  0.151600  0.296300  1.0  -0.4167
  N  N259  1  0.749460  0.728160  0.135920  1.0  -0.4204
  N  N260  1  0.626200  0.925900  0.296300  1.0  -0.4196
  O  O261  1  0.701760  0.386060  0.500620  1.0  -0.7826
  O  O262  1  0.814610  0.328710  0.413470  1.0  -0.6699
  O  O263  1  0.753000  0.347600  0.620500  1.0  -0.7736
  O  O264  1  0.468100  0.566000  0.658900  1.0  -0.7624
  O  O265  1  0.390430  0.679430  0.714910  1.0  -0.6694
  O  O266  1  0.604610  0.409510  0.720970  1.0  -0.7636
  O  O267  1  0.386060  0.411560  0.500620  1.0  -0.784
  O  O268  1  0.328710  0.443210  0.413470  1.0  -0.6707
  O  O269  1  0.347600  0.278900  0.620500  1.0  -0.7724
  O  O270  1  0.566000  0.307000  0.658900  1.0  -0.7251
  O  O271  1  0.679430  0.215230  0.714910  1.0  -0.6663
  O  O272  1  0.409510  0.264910  0.720970  1.0  -0.7606
  O  O273  1  0.411560  0.701760  0.500620  1.0  -0.785
  O  O274  1  0.443210  0.814610  0.413470  1.0  -0.6695
  O  O275  1  0.278900  0.753000  0.620500  1.0  -0.7726
  O  O276  1  0.307000  0.468100  0.658900  1.0  -0.725
  O  O277  1  0.215230  0.390430  0.714910  1.0  -0.6669
  O  O278  1  0.264910  0.604610  0.720970  1.0  -0.7592
  O  O279  1  0.798240  0.088440  0.999380  1.0  -0.7834
  O  O280  1  0.685390  0.056790  0.086530  1.0  -0.6701
  O  O281  1  0.747000  0.221100  0.879500  1.0  -0.771
  O  O282  1  0.031900  0.193000  0.841100  1.0  -0.7271
  O  O283  1  0.109570  0.284770  0.785090  1.0  -0.6682
  O  O284  1  0.895390  0.235090  0.779030  1.0  -0.7632
  O  O285  1  0.113940  0.798240  0.999380  1.0  -0.7837
  O  O286  1  0.171290  0.685390  0.086530  1.0  -0.6683
  O  O287  1  0.152400  0.747000  0.879500  1.0  -0.7723
  O  O288  1  0.934000  0.031900  0.841100  1.0  -0.7624
  O  O289  1  0.820570  0.109570  0.785090  1.0  -0.6673
  O  O290  1  0.090490  0.895390  0.779030  1.0  -0.7632
  O  O291  1  0.088440  0.113940  0.999380  1.0  -0.7848
  O  O292  1  0.056790  0.171290  0.086530  1.0  -0.6713
  O  O293  1  0.221100  0.152400  0.879500  1.0  -0.7715
  O  O294  1  0.193000  0.934000  0.841100  1.0  -0.7254
  O  O295  1  0.284770  0.820570  0.785090  1.0  -0.6686
  O  O296  1  0.235090  0.090490  0.779030  1.0  -0.763
  O  O297  1  0.298240  0.613940  0.499380  1.0  -0.7831
  O  O298  1  0.185390  0.671290  0.586530  1.0  -0.6691
  O  O299  1  0.247000  0.652400  0.379500  1.0  -0.7725
  O  O300  1  0.531900  0.434000  0.341100  1.0  -0.7627
  O  O301  1  0.609570  0.320570  0.285090  1.0  -0.6696
  O  O302  1  0.395390  0.590490  0.279030  1.0  -0.7629
  O  O303  1  0.613940  0.588440  0.499380  1.0  -0.7849
  O  O304  1  0.671290  0.556790  0.586530  1.0  -0.6702
  O  O305  1  0.652400  0.721100  0.379500  1.0  -0.7733
  O  O306  1  0.434000  0.693000  0.341100  1.0  -0.7268
  O  O307  1  0.320570  0.784770  0.285090  1.0  -0.6677
  O  O308  1  0.590490  0.735090  0.279030  1.0  -0.7633
  O  O309  1  0.588440  0.298240  0.499380  1.0  -0.7837
  O  O310  1  0.556790  0.185390  0.586530  1.0  -0.6693
  O  O311  1  0.721100  0.247000  0.379500  1.0  -0.7725
  O  O312  1  0.693000  0.531900  0.341100  1.0  -0.724
  O  O313  1  0.784770  0.609570  0.285090  1.0  -0.6688
  O  O314  1  0.735090  0.395390  0.279030  1.0  -0.7595
  O  O315  1  0.201760  0.911560  0.000620  1.0  -0.7809
  O  O316  1  0.314610  0.943210  0.913470  1.0  -0.6694
  O  O317  1  0.253000  0.778900  0.120500  1.0  -0.7709
  O  O318  1  0.968100  0.807000  0.158900  1.0  -0.7255
  O  O319  1  0.890430  0.715230  0.214910  1.0  -0.6667
  O  O320  1  0.104610  0.764910  0.220970  1.0  -0.7618
  O  O321  1  0.886060  0.201760  0.000620  1.0  -0.7857
  O  O322  1  0.828710  0.314610  0.913470  1.0  -0.6694
  O  O323  1  0.847600  0.253000  0.120500  1.0  -0.7722
  O  O324  1  0.066000  0.968100  0.158900  1.0  -0.7618
  O  O325  1  0.179430  0.890430  0.214910  1.0  -0.6685
  O  O326  1  0.909510  0.104610  0.220970  1.0  -0.7618
  O  O327  1  0.911560  0.886060  0.000620  1.0  -0.7845
  O  O328  1  0.943210  0.828710  0.913470  1.0  -0.6711
  O  O329  1  0.778900  0.847600  0.120500  1.0  -0.7724
  O  O330  1  0.807000  0.066000  0.158900  1.0  -0.7267
  O  O331  1  0.715230  0.179430  0.214910  1.0  -0.6686
  O  O332  1  0.764910  0.909510  0.220970  1.0  -0.7622
  O  O333  1  0.477610  0.477610  0.567170  1.0  -0.743
  O  O334  1  0.022390  0.022390  0.932830  1.0  -0.7411
  O  O335  1  0.522390  0.522390  0.432830  1.0  -0.7411
  O  O336  1  0.977610  0.977610  0.067170  1.0  -0.743
