# generated using pymatgen
data_Gd9H37C72(N6O19)2
_symmetry_space_group_name_H-M   'P 1'
_cell_length_a   17.01510000
_cell_length_b   17.01510000
_cell_length_c   21.16250000
_cell_angle_alpha   66.29600000
_cell_angle_beta   66.29600000
_cell_angle_gamma   60.00000000
_symmetry_Int_Tables_number   1
_chemical_formula_structural   Gd9H37C72(N6O19)2
_chemical_formula_sum   'Gd18 H74 C144 N24 O76'
_cell_volume   4699.67003084
_cell_formula_units_Z   2
loop_
 _symmetry_equiv_pos_site_id
 _symmetry_equiv_pos_as_xyz
  1  'x, y, z'
loop_
 _atom_site_type_symbol
 _atom_site_label
 _atom_site_symmetry_multiplicity
 _atom_site_fract_x
 _atom_site_fract_y
 _atom_site_fract_z
 _atom_site_occupancy
 _atom_site_charge
  Gd  Gd1  1  0.154700  0.052500  0.896820  1.0  2.1685
  Gd  Gd2  1  0.052500  0.895980  0.896820  1.0  2.1688
  Gd  Gd3  1  0.895980  0.154700  0.896820  1.0  2.1679
  Gd  Gd4  1  0.345300  0.604020  0.603180  1.0  2.1684
  Gd  Gd5  1  0.447500  0.345300  0.603180  1.0  2.1691
  Gd  Gd6  1  0.604020  0.447500  0.603180  1.0  2.1677
  Gd  Gd7  1  0.845300  0.947500  0.103180  1.0  2.1684
  Gd  Gd8  1  0.947500  0.104020  0.103180  1.0  2.1679
  Gd  Gd9  1  0.104020  0.845300  0.103180  1.0  2.169
  Gd  Gd10  1  0.654700  0.395980  0.396820  1.0  2.1686
  Gd  Gd11  1  0.552500  0.654700  0.396820  1.0  2.1682
  Gd  Gd12  1  0.395980  0.552500  0.396820  1.0  2.1687
  Gd  Gd13  1  0.276130  0.223870  0.750000  1.0  2.1261
  Gd  Gd14  1  0.223870  0.750000  0.750000  1.0  2.1263
  Gd  Gd15  1  0.750000  0.276130  0.750000  1.0  2.1264
  Gd  Gd16  1  0.723870  0.776130  0.250000  1.0  2.1263
  Gd  Gd17  1  0.776130  0.250000  0.250000  1.0  2.1263
  Gd  Gd18  1  0.250000  0.723870  0.250000  1.0  2.1262
  H  H19  1  0.133300  0.281000  0.051900  1.0  0.0752
  H  H20  1  0.218800  0.370900  0.979300  1.0  0.0951
  H  H21  1  0.278600  0.372700  0.859900  1.0  0.0544
  H  H22  1  0.029000  0.430500  0.706600  1.0  0.0738
  H  H23  1  0.925400  0.535000  0.634900  1.0  0.1057
  H  H24  1  0.812100  0.497100  0.637300  1.0  0.0647
  H  H25  1  0.281000  0.533800  0.051900  1.0  0.0744
  H  H26  1  0.370900  0.431000  0.979300  1.0  0.0943
  H  H27  1  0.372700  0.488800  0.859900  1.0  0.0542
  H  H28  1  0.430500  0.833900  0.706600  1.0  0.0737
  H  H29  1  0.535000  0.904700  0.634900  1.0  0.1036
  H  H30  1  0.497100  0.053500  0.637300  1.0  0.0646
  H  H31  1  0.533800  0.133300  0.051900  1.0  0.0742
  H  H32  1  0.431000  0.218800  0.979300  1.0  0.0905
  H  H33  1  0.488800  0.278600  0.859900  1.0  0.0557
  H  H34  1  0.833900  0.029000  0.706600  1.0  0.0734
  H  H35  1  0.904700  0.925400  0.634900  1.0  0.1026
  H  H36  1  0.053500  0.812100  0.637300  1.0  0.0642
  H  H37  1  0.366700  0.966200  0.448100  1.0  0.0738
  H  H38  1  0.281200  0.069000  0.520700  1.0  0.0924
  H  H39  1  0.221400  0.011200  0.640100  1.0  0.0547
  H  H40  1  0.471000  0.666100  0.793400  1.0  0.0749
  H  H41  1  0.574600  0.595300  0.865100  1.0  0.1023
  H  H42  1  0.687900  0.446500  0.862700  1.0  0.0649
  H  H43  1  0.219000  0.366700  0.448100  1.0  0.0742
  H  H44  1  0.129100  0.281200  0.520700  1.0  0.0946
  H  H45  1  0.127300  0.221400  0.640100  1.0  0.0548
  H  H46  1  0.069500  0.471000  0.793400  1.0  0.0733
  H  H47  1  0.965000  0.574600  0.865100  1.0  0.1048
  H  H48  1  0.002900  0.687900  0.862700  1.0  0.0652
  H  H49  1  0.966200  0.219000  0.448100  1.0  0.074
  H  H50  1  0.069000  0.129100  0.520700  1.0  0.0925
  H  H51  1  0.011200  0.127300  0.640100  1.0  0.0545
  H  H52  1  0.666100  0.069500  0.793400  1.0  0.0737
  H  H53  1  0.595300  0.965000  0.865100  1.0  0.1049
  H  H54  1  0.446500  0.002900  0.862700  1.0  0.0645
  H  H55  1  0.866700  0.719000  0.948100  1.0  0.0747
  H  H56  1  0.781200  0.629100  0.020700  1.0  0.0942
  H  H57  1  0.721400  0.627300  0.140100  1.0  0.0543
  H  H58  1  0.971000  0.569500  0.293400  1.0  0.074
  H  H59  1  0.074600  0.465000  0.365100  1.0  0.1053
  H  H60  1  0.187900  0.502900  0.362700  1.0  0.0658
  H  H61  1  0.719000  0.466200  0.948100  1.0  0.0742
  H  H62  1  0.629100  0.569000  0.020700  1.0  0.094
  H  H63  1  0.627300  0.511200  0.140100  1.0  0.0542
  H  H64  1  0.569500  0.166100  0.293400  1.0  0.0735
  H  H65  1  0.465000  0.095300  0.365100  1.0  0.1044
  H  H66  1  0.502900  0.946500  0.362700  1.0  0.0641
  H  H67  1  0.466200  0.866700  0.948100  1.0  0.0736
  H  H68  1  0.569000  0.781200  0.020700  1.0  0.0939
  H  H69  1  0.511200  0.721400  0.140100  1.0  0.0555
  H  H70  1  0.166100  0.971000  0.293400  1.0  0.0734
  H  H71  1  0.095300  0.074600  0.365100  1.0  0.1025
  H  H72  1  0.946500  0.187900  0.362700  1.0  0.0644
  H  H73  1  0.633300  0.033800  0.551900  1.0  0.0739
  H  H74  1  0.718800  0.931000  0.479300  1.0  0.0922
  H  H75  1  0.778600  0.988800  0.359900  1.0  0.0551
  H  H76  1  0.529000  0.333900  0.206600  1.0  0.0747
  H  H77  1  0.425400  0.404700  0.134900  1.0  0.1019
  H  H78  1  0.312100  0.553500  0.137300  1.0  0.0644
  H  H79  1  0.781000  0.633300  0.551900  1.0  0.0747
  H  H80  1  0.870900  0.718800  0.479300  1.0  0.0956
  H  H81  1  0.872700  0.778600  0.359900  1.0  0.0546
  H  H82  1  0.930500  0.529000  0.206600  1.0  0.0728
  H  H83  1  0.035000  0.425400  0.134900  1.0  0.1046
  H  H84  1  0.997100  0.312100  0.137300  1.0  0.0654
  H  H85  1  0.033800  0.781000  0.551900  1.0  0.0743
  H  H86  1  0.931000  0.870900  0.479300  1.0  0.0922
  H  H87  1  0.988800  0.872700  0.359900  1.0  0.0545
  H  H88  1  0.333900  0.930500  0.206600  1.0  0.0742
  H  H89  1  0.404700  0.035000  0.134900  1.0  0.1053
  H  H90  1  0.553500  0.997100  0.137300  1.0  0.0639
  H  H91  1  0.000000  0.000000  0.000000  1.0  0.34
  H  H92  1  0.500000  0.500000  0.500000  1.0  0.34
  C  C93  1  0.209410  0.211810  0.908770  1.0  0.5296
  C  C94  1  0.160310  0.215610  0.979870  1.0  -0.145
  C  C95  1  0.163910  0.277310  0.005070  1.0  -0.0534
  C  C96  1  0.212230  0.333130  0.961510  1.0  -0.1451
  C  C97  1  0.250650  0.331250  0.890650  1.0  0.1473
  C  C98  1  0.099860  0.162760  0.025020  1.0  0.6507
  C  C99  1  0.908670  0.311170  0.745090  1.0  0.4275
  C  C100  1  0.977220  0.331220  0.749440  1.0  -0.2001
  C  C101  1  0.983280  0.415680  0.706660  1.0  -0.058
  C  C102  1  0.921600  0.478300  0.663700  1.0  -0.1365
  C  C103  1  0.854700  0.454500  0.664900  1.0  0.1335
  C  C104  1  0.044260  0.265560  0.794620  1.0  0.6871
  C  C105  1  0.211810  0.670010  0.908770  1.0  0.526
  C  C106  1  0.215610  0.644210  0.979870  1.0  -0.1472
  C  C107  1  0.277310  0.553710  0.005070  1.0  -0.0504
  C  C108  1  0.333130  0.493130  0.961510  1.0  -0.1461
  C  C109  1  0.331250  0.527450  0.890650  1.0  0.1495
  C  C110  1  0.162760  0.712360  0.025020  1.0  0.6534
  C  C111  1  0.311170  0.035070  0.745090  1.0  0.4289
  C  C112  1  0.331220  0.942120  0.749440  1.0  -0.2003
  C  C113  1  0.415680  0.894380  0.706660  1.0  -0.0577
  C  C114  1  0.478300  0.936400  0.663700  1.0  -0.1358
  C  C115  1  0.454500  0.025900  0.664900  1.0  0.1345
  C  C116  1  0.265560  0.895560  0.794620  1.0  0.6837
  C  C117  1  0.670010  0.209410  0.908770  1.0  0.5279
  C  C118  1  0.644210  0.160310  0.979870  1.0  -0.1444
  C  C119  1  0.553710  0.163910  0.005070  1.0  -0.0492
  C  C120  1  0.493130  0.212230  0.961510  1.0  -0.1468
  C  C121  1  0.527450  0.250650  0.890650  1.0  0.1472
  C  C122  1  0.712360  0.099860  0.025020  1.0  0.6522
  C  C123  1  0.035070  0.908670  0.745090  1.0  0.4301
  C  C124  1  0.942120  0.977220  0.749440  1.0  -0.1979
  C  C125  1  0.894380  0.983280  0.706660  1.0  -0.0544
  C  C126  1  0.936400  0.921600  0.663700  1.0  -0.1378
  C  C127  1  0.025900  0.854700  0.664900  1.0  0.1333
  C  C128  1  0.895560  0.044260  0.794620  1.0  0.6902
  C  C129  1  0.290590  0.829990  0.591230  1.0  0.5266
  C  C130  1  0.339690  0.855790  0.520130  1.0  -0.1447
  C  C131  1  0.336090  0.946290  0.494930  1.0  -0.0489
  C  C132  1  0.287770  0.006870  0.538490  1.0  -0.1454
  C  C133  1  0.249350  0.972550  0.609350  1.0  0.1468
  C  C134  1  0.400140  0.787640  0.474980  1.0  0.6517
  C  C135  1  0.591330  0.464930  0.754910  1.0  0.4321
  C  C136  1  0.522780  0.557880  0.750560  1.0  -0.1971
  C  C137  1  0.516720  0.605620  0.793340  1.0  -0.0599
  C  C138  1  0.578400  0.563600  0.836300  1.0  -0.1377
  C  C139  1  0.645300  0.474100  0.835100  1.0  0.1332
  C  C140  1  0.455740  0.604440  0.705380  1.0  0.6903
  C  C141  1  0.288190  0.290590  0.591230  1.0  0.5297
  C  C142  1  0.284390  0.339690  0.520130  1.0  -0.1449
  C  C143  1  0.222690  0.336090  0.494930  1.0  -0.0518
  C  C144  1  0.166870  0.287770  0.538490  1.0  -0.1436
  C  C145  1  0.168750  0.249350  0.609350  1.0  0.1485
  C  C146  1  0.337240  0.400140  0.474980  1.0  0.651
  C  C147  1  0.188830  0.591330  0.754910  1.0  0.428
  C  C148  1  0.168780  0.522780  0.750560  1.0  -0.2006
  C  C149  1  0.084320  0.516720  0.793340  1.0  -0.0562
  C  C150  1  0.021700  0.578400  0.836300  1.0  -0.1349
  C  C151  1  0.045500  0.645300  0.835100  1.0  0.1367
  C  C152  1  0.234440  0.455740  0.705380  1.0  0.687
  C  C153  1  0.829990  0.288190  0.591230  1.0  0.5265
  C  C154  1  0.855790  0.284390  0.520130  1.0  -0.1471
  C  C155  1  0.946290  0.222690  0.494930  1.0  -0.05
  C  C156  1  0.006870  0.166870  0.538490  1.0  -0.1459
  C  C157  1  0.972550  0.168750  0.609350  1.0  0.1501
  C  C158  1  0.787640  0.337240  0.474980  1.0  0.6515
  C  C159  1  0.464930  0.188830  0.754910  1.0  0.4285
  C  C160  1  0.557880  0.168780  0.750560  1.0  -0.2009
  C  C161  1  0.605620  0.084320  0.793340  1.0  -0.0577
  C  C162  1  0.563600  0.021700  0.836300  1.0  -0.1364
  C  C163  1  0.474100  0.045500  0.835100  1.0  0.1341
  C  C164  1  0.604440  0.234440  0.705380  1.0  0.6841
  C  C165  1  0.790590  0.788190  0.091230  1.0  0.5314
  C  C166  1  0.839690  0.784390  0.020130  1.0  -0.1469
  C  C167  1  0.836090  0.722690  0.994930  1.0  -0.0525
  C  C168  1  0.787770  0.666870  0.038490  1.0  -0.1455
  C  C169  1  0.749350  0.668750  0.109350  1.0  0.1476
  C  C170  1  0.900140  0.837240  0.974980  1.0  0.6501
  C  C171  1  0.091330  0.688830  0.254910  1.0  0.429
  C  C172  1  0.022780  0.668780  0.250560  1.0  -0.2018
  C  C173  1  0.016720  0.584320  0.293340  1.0  -0.0577
  C  C174  1  0.078400  0.521700  0.336300  1.0  -0.1379
  C  C175  1  0.145300  0.545500  0.335100  1.0  0.1343
  C  C176  1  0.955740  0.734440  0.205380  1.0  0.6866
  C  C177  1  0.788190  0.329990  0.091230  1.0  0.5257
  C  C178  1  0.784390  0.355790  0.020130  1.0  -0.1456
  C  C179  1  0.722690  0.446290  0.994930  1.0  -0.0508
  C  C180  1  0.666870  0.506870  0.038490  1.0  -0.1456
  C  C181  1  0.668750  0.472550  0.109350  1.0  0.1505
  C  C182  1  0.837240  0.287640  0.974980  1.0  0.6527
  C  C183  1  0.688830  0.964930  0.254910  1.0  0.4286
  C  C184  1  0.668780  0.057880  0.250560  1.0  -0.2003
  C  C185  1  0.584320  0.105620  0.293340  1.0  -0.0589
  C  C186  1  0.521700  0.063600  0.336300  1.0  -0.1372
  C  C187  1  0.545500  0.974100  0.335100  1.0  0.1346
  C  C188  1  0.734440  0.104440  0.205380  1.0  0.684
  C  C189  1  0.329990  0.790590  0.091230  1.0  0.5268
  C  C190  1  0.355790  0.839690  0.020130  1.0  -0.1453
  C  C191  1  0.446290  0.836090  0.994930  1.0  -0.0479
  C  C192  1  0.506870  0.787770  0.038490  1.0  -0.1474
  C  C193  1  0.472550  0.749350  0.109350  1.0  0.1479
  C  C194  1  0.287640  0.900140  0.974980  1.0  0.6515
  C  C195  1  0.964930  0.091330  0.254910  1.0  0.431
  C  C196  1  0.057880  0.022780  0.250560  1.0  -0.1971
  C  C197  1  0.105620  0.016720  0.293340  1.0  -0.0567
  C  C198  1  0.063600  0.078400  0.336300  1.0  -0.1377
  C  C199  1  0.974100  0.145300  0.335100  1.0  0.133
  C  C200  1  0.104440  0.955740  0.205380  1.0  0.6898
  C  C201  1  0.709410  0.170010  0.408770  1.0  0.5273
  C  C202  1  0.660310  0.144210  0.479870  1.0  -0.1465
  C  C203  1  0.663910  0.053710  0.505070  1.0  -0.0491
  C  C204  1  0.712230  0.993130  0.461510  1.0  -0.1472
  C  C205  1  0.750650  0.027450  0.390650  1.0  0.1468
  C  C206  1  0.599860  0.212360  0.525020  1.0  0.653
  C  C207  1  0.408670  0.535070  0.245090  1.0  0.4319
  C  C208  1  0.477220  0.442120  0.249440  1.0  -0.198
  C  C209  1  0.483280  0.394380  0.206660  1.0  -0.0594
  C  C210  1  0.421600  0.436400  0.163700  1.0  -0.1382
  C  C211  1  0.354700  0.525900  0.164900  1.0  0.1343
  C  C212  1  0.544260  0.395560  0.294620  1.0  0.6905
  C  C213  1  0.711810  0.709410  0.408770  1.0  0.5287
  C  C214  1  0.715610  0.660310  0.479870  1.0  -0.1441
  C  C215  1  0.777310  0.663910  0.505070  1.0  -0.0526
  C  C216  1  0.833130  0.712230  0.461510  1.0  -0.1439
  C  C217  1  0.831250  0.750650  0.390650  1.0  0.147
  C  C218  1  0.662760  0.599860  0.525020  1.0  0.6512
  C  C219  1  0.811170  0.408670  0.245090  1.0  0.4278
  C  C220  1  0.831220  0.477220  0.249440  1.0  -0.2001
  C  C221  1  0.915680  0.483280  0.206660  1.0  -0.0548
  C  C222  1  0.978300  0.421600  0.163700  1.0  -0.1345
  C  C223  1  0.954500  0.354700  0.164900  1.0  0.1344
  C  C224  1  0.765560  0.544260  0.294620  1.0  0.6862
  C  C225  1  0.170010  0.711810  0.408770  1.0  0.5264
  C  C226  1  0.144210  0.715610  0.479870  1.0  -0.1464
  C  C227  1  0.053710  0.777310  0.505070  1.0  -0.0502
  C  C228  1  0.993130  0.833130  0.461510  1.0  -0.1459
  C  C229  1  0.027450  0.831250  0.390650  1.0  0.1499
  C  C230  1  0.212360  0.662760  0.525020  1.0  0.6528
  C  C231  1  0.535070  0.811170  0.245090  1.0  0.4279
  C  C232  1  0.442120  0.831220  0.249440  1.0  -0.1991
  C  C233  1  0.394380  0.915680  0.206660  1.0  -0.0579
  C  C234  1  0.436400  0.978300  0.163700  1.0  -0.1379
  C  C235  1  0.525900  0.954500  0.164900  1.0  0.1337
  C  C236  1  0.395560  0.765560  0.294620  1.0  0.6838
  N  N237  1  0.249590  0.272990  0.864430  1.0  -0.4481
  N  N238  1  0.848010  0.373210  0.703870  1.0  -0.4035
  N  N239  1  0.272990  0.612990  0.864430  1.0  -0.4486
  N  N240  1  0.373210  0.074910  0.703870  1.0  -0.4064
  N  N241  1  0.612990  0.249590  0.864430  1.0  -0.4458
  N  N242  1  0.074910  0.848010  0.703870  1.0  -0.4056
  N  N243  1  0.250410  0.887010  0.635570  1.0  -0.4451
  N  N244  1  0.651990  0.425090  0.796130  1.0  -0.4063
  N  N245  1  0.227010  0.250410  0.635570  1.0  -0.4456
  N  N246  1  0.126790  0.651990  0.796130  1.0  -0.4047
  N  N247  1  0.887010  0.227010  0.635570  1.0  -0.4447
  N  N248  1  0.425090  0.126790  0.796130  1.0  -0.402
  N  N249  1  0.750410  0.727010  0.135570  1.0  -0.4451
  N  N250  1  0.151990  0.626790  0.296130  1.0  -0.4011
  N  N251  1  0.727010  0.387010  0.135570  1.0  -0.4454
  N  N252  1  0.626790  0.925090  0.296130  1.0  -0.4069
  N  N253  1  0.387010  0.750410  0.135570  1.0  -0.4447
  N  N254  1  0.925090  0.151990  0.296130  1.0  -0.4034
  N  N255  1  0.749590  0.112990  0.364430  1.0  -0.4453
  N  N256  1  0.348010  0.574910  0.203870  1.0  -0.4064
  N  N257  1  0.772990  0.749590  0.364430  1.0  -0.4487
  N  N258  1  0.873210  0.348010  0.203870  1.0  -0.4055
  N  N259  1  0.112990  0.772990  0.364430  1.0  -0.4471
  N  N260  1  0.574910  0.873210  0.203870  1.0  -0.4021
  O  O261  1  0.087640  0.113440  0.999880  1.0  -0.7937
  O  O262  1  0.055780  0.170680  0.087360  1.0  -0.6767
  O  O263  1  0.220500  0.151900  0.879700  1.0  -0.7816
  O  O264  1  0.032110  0.192810  0.841570  1.0  -0.8145
  O  O265  1  0.109890  0.284890  0.784930  1.0  -0.6747
  O  O266  1  0.896280  0.233980  0.778960  1.0  -0.7617
  O  O267  1  0.113440  0.799040  0.999880  1.0  -0.7922
  O  O268  1  0.170680  0.686180  0.087360  1.0  -0.6749
  O  O269  1  0.151900  0.747900  0.879700  1.0  -0.7812
  O  O270  1  0.192810  0.933510  0.841570  1.0  -0.8043
  O  O271  1  0.284890  0.820290  0.784930  1.0  -0.6743
  O  O272  1  0.233980  0.090780  0.778960  1.0  -0.7608
  O  O273  1  0.799040  0.087640  0.999880  1.0  -0.7925
  O  O274  1  0.686180  0.055780  0.087360  1.0  -0.6756
  O  O275  1  0.747900  0.220500  0.879700  1.0  -0.7809
  O  O276  1  0.933510  0.032110  0.841570  1.0  -0.7852
  O  O277  1  0.820290  0.109890  0.784930  1.0  -0.6738
  O  O278  1  0.090780  0.896280  0.778960  1.0  -0.7626
  O  O279  1  0.412360  0.700960  0.500120  1.0  -0.7935
  O  O280  1  0.444220  0.813820  0.412640  1.0  -0.6755
  O  O281  1  0.279500  0.752100  0.620300  1.0  -0.7829
  O  O282  1  0.467890  0.566490  0.658430  1.0  -0.785
  O  O283  1  0.390110  0.679710  0.715070  1.0  -0.6765
  O  O284  1  0.603720  0.409220  0.721040  1.0  -0.7614
  O  O285  1  0.386560  0.412360  0.500120  1.0  -0.7933
  O  O286  1  0.329320  0.444220  0.412640  1.0  -0.6764
  O  O287  1  0.348100  0.279500  0.620300  1.0  -0.7831
  O  O288  1  0.307190  0.467890  0.658430  1.0  -0.8127
  O  O289  1  0.215110  0.390110  0.715070  1.0  -0.6741
  O  O290  1  0.266020  0.603720  0.721040  1.0  -0.7585
  O  O291  1  0.700960  0.386560  0.500120  1.0  -0.7922
  O  O292  1  0.813820  0.329320  0.412640  1.0  -0.6756
  O  O293  1  0.752100  0.348100  0.620300  1.0  -0.7838
  O  O294  1  0.566490  0.307190  0.658430  1.0  -0.8034
  O  O295  1  0.679710  0.215110  0.715070  1.0  -0.6734
  O  O296  1  0.409220  0.266020  0.721040  1.0  -0.7596
  O  O297  1  0.912360  0.886560  0.000120  1.0  -0.793
  O  O298  1  0.944220  0.829320  0.912640  1.0  -0.6773
  O  O299  1  0.779500  0.848100  0.120300  1.0  -0.7824
  O  O300  1  0.967890  0.807190  0.158430  1.0  -0.8131
  O  O301  1  0.890110  0.715110  0.215070  1.0  -0.6737
  O  O302  1  0.103720  0.766020  0.221040  1.0  -0.7602
  O  O303  1  0.886560  0.200960  0.000120  1.0  -0.7938
  O  O304  1  0.829320  0.313820  0.912640  1.0  -0.6756
  O  O305  1  0.848100  0.252100  0.120300  1.0  -0.7824
  O  O306  1  0.807190  0.066490  0.158430  1.0  -0.8054
  O  O307  1  0.715110  0.179710  0.215070  1.0  -0.6744
  O  O308  1  0.766020  0.909220  0.221040  1.0  -0.7615
  O  O309  1  0.200960  0.912360  0.000120  1.0  -0.7912
  O  O310  1  0.313820  0.944220  0.912640  1.0  -0.6748
  O  O311  1  0.252100  0.779500  0.120300  1.0  -0.7815
  O  O312  1  0.066490  0.967890  0.158430  1.0  -0.7842
  O  O313  1  0.179710  0.890110  0.215070  1.0  -0.6745
  O  O314  1  0.909220  0.103720  0.221040  1.0  -0.7606
  O  O315  1  0.587640  0.299040  0.499880  1.0  -0.7923
  O  O316  1  0.555780  0.186180  0.587360  1.0  -0.6753
  O  O317  1  0.720500  0.247900  0.379700  1.0  -0.7815
  O  O318  1  0.532110  0.433510  0.341570  1.0  -0.7855
  O  O319  1  0.609890  0.320290  0.284930  1.0  -0.6753
  O  O320  1  0.396280  0.590780  0.278960  1.0  -0.7617
  O  O321  1  0.613440  0.587640  0.499880  1.0  -0.7935
  O  O322  1  0.670680  0.555780  0.587360  1.0  -0.6766
  O  O323  1  0.651900  0.720500  0.379700  1.0  -0.7823
  O  O324  1  0.692810  0.532110  0.341570  1.0  -0.8113
  O  O325  1  0.784890  0.609890  0.284930  1.0  -0.6746
  O  O326  1  0.733980  0.396280  0.278960  1.0  -0.7584
  O  O327  1  0.299040  0.613440  0.499880  1.0  -0.7929
  O  O328  1  0.186180  0.670680  0.587360  1.0  -0.6748
  O  O329  1  0.247900  0.651900  0.379700  1.0  -0.7826
  O  O330  1  0.433510  0.692810  0.341570  1.0  -0.8065
  O  O331  1  0.320290  0.784890  0.284930  1.0  -0.6743
  O  O332  1  0.590780  0.733980  0.278960  1.0  -0.7618
  O  O333  1  0.022440  0.022440  0.932680  1.0  -0.7729
  O  O334  1  0.477560  0.477560  0.567320  1.0  -0.7745
  O  O335  1  0.977560  0.977560  0.067320  1.0  -0.7745
  O  O336  1  0.522440  0.522440  0.432680  1.0  -0.7729
