# generated using pymatgen
data_DyH2C8NO6
_symmetry_space_group_name_H-M   'P 1'
_cell_length_a   6.88110000
_cell_length_b   18.35100000
_cell_length_c   18.40700000
_cell_angle_alpha   110.12000000
_cell_angle_beta   90.00000000
_cell_angle_gamma   90.00000000
_symmetry_Int_Tables_number   1
_chemical_formula_structural   DyH2C8NO6
_chemical_formula_sum   'Dy8 H16 C64 N8 O48'
_cell_volume   2182.50020135
_cell_formula_units_Z   8
loop_
 _symmetry_equiv_pos_site_id
 _symmetry_equiv_pos_as_xyz
  1  'x, y, z'
loop_
 _atom_site_type_symbol
 _atom_site_label
 _atom_site_symmetry_multiplicity
 _atom_site_fract_x
 _atom_site_fract_y
 _atom_site_fract_z
 _atom_site_occupancy
 _atom_site_charge
  Dy  Dy1  1  0.776880  0.626470  0.623050  1.0  2.2371
  Dy  Dy2  1  0.747530  0.624600  0.104140  1.0  2.2552
  Dy  Dy3  1  0.276880  0.873530  0.876950  1.0  2.2383
  Dy  Dy4  1  0.247530  0.875400  0.395860  1.0  2.2577
  Dy  Dy5  1  0.223120  0.373530  0.376950  1.0  2.2377
  Dy  Dy6  1  0.252470  0.375400  0.895860  1.0  2.2577
  Dy  Dy7  1  0.723120  0.126470  0.123050  1.0  2.2364
  Dy  Dy8  1  0.752470  0.124600  0.604140  1.0  2.2558
  H  H9  1  0.512800  0.625900  0.897700  1.0  0.1317
  H  H10  1  0.732200  0.416600  0.762600  1.0  0.1221
  H  H11  1  0.593000  0.726400  0.410500  1.0  0.12
  H  H12  1  0.798600  0.506600  0.331100  1.0  0.1094
  H  H13  1  0.012800  0.874100  0.602300  1.0  0.1317
  H  H14  1  0.232200  0.083400  0.737400  1.0  0.1222
  H  H15  1  0.093000  0.773600  0.089500  1.0  0.1202
  H  H16  1  0.298600  0.993400  0.168900  1.0  0.1094
  H  H17  1  0.487200  0.374100  0.102300  1.0  0.1317
  H  H18  1  0.267800  0.583400  0.237400  1.0  0.1223
  H  H19  1  0.407000  0.273600  0.589500  1.0  0.1201
  H  H20  1  0.201400  0.493400  0.668900  1.0  0.1094
  H  H21  1  0.987200  0.125900  0.397700  1.0  0.1314
  H  H22  1  0.767800  0.916600  0.262600  1.0  0.1223
  H  H23  1  0.907000  0.226400  0.910500  1.0  0.1199
  H  H24  1  0.701400  0.006600  0.831100  1.0  0.1094
  C  C25  1  0.587400  0.616500  0.789100  1.0  0.1615
  C  C26  1  0.566000  0.593300  0.851500  1.0  -0.0751
  C  C27  1  0.628200  0.517800  0.842800  1.0  -0.0588
  C  C28  1  0.698800  0.467700  0.769700  1.0  -0.0672
  C  C29  1  0.716300  0.495800  0.711100  1.0  0.1537
  C  C30  1  0.533500  0.697500  0.789500  1.0  0.7117
  C  C31  1  0.627100  0.492000  0.910800  1.0  0.8065
  C  C32  1  0.795600  0.450200  0.630200  1.0  0.6315
  C  C33  1  0.645500  0.680700  0.295300  1.0  0.1
  C  C34  1  0.636700  0.682600  0.370900  1.0  -0.0481
  C  C35  1  0.695600  0.616800  0.385400  1.0  -0.0185
  C  C36  1  0.762500  0.551900  0.322600  1.0  -0.0417
  C  C37  1  0.774100  0.555600  0.249100  1.0  0.1235
  C  C38  1  0.580000  0.747100  0.270900  1.0  0.7331
  C  C39  1  0.695600  0.616400  0.466600  1.0  0.6406
  C  C40  1  0.855000  0.490800  0.176000  1.0  0.6235
  C  C41  1  0.087400  0.883500  0.710900  1.0  0.158
  C  C42  1  0.066000  0.906700  0.648500  1.0  -0.0751
  C  C43  1  0.128200  0.982200  0.657200  1.0  -0.0573
  C  C44  1  0.198800  0.032300  0.730300  1.0  -0.0688
  C  C45  1  0.216300  0.004200  0.788900  1.0  0.1537
  C  C46  1  0.033500  0.802500  0.710500  1.0  0.7104
  C  C47  1  0.127100  0.008000  0.589200  1.0  0.805
  C  C48  1  0.295600  0.049800  0.869800  1.0  0.6332
  C  C49  1  0.145500  0.819300  0.204700  1.0  0.0999
  C  C50  1  0.136700  0.817400  0.129100  1.0  -0.0479
  C  C51  1  0.195600  0.883200  0.114600  1.0  -0.0208
  C  C52  1  0.262500  0.948100  0.177400  1.0  -0.042
  C  C53  1  0.274100  0.944400  0.250900  1.0  0.1233
  C  C54  1  0.080000  0.752900  0.229100  1.0  0.7412
  C  C55  1  0.195600  0.883600  0.033400  1.0  0.6404
  C  C56  1  0.355000  0.009200  0.324000  1.0  0.6234
  C  C57  1  0.412600  0.383500  0.210900  1.0  0.1581
  C  C58  1  0.434000  0.406700  0.148500  1.0  -0.0743
  C  C59  1  0.371800  0.482200  0.157200  1.0  -0.0578
  C  C60  1  0.301200  0.532300  0.230300  1.0  -0.0691
  C  C61  1  0.283700  0.504200  0.288900  1.0  0.1535
  C  C62  1  0.466500  0.302500  0.210500  1.0  0.7104
  C  C63  1  0.372900  0.508000  0.089200  1.0  0.8055
  C  C64  1  0.204400  0.549800  0.369800  1.0  0.633
  C  C65  1  0.354500  0.319300  0.704700  1.0  0.0999
  C  C66  1  0.363300  0.317400  0.629100  1.0  -0.0478
  C  C67  1  0.304400  0.383200  0.614600  1.0  -0.0205
  C  C68  1  0.237500  0.448100  0.677400  1.0  -0.042
  C  C69  1  0.225900  0.444400  0.750900  1.0  0.1231
  C  C70  1  0.420000  0.252900  0.729100  1.0  0.7401
  C  C71  1  0.304400  0.383600  0.533400  1.0  0.6402
  C  C72  1  0.145000  0.509200  0.824000  1.0  0.6219
  C  C73  1  0.912600  0.116500  0.289100  1.0  0.1614
  C  C74  1  0.934000  0.093300  0.351500  1.0  -0.0737
  C  C75  1  0.871800  0.017800  0.342800  1.0  -0.0589
  C  C76  1  0.801200  0.967700  0.269700  1.0  -0.0676
  C  C77  1  0.783700  0.995800  0.211100  1.0  0.1538
  C  C78  1  0.966500  0.197500  0.289500  1.0  0.7118
  C  C79  1  0.872900  0.992000  0.410800  1.0  0.8054
  C  C80  1  0.704400  0.950200  0.130200  1.0  0.6326
  C  C81  1  0.854500  0.180700  0.795300  1.0  0.1001
  C  C82  1  0.863300  0.182600  0.870900  1.0  -0.0467
  C  C83  1  0.804400  0.116800  0.885400  1.0  -0.0182
  C  C84  1  0.737500  0.051900  0.822600  1.0  -0.0423
  C  C85  1  0.725900  0.055600  0.749100  1.0  0.1233
  C  C86  1  0.920000  0.247100  0.770900  1.0  0.7322
  C  C87  1  0.804400  0.116400  0.966600  1.0  0.6408
  C  C88  1  0.645000  0.990800  0.676000  1.0  0.6232
  N  N89  1  0.668100  0.570200  0.720500  1.0  -0.5858
  N  N90  1  0.715300  0.618100  0.235400  1.0  -0.4899
  N  N91  1  0.168100  0.929800  0.779500  1.0  -0.5831
  N  N92  1  0.215300  0.881900  0.264600  1.0  -0.4886
  N  N93  1  0.331900  0.429800  0.279500  1.0  -0.5835
  N  N94  1  0.284700  0.381900  0.764600  1.0  -0.4894
  N  N95  1  0.831900  0.070200  0.220500  1.0  -0.5856
  N  N96  1  0.784700  0.118100  0.735400  1.0  -0.4898
  O  O97  1  0.425900  0.740930  0.841790  1.0  -0.6848
  O  O98  1  0.608100  0.714000  0.734490  1.0  -0.7351
  O  O99  1  0.684700  0.540140  0.974740  1.0  -0.7814
  O  O100  1  0.573900  0.421740  0.897910  1.0  -0.7369
  O  O101  1  0.818800  0.378310  0.608970  1.0  -0.5651
  O  O102  1  0.832500  0.490650  0.588580  1.0  -0.7368
  O  O103  1  0.510300  0.806990  0.323180  1.0  -0.7659
  O  O104  1  0.600200  0.737400  0.200050  1.0  -0.6854
  O  O105  1  0.714900  0.552730  0.476300  1.0  -0.6378
  O  O106  1  0.684000  0.681300  0.524510  1.0  -0.6836
  O  O107  1  0.914300  0.428260  0.180200  1.0  -0.5503
  O  O108  1  0.854500  0.506210  0.114660  1.0  -0.7138
  O  O109  1  0.925900  0.759070  0.658210  1.0  -0.6851
  O  O110  1  0.108100  0.786000  0.765510  1.0  -0.7369
  O  O111  1  0.184700  0.959860  0.525260  1.0  -0.7819
  O  O112  1  0.073900  0.078260  0.602090  1.0  -0.7355
  O  O113  1  0.318800  0.121690  0.891030  1.0  -0.5654
  O  O114  1  0.332500  0.009350  0.911420  1.0  -0.738
  O  O115  1  0.010300  0.693010  0.176820  1.0  -0.7656
  O  O116  1  0.100200  0.762600  0.299950  1.0  -0.6852
  O  O117  1  0.214900  0.947270  0.023700  1.0  -0.6394
  O  O118  1  0.184000  0.818700  0.975490  1.0  -0.6839
  O  O119  1  0.414300  0.071740  0.319800  1.0  -0.5509
  O  O120  1  0.354500  0.993790  0.385340  1.0  -0.7144
  O  O121  1  0.574100  0.259070  0.158210  1.0  -0.6844
  O  O122  1  0.391900  0.286000  0.265510  1.0  -0.7362
  O  O123  1  0.315300  0.459860  0.025260  1.0  -0.7809
  O  O124  1  0.426100  0.578260  0.102090  1.0  -0.7356
  O  O125  1  0.181200  0.621690  0.391030  1.0  -0.5655
  O  O126  1  0.167500  0.509350  0.411420  1.0  -0.7387
  O  O127  1  0.489700  0.193010  0.676820  1.0  -0.7667
  O  O128  1  0.399800  0.262600  0.799950  1.0  -0.6852
  O  O129  1  0.285100  0.447270  0.523700  1.0  -0.6386
  O  O130  1  0.316000  0.318700  0.475490  1.0  -0.6846
  O  O131  1  0.085700  0.571740  0.819800  1.0  -0.5498
  O  O132  1  0.145500  0.493790  0.885340  1.0  -0.7157
  O  O133  1  0.074100  0.240930  0.341790  1.0  -0.6836
  O  O134  1  0.891900  0.214000  0.234490  1.0  -0.735
  O  O135  1  0.815300  0.040140  0.474740  1.0  -0.781
  O  O136  1  0.926100  0.921740  0.397910  1.0  -0.7371
  O  O137  1  0.681200  0.878310  0.108970  1.0  -0.5656
  O  O138  1  0.667500  0.990650  0.088580  1.0  -0.7373
  O  O139  1  0.989700  0.306990  0.823180  1.0  -0.7671
  O  O140  1  0.899800  0.237400  0.700050  1.0  -0.6852
  O  O141  1  0.785100  0.052730  0.976300  1.0  -0.6369
  O  O142  1  0.816000  0.181300  0.024510  1.0  -0.6842
  O  O143  1  0.585700  0.928260  0.680200  1.0  -0.5499
  O  O144  1  0.645500  0.006210  0.614660  1.0  -0.7135
