# generated using pymatgen
data_Cu2(CN)3
_symmetry_space_group_name_H-M   'P 1'
_cell_length_a   13.50400000
_cell_length_b   7.44470000
_cell_length_c   8.20590000
_cell_angle_alpha   90.00000000
_cell_angle_beta   90.00000000
_cell_angle_gamma   90.00000000
_symmetry_Int_Tables_number   1
_chemical_formula_structural   Cu2(CN)3
_chemical_formula_sum   'Cu8 C12 N12'
_cell_volume   824.96562221
_cell_formula_units_Z   4
loop_
 _symmetry_equiv_pos_site_id
 _symmetry_equiv_pos_as_xyz
  1  'x, y, z'
loop_
 _atom_site_type_symbol
 _atom_site_label
 _atom_site_symmetry_multiplicity
 _atom_site_fract_x
 _atom_site_fract_y
 _atom_site_fract_z
 _atom_site_occupancy
 _atom_site_charge
  Cu  Cu1  1  0.435120  0.152080  0.037850  1.0  0.4937
  Cu  Cu2  1  0.066630  0.150930  0.145660  1.0  0.5203
  Cu  Cu3  1  0.564880  0.847920  0.537850  1.0  0.4947
  Cu  Cu4  1  0.933370  0.849070  0.645660  1.0  0.5195
  Cu  Cu5  1  0.935120  0.347920  0.037850  1.0  0.4933
  Cu  Cu6  1  0.566630  0.349070  0.145660  1.0  0.5203
  Cu  Cu7  1  0.064880  0.652080  0.537850  1.0  0.495
  Cu  Cu8  1  0.433370  0.650930  0.645660  1.0  0.5194
  C  C9  1  0.208900  0.170100  0.110700  1.0  0.0589
  C  C10  1  0.485500  0.421100  0.955100  1.0  -0.0064
  C  C11  1  0.483500  0.913600  0.736300  1.0  -0.0154
  C  C12  1  0.791100  0.829900  0.610700  1.0  0.059
  C  C13  1  0.514500  0.578900  0.455100  1.0  -0.0066
  C  C14  1  0.516500  0.086400  0.236300  1.0  -0.0142
  C  C15  1  0.708900  0.329900  0.110700  1.0  0.0589
  C  C16  1  0.985500  0.078900  0.955100  1.0  -0.0069
  C  C17  1  0.983500  0.586400  0.736300  1.0  -0.016
  C  C18  1  0.291100  0.670100  0.610700  1.0  0.0592
  C  C19  1  0.014500  0.921100  0.455100  1.0  -0.0062
  C  C20  1  0.016500  0.413600  0.236300  1.0  -0.0143
  N  N21  1  0.293000  0.168800  0.080400  1.0  -0.3238
  N  N22  1  0.459700  0.506400  0.846800  1.0  -0.3721
  N  N23  1  0.462800  0.999700  0.847600  1.0  -0.3565
  N  N24  1  0.707000  0.831200  0.580400  1.0  -0.3224
  N  N25  1  0.540300  0.493600  0.346800  1.0  -0.3712
  N  N26  1  0.537200  0.000300  0.347600  1.0  -0.3565
  N  N27  1  0.793000  0.331200  0.080400  1.0  -0.3243
  N  N28  1  0.959700  0.993600  0.846800  1.0  -0.3707
  N  N29  1  0.962800  0.500300  0.847600  1.0  -0.3563
  N  N30  1  0.207000  0.668800  0.580400  1.0  -0.3229
  N  N31  1  0.040300  0.006400  0.346800  1.0  -0.3724
  N  N32  1  0.037200  0.499700  0.347600  1.0  -0.3568
