# generated using pymatgen
data_Cu2(CN)3
_symmetry_space_group_name_H-M   'P 1'
_cell_length_a   12.84800000
_cell_length_b   13.37000000
_cell_length_c   13.96700000
_cell_angle_alpha   90.00000000
_cell_angle_beta   90.00000000
_cell_angle_gamma   90.00000000
_symmetry_Int_Tables_number   1
_chemical_formula_structural   Cu2(CN)3
_chemical_formula_sum   'Cu16 C24 N24'
_cell_volume   2399.21997392
_cell_formula_units_Z   8
loop_
 _symmetry_equiv_pos_site_id
 _symmetry_equiv_pos_as_xyz
  1  'x, y, z'
loop_
 _atom_site_type_symbol
 _atom_site_label
 _atom_site_symmetry_multiplicity
 _atom_site_fract_x
 _atom_site_fract_y
 _atom_site_fract_z
 _atom_site_occupancy
 _atom_site_charge
  Cu  Cu1  1  0.394720  0.186630  0.636280  1.0  0.5011
  Cu  Cu2  1  0.548510  0.050780  0.941700  1.0  0.4744
  Cu  Cu3  1  0.105280  0.813370  0.136280  1.0  0.5009
  Cu  Cu4  1  0.951490  0.949220  0.441700  1.0  0.4743
  Cu  Cu5  1  0.605280  0.686630  0.863720  1.0  0.5012
  Cu  Cu6  1  0.451490  0.550780  0.558300  1.0  0.4743
  Cu  Cu7  1  0.894720  0.313370  0.363720  1.0  0.5011
  Cu  Cu8  1  0.048510  0.449220  0.058300  1.0  0.4748
  Cu  Cu9  1  0.605280  0.813370  0.363720  1.0  0.501
  Cu  Cu10  1  0.451490  0.949220  0.058300  1.0  0.4746
  Cu  Cu11  1  0.894720  0.186630  0.863720  1.0  0.5012
  Cu  Cu12  1  0.048510  0.050780  0.558300  1.0  0.4746
  Cu  Cu13  1  0.394720  0.313370  0.136280  1.0  0.5009
  Cu  Cu14  1  0.548510  0.449220  0.441700  1.0  0.4743
  Cu  Cu15  1  0.105280  0.686630  0.636280  1.0  0.501
  Cu  Cu16  1  0.951490  0.550780  0.941700  1.0  0.4741
  C  C17  1  0.463950  0.131690  0.745390  1.0  0.0174
  C  C18  1  0.456860  0.393500  0.554530  1.0  0.0886
  C  C19  1  0.276990  0.126840  0.572200  1.0  0.0205
  C  C20  1  0.036050  0.868310  0.245390  1.0  0.0172
  C  C21  1  0.043140  0.606500  0.054530  1.0  0.0877
  C  C22  1  0.223010  0.873160  0.072200  1.0  0.0186
  C  C23  1  0.536050  0.631690  0.754610  1.0  0.0161
  C  C24  1  0.543140  0.893500  0.945470  1.0  0.0891
  C  C25  1  0.723010  0.626840  0.927800  1.0  0.0189
  C  C26  1  0.963950  0.368310  0.254610  1.0  0.0165
  C  C27  1  0.956860  0.106500  0.445470  1.0  0.0879
  C  C28  1  0.776990  0.373160  0.427800  1.0  0.0198
  C  C29  1  0.536050  0.868310  0.254610  1.0  0.0163
  C  C30  1  0.543140  0.606500  0.445470  1.0  0.0878
  C  C31  1  0.723010  0.873160  0.427800  1.0  0.0176
  C  C32  1  0.963950  0.131690  0.754610  1.0  0.0162
  C  C33  1  0.956860  0.393500  0.945470  1.0  0.0888
  C  C34  1  0.776990  0.126840  0.927800  1.0  0.0195
  C  C35  1  0.463950  0.368310  0.245390  1.0  0.0174
  C  C36  1  0.456860  0.106500  0.054530  1.0  0.0878
  C  C37  1  0.276990  0.373160  0.072200  1.0  0.0191
  C  C38  1  0.036050  0.631690  0.745390  1.0  0.0173
  C  C39  1  0.043140  0.893500  0.554530  1.0  0.0889
  C  C40  1  0.223010  0.626840  0.572200  1.0  0.018
  N  N41  1  0.494980  0.099730  0.817030  1.0  -0.3392
  N  N42  1  0.426830  0.322220  0.590890  1.0  -0.3754
  N  N43  1  0.195870  0.095340  0.553000  1.0  -0.3857
  N  N44  1  0.005020  0.900270  0.317030  1.0  -0.3376
  N  N45  1  0.073170  0.677780  0.090890  1.0  -0.3776
  N  N46  1  0.304130  0.904660  0.053000  1.0  -0.384
  N  N47  1  0.505020  0.599730  0.682970  1.0  -0.3375
  N  N48  1  0.573170  0.822220  0.909110  1.0  -0.3779
  N  N49  1  0.804130  0.595340  0.947000  1.0  -0.3832
  N  N50  1  0.994980  0.400270  0.182970  1.0  -0.338
  N  N51  1  0.926830  0.177780  0.409110  1.0  -0.3777
  N  N52  1  0.695870  0.404660  0.447000  1.0  -0.3847
  N  N53  1  0.505020  0.900270  0.182970  1.0  -0.3372
  N  N54  1  0.573170  0.677780  0.409110  1.0  -0.3784
  N  N55  1  0.804130  0.904660  0.447000  1.0  -0.3833
  N  N56  1  0.994980  0.099730  0.682970  1.0  -0.339
  N  N57  1  0.926830  0.322220  0.909110  1.0  -0.3771
  N  N58  1  0.695870  0.095340  0.947000  1.0  -0.3848
  N  N59  1  0.494980  0.400270  0.317030  1.0  -0.3379
  N  N60  1  0.426830  0.177780  0.090890  1.0  -0.3768
  N  N61  1  0.195870  0.404660  0.053000  1.0  -0.3851
  N  N62  1  0.005020  0.599730  0.817030  1.0  -0.3381
  N  N63  1  0.073170  0.822220  0.590890  1.0  -0.3764
  N  N64  1  0.304130  0.595340  0.553000  1.0  -0.3845
