# generated using pymatgen
data_Cu2(CN)3
_symmetry_space_group_name_H-M   'P 1'
_cell_length_a   16.21500000
_cell_length_b   13.97700000
_cell_length_c   14.17600000
_cell_angle_alpha   90.00000000
_cell_angle_beta   114.55500000
_cell_angle_gamma   90.00000000
_symmetry_Int_Tables_number   1
_chemical_formula_structural   Cu2(CN)3
_chemical_formula_sum   'Cu16 C24 N24'
_cell_volume   2922.24955114
_cell_formula_units_Z   8
loop_
 _symmetry_equiv_pos_site_id
 _symmetry_equiv_pos_as_xyz
  1  'x, y, z'
loop_
 _atom_site_type_symbol
 _atom_site_label
 _atom_site_symmetry_multiplicity
 _atom_site_fract_x
 _atom_site_fract_y
 _atom_site_fract_z
 _atom_site_occupancy
 _atom_site_charge
  Cu  Cu1  1  0.146830  0.810200  0.863840  1.0  0.5992
  Cu  Cu2  1  0.455120  0.954160  0.035510  1.0  0.4214
  Cu  Cu3  1  0.415630  0.286120  0.121910  1.0  0.4889
  Cu  Cu4  1  0.148150  0.453860  0.864200  1.0  0.5322
  Cu  Cu5  1  0.853170  0.310200  0.636160  1.0  0.5989
  Cu  Cu6  1  0.544880  0.454160  0.464490  1.0  0.4224
  Cu  Cu7  1  0.584370  0.786120  0.378090  1.0  0.4897
  Cu  Cu8  1  0.851850  0.953860  0.635800  1.0  0.5323
  Cu  Cu9  1  0.853170  0.189800  0.136160  1.0  0.5989
  Cu  Cu10  1  0.544880  0.045840  0.964490  1.0  0.4223
  Cu  Cu11  1  0.584370  0.713880  0.878090  1.0  0.4896
  Cu  Cu12  1  0.851850  0.546140  0.135800  1.0  0.5324
  Cu  Cu13  1  0.146830  0.689800  0.363840  1.0  0.5992
  Cu  Cu14  1  0.455120  0.545840  0.535510  1.0  0.4211
  Cu  Cu15  1  0.415630  0.213880  0.621910  1.0  0.4889
  Cu  Cu16  1  0.148150  0.046140  0.364200  1.0  0.5323
  C  C17  1  0.256300  0.878800  0.921300  1.0  0.0794
  C  C18  1  0.150000  0.591200  0.866200  1.0  0.0807
  C  C19  1  0.470700  0.099300  0.049300  1.0  1e-04
  C  C20  1  0.244200  0.377300  0.954600  1.0  0.073
  C  C21  1  0.528800  0.850700  0.252000  1.0  -0.0035
  C  C22  1  0.030700  0.863000  0.791200  1.0  -0.0077
  C  C23  1  0.743700  0.378800  0.578700  1.0  0.0769
  C  C24  1  0.850000  0.091200  0.633800  1.0  0.0801
  C  C25  1  0.529300  0.599300  0.450700  1.0  0.0009
  C  C26  1  0.755800  0.877300  0.545400  1.0  0.0718
  C  C27  1  0.471200  0.350700  0.248000  1.0  -0.0008
  C  C28  1  0.969300  0.363000  0.708800  1.0  -0.0073
  C  C29  1  0.743700  0.121200  0.078700  1.0  0.0769
  C  C30  1  0.850000  0.408800  0.133800  1.0  0.0789
  C  C31  1  0.529300  0.900700  0.950700  1.0  0.0016
  C  C32  1  0.755800  0.622700  0.045400  1.0  0.0721
  C  C33  1  0.471200  0.149300  0.748000  1.0  -0.0008
  C  C34  1  0.969300  0.137000  0.208800  1.0  -0.0073
  C  C35  1  0.256300  0.621200  0.421300  1.0  0.0796
  C  C36  1  0.150000  0.908800  0.366200  1.0  0.0796
  C  C37  1  0.470700  0.400700  0.549300  1.0  0.0007
  C  C38  1  0.244200  0.122700  0.454600  1.0  0.0732
  C  C39  1  0.528800  0.649300  0.752000  1.0  -0.004
  C  C40  1  0.030700  0.637000  0.291200  1.0  -0.0079
  N  N41  1  0.326100  0.917400  0.958500  1.0  -0.399
  N  N42  1  0.149700  0.673100  0.870400  1.0  -0.3961
  N  N43  1  0.451900  0.168900  0.079600  1.0  -0.3709
  N  N44  1  0.303300  0.333700  0.013300  1.0  -0.3875
  N  N45  1  0.501100  0.889000  0.170100  1.0  -0.3256
  N  N46  1  0.961200  0.894100  0.736600  1.0  -0.3852
  N  N47  1  0.673900  0.417400  0.541500  1.0  -0.3985
  N  N48  1  0.850300  0.173100  0.629600  1.0  -0.3957
  N  N49  1  0.548100  0.668900  0.420400  1.0  -0.3719
  N  N50  1  0.696700  0.833700  0.486700  1.0  -0.3867
  N  N51  1  0.498900  0.389000  0.329900  1.0  -0.3258
  N  N52  1  0.038800  0.394100  0.763400  1.0  -0.3855
  N  N53  1  0.673900  0.082600  0.041500  1.0  -0.3979
  N  N54  1  0.850300  0.326900  0.129600  1.0  -0.3957
  N  N55  1  0.548100  0.831100  0.920400  1.0  -0.3718
  N  N56  1  0.696700  0.666300  0.986700  1.0  -0.3866
  N  N57  1  0.498900  0.111000  0.829900  1.0  -0.326
  N  N58  1  0.038800  0.105900  0.263400  1.0  -0.3855
  N  N59  1  0.326100  0.582600  0.458500  1.0  -0.3984
  N  N60  1  0.149700  0.826900  0.370400  1.0  -0.396
  N  N61  1  0.451900  0.331100  0.579600  1.0  -0.3705
  N  N62  1  0.303300  0.166300  0.513300  1.0  -0.3876
  N  N63  1  0.501100  0.611000  0.670100  1.0  -0.3259
  N  N64  1  0.961200  0.605900  0.236600  1.0  -0.3852
