# generated using pymatgen
data_FeH2C7O5
_symmetry_space_group_name_H-M   'P 1'
_cell_length_a   8.67160000
_cell_length_b   8.67160000
_cell_length_c   10.86500000
_cell_angle_alpha   90.00000000
_cell_angle_beta   90.00000000
_cell_angle_gamma   120.00000000
_symmetry_Int_Tables_number   1
_chemical_formula_structural   FeH2C7O5
_chemical_formula_sum   'Fe3 H6 C21 O15'
_cell_volume   707.55277037
_cell_formula_units_Z   3
loop_
 _symmetry_equiv_pos_site_id
 _symmetry_equiv_pos_as_xyz
  1  'x, y, z'
loop_
 _atom_site_type_symbol
 _atom_site_label
 _atom_site_symmetry_multiplicity
 _atom_site_fract_x
 _atom_site_fract_y
 _atom_site_fract_z
 _atom_site_occupancy
 _atom_site_charge
  Fe  Fe1  1  0.941820  0.000000  0.500000  1.0  1.2689
  Fe  Fe2  1  0.058180  0.058180  0.166670  1.0  1.2688
  Fe  Fe3  1  0.000000  0.941820  0.833330  1.0  1.2688
  H  H4  1  0.390800  0.488200  0.490200  1.0  0.1415
  H  H5  1  0.097400  0.609200  0.156870  1.0  0.141
  H  H6  1  0.511800  0.902600  0.823530  1.0  0.1412
  H  H7  1  0.902600  0.511800  0.509800  1.0  0.1423
  H  H8  1  0.488200  0.390800  0.843130  1.0  0.1423
  H  H9  1  0.609200  0.097400  0.176470  1.0  0.1421
  C  C10  1  0.624600  0.685200  0.562500  1.0  0.2614
  C  C11  1  0.465100  0.524300  0.560900  1.0  -0.162
  C  C12  1  0.060600  0.375400  0.229170  1.0  0.2619
  C  C13  1  0.059200  0.534900  0.227570  1.0  -0.161
  C  C14  1  0.314800  0.939400  0.895830  1.0  0.2623
  C  C15  1  0.475700  0.940800  0.894230  1.0  -0.1602
  C  C16  1  0.939400  0.314800  0.437500  1.0  0.2611
  C  C17  1  0.940800  0.475700  0.439100  1.0  -0.1686
  C  C18  1  0.685200  0.624600  0.770830  1.0  0.2622
  C  C19  1  0.524300  0.465100  0.772430  1.0  -0.1668
  C  C20  1  0.375400  0.060600  0.104170  1.0  0.2607
  C  C21  1  0.534900  0.059200  0.105770  1.0  -0.1663
  C  C22  1  0.730600  0.730600  0.666667  1.0  0.1596
  C  C23  1  0.416400  0.416400  0.666667  1.0  -0.047
  C  C24  1  0.245300  0.245300  0.666667  1.0  0.7023
  C  C25  1  0.000000  0.269400  0.333333  1.0  0.1591
  C  C26  1  0.000000  0.583600  0.333333  1.0  -0.0466
  C  C27  1  0.000000  0.754700  0.333333  1.0  0.7026
  C  C28  1  0.269400  0.000000  0.000000  1.0  0.1592
  C  C29  1  0.583600  0.000000  0.000000  1.0  -0.0467
  C  C30  1  0.754700  0.000000  0.000000  1.0  0.7003
  O  O31  1  0.687100  0.807500  0.470300  1.0  -0.4773
  O  O32  1  0.189100  0.166400  0.564700  1.0  -0.5524
  O  O33  1  0.120400  0.312900  0.136970  1.0  -0.4748
  O  O34  1  0.977300  0.810900  0.231370  1.0  -0.5621
  O  O35  1  0.192500  0.879600  0.803630  1.0  -0.4757
  O  O36  1  0.833600  0.022700  0.898030  1.0  -0.5534
  O  O37  1  0.879600  0.192500  0.529700  1.0  -0.4766
  O  O38  1  0.022700  0.833600  0.435300  1.0  -0.5504
  O  O39  1  0.807500  0.687100  0.863030  1.0  -0.4741
  O  O40  1  0.166400  0.189100  0.768630  1.0  -0.5587
  O  O41  1  0.312900  0.120400  0.196370  1.0  -0.4768
  O  O42  1  0.810900  0.977300  0.101970  1.0  -0.5519
  O  O43  1  0.887400  0.887400  0.666667  1.0  -0.5009
  O  O44  1  0.000000  0.112600  0.333333  1.0  -0.4994
  O  O45  1  0.112600  0.000000  0.000000  1.0  -0.5
