# generated using pymatgen
data_Cd7H8C20(N7O9)2
_symmetry_space_group_name_H-M   'P 1'
_cell_length_a   11.17900000
_cell_length_b   11.17900000
_cell_length_c   17.06500000
_cell_angle_alpha   81.36430000
_cell_angle_beta   81.36430000
_cell_angle_gamma   84.91730000
_symmetry_Int_Tables_number   1
_chemical_formula_structural   Cd7H8C20(N7O9)2
_chemical_formula_sum   'Cd14 H16 C40 N28 O36'
_cell_volume   2079.76869142
_cell_formula_units_Z   2
loop_
 _symmetry_equiv_pos_site_id
 _symmetry_equiv_pos_as_xyz
  1  'x, y, z'
loop_
 _atom_site_type_symbol
 _atom_site_label
 _atom_site_symmetry_multiplicity
 _atom_site_fract_x
 _atom_site_fract_y
 _atom_site_fract_z
 _atom_site_occupancy
 _atom_site_charge
  Cd  Cd1  1  0.322330  0.225890  0.518000  1.0  0.9759
  Cd  Cd2  1  0.068030  0.429450  0.848970  1.0  1.0558
  Cd  Cd3  1  0.507280  0.021740  0.119940  1.0  0.8943
  Cd  Cd4  1  0.774110  0.677670  0.982000  1.0  0.9779
  Cd  Cd5  1  0.570550  0.931970  0.651030  1.0  1.0564
  Cd  Cd6  1  0.978260  0.492720  0.380060  1.0  0.8962
  Cd  Cd7  1  0.677670  0.774110  0.482000  1.0  0.9773
  Cd  Cd8  1  0.931970  0.570550  0.151030  1.0  1.0555
  Cd  Cd9  1  0.492720  0.978260  0.880060  1.0  0.8958
  Cd  Cd10  1  0.225890  0.322330  0.018000  1.0  0.9776
  Cd  Cd11  1  0.429450  0.068030  0.348970  1.0  1.0565
  Cd  Cd12  1  0.021740  0.507280  0.619940  1.0  0.8966
  Cd  Cd13  1  0.834040  0.165960  0.750000  1.0  1.0284
  Cd  Cd14  1  0.165960  0.834040  0.250000  1.0  1.0277
  H  H15  1  0.383200  0.481200  0.402800  1.0  0.0976
  H  H16  1  0.334800  0.521800  0.486500  1.0  0.0881
  H  H17  1  0.545500  0.331500  0.587700  1.0  0.0896
  H  H18  1  0.437400  0.428200  0.602800  1.0  0.0949
  H  H19  1  0.518800  0.616800  0.097200  1.0  0.0968
  H  H20  1  0.478200  0.665200  0.013500  1.0  0.0893
  H  H21  1  0.668500  0.454500  0.912300  1.0  0.0847
  H  H22  1  0.571800  0.562600  0.897200  1.0  0.0957
  H  H23  1  0.616800  0.518800  0.597200  1.0  0.0962
  H  H24  1  0.665200  0.478200  0.513500  1.0  0.0884
  H  H25  1  0.454500  0.668500  0.412300  1.0  0.0895
  H  H26  1  0.562600  0.571800  0.397200  1.0  0.0948
  H  H27  1  0.481200  0.383200  0.902800  1.0  0.0961
  H  H28  1  0.521800  0.334800  0.986500  1.0  0.0879
  H  H29  1  0.331500  0.545500  0.087700  1.0  0.0852
  H  H30  1  0.428200  0.437400  0.102800  1.0  0.0959
  C  C31  1  0.704000  0.215600  0.085500  1.0  0.6555
  C  C32  1  0.773000  0.196200  0.930900  1.0  0.0171
  C  C33  1  0.329000  0.185800  0.782800  1.0  -0.0128
  C  C34  1  0.705800  0.173200  0.006000  1.0  0.0101
  C  C35  1  0.407100  0.495100  0.452900  1.0  -0.0133
  C  C36  1  0.302400  0.216000  0.866700  1.0  0.6676
  C  C37  1  0.290400  0.227400  0.709100  1.0  -0.0195
  C  C38  1  0.879500  0.267100  0.898300  1.0  0.6367
  C  C39  1  0.505100  0.405500  0.564000  1.0  -0.0264
  C  C40  1  0.198200  0.323000  0.678100  1.0  0.6543
  C  C41  1  0.784400  0.296000  0.414500  1.0  0.6545
  C  C42  1  0.803800  0.227000  0.569100  1.0  0.0199
  C  C43  1  0.814200  0.671000  0.717200  1.0  -0.0131
  C  C44  1  0.826800  0.294200  0.494000  1.0  0.0078
  C  C45  1  0.504900  0.592900  0.047100  1.0  -0.015
  C  C46  1  0.784000  0.697600  0.633300  1.0  0.6667
  C  C47  1  0.772600  0.709600  0.790900  1.0  -0.0195
  C  C48  1  0.732900  0.120500  0.601700  1.0  0.6366
  C  C49  1  0.594500  0.494900  0.936000  1.0  -0.0226
  C  C50  1  0.677000  0.801800  0.821900  1.0  0.6534
  C  C51  1  0.296000  0.784400  0.914500  1.0  0.6558
  C  C52  1  0.227000  0.803800  0.069100  1.0  0.0191
  C  C53  1  0.671000  0.814200  0.217200  1.0  -0.0126
  C  C54  1  0.294200  0.826800  0.994000  1.0  0.0094
  C  C55  1  0.592900  0.504900  0.547100  1.0  -0.0123
  C  C56  1  0.697600  0.784000  0.133300  1.0  0.6678
  C  C57  1  0.709600  0.772600  0.290900  1.0  -0.0192
  C  C58  1  0.120500  0.732900  0.101700  1.0  0.6336
  C  C59  1  0.494900  0.594500  0.436000  1.0  -0.0249
  C  C60  1  0.801800  0.677000  0.321900  1.0  0.6561
  C  C61  1  0.215600  0.704000  0.585500  1.0  0.6526
  C  C62  1  0.196200  0.773000  0.430900  1.0  0.0183
  C  C63  1  0.185800  0.329000  0.282800  1.0  -0.013
  C  C64  1  0.173200  0.705800  0.506000  1.0  0.0073
  C  C65  1  0.495100  0.407100  0.952900  1.0  -0.0151
  C  C66  1  0.216000  0.302400  0.366700  1.0  0.6676
  C  C67  1  0.227400  0.290400  0.209100  1.0  -0.0191
  C  C68  1  0.267100  0.879500  0.398300  1.0  0.6344
  C  C69  1  0.405500  0.505100  0.064000  1.0  -0.0253
  C  C70  1  0.323000  0.198200  0.178100  1.0  0.6544
  N  N71  1  0.355900  0.163300  0.654600  1.0  -0.2348
  N  N72  1  0.631900  0.080700  0.923500  1.0  -0.0047
  N  N73  1  0.430400  0.084000  0.693800  1.0  -0.0174
  N  N74  1  0.458100  0.381500  0.492200  1.0  -0.2508
  N  N75  1  0.724300  0.138700  0.880700  1.0  -0.3065
  N  N76  1  0.416000  0.096400  0.770200  1.0  -0.177
  N  N77  1  0.618300  0.100700  0.999200  1.0  -0.2113
  N  N78  1  0.836700  0.644100  0.845400  1.0  -0.2341
  N  N79  1  0.919300  0.368100  0.576500  1.0  -0.0071
  N  N80  1  0.916000  0.569600  0.806200  1.0  -0.0184
  N  N81  1  0.618500  0.541900  0.007800  1.0  -0.2525
  N  N82  1  0.861300  0.275700  0.619300  1.0  -0.3079
  N  N83  1  0.903600  0.584000  0.729800  1.0  -0.1774
  N  N84  1  0.899300  0.381700  0.500800  1.0  -0.2088
  N  N85  1  0.644100  0.836700  0.345400  1.0  -0.2341
  N  N86  1  0.368100  0.919300  0.076500  1.0  -0.0044
  N  N87  1  0.569600  0.916000  0.306200  1.0  -0.0176
  N  N88  1  0.541900  0.618500  0.507800  1.0  -0.2513
  N  N89  1  0.275700  0.861300  0.119300  1.0  -0.3079
  N  N90  1  0.584000  0.903600  0.229800  1.0  -0.1808
  N  N91  1  0.381700  0.899300  0.000800  1.0  -0.2117
  N  N92  1  0.163300  0.355900  0.154600  1.0  -0.2335
  N  N93  1  0.080700  0.631900  0.423500  1.0  -0.0047
  N  N94  1  0.084000  0.430400  0.193800  1.0  -0.0166
  N  N95  1  0.381500  0.458100  0.992200  1.0  -0.2533
  N  N96  1  0.138700  0.724300  0.380700  1.0  -0.3059
  N  N97  1  0.096400  0.416000  0.270200  1.0  -0.1781
  N  N98  1  0.100700  0.618300  0.499200  1.0  -0.2099
  O  O99  1  0.637200  0.160600  0.143200  1.0  -0.5992
  O  O100  1  0.226300  0.300300  0.884200  1.0  -0.6292
  O  O101  1  0.121100  0.378500  0.723100  1.0  -0.5842
  O  O102  1  0.910800  0.283000  0.823400  1.0  -0.6397
  O  O103  1  0.361500  0.155300  0.917100  1.0  -0.587
  O  O104  1  0.761400  0.304400  0.089300  1.0  -0.5125
  O  O105  1  0.103710  0.486110  0.966230  1.0  -0.4621
  O  O106  1  0.201200  0.345600  0.602900  1.0  -0.6113
  O  O107  1  0.936000  0.311400  0.944000  1.0  -0.5524
  O  O108  1  0.839400  0.362800  0.356800  1.0  -0.595
  O  O109  1  0.699700  0.773700  0.615800  1.0  -0.6265
  O  O110  1  0.621500  0.878900  0.776900  1.0  -0.5865
  O  O111  1  0.717000  0.089200  0.676600  1.0  -0.6421
  O  O112  1  0.844700  0.638500  0.582900  1.0  -0.5856
  O  O113  1  0.695600  0.238600  0.410700  1.0  -0.5104
  O  O114  1  0.513890  0.896290  0.533770  1.0  -0.4621
  O  O115  1  0.654400  0.798800  0.897100  1.0  -0.6054
  O  O116  1  0.688600  0.064000  0.556000  1.0  -0.5594
  O  O117  1  0.362800  0.839400  0.856800  1.0  -0.6
  O  O118  1  0.773700  0.699700  0.115800  1.0  -0.6286
  O  O119  1  0.878900  0.621500  0.276900  1.0  -0.589
  O  O120  1  0.089200  0.717000  0.176600  1.0  -0.6396
  O  O121  1  0.638500  0.844700  0.082900  1.0  -0.5868
  O  O122  1  0.238600  0.695600  0.910700  1.0  -0.5132
  O  O123  1  0.896290  0.513890  0.033770  1.0  -0.4645
  O  O124  1  0.798800  0.654400  0.397100  1.0  -0.603
  O  O125  1  0.064000  0.688600  0.056000  1.0  -0.554
  O  O126  1  0.160600  0.637200  0.643200  1.0  -0.5966
  O  O127  1  0.300300  0.226300  0.384200  1.0  -0.626
  O  O128  1  0.378500  0.121100  0.223100  1.0  -0.5831
  O  O129  1  0.283000  0.910800  0.323400  1.0  -0.6417
  O  O130  1  0.155300  0.361500  0.417100  1.0  -0.5835
  O  O131  1  0.304400  0.761400  0.589300  1.0  -0.5098
  O  O132  1  0.486110  0.103710  0.466230  1.0  -0.4621
  O  O133  1  0.345600  0.201200  0.102900  1.0  -0.611
  O  O134  1  0.311400  0.936000  0.444000  1.0  -0.5539
