# generated using pymatgen
data_Cd3C8N6ClO8
_symmetry_space_group_name_H-M   'P 1'
_cell_length_a   9.31500000
_cell_length_b   13.20000000
_cell_length_c   15.45500000
_cell_angle_alpha   90.00000000
_cell_angle_beta   106.81600000
_cell_angle_gamma   90.00000000
_symmetry_Int_Tables_number   1
_chemical_formula_structural   Cd3C8N6ClO8
_chemical_formula_sum   'Cd12 C32 N24 Cl4 O32'
_cell_volume   1819.05600202
_cell_formula_units_Z   4
loop_
 _symmetry_equiv_pos_site_id
 _symmetry_equiv_pos_as_xyz
  1  'x, y, z'
loop_
 _atom_site_type_symbol
 _atom_site_label
 _atom_site_symmetry_multiplicity
 _atom_site_fract_x
 _atom_site_fract_y
 _atom_site_fract_z
 _atom_site_occupancy
 _atom_site_charge
  Cd  Cd1  1  0.571470  0.873760  0.110810  1.0  0.9938
  Cd  Cd2  1  0.644160  0.398740  0.438750  1.0  0.9823
  Cd  Cd3  1  0.744990  0.584030  0.256850  1.0  1.0041
  Cd  Cd4  1  0.928530  0.373760  0.889190  1.0  0.9953
  Cd  Cd5  1  0.855840  0.898740  0.561250  1.0  0.9832
  Cd  Cd6  1  0.755010  0.084030  0.743150  1.0  1.0046
  Cd  Cd7  1  0.428530  0.126240  0.889190  1.0  0.995
  Cd  Cd8  1  0.355840  0.601260  0.561250  1.0  0.9842
  Cd  Cd9  1  0.255010  0.415970  0.743150  1.0  1.0052
  Cd  Cd10  1  0.071470  0.626240  0.110810  1.0  0.9939
  Cd  Cd11  1  0.144160  0.101260  0.438750  1.0  0.9823
  Cd  Cd12  1  0.244990  0.915970  0.256850  1.0  1.0049
  C  C13  1  0.782300  0.892100  0.979200  1.0  0.0354
  C  C14  1  0.451200  0.706200  0.406300  1.0  0.0207
  C  C15  1  0.840800  0.803200  0.037600  1.0  0.6351
  C  C16  1  0.967800  0.926800  0.883500  1.0  0.5782
  C  C17  1  0.539500  0.774600  0.267100  1.0  0.6515
  C  C18  1  0.515500  0.703200  0.336100  1.0  0.0016
  C  C19  1  0.835100  0.940400  0.915300  1.0  0.0051
  C  C20  1  0.381600  0.788500  0.448100  1.0  0.6437
  C  C21  1  0.717700  0.392100  0.020800  1.0  0.0362
  C  C22  1  0.048800  0.206200  0.593700  1.0  0.0201
  C  C23  1  0.659200  0.303200  0.962400  1.0  0.6372
  C  C24  1  0.532200  0.426800  0.116500  1.0  0.5798
  C  C25  1  0.960500  0.274600  0.732900  1.0  0.6508
  C  C26  1  0.984500  0.203200  0.663900  1.0  0.0015
  C  C27  1  0.664900  0.440400  0.084700  1.0  0.0059
  C  C28  1  0.118400  0.288500  0.551900  1.0  0.6456
  C  C29  1  0.217700  0.107900  0.020800  1.0  0.0356
  C  C30  1  0.548800  0.293800  0.593700  1.0  0.0207
  C  C31  1  0.159200  0.196800  0.962400  1.0  0.6377
  C  C32  1  0.032200  0.073200  0.116500  1.0  0.5807
  C  C33  1  0.460500  0.225400  0.732900  1.0  0.6536
  C  C34  1  0.484500  0.296800  0.663900  1.0  0.0021
  C  C35  1  0.164900  0.059600  0.084700  1.0  0.0059
  C  C36  1  0.618400  0.211500  0.551900  1.0  0.6444
  C  C37  1  0.282300  0.607900  0.979200  1.0  0.0355
  C  C38  1  0.951200  0.793800  0.406300  1.0  0.0206
  C  C39  1  0.340800  0.696800  0.037600  1.0  0.6365
  C  C40  1  0.467800  0.573200  0.883500  1.0  0.5864
  C  C41  1  0.039500  0.725400  0.267100  1.0  0.6533
  C  C42  1  0.015500  0.796800  0.336100  1.0  0.0024
  C  C43  1  0.335100  0.559600  0.915300  1.0  0.0053
  C  C44  1  0.881600  0.711500  0.448100  1.0  0.6434
  N  N45  1  0.738300  0.016400  0.880400  1.0  -0.1956
  N  N46  1  0.630700  0.014300  0.921400  1.0  -0.0671
  N  N47  1  0.656600  0.939600  0.983300  1.0  -0.247
  N  N48  1  0.540500  0.556500  0.401000  1.0  -0.0525
  N  N49  1  0.570500  0.608800  0.335500  1.0  -0.1634
  N  N50  1  0.468700  0.614200  0.444700  1.0  -0.223
  N  N51  1  0.761700  0.516400  0.119600  1.0  -0.195
  N  N52  1  0.869300  0.514300  0.078600  1.0  -0.0706
  N  N53  1  0.843400  0.439600  0.016700  1.0  -0.2425
  N  N54  1  0.959500  0.056500  0.599000  1.0  -0.0457
  N  N55  1  0.929500  0.108800  0.664500  1.0  -0.1647
  N  N56  1  0.031300  0.114200  0.555300  1.0  -0.2255
  N  N57  1  0.261700  0.983600  0.119600  1.0  -0.1961
  N  N58  1  0.369300  0.985700  0.078600  1.0  -0.0701
  N  N59  1  0.343400  0.060400  0.016700  1.0  -0.2428
  N  N60  1  0.459500  0.443500  0.599000  1.0  -0.0456
  N  N61  1  0.429500  0.391200  0.664500  1.0  -0.1647
  N  N62  1  0.531300  0.385800  0.555300  1.0  -0.2265
  N  N63  1  0.238300  0.483600  0.880400  1.0  -0.1966
  N  N64  1  0.130700  0.485700  0.921400  1.0  -0.0677
  N  N65  1  0.156600  0.560400  0.983300  1.0  -0.2471
  N  N66  1  0.040500  0.943500  0.401000  1.0  -0.0533
  N  N67  1  0.070500  0.891200  0.335500  1.0  -0.1644
  N  N68  1  0.968700  0.885800  0.444700  1.0  -0.225
  Cl  Cl69  1  0.805420  0.401330  0.329890  1.0  -0.4658
  Cl  Cl70  1  0.694580  0.901330  0.670110  1.0  -0.4662
  Cl  Cl71  1  0.194580  0.598670  0.670110  1.0  -0.4656
  Cl  Cl72  1  0.305420  0.098670  0.329890  1.0  -0.4651
  O  O73  1  0.630500  0.746000  0.225200  1.0  -0.5832
  O  O74  1  0.472400  0.857500  0.250700  1.0  -0.5897
  O  O75  1  0.055100  0.850100  0.914000  1.0  -0.2928
  O  O76  1  0.949700  0.755700  0.021800  1.0  -0.4903
  O  O77  1  0.389300  0.877400  0.420700  1.0  -0.566
  O  O78  1  0.781100  0.779100  0.096400  1.0  -0.5271
  O  O79  1  0.995500  0.987500  0.830700  1.0  -0.5237
  O  O80  1  0.321600  0.763200  0.507400  1.0  -0.5679
  O  O81  1  0.869500  0.246000  0.774800  1.0  -0.5801
  O  O82  1  0.027600  0.357500  0.749300  1.0  -0.59
  O  O83  1  0.444900  0.350100  0.086000  1.0  -0.296
  O  O84  1  0.550300  0.255700  0.978200  1.0  -0.4906
  O  O85  1  0.110700  0.377400  0.579300  1.0  -0.5657
  O  O86  1  0.718900  0.279100  0.903600  1.0  -0.5304
  O  O87  1  0.504500  0.487500  0.169300  1.0  -0.5253
  O  O88  1  0.178400  0.263200  0.492600  1.0  -0.5695
  O  O89  1  0.369500  0.254000  0.774800  1.0  -0.5811
  O  O90  1  0.527600  0.142500  0.749300  1.0  -0.5883
  O  O91  1  0.944900  0.149900  0.086000  1.0  -0.2939
  O  O92  1  0.050300  0.244300  0.978200  1.0  -0.4893
  O  O93  1  0.610700  0.122600  0.579300  1.0  -0.571
  O  O94  1  0.218900  0.220900  0.903600  1.0  -0.5312
  O  O95  1  0.004500  0.012500  0.169300  1.0  -0.5277
  O  O96  1  0.678400  0.236800  0.492600  1.0  -0.5693
  O  O97  1  0.130500  0.754000  0.225200  1.0  -0.5851
  O  O98  1  0.972400  0.642500  0.250700  1.0  -0.5888
  O  O99  1  0.555100  0.649900  0.914000  1.0  -0.2909
  O  O100  1  0.449700  0.744300  0.021800  1.0  -0.4889
  O  O101  1  0.889300  0.622600  0.420700  1.0  -0.5717
  O  O102  1  0.281100  0.720900  0.096400  1.0  -0.5278
  O  O103  1  0.495500  0.512500  0.830700  1.0  -0.5246
  O  O104  1  0.821600  0.736800  0.507400  1.0  -0.5682
