# generated using pymatgen
data_CaCu6H27C24(N2O7)3
_symmetry_space_group_name_H-M   'P 1'
_cell_length_a   17.69430000
_cell_length_b   17.69430000
_cell_length_c   13.29210000
_cell_angle_alpha   90.00000000
_cell_angle_beta   90.00000000
_cell_angle_gamma   120.00000000
_symmetry_Int_Tables_number   1
_chemical_formula_structural   CaCu6H27C24(N2O7)3
_chemical_formula_sum   'Ca2 Cu12 H54 C48 N12 O42'
_cell_volume   3604.05163296
_cell_formula_units_Z   2
loop_
 _symmetry_equiv_pos_site_id
 _symmetry_equiv_pos_as_xyz
  1  'x, y, z'
loop_
 _atom_site_type_symbol
 _atom_site_label
 _atom_site_symmetry_multiplicity
 _atom_site_fract_x
 _atom_site_fract_y
 _atom_site_fract_z
 _atom_site_occupancy
 _atom_site_charge
  Ca  Ca1  1  0.333333  0.666667  0.556300  1.0  1.3846
  Ca  Ca2  1  0.666667  0.333333  0.056300  1.0  1.3846
  Cu  Cu3  1  0.133090  0.575260  0.680470  1.0  0.8822
  Cu  Cu4  1  0.133630  0.580250  0.430510  1.0  0.8623
  Cu  Cu5  1  0.424740  0.557830  0.680470  1.0  0.883
  Cu  Cu6  1  0.419750  0.553380  0.430510  1.0  0.8617
  Cu  Cu7  1  0.442170  0.866910  0.680470  1.0  0.8834
  Cu  Cu8  1  0.446620  0.866370  0.430510  1.0  0.8632
  Cu  Cu9  1  0.866910  0.424740  0.180470  1.0  0.8824
  Cu  Cu10  1  0.866370  0.419750  0.930510  1.0  0.8614
  Cu  Cu11  1  0.575260  0.442170  0.180470  1.0  0.8825
  Cu  Cu12  1  0.580250  0.446620  0.930510  1.0  0.8618
  Cu  Cu13  1  0.557830  0.133090  0.180470  1.0  0.8835
  Cu  Cu14  1  0.553380  0.133630  0.930510  1.0  0.8631
  H  H15  1  0.178000  0.685000  0.559000  1.0  0.4756
  H  H16  1  0.134400  0.420300  0.263600  1.0  0.0825
  H  H17  1  0.150700  0.515900  0.124200  1.0  0.1081
  H  H18  1  0.238500  0.512900  0.143100  1.0  0.1064
  H  H19  1  0.231000  0.594600  0.181600  1.0  0.1083
  H  H20  1  0.938700  0.666400  0.351800  1.0  0.1037
  H  H21  1  0.844700  0.654000  0.326700  1.0  0.1095
  H  H22  1  0.904200  0.650400  0.238200  1.0  0.1096
  H  H23  1  0.828800  0.520200  0.396700  1.0  0.0888
  H  H24  1  0.315000  0.493000  0.559000  1.0  0.4765
  H  H25  1  0.579700  0.714100  0.263600  1.0  0.0864
  H  H26  1  0.484100  0.634800  0.124200  1.0  0.1084
  H  H27  1  0.487100  0.725600  0.143100  1.0  0.1103
  H  H28  1  0.405400  0.636400  0.181600  1.0  0.1069
  H  H29  1  0.333600  0.272300  0.351800  1.0  0.1
  H  H30  1  0.346000  0.190700  0.326700  1.0  0.1127
  H  H31  1  0.349600  0.253800  0.238200  1.0  0.1089
  H  H32  1  0.479800  0.308600  0.396700  1.0  0.0891
  H  H33  1  0.507000  0.822000  0.559000  1.0  0.4759
  H  H34  1  0.285900  0.865600  0.263600  1.0  0.0839
  H  H35  1  0.365200  0.849300  0.124200  1.0  0.1089
  H  H36  1  0.274400  0.761500  0.143100  1.0  0.1095
  H  H37  1  0.363600  0.769000  0.181600  1.0  0.1087
  H  H38  1  0.727700  0.061300  0.351800  1.0  0.1036
  H  H39  1  0.809300  0.155300  0.326700  1.0  0.1143
  H  H40  1  0.746200  0.095800  0.238200  1.0  0.1109
  H  H41  1  0.691400  0.171200  0.396700  1.0  0.088
  H  H42  1  0.822000  0.315000  0.059000  1.0  0.4741
  H  H43  1  0.865600  0.579700  0.763600  1.0  0.0835
  H  H44  1  0.849300  0.484100  0.624200  1.0  0.1074
  H  H45  1  0.761500  0.487100  0.643100  1.0  0.1074
  H  H46  1  0.769000  0.405400  0.681600  1.0  0.1065
  H  H47  1  0.061300  0.333600  0.851800  1.0  0.1031
  H  H48  1  0.155300  0.346000  0.826700  1.0  0.1055
  H  H49  1  0.095800  0.349600  0.738200  1.0  0.1094
  H  H50  1  0.171200  0.479800  0.896700  1.0  0.0878
  H  H51  1  0.685000  0.507000  0.059000  1.0  0.4741
  H  H52  1  0.420300  0.285900  0.763600  1.0  0.0851
  H  H53  1  0.515900  0.365200  0.624200  1.0  0.109
  H  H54  1  0.512900  0.274400  0.643100  1.0  0.1082
  H  H55  1  0.594600  0.363600  0.681600  1.0  0.1081
  H  H56  1  0.666400  0.727700  0.851800  1.0  0.1021
  H  H57  1  0.654000  0.809300  0.826700  1.0  0.115
  H  H58  1  0.650400  0.746200  0.738200  1.0  0.1098
  H  H59  1  0.520200  0.691400  0.896700  1.0  0.0889
  H  H60  1  0.493000  0.178000  0.059000  1.0  0.4733
  H  H61  1  0.714100  0.134400  0.763600  1.0  0.0827
  H  H62  1  0.634800  0.150700  0.624200  1.0  0.109
  H  H63  1  0.725600  0.238500  0.643100  1.0  0.1103
  H  H64  1  0.636400  0.231000  0.681600  1.0  0.107
  H  H65  1  0.272300  0.938700  0.851800  1.0  0.1038
  H  H66  1  0.190700  0.844700  0.826700  1.0  0.1123
  H  H67  1  0.253800  0.904200  0.738200  1.0  0.1097
  H  H68  1  0.308600  0.828800  0.896700  1.0  0.0888
  C  C69  1  0.022600  0.482400  0.278200  1.0  0.5472
  C  C70  1  0.976200  0.522500  0.335200  1.0  0.5598
  C  C71  1  0.162400  0.484800  0.272900  1.0  0.0727
  C  C72  1  0.237700  0.515900  0.350600  1.0  0.665
  C  C73  1  0.199000  0.531300  0.171100  1.0  -0.3484
  C  C74  1  0.762400  0.488400  0.259100  1.0  0.6545
  C  C75  1  0.887000  0.635900  0.308800  1.0  -0.3433
  C  C76  1  0.844700  0.535000  0.324300  1.0  0.0561
  C  C77  1  0.517600  0.540200  0.278200  1.0  0.5467
  C  C78  1  0.477500  0.453700  0.335200  1.0  0.5602
  C  C79  1  0.515200  0.677600  0.272900  1.0  0.0731
  C  C80  1  0.484100  0.721800  0.350600  1.0  0.6651
  C  C81  1  0.468700  0.667700  0.171100  1.0  -0.3475
  C  C82  1  0.511600  0.274000  0.259100  1.0  0.6575
  C  C83  1  0.364100  0.251100  0.308800  1.0  -0.3484
  C  C84  1  0.465000  0.309700  0.324300  1.0  0.056
  C  C85  1  0.459800  0.977400  0.278200  1.0  0.5455
  C  C86  1  0.546300  0.023800  0.335200  1.0  0.5601
  C  C87  1  0.322400  0.837600  0.272900  1.0  0.0726
  C  C88  1  0.278200  0.762300  0.350600  1.0  0.6639
  C  C89  1  0.332300  0.801000  0.171100  1.0  -0.3484
  C  C90  1  0.726000  0.237600  0.259100  1.0  0.6564
  C  C91  1  0.748900  0.113000  0.308800  1.0  -0.3505
  C  C92  1  0.690300  0.155300  0.324300  1.0  0.0557
  C  C93  1  0.977400  0.517600  0.778200  1.0  0.5466
  C  C94  1  0.023800  0.477500  0.835200  1.0  0.5597
  C  C95  1  0.837600  0.515200  0.772900  1.0  0.0719
  C  C96  1  0.762300  0.484100  0.850600  1.0  0.6644
  C  C97  1  0.801000  0.468700  0.671100  1.0  -0.3475
  C  C98  1  0.237600  0.511600  0.759100  1.0  0.6552
  C  C99  1  0.113000  0.364100  0.808800  1.0  -0.3468
  C  C100  1  0.155300  0.465000  0.824300  1.0  0.056
  C  C101  1  0.482400  0.459800  0.778200  1.0  0.5465
  C  C102  1  0.522500  0.546300  0.835200  1.0  0.5599
  C  C103  1  0.484800  0.322400  0.772900  1.0  0.0715
  C  C104  1  0.515900  0.278200  0.850600  1.0  0.6651
  C  C105  1  0.531300  0.332300  0.671100  1.0  -0.3483
  C  C106  1  0.488400  0.726000  0.759100  1.0  0.6585
  C  C107  1  0.635900  0.748900  0.808800  1.0  -0.3508
  C  C108  1  0.535000  0.690300  0.824300  1.0  0.0547
  C  C109  1  0.540200  0.022600  0.778200  1.0  0.5462
  C  C110  1  0.453700  0.976200  0.835200  1.0  0.5594
  C  C111  1  0.677600  0.162400  0.772900  1.0  0.0731
  C  C112  1  0.721800  0.237700  0.850600  1.0  0.6615
  C  C113  1  0.667700  0.199000  0.671100  1.0  -0.3468
  C  C114  1  0.274000  0.762400  0.759100  1.0  0.6582
  C  C115  1  0.251100  0.887000  0.808800  1.0  -0.3497
  C  C116  1  0.309700  0.844700  0.824300  1.0  0.0566
  N  N117  1  0.902900  0.503700  0.293200  1.0  -0.3506
  N  N118  1  0.099300  0.505900  0.315000  1.0  -0.3524
  N  N119  1  0.496300  0.399200  0.293200  1.0  -0.3544
  N  N120  1  0.494100  0.593400  0.315000  1.0  -0.3526
  N  N121  1  0.600800  0.097100  0.293200  1.0  -0.3489
  N  N122  1  0.406600  0.900700  0.315000  1.0  -0.3531
  N  N123  1  0.097100  0.496300  0.793200  1.0  -0.3513
  N  N124  1  0.900700  0.494100  0.815000  1.0  -0.3517
  N  N125  1  0.503700  0.600800  0.793200  1.0  -0.3526
  N  N126  1  0.505900  0.406600  0.815000  1.0  -0.3512
  N  N127  1  0.399200  0.902900  0.793200  1.0  -0.3501
  N  N128  1  0.593400  0.099300  0.815000  1.0  -0.352
  O  O129  1  0.172440  0.638460  0.557500  1.0  -0.9691
  O  O130  1  0.984900  0.433600  0.200500  1.0  -0.5824
  O  O131  1  0.699500  0.501000  0.277400  1.0  -0.6294
  O  O132  1  0.014600  0.570600  0.411700  1.0  -0.5849
  O  O133  1  0.296200  0.498800  0.333600  1.0  -0.5863
  O  O134  1  0.236700  0.561100  0.425500  1.0  -0.6493
  O  O135  1  0.762500  0.441000  0.185500  1.0  -0.6606
  O  O136  1  0.361540  0.533980  0.557500  1.0  -0.9674
  O  O137  1  0.566400  0.551300  0.200500  1.0  -0.5816
  O  O138  1  0.499000  0.198500  0.277400  1.0  -0.6305
  O  O139  1  0.429400  0.444000  0.411700  1.0  -0.5841
  O  O140  1  0.501200  0.797400  0.333600  1.0  -0.5847
  O  O141  1  0.438900  0.675600  0.425500  1.0  -0.6483
  O  O142  1  0.559000  0.321500  0.185500  1.0  -0.662
  O  O143  1  0.466020  0.827560  0.557500  1.0  -0.9625
  O  O144  1  0.448700  0.015100  0.200500  1.0  -0.5821
  O  O145  1  0.801500  0.300500  0.277400  1.0  -0.6324
  O  O146  1  0.556000  0.985400  0.411700  1.0  -0.5844
  O  O147  1  0.202600  0.703800  0.333600  1.0  -0.5822
  O  O148  1  0.324400  0.763300  0.425500  1.0  -0.6488
  O  O149  1  0.678500  0.237500  0.185500  1.0  -0.6609
  O  O150  1  0.827560  0.361540  0.057500  1.0  -0.9668
  O  O151  1  0.015100  0.566400  0.700500  1.0  -0.5828
  O  O152  1  0.300500  0.499000  0.777400  1.0  -0.6301
  O  O153  1  0.985400  0.429400  0.911700  1.0  -0.5855
  O  O154  1  0.703800  0.501200  0.833600  1.0  -0.5853
  O  O155  1  0.763300  0.438900  0.925500  1.0  -0.65
  O  O156  1  0.237500  0.559000  0.685500  1.0  -0.6602
  O  O157  1  0.638460  0.466020  0.057500  1.0  -0.9667
  O  O158  1  0.433600  0.448700  0.700500  1.0  -0.5829
  O  O159  1  0.501000  0.801500  0.777400  1.0  -0.6307
  O  O160  1  0.570600  0.556000  0.911700  1.0  -0.5838
  O  O161  1  0.498800  0.202600  0.833600  1.0  -0.5876
  O  O162  1  0.561100  0.324400  0.925500  1.0  -0.6493
  O  O163  1  0.441000  0.678500  0.685500  1.0  -0.6614
  O  O164  1  0.533980  0.172440  0.057500  1.0  -0.9653
  O  O165  1  0.551300  0.984900  0.700500  1.0  -0.5832
  O  O166  1  0.198500  0.699500  0.777400  1.0  -0.631
  O  O167  1  0.444000  0.014600  0.911700  1.0  -0.585
  O  O168  1  0.797400  0.296200  0.833600  1.0  -0.5819
  O  O169  1  0.675600  0.236700  0.925500  1.0  -0.6487
  O  O170  1  0.321500  0.762500  0.685500  1.0  -0.6608
