# generated using pymatgen
data_ZnH2(CO2)2
_symmetry_space_group_name_H-M   'P 1'
_cell_length_a   11.41800000
_cell_length_b   10.03700000
_cell_length_c   18.54600000
_cell_angle_alpha   90.00000000
_cell_angle_beta   126.68000000
_cell_angle_gamma   90.00000000
_symmetry_Int_Tables_number   1
_chemical_formula_structural   ZnH2(CO2)2
_chemical_formula_sum   'Zn12 H24 C24 O48'
_cell_volume   1704.55113321
_cell_formula_units_Z   12
loop_
 _symmetry_equiv_pos_site_id
 _symmetry_equiv_pos_as_xyz
  1  'x, y, z'
loop_
 _atom_site_type_symbol
 _atom_site_label
 _atom_site_symmetry_multiplicity
 _atom_site_fract_x
 _atom_site_fract_y
 _atom_site_fract_z
 _atom_site_occupancy
 _atom_site_charge
  Zn  Zn1  1  0.935380  0.878230  0.694670  1.0  1.072
  Zn  Zn2  1  0.876890  0.571080  0.631880  1.0  1.0804
  Zn  Zn3  1  0.064620  0.378230  0.805330  1.0  1.073
  Zn  Zn4  1  0.123110  0.071080  0.868120  1.0  1.0808
  Zn  Zn5  1  0.064620  0.121770  0.305330  1.0  1.0742
  Zn  Zn6  1  0.123110  0.428920  0.368120  1.0  1.0809
  Zn  Zn7  1  0.935380  0.621770  0.194670  1.0  1.0707
  Zn  Zn8  1  0.876890  0.928920  0.131880  1.0  1.0802
  Zn  Zn9  1  0.000000  0.500000  0.500000  1.0  1.0392
  Zn  Zn10  1  0.000000  0.000000  0.000000  1.0  1.0392
  Zn  Zn11  1  0.500000  0.500000  0.500000  1.0  1.1047
  Zn  Zn12  1  0.500000  0.000000  0.000000  1.0  1.1047
  H  H13  1  0.530800  0.782300  0.536100  1.0  0.0056
  H  H14  1  0.025700  0.724700  0.869700  1.0  0.0088
  H  H15  1  0.998700  0.870800  0.554900  1.0  0.0107
  H  H16  1  0.728100  0.352600  0.425800  1.0  0.0042
  H  H17  1  0.746800  0.282000  0.712400  1.0  0.0042
  H  H18  1  0.276600  0.446800  0.755600  1.0  0.0078
  H  H19  1  0.469200  0.282300  0.963900  1.0  0.0067
  H  H20  1  0.974300  0.224700  0.630300  1.0  0.0094
  H  H21  1  0.001300  0.370800  0.945100  1.0  0.0109
  H  H22  1  0.271900  0.852600  0.074200  1.0  0.0042
  H  H23  1  0.253200  0.782000  0.787600  1.0  0.0034
  H  H24  1  0.723400  0.946800  0.744400  1.0  0.0101
  H  H25  1  0.469200  0.217700  0.463900  1.0  0.0065
  H  H26  1  0.974300  0.275300  0.130300  1.0  0.0093
  H  H27  1  0.001300  0.129200  0.445100  1.0  0.0108
  H  H28  1  0.271900  0.647400  0.574200  1.0  0.0041
  H  H29  1  0.253200  0.718000  0.287600  1.0  0.004
  H  H30  1  0.723400  0.553200  0.244400  1.0  0.0103
  H  H31  1  0.530800  0.717700  0.036100  1.0  0.0055
  H  H32  1  0.025700  0.775300  0.369700  1.0  0.0089
  H  H33  1  0.998700  0.629200  0.054900  1.0  0.0107
  H  H34  1  0.728100  0.147400  0.925800  1.0  0.0047
  H  H35  1  0.746800  0.218000  0.212400  1.0  0.0032
  H  H36  1  0.276600  0.053200  0.255600  1.0  0.008
  C  C37  1  0.630500  0.766100  0.569200  1.0  0.7015
  C  C38  1  0.012100  0.656600  0.831400  1.0  0.6995
  C  C39  1  0.983000  0.780800  0.558100  1.0  0.6957
  C  C40  1  0.722600  0.406300  0.464600  1.0  0.7255
  C  C41  1  0.730900  0.350600  0.673800  1.0  0.7027
  C  C42  1  0.184800  0.470000  0.704400  1.0  0.7146
  C  C43  1  0.369500  0.266100  0.930800  1.0  0.7025
  C  C44  1  0.987900  0.156600  0.668600  1.0  0.6997
  C  C45  1  0.017000  0.280800  0.941900  1.0  0.6952
  C  C46  1  0.277400  0.906300  0.035400  1.0  0.7248
  C  C47  1  0.269100  0.850600  0.826200  1.0  0.703
  C  C48  1  0.815200  0.970000  0.795600  1.0  0.714
  C  C49  1  0.369500  0.233900  0.430800  1.0  0.7033
  C  C50  1  0.987900  0.343400  0.168600  1.0  0.6998
  C  C51  1  0.017000  0.219200  0.441900  1.0  0.6947
  C  C52  1  0.277400  0.593700  0.535400  1.0  0.7244
  C  C53  1  0.269100  0.649400  0.326200  1.0  0.7013
  C  C54  1  0.815200  0.530000  0.295600  1.0  0.7124
  C  C55  1  0.630500  0.733900  0.069200  1.0  0.7024
  C  C56  1  0.012100  0.843400  0.331400  1.0  0.6993
  C  C57  1  0.983000  0.719200  0.058100  1.0  0.6958
  C  C58  1  0.722600  0.093700  0.964600  1.0  0.7255
  C  C59  1  0.730900  0.149400  0.173800  1.0  0.7018
  C  C60  1  0.184800  0.030000  0.204400  1.0  0.7152
  O  O61  1  0.712300  0.863200  0.607920  1.0  -0.5904
  O  O62  1  0.667900  0.647020  0.569660  1.0  -0.6555
  O  O63  1  0.946900  0.686910  0.749420  1.0  -0.641
  O  O64  1  0.059400  0.545400  0.865470  1.0  -0.5788
  O  O65  1  0.958300  0.747870  0.614320  1.0  -0.6852
  O  O66  1  0.988300  0.705000  0.507590  1.0  -0.5946
  O  O67  1  0.836000  0.473900  0.522010  1.0  -0.6593
  O  O68  1  0.607100  0.404900  0.455420  1.0  -0.5948
  O  O69  1  0.843000  0.410990  0.691970  1.0  -0.6639
  O  O70  1  0.603600  0.373200  0.610610  1.0  -0.6012
  O  O71  1  0.084000  0.479800  0.713340  1.0  -0.6739
  O  O72  1  0.175100  0.487500  0.636070  1.0  -0.5683
  O  O73  1  0.287700  0.363200  0.892080  1.0  -0.589
  O  O74  1  0.332100  0.147020  0.930340  1.0  -0.6553
  O  O75  1  0.053100  0.186910  0.750580  1.0  -0.6402
  O  O76  1  0.940600  0.045400  0.634530  1.0  -0.5782
  O  O77  1  0.041700  0.247870  0.885680  1.0  -0.6867
  O  O78  1  0.011700  0.205000  0.992410  1.0  -0.5951
  O  O79  1  0.164000  0.973900  0.977990  1.0  -0.6595
  O  O80  1  0.392900  0.904900  0.044580  1.0  -0.597
  O  O81  1  0.157000  0.910990  0.808030  1.0  -0.6645
  O  O82  1  0.396400  0.873200  0.889390  1.0  -0.5998
  O  O83  1  0.916000  0.979800  0.786660  1.0  -0.6752
  O  O84  1  0.824900  0.987500  0.863930  1.0  -0.5657
  O  O85  1  0.287700  0.136800  0.392080  1.0  -0.5911
  O  O86  1  0.332100  0.352980  0.430340  1.0  -0.6548
  O  O87  1  0.053100  0.313090  0.250580  1.0  -0.6403
  O  O88  1  0.940600  0.454600  0.134530  1.0  -0.5775
  O  O89  1  0.041700  0.252130  0.385680  1.0  -0.6861
  O  O90  1  0.011700  0.295000  0.492410  1.0  -0.594
  O  O91  1  0.164000  0.526100  0.477990  1.0  -0.6598
  O  O92  1  0.392900  0.595100  0.544580  1.0  -0.5971
  O  O93  1  0.157000  0.589010  0.308030  1.0  -0.6649
  O  O94  1  0.396400  0.626800  0.389390  1.0  -0.6009
  O  O95  1  0.916000  0.520200  0.286660  1.0  -0.6751
  O  O96  1  0.824900  0.512500  0.363930  1.0  -0.5653
  O  O97  1  0.712300  0.636800  0.107920  1.0  -0.5899
  O  O98  1  0.667900  0.852980  0.069660  1.0  -0.6549
  O  O99  1  0.946900  0.813090  0.249420  1.0  -0.6412
  O  O100  1  0.059400  0.954600  0.365470  1.0  -0.5785
  O  O101  1  0.958300  0.752130  0.114320  1.0  -0.6854
  O  O102  1  0.988300  0.795000  0.007590  1.0  -0.5939
  O  O103  1  0.836000  0.026100  0.022010  1.0  -0.6593
  O  O104  1  0.607100  0.095100  0.955420  1.0  -0.5946
  O  O105  1  0.843000  0.089010  0.191970  1.0  -0.6642
  O  O106  1  0.603600  0.126800  0.110610  1.0  -0.6022
  O  O107  1  0.084000  0.020200  0.213340  1.0  -0.674
  O  O108  1  0.175100  0.012500  0.136070  1.0  -0.5681
