# generated using pymatgen
data_CdH36C48N12ClO4
_symmetry_space_group_name_H-M   'P 1'
_cell_length_a   15.87630000
_cell_length_b   15.87630000
_cell_length_c   21.50700000
_cell_angle_alpha   90.00000000
_cell_angle_beta   90.00000000
_cell_angle_gamma   90.00000000
_symmetry_Int_Tables_number   1
_chemical_formula_structural   CdH36C48N12ClO4
_chemical_formula_sum   'Cd4 H144 C192 N48 Cl4 O16'
_cell_volume   5420.98778465
_cell_formula_units_Z   4
loop_
 _symmetry_equiv_pos_site_id
 _symmetry_equiv_pos_as_xyz
  1  'x, y, z'
loop_
 _atom_site_type_symbol
 _atom_site_label
 _atom_site_symmetry_multiplicity
 _atom_site_fract_x
 _atom_site_fract_y
 _atom_site_fract_z
 _atom_site_occupancy
 _atom_site_charge
  Cd  Cd1  1  0.441100  0.441100  0.000000  1.0  0.7872
  Cd  Cd2  1  0.558900  0.558900  0.500000  1.0  0.7867
  Cd  Cd3  1  0.058900  0.941100  0.250000  1.0  0.7869
  Cd  Cd4  1  0.941100  0.058900  0.750000  1.0  0.7871
  H  H5  1  0.986700  0.768300  0.326600  1.0  0.0629
  H  H6  1  0.893100  0.655000  0.317200  1.0  0.131
  H  H7  1  0.850600  0.729200  0.139800  1.0  0.1215
  H  H8  1  0.946500  0.836600  0.154700  1.0  0.0595
  H  H9  1  0.836100  0.536700  0.290600  1.0  0.1063
  H  H10  1  0.732500  0.432900  0.277500  1.0  0.0979
  H  H11  1  0.622700  0.454300  0.209100  1.0  0.0976
  H  H12  1  0.724200  0.674900  0.155300  1.0  0.088
  H  H13  1  0.505000  0.699600  0.956000  1.0  0.0897
  H  H14  1  0.412400  0.798500  0.913100  1.0  0.0942
  H  H15  1  0.298600  0.846300  0.966800  1.0  0.0721
  H  H16  1  0.362300  0.697200  0.112500  1.0  0.1089
  H  H17  1  0.214000  0.911200  0.031700  1.0  0.1274
  H  H18  1  0.111000  0.961500  0.097900  1.0  0.0667
  H  H19  1  0.142200  0.771100  0.211200  1.0  0.0725
  H  H20  1  0.242900  0.712300  0.147800  1.0  0.1306
  H  H21  1  0.597300  0.760100  0.096900  1.0  0.3073
  H  H22  1  0.531300  0.754000  0.145700  1.0  0.3316
  H  H23  1  0.013300  0.231700  0.826600  1.0  0.0631
  H  H24  1  0.106900  0.345000  0.817200  1.0  0.1315
  H  H25  1  0.149400  0.270800  0.639800  1.0  0.1215
  H  H26  1  0.053500  0.163400  0.654700  1.0  0.06
  H  H27  1  0.163900  0.463300  0.790600  1.0  0.1061
  H  H28  1  0.267500  0.567100  0.777500  1.0  0.0979
  H  H29  1  0.377300  0.545700  0.709100  1.0  0.0971
  H  H30  1  0.275800  0.325100  0.655300  1.0  0.0877
  H  H31  1  0.495000  0.300400  0.456000  1.0  0.0902
  H  H32  1  0.587600  0.201500  0.413100  1.0  0.0941
  H  H33  1  0.701400  0.153700  0.466800  1.0  0.0712
  H  H34  1  0.637700  0.302800  0.612500  1.0  0.109
  H  H35  1  0.786000  0.088800  0.531700  1.0  0.1274
  H  H36  1  0.889000  0.038500  0.597900  1.0  0.0666
  H  H37  1  0.857800  0.228900  0.711200  1.0  0.0725
  H  H38  1  0.757100  0.287700  0.647800  1.0  0.1309
  H  H39  1  0.402700  0.239900  0.596900  1.0  0.3069
  H  H40  1  0.468700  0.246000  0.645700  1.0  0.3316
  H  H41  1  0.731700  0.486700  0.576600  1.0  0.0624
  H  H42  1  0.845000  0.393100  0.567200  1.0  0.1311
  H  H43  1  0.770800  0.350600  0.389800  1.0  0.1217
  H  H44  1  0.663400  0.446500  0.404700  1.0  0.0594
  H  H45  1  0.963300  0.336100  0.540600  1.0  0.1057
  H  H46  1  0.067100  0.232500  0.527500  1.0  0.098
  H  H47  1  0.045700  0.122700  0.459100  1.0  0.0978
  H  H48  1  0.825100  0.224200  0.405300  1.0  0.0875
  H  H49  1  0.800400  0.005000  0.206000  1.0  0.0912
  H  H50  1  0.701500  0.912400  0.163100  1.0  0.0935
  H  H51  1  0.653700  0.798600  0.216800  1.0  0.0715
  H  H52  1  0.802800  0.862300  0.362500  1.0  0.1097
  H  H53  1  0.588800  0.714000  0.281700  1.0  0.1269
  H  H54  1  0.538500  0.611000  0.347900  1.0  0.0663
  H  H55  1  0.728900  0.642200  0.461200  1.0  0.0722
  H  H56  1  0.787700  0.742900  0.397800  1.0  0.1306
  H  H57  1  0.739900  0.097300  0.346900  1.0  0.3063
  H  H58  1  0.746000  0.031300  0.395700  1.0  0.3319
  H  H59  1  0.268300  0.513300  0.076600  1.0  0.0634
  H  H60  1  0.155000  0.606900  0.067200  1.0  0.1314
  H  H61  1  0.229200  0.649400  0.889800  1.0  0.1216
  H  H62  1  0.336600  0.553500  0.904700  1.0  0.0589
  H  H63  1  0.036700  0.663900  0.040600  1.0  0.1067
  H  H64  1  0.932900  0.767500  0.027500  1.0  0.0978
  H  H65  1  0.954300  0.877300  0.959100  1.0  0.0979
  H  H66  1  0.174900  0.775800  0.905300  1.0  0.087
  H  H67  1  0.199600  0.995000  0.706000  1.0  0.0914
  H  H68  1  0.298500  0.087600  0.663100  1.0  0.0936
  H  H69  1  0.346300  0.201400  0.716800  1.0  0.0718
  H  H70  1  0.197200  0.137700  0.862500  1.0  0.1091
  H  H71  1  0.411200  0.286000  0.781700  1.0  0.1268
  H  H72  1  0.461500  0.389000  0.847900  1.0  0.0659
  H  H73  1  0.271100  0.357800  0.961200  1.0  0.0723
  H  H74  1  0.212300  0.257100  0.897800  1.0  0.1301
  H  H75  1  0.260100  0.902700  0.846900  1.0  0.3069
  H  H76  1  0.254000  0.968700  0.895700  1.0  0.3311
  H  H77  1  0.513300  0.268300  0.923400  1.0  0.0625
  H  H78  1  0.606900  0.155000  0.932800  1.0  0.1311
  H  H79  1  0.649400  0.229200  0.110200  1.0  0.1214
  H  H80  1  0.553500  0.336600  0.095300  1.0  0.0592
  H  H81  1  0.663900  0.036700  0.959400  1.0  0.1066
  H  H82  1  0.767500  0.932900  0.972500  1.0  0.0976
  H  H83  1  0.877300  0.954300  0.040900  1.0  0.0972
  H  H84  1  0.775800  0.174900  0.094700  1.0  0.0871
  H  H85  1  0.995000  0.199600  0.294000  1.0  0.0901
  H  H86  1  0.087600  0.298500  0.336900  1.0  0.0945
  H  H87  1  0.201400  0.346300  0.283200  1.0  0.0716
  H  H88  1  0.137700  0.197200  0.137500  1.0  0.1089
  H  H89  1  0.286000  0.411200  0.218300  1.0  0.1276
  H  H90  1  0.389000  0.461500  0.152100  1.0  0.0668
  H  H91  1  0.357800  0.271100  0.038800  1.0  0.0725
  H  H92  1  0.257100  0.212300  0.102200  1.0  0.1301
  H  H93  1  0.902700  0.260100  0.153100  1.0  0.3073
  H  H94  1  0.968700  0.254000  0.104300  1.0  0.3316
  H  H95  1  0.486700  0.731700  0.423400  1.0  0.0627
  H  H96  1  0.393100  0.845000  0.432800  1.0  0.1314
  H  H97  1  0.350600  0.770800  0.610200  1.0  0.1212
  H  H98  1  0.446500  0.663400  0.595300  1.0  0.0598
  H  H99  1  0.336100  0.963300  0.459400  1.0  0.1077
  H  H100  1  0.232500  0.067100  0.472500  1.0  0.0981
  H  H101  1  0.122700  0.045700  0.540900  1.0  0.0975
  H  H102  1  0.224200  0.825100  0.594700  1.0  0.0874
  H  H103  1  0.005000  0.800400  0.794000  1.0  0.0898
  H  H104  1  0.912400  0.701500  0.836900  1.0  0.0946
  H  H105  1  0.798600  0.653700  0.783200  1.0  0.0716
  H  H106  1  0.862300  0.802800  0.637500  1.0  0.1087
  H  H107  1  0.714000  0.588800  0.718300  1.0  0.127
  H  H108  1  0.611000  0.538500  0.652100  1.0  0.067
  H  H109  1  0.642200  0.728900  0.538800  1.0  0.0724
  H  H110  1  0.742900  0.787700  0.602200  1.0  0.1307
  H  H111  1  0.097300  0.739900  0.653100  1.0  0.3074
  H  H112  1  0.031300  0.746000  0.604300  1.0  0.3319
  H  H113  1  0.768300  0.986700  0.673400  1.0  0.0627
  H  H114  1  0.655000  0.893100  0.682800  1.0  0.1314
  H  H115  1  0.729200  0.850600  0.860200  1.0  0.1215
  H  H116  1  0.836600  0.946500  0.845300  1.0  0.0588
  H  H117  1  0.536700  0.836100  0.709400  1.0  0.1074
  H  H118  1  0.432900  0.732500  0.722500  1.0  0.0979
  H  H119  1  0.454300  0.622700  0.790900  1.0  0.0976
  H  H120  1  0.674900  0.724200  0.844700  1.0  0.0867
  H  H121  1  0.699600  0.505000  0.044000  1.0  0.0916
  H  H122  1  0.798500  0.412400  0.086900  1.0  0.0938
  H  H123  1  0.846300  0.298600  0.033200  1.0  0.0716
  H  H124  1  0.697200  0.362300  0.887500  1.0  0.109
  H  H125  1  0.911200  0.214000  0.968300  1.0  0.1266
  H  H126  1  0.961500  0.111000  0.902100  1.0  0.0666
  H  H127  1  0.771100  0.142200  0.788800  1.0  0.0723
  H  H128  1  0.712300  0.242900  0.852200  1.0  0.1297
  H  H129  1  0.760100  0.597300  0.903100  1.0  0.3067
  H  H130  1  0.754000  0.531300  0.854300  1.0  0.3319
  H  H131  1  0.231700  0.013300  0.173400  1.0  0.0623
  H  H132  1  0.345000  0.106900  0.182800  1.0  0.1308
  H  H133  1  0.270800  0.149400  0.360200  1.0  0.1216
  H  H134  1  0.163400  0.053500  0.345300  1.0  0.0593
  H  H135  1  0.463300  0.163900  0.209400  1.0  0.1071
  H  H136  1  0.567100  0.267500  0.222500  1.0  0.0979
  H  H137  1  0.545700  0.377300  0.290900  1.0  0.0973
  H  H138  1  0.325100  0.275800  0.344700  1.0  0.0864
  H  H139  1  0.300400  0.495000  0.544000  1.0  0.0914
  H  H140  1  0.201500  0.587600  0.586900  1.0  0.0941
  H  H141  1  0.153700  0.701400  0.533200  1.0  0.0721
  H  H142  1  0.302800  0.637700  0.387500  1.0  0.1091
  H  H143  1  0.088800  0.786000  0.468300  1.0  0.1271
  H  H144  1  0.038500  0.889000  0.402100  1.0  0.0665
  H  H145  1  0.228900  0.857800  0.288800  1.0  0.0723
  H  H146  1  0.287700  0.757100  0.352200  1.0  0.1303
  H  H147  1  0.239900  0.402700  0.403100  1.0  0.3071
  H  H148  1  0.246000  0.468700  0.354300  1.0  0.3321
  C  C149  1  0.958400  0.760200  0.288200  1.0  0.1739
  C  C150  1  0.901600  0.692200  0.283200  1.0  -0.2138
  C  C151  1  0.858600  0.680600  0.228200  1.0  0.0992
  C  C152  1  0.877200  0.735900  0.179000  1.0  -0.2255
  C  C153  1  0.934500  0.799800  0.188400  1.0  0.1666
  C  C154  1  0.792700  0.614300  0.221900  1.0  0.0241
  C  C155  1  0.793300  0.543600  0.260100  1.0  -0.1289
  C  C156  1  0.730400  0.483000  0.253500  1.0  -0.0917
  C  C157  1  0.666000  0.495300  0.212500  1.0  -0.094
  C  C158  1  0.662800  0.566400  0.175900  1.0  -0.0088
  C  C159  1  0.726100  0.625800  0.180500  1.0  -0.1333
  C  C160  1  0.592100  0.575400  0.131700  1.0  0.2273
  C  C161  1  0.497200  0.625900  0.069600  1.0  0.2304
  C  C162  1  0.441600  0.689000  0.039300  1.0  -0.0585
  C  C163  1  0.457700  0.719000  0.979000  1.0  -0.1303
  C  C164  1  0.402400  0.777800  0.953900  1.0  -0.0856
  C  C165  1  0.335100  0.806400  0.985600  1.0  -0.0914
  C  C166  1  0.317900  0.777500  0.047100  1.0  0.0224
  C  C167  1  0.372600  0.718300  0.071900  1.0  -0.1238
  C  C168  1  0.246200  0.808400  0.083900  1.0  0.0861
  C  C169  1  0.201900  0.881800  0.069100  1.0  -0.2039
  C  C170  1  0.140200  0.911500  0.109100  1.0  0.1562
  C  C171  1  0.158200  0.800500  0.174500  1.0  0.1331
  C  C172  1  0.219200  0.765400  0.137400  1.0  -0.1985
  C  C173  1  0.041600  0.239800  0.788200  1.0  0.1742
  C  C174  1  0.098400  0.307800  0.783200  1.0  -0.2135
  C  C175  1  0.141400  0.319400  0.728200  1.0  0.0989
  C  C176  1  0.122800  0.264100  0.679000  1.0  -0.2255
  C  C177  1  0.065500  0.200200  0.688400  1.0  0.1658
  C  C178  1  0.207300  0.385700  0.721900  1.0  0.0256
  C  C179  1  0.206700  0.456400  0.760100  1.0  -0.13
  C  C180  1  0.269600  0.517000  0.753500  1.0  -0.0915
  C  C181  1  0.334000  0.504700  0.712500  1.0  -0.0958
  C  C182  1  0.337200  0.433600  0.675900  1.0  -0.0097
  C  C183  1  0.273900  0.374200  0.680500  1.0  -0.1327
  C  C184  1  0.407900  0.424600  0.631700  1.0  0.2274
  C  C185  1  0.502800  0.374100  0.569600  1.0  0.2295
  C  C186  1  0.558400  0.311000  0.539300  1.0  -0.059
  C  C187  1  0.542300  0.281000  0.479000  1.0  -0.1302
  C  C188  1  0.597600  0.222200  0.453900  1.0  -0.0852
  C  C189  1  0.664900  0.193600  0.485600  1.0  -0.0918
  C  C190  1  0.682100  0.222500  0.547100  1.0  0.022
  C  C191  1  0.627400  0.281700  0.571900  1.0  -0.1229
  C  C192  1  0.753800  0.191600  0.583900  1.0  0.0861
  C  C193  1  0.798100  0.118200  0.569100  1.0  -0.2035
  C  C194  1  0.859800  0.088500  0.609100  1.0  0.156
  C  C195  1  0.841800  0.199500  0.674500  1.0  0.135
  C  C196  1  0.780800  0.234600  0.637400  1.0  -0.1983
  C  C197  1  0.739800  0.458400  0.538200  1.0  0.1752
  C  C198  1  0.807800  0.401600  0.533200  1.0  -0.2143
  C  C199  1  0.819400  0.358600  0.478200  1.0  0.0986
  C  C200  1  0.764100  0.377200  0.429000  1.0  -0.2254
  C  C201  1  0.700200  0.434500  0.438400  1.0  0.1668
  C  C202  1  0.885700  0.292700  0.471900  1.0  0.0236
  C  C203  1  0.956400  0.293300  0.510100  1.0  -0.1289
  C  C204  1  0.017000  0.230400  0.503500  1.0  -0.0922
  C  C205  1  0.004700  0.166000  0.462500  1.0  -0.0942
  C  C206  1  0.933600  0.162800  0.425900  1.0  -0.0082
  C  C207  1  0.874200  0.226100  0.430500  1.0  -0.1344
  C  C208  1  0.924600  0.092100  0.381700  1.0  0.2277
  C  C209  1  0.874100  0.997200  0.319600  1.0  0.2304
  C  C210  1  0.811000  0.941600  0.289300  1.0  -0.0594
  C  C211  1  0.781000  0.957700  0.229000  1.0  -0.1306
  C  C212  1  0.722200  0.902400  0.203900  1.0  -0.0858
  C  C213  1  0.693600  0.835100  0.235600  1.0  -0.0912
  C  C214  1  0.722500  0.817900  0.297100  1.0  0.0215
  C  C215  1  0.781700  0.872600  0.321900  1.0  -0.1226
  C  C216  1  0.691600  0.746200  0.333900  1.0  0.0862
  C  C217  1  0.618200  0.701900  0.319100  1.0  -0.2013
  C  C218  1  0.588500  0.640200  0.359100  1.0  0.1566
  C  C219  1  0.699500  0.658200  0.424500  1.0  0.1358
  C  C220  1  0.734600  0.719200  0.387400  1.0  -0.1979
  C  C221  1  0.260200  0.541600  0.038200  1.0  0.1743
  C  C222  1  0.192200  0.598400  0.033200  1.0  -0.2145
  C  C223  1  0.180600  0.641400  0.978200  1.0  0.0981
  C  C224  1  0.235900  0.622800  0.929000  1.0  -0.2238
  C  C225  1  0.299800  0.565500  0.938400  1.0  0.167
  C  C226  1  0.114300  0.707300  0.971900  1.0  0.0241
  C  C227  1  0.043600  0.706700  0.010100  1.0  -0.1293
  C  C228  1  0.983000  0.769600  0.003500  1.0  -0.0935
  C  C229  1  0.995300  0.834000  0.962500  1.0  -0.0926
  C  C230  1  0.066400  0.837200  0.925900  1.0  -0.0085
  C  C231  1  0.125800  0.773900  0.930500  1.0  -0.1344
  C  C232  1  0.075400  0.907900  0.881700  1.0  0.2279
  C  C233  1  0.125900  0.002800  0.819600  1.0  0.2308
  C  C234  1  0.189000  0.058400  0.789300  1.0  -0.0591
  C  C235  1  0.219000  0.042300  0.729000  1.0  -0.131
  C  C236  1  0.277800  0.097600  0.703900  1.0  -0.0852
  C  C237  1  0.306400  0.164900  0.735600  1.0  -0.0903
  C  C238  1  0.277500  0.182100  0.797100  1.0  0.0232
  C  C239  1  0.218300  0.127400  0.821900  1.0  -0.1233
  C  C240  1  0.308400  0.253800  0.833900  1.0  0.0865
  C  C241  1  0.381800  0.298100  0.819100  1.0  -0.201
  C  C242  1  0.411500  0.359800  0.859100  1.0  0.1564
  C  C243  1  0.300500  0.341800  0.924500  1.0  0.1351
  C  C244  1  0.265400  0.280800  0.887400  1.0  -0.1976
  C  C245  1  0.541600  0.260200  0.961800  1.0  0.1734
  C  C246  1  0.598400  0.192200  0.966800  1.0  -0.2143
  C  C247  1  0.641400  0.180600  0.021800  1.0  0.0993
  C  C248  1  0.622800  0.235900  0.071000  1.0  -0.2257
  C  C249  1  0.565500  0.299800  0.061600  1.0  0.1658
  C  C250  1  0.707300  0.114300  0.028100  1.0  0.0251
  C  C251  1  0.706700  0.043600  0.989900  1.0  -0.1288
  C  C252  1  0.769600  0.983000  0.996500  1.0  -0.0915
  C  C253  1  0.834000  0.995300  0.037500  1.0  -0.0964
  C  C254  1  0.837200  0.066400  0.074100  1.0  -0.0095
  C  C255  1  0.773900  0.125800  0.069500  1.0  -0.1327
  C  C256  1  0.907900  0.075400  0.118300  1.0  0.227
  C  C257  1  0.002800  0.125900  0.180400  1.0  0.2289
  C  C258  1  0.058400  0.189000  0.210700  1.0  -0.0589
  C  C259  1  0.042300  0.219000  0.271000  1.0  -0.13
  C  C260  1  0.097600  0.277800  0.296100  1.0  -0.0862
  C  C261  1  0.164900  0.306400  0.264400  1.0  -0.0925
  C  C262  1  0.182100  0.277500  0.202900  1.0  0.0219
  C  C263  1  0.127400  0.218300  0.178100  1.0  -0.1225
  C  C264  1  0.253800  0.308400  0.166100  1.0  0.0867
  C  C265  1  0.298100  0.381800  0.180900  1.0  -0.2037
  C  C266  1  0.359800  0.411500  0.140900  1.0  0.1559
  C  C267  1  0.341800  0.300500  0.075500  1.0  0.135
  C  C268  1  0.280800  0.265400  0.112600  1.0  -0.1977
  C  C269  1  0.458400  0.739800  0.461800  1.0  0.1742
  C  C270  1  0.401600  0.807800  0.466800  1.0  -0.2132
  C  C271  1  0.358600  0.819400  0.521800  1.0  0.0988
  C  C272  1  0.377200  0.764100  0.571000  1.0  -0.2267
  C  C273  1  0.434500  0.700200  0.561600  1.0  0.1663
  C  C274  1  0.292700  0.885700  0.528100  1.0  0.0239
  C  C275  1  0.293300  0.956400  0.489900  1.0  -0.1293
  C  C276  1  0.230400  0.017000  0.496500  1.0  -0.0918
  C  C277  1  0.166000  0.004700  0.537500  1.0  -0.0944
  C  C278  1  0.162800  0.933600  0.574100  1.0  -0.0083
  C  C279  1  0.226100  0.874200  0.569500  1.0  -0.1324
  C  C280  1  0.092100  0.924600  0.618300  1.0  0.2277
  C  C281  1  0.997200  0.874100  0.680400  1.0  0.2294
  C  C282  1  0.941600  0.811000  0.710700  1.0  -0.0583
  C  C283  1  0.957700  0.781000  0.771000  1.0  -0.1309
  C  C284  1  0.902400  0.722200  0.796100  1.0  -0.0854
  C  C285  1  0.835100  0.693600  0.764400  1.0  -0.0922
  C  C286  1  0.817900  0.722500  0.702900  1.0  0.0234
  C  C287  1  0.872600  0.781700  0.678100  1.0  -0.1226
  C  C288  1  0.746200  0.691600  0.666100  1.0  0.0869
  C  C289  1  0.701900  0.618200  0.680900  1.0  -0.2033
  C  C290  1  0.640200  0.588500  0.640900  1.0  0.1563
  C  C291  1  0.658200  0.699500  0.575500  1.0  0.1334
  C  C292  1  0.719200  0.734600  0.612600  1.0  -0.1976
  C  C293  1  0.760200  0.958400  0.711800  1.0  0.1751
  C  C294  1  0.692200  0.901600  0.716800  1.0  -0.2147
  C  C295  1  0.680600  0.858600  0.771800  1.0  0.0984
  C  C296  1  0.735900  0.877200  0.821000  1.0  -0.2256
  C  C297  1  0.799800  0.934500  0.811600  1.0  0.1666
  C  C298  1  0.614300  0.792700  0.778100  1.0  0.0239
  C  C299  1  0.543600  0.793300  0.739900  1.0  -0.129
  C  C300  1  0.483000  0.730400  0.746500  1.0  -0.094
  C  C301  1  0.495300  0.666000  0.787500  1.0  -0.0933
  C  C302  1  0.566400  0.662800  0.824100  1.0  -0.0086
  C  C303  1  0.625800  0.726100  0.819500  1.0  -0.1337
  C  C304  1  0.575400  0.592100  0.868300  1.0  0.2278
  C  C305  1  0.625900  0.497200  0.930400  1.0  0.2298
  C  C306  1  0.689000  0.441600  0.960700  1.0  -0.0588
  C  C307  1  0.719000  0.457700  0.021000  1.0  -0.1301
  C  C308  1  0.777800  0.402400  0.046100  1.0  -0.0861
  C  C309  1  0.806400  0.335100  0.014400  1.0  -0.0915
  C  C310  1  0.777500  0.317900  0.952900  1.0  0.0233
  C  C311  1  0.718300  0.372600  0.928100  1.0  -0.122
  C  C312  1  0.808400  0.246200  0.916100  1.0  0.0874
  C  C313  1  0.881800  0.201900  0.930900  1.0  -0.2015
  C  C314  1  0.911500  0.140200  0.890900  1.0  0.1564
  C  C315  1  0.800500  0.158200  0.825500  1.0  0.1355
  C  C316  1  0.765400  0.219200  0.862600  1.0  -0.1965
  C  C317  1  0.239800  0.041600  0.211800  1.0  0.1746
  C  C318  1  0.307800  0.098400  0.216800  1.0  -0.2148
  C  C319  1  0.319400  0.141400  0.271800  1.0  0.0981
  C  C320  1  0.264100  0.122800  0.321000  1.0  -0.2253
  C  C321  1  0.200200  0.065500  0.311600  1.0  0.1674
  C  C322  1  0.385700  0.207300  0.278100  1.0  0.0234
  C  C323  1  0.456400  0.206700  0.239900  1.0  -0.1293
  C  C324  1  0.517000  0.269600  0.246500  1.0  -0.0923
  C  C325  1  0.504700  0.334000  0.287500  1.0  -0.0942
  C  C326  1  0.433600  0.337200  0.324100  1.0  -0.0075
  C  C327  1  0.374200  0.273900  0.319500  1.0  -0.1341
  C  C328  1  0.424600  0.407900  0.368300  1.0  0.2281
  C  C329  1  0.374100  0.502800  0.430400  1.0  0.2297
  C  C330  1  0.311000  0.558400  0.460700  1.0  -0.0591
  C  C331  1  0.281000  0.542300  0.521000  1.0  -0.1317
  C  C332  1  0.222200  0.597600  0.546100  1.0  -0.0858
  C  C333  1  0.193600  0.664900  0.514400  1.0  -0.0905
  C  C334  1  0.222500  0.682100  0.452900  1.0  0.0222
  C  C335  1  0.281700  0.627400  0.428100  1.0  -0.1221
  C  C336  1  0.191600  0.753800  0.416100  1.0  0.0866
  C  C337  1  0.118200  0.798100  0.430900  1.0  -0.201
  C  C338  1  0.088500  0.859800  0.390900  1.0  0.1566
  C  C339  1  0.199500  0.841800  0.325500  1.0  0.1355
  C  C340  1  0.234600  0.780800  0.362600  1.0  -0.1975
  N  N341  1  0.553700  0.511500  0.105600  1.0  -0.2958
  N  N342  1  0.492900  0.543500  0.067200  1.0  -0.2156
  N  N343  1  0.558500  0.647300  0.110000  1.0  0.1024
  N  N344  1  0.578300  0.729300  0.129800  1.0  -0.5617
  N  N345  1  0.974200  0.812700  0.242600  1.0  -0.3653
  N  N346  1  0.119600  0.874100  0.162100  1.0  -0.3553
  N  N347  1  0.446300  0.488500  0.605600  1.0  -0.2966
  N  N348  1  0.507100  0.456500  0.567200  1.0  -0.2165
  N  N349  1  0.441500  0.352700  0.610000  1.0  0.1021
  N  N350  1  0.421700  0.270700  0.629800  1.0  -0.5612
  N  N351  1  0.025800  0.187300  0.742600  1.0  -0.3655
  N  N352  1  0.880400  0.125900  0.662100  1.0  -0.3548
  N  N353  1  0.988500  0.053700  0.355600  1.0  -0.2969
  N  N354  1  0.956500  0.992900  0.317200  1.0  -0.2162
  N  N355  1  0.852700  0.058500  0.360000  1.0  0.1025
  N  N356  1  0.770700  0.078300  0.379800  1.0  -0.5607
  N  N357  1  0.687300  0.474200  0.492600  1.0  -0.3663
  N  N358  1  0.625900  0.619600  0.412100  1.0  -0.3554
  N  N359  1  0.011500  0.946300  0.855600  1.0  -0.2958
  N  N360  1  0.043500  0.007100  0.817200  1.0  -0.2152
  N  N361  1  0.147300  0.941500  0.860000  1.0  0.1028
  N  N362  1  0.229300  0.921700  0.879800  1.0  -0.5616
  N  N363  1  0.312700  0.525800  0.992600  1.0  -0.3657
  N  N364  1  0.374100  0.380400  0.912100  1.0  -0.3566
  N  N365  1  0.946300  0.011500  0.144400  1.0  -0.2964
  N  N366  1  0.007100  0.043500  0.182800  1.0  -0.2155
  N  N367  1  0.941500  0.147300  0.140000  1.0  0.1025
  N  N368  1  0.921700  0.229300  0.120200  1.0  -0.5613
  N  N369  1  0.525800  0.312700  0.007400  1.0  -0.3657
  N  N370  1  0.380400  0.374100  0.087900  1.0  -0.355
  N  N371  1  0.053700  0.988500  0.644400  1.0  -0.2965
  N  N372  1  0.992900  0.956500  0.682800  1.0  -0.2156
  N  N373  1  0.058500  0.852700  0.640000  1.0  0.1027
  N  N374  1  0.078300  0.770700  0.620200  1.0  -0.561
  N  N375  1  0.474200  0.687300  0.507400  1.0  -0.3647
  N  N376  1  0.619600  0.625900  0.587900  1.0  -0.3554
  N  N377  1  0.511500  0.553700  0.894400  1.0  -0.2962
  N  N378  1  0.543500  0.492900  0.932800  1.0  -0.2155
  N  N379  1  0.647300  0.558500  0.890000  1.0  0.1027
  N  N380  1  0.729300  0.578300  0.870200  1.0  -0.5604
  N  N381  1  0.812700  0.974200  0.757400  1.0  -0.3668
  N  N382  1  0.874100  0.119600  0.837900  1.0  -0.3557
  N  N383  1  0.488500  0.446300  0.394400  1.0  -0.297
  N  N384  1  0.456500  0.507100  0.432800  1.0  -0.2158
  N  N385  1  0.352700  0.441500  0.390000  1.0  0.1026
  N  N386  1  0.270700  0.421700  0.370200  1.0  -0.5606
  N  N387  1  0.187300  0.025800  0.257400  1.0  -0.3659
  N  N388  1  0.125900  0.880400  0.337900  1.0  -0.3564
  Cl  Cl389  1  0.618600  0.381400  0.750000  1.0  1.6651
  Cl  Cl390  1  0.381400  0.618600  0.250000  1.0  1.666
  Cl  Cl391  1  0.118600  0.118600  0.000000  1.0  1.6653
  Cl  Cl392  1  0.881400  0.881400  0.500000  1.0  1.6656
  O  O393  1  0.614000  0.315800  0.787100  1.0  -0.6537
  O  O394  1  0.650000  0.441700  0.786200  1.0  -0.5799
  O  O395  1  0.684200  0.386000  0.712900  1.0  -0.6538
  O  O396  1  0.558300  0.350000  0.713800  1.0  -0.5792
  O  O397  1  0.386000  0.684200  0.287100  1.0  -0.654
  O  O398  1  0.350000  0.558300  0.286200  1.0  -0.5794
  O  O399  1  0.315800  0.614000  0.212900  1.0  -0.653
  O  O400  1  0.441700  0.650000  0.213800  1.0  -0.5807
  O  O401  1  0.184200  0.114000  0.037100  1.0  -0.654
  O  O402  1  0.058300  0.150000  0.036200  1.0  -0.5797
  O  O403  1  0.114000  0.184200  0.962900  1.0  -0.6537
  O  O404  1  0.150000  0.058300  0.963800  1.0  -0.5802
  O  O405  1  0.815800  0.886000  0.537100  1.0  -0.6526
  O  O406  1  0.941700  0.850000  0.536200  1.0  -0.5802
  O  O407  1  0.886000  0.815800  0.462900  1.0  -0.6539
  O  O408  1  0.850000  0.941700  0.463800  1.0  -0.5796
