# generated using pymatgen
data_CdH36(C4N)12
_symmetry_space_group_name_H-M   'P 1'
_cell_length_a   15.95060000
_cell_length_b   15.95060000
_cell_length_c   21.12500000
_cell_angle_alpha   90.00000000
_cell_angle_beta   90.00000000
_cell_angle_gamma   90.00000000
_symmetry_Int_Tables_number   1
_chemical_formula_structural   CdH36(C4N)12
_chemical_formula_sum   'Cd4 H144 C192 N48'
_cell_volume   5374.65715261
_cell_formula_units_Z   4
loop_
 _symmetry_equiv_pos_site_id
 _symmetry_equiv_pos_as_xyz
  1  'x, y, z'
loop_
 _atom_site_type_symbol
 _atom_site_label
 _atom_site_symmetry_multiplicity
 _atom_site_fract_x
 _atom_site_fract_y
 _atom_site_fract_z
 _atom_site_occupancy
 _atom_site_charge
  Cd  Cd1  1  0.940530  0.059470  0.750000  1.0  0.7652
  Cd  Cd2  1  0.059470  0.940530  0.250000  1.0  0.7649
  Cd  Cd3  1  0.440530  0.440530  0.000000  1.0  0.7653
  Cd  Cd4  1  0.559470  0.559470  0.500000  1.0  0.7648
  H  H5  1  0.005300  0.237600  0.823300  1.0  0.0473
  H  H6  1  0.095100  0.349500  0.814800  1.0  0.1198
  H  H7  1  0.157600  0.263200  0.642000  1.0  0.1128
  H  H8  1  0.060400  0.154700  0.658800  1.0  0.0471
  H  H9  1  0.166100  0.460400  0.792700  1.0  0.0925
  H  H10  1  0.263300  0.567000  0.778200  1.0  0.0972
  H  H11  1  0.377600  0.545100  0.710100  1.0  0.0881
  H  H12  1  0.278300  0.323100  0.656400  1.0  0.0788
  H  H13  1  0.494400  0.299800  0.458100  1.0  0.0887
  H  H14  1  0.581200  0.196700  0.412300  1.0  0.0985
  H  H15  1  0.698500  0.150300  0.467100  1.0  0.0782
  H  H16  1  0.645100  0.312900  0.609900  1.0  0.1049
  H  H17  1  0.781200  0.087100  0.532100  1.0  0.106
  H  H18  1  0.885200  0.039700  0.597100  1.0  0.0539
  H  H19  1  0.867600  0.230000  0.707300  1.0  0.0537
  H  H20  1  0.761000  0.290600  0.644800  1.0  0.118
  H  H21  1  0.446100  0.234200  0.603200  1.0  0.3172
  H  H22  1  0.445100  0.261800  0.670300  1.0  0.3059
  H  H23  1  0.994700  0.762400  0.323300  1.0  0.0468
  H  H24  1  0.904900  0.650500  0.314800  1.0  0.1197
  H  H25  1  0.842400  0.736800  0.142000  1.0  0.1128
  H  H26  1  0.939600  0.845300  0.158800  1.0  0.0468
  H  H27  1  0.833900  0.539600  0.292700  1.0  0.0919
  H  H28  1  0.736700  0.433000  0.278200  1.0  0.0968
  H  H29  1  0.622400  0.454900  0.210100  1.0  0.0884
  H  H30  1  0.721700  0.676900  0.156400  1.0  0.079
  H  H31  1  0.505600  0.700200  0.958100  1.0  0.0888
  H  H32  1  0.418800  0.803300  0.912300  1.0  0.0983
  H  H33  1  0.301500  0.849700  0.967100  1.0  0.0788
  H  H34  1  0.354900  0.687100  0.109900  1.0  0.105
  H  H35  1  0.218800  0.912900  0.032100  1.0  0.1063
  H  H36  1  0.114800  0.960300  0.097100  1.0  0.0543
  H  H37  1  0.132400  0.770000  0.207300  1.0  0.0538
  H  H38  1  0.239000  0.709400  0.144800  1.0  0.1187
  H  H39  1  0.553900  0.765800  0.103200  1.0  0.318
  H  H40  1  0.554900  0.738200  0.170300  1.0  0.3073
  H  H41  1  0.262400  0.505300  0.073300  1.0  0.0464
  H  H42  1  0.150500  0.595100  0.064800  1.0  0.1197
  H  H43  1  0.236800  0.657600  0.892000  1.0  0.1137
  H  H44  1  0.345300  0.560400  0.908800  1.0  0.0462
  H  H45  1  0.039600  0.666100  0.042700  1.0  0.0928
  H  H46  1  0.933000  0.763300  0.028200  1.0  0.0975
  H  H47  1  0.954900  0.877600  0.960100  1.0  0.0884
  H  H48  1  0.176900  0.778300  0.906400  1.0  0.0783
  H  H49  1  0.200200  0.994400  0.708100  1.0  0.0893
  H  H50  1  0.303300  0.081200  0.662300  1.0  0.0977
  H  H51  1  0.349700  0.198500  0.717100  1.0  0.0789
  H  H52  1  0.187100  0.145100  0.859900  1.0  0.1049
  H  H53  1  0.412900  0.281200  0.782100  1.0  0.1049
  H  H54  1  0.460300  0.385200  0.847100  1.0  0.0537
  H  H55  1  0.270000  0.367600  0.957300  1.0  0.0532
  H  H56  1  0.209400  0.261000  0.894800  1.0  0.1164
  H  H57  1  0.265800  0.946100  0.853200  1.0  0.3188
  H  H58  1  0.238200  0.945100  0.920300  1.0  0.3071
  H  H59  1  0.737600  0.494700  0.573300  1.0  0.0465
  H  H60  1  0.849500  0.404900  0.564800  1.0  0.1194
  H  H61  1  0.763200  0.342400  0.392000  1.0  0.1137
  H  H62  1  0.654700  0.439600  0.408800  1.0  0.0464
  H  H63  1  0.960400  0.333900  0.542700  1.0  0.0921
  H  H64  1  0.067000  0.236700  0.528200  1.0  0.0976
  H  H65  1  0.045100  0.122400  0.460100  1.0  0.0888
  H  H66  1  0.823100  0.221700  0.406400  1.0  0.0791
  H  H67  1  0.799800  0.005600  0.208100  1.0  0.0892
  H  H68  1  0.696700  0.918800  0.162300  1.0  0.0972
  H  H69  1  0.650300  0.801500  0.217100  1.0  0.078
  H  H70  1  0.812900  0.854900  0.359900  1.0  0.1051
  H  H71  1  0.587100  0.718800  0.282100  1.0  0.1064
  H  H72  1  0.539700  0.614800  0.347100  1.0  0.0537
  H  H73  1  0.730000  0.632400  0.457300  1.0  0.0536
  H  H74  1  0.790600  0.739000  0.394800  1.0  0.1175
  H  H75  1  0.734200  0.053900  0.353200  1.0  0.3172
  H  H76  1  0.761800  0.054900  0.420300  1.0  0.3074
  H  H77  1  0.494700  0.737600  0.426700  1.0  0.0469
  H  H78  1  0.404900  0.849500  0.435200  1.0  0.1194
  H  H79  1  0.342400  0.763200  0.608000  1.0  0.1123
  H  H80  1  0.439600  0.654700  0.591200  1.0  0.0471
  H  H81  1  0.333900  0.960400  0.457300  1.0  0.0932
  H  H82  1  0.236700  0.067000  0.471800  1.0  0.0971
  H  H83  1  0.122400  0.045100  0.539900  1.0  0.0882
  H  H84  1  0.221700  0.823100  0.593600  1.0  0.0791
  H  H85  1  0.005600  0.799800  0.791900  1.0  0.0886
  H  H86  1  0.918800  0.696700  0.837700  1.0  0.0985
  H  H87  1  0.801500  0.650300  0.782900  1.0  0.0781
  H  H88  1  0.854900  0.812900  0.640100  1.0  0.1046
  H  H89  1  0.718800  0.587100  0.717900  1.0  0.108
  H  H90  1  0.614800  0.539700  0.652900  1.0  0.0536
  H  H91  1  0.632400  0.730000  0.542700  1.0  0.055
  H  H92  1  0.739000  0.790600  0.605200  1.0  0.1182
  H  H93  1  0.053900  0.734200  0.646800  1.0  0.3162
  H  H94  1  0.054900  0.761800  0.579700  1.0  0.3053
  H  H95  1  0.505300  0.262400  0.926700  1.0  0.0467
  H  H96  1  0.595100  0.150500  0.935200  1.0  0.12
  H  H97  1  0.657600  0.236800  0.108000  1.0  0.1128
  H  H98  1  0.560400  0.345300  0.091200  1.0  0.0467
  H  H99  1  0.666100  0.039600  0.957300  1.0  0.0918
  H  H100  1  0.763300  0.933000  0.971800  1.0  0.0971
  H  H101  1  0.877600  0.954900  0.039900  1.0  0.0882
  H  H102  1  0.778300  0.176900  0.093600  1.0  0.0782
  H  H103  1  0.994400  0.200200  0.291900  1.0  0.0889
  H  H104  1  0.081200  0.303300  0.337700  1.0  0.0983
  H  H105  1  0.198500  0.349700  0.282900  1.0  0.0791
  H  H106  1  0.145100  0.187100  0.140100  1.0  0.1053
  H  H107  1  0.281200  0.412900  0.217900  1.0  0.1063
  H  H108  1  0.385200  0.460300  0.152900  1.0  0.0535
  H  H109  1  0.367600  0.270000  0.042700  1.0  0.0539
  H  H110  1  0.261000  0.209400  0.105200  1.0  0.1179
  H  H111  1  0.946100  0.265800  0.146800  1.0  0.3165
  H  H112  1  0.945100  0.238200  0.079700  1.0  0.3062
  H  H113  1  0.237600  0.005300  0.176700  1.0  0.0463
  H  H114  1  0.349500  0.095100  0.185200  1.0  0.1194
  H  H115  1  0.263200  0.157600  0.358000  1.0  0.1132
  H  H116  1  0.154700  0.060400  0.341200  1.0  0.0466
  H  H117  1  0.460400  0.166100  0.207300  1.0  0.0925
  H  H118  1  0.567000  0.263300  0.221800  1.0  0.0976
  H  H119  1  0.545100  0.377600  0.289900  1.0  0.0883
  H  H120  1  0.323100  0.278300  0.343600  1.0  0.0783
  H  H121  1  0.299800  0.494400  0.541900  1.0  0.0897
  H  H122  1  0.196700  0.581200  0.587700  1.0  0.0977
  H  H123  1  0.150300  0.698500  0.532900  1.0  0.0784
  H  H124  1  0.312900  0.645100  0.390100  1.0  0.1046
  H  H125  1  0.087100  0.781200  0.467900  1.0  0.1048
  H  H126  1  0.039700  0.885200  0.402900  1.0  0.0533
  H  H127  1  0.230000  0.867600  0.292700  1.0  0.0547
  H  H128  1  0.290600  0.761000  0.355200  1.0  0.1171
  H  H129  1  0.234200  0.446100  0.396800  1.0  0.3163
  H  H130  1  0.261800  0.445100  0.329700  1.0  0.3063
  H  H131  1  0.762400  0.994700  0.676700  1.0  0.0465
  H  H132  1  0.650500  0.904900  0.685200  1.0  0.1199
  H  H133  1  0.736800  0.842400  0.858000  1.0  0.1135
  H  H134  1  0.845300  0.939600  0.841200  1.0  0.0463
  H  H135  1  0.539600  0.833900  0.707300  1.0  0.0929
  H  H136  1  0.433000  0.736700  0.721800  1.0  0.0973
  H  H137  1  0.454900  0.622400  0.789900  1.0  0.0882
  H  H138  1  0.676900  0.721700  0.843600  1.0  0.0784
  H  H139  1  0.700200  0.505600  0.041900  1.0  0.0895
  H  H140  1  0.803300  0.418800  0.087700  1.0  0.0971
  H  H141  1  0.849700  0.301500  0.032900  1.0  0.0788
  H  H142  1  0.687100  0.354900  0.890100  1.0  0.1049
  H  H143  1  0.912900  0.218800  0.967900  1.0  0.1052
  H  H144  1  0.960300  0.114800  0.902900  1.0  0.0538
  H  H145  1  0.770000  0.132400  0.792700  1.0  0.0539
  H  H146  1  0.709400  0.239000  0.855200  1.0  0.1165
  H  H147  1  0.765800  0.553900  0.896800  1.0  0.3171
  H  H148  1  0.738200  0.554900  0.829700  1.0  0.3069
  C  C149  1  0.037500  0.242900  0.785700  1.0  0.1683
  C  C150  1  0.091300  0.309800  0.781400  1.0  -0.2497
  C  C151  1  0.140100  0.318200  0.727500  1.0  0.0957
  C  C152  1  0.127600  0.259900  0.680800  1.0  -0.2293
  C  C153  1  0.069100  0.194700  0.691400  1.0  0.1614
  C  C154  1  0.207400  0.382700  0.722200  1.0  0.0233
  C  C155  1  0.208100  0.454600  0.761100  1.0  -0.1165
  C  C156  1  0.267700  0.516500  0.754700  1.0  -0.1134
  C  C157  1  0.334500  0.504100  0.713300  1.0  -0.1177
  C  C158  1  0.338300  0.432300  0.676800  1.0  0.0391
  C  C159  1  0.275000  0.372300  0.681600  1.0  -0.1615
  C  C160  1  0.406800  0.423500  0.633900  1.0  0.2165
  C  C161  1  0.504400  0.375300  0.570300  1.0  0.2339
  C  C162  1  0.560300  0.310600  0.539500  1.0  -0.0021
  C  C163  1  0.542000  0.279700  0.480400  1.0  -0.1278
  C  C164  1  0.593700  0.218500  0.453000  1.0  -0.1228
  C  C165  1  0.662300  0.190700  0.485700  1.0  -0.1283
  C  C166  1  0.679600  0.221900  0.547500  1.0  0.0032
  C  C167  1  0.630100  0.286100  0.571400  1.0  -0.1324
  C  C168  1  0.751800  0.190400  0.583300  1.0  0.0575
  C  C169  1  0.794700  0.117800  0.569300  1.0  -0.2451
  C  C170  1  0.856700  0.089700  0.608700  1.0  0.1498
  C  C171  1  0.846900  0.199400  0.672000  1.0  0.1458
  C  C172  1  0.782500  0.236600  0.635000  1.0  -0.2436
  C  C173  1  0.962500  0.757100  0.285700  1.0  0.1691
  C  C174  1  0.908700  0.690200  0.281400  1.0  -0.2501
  C  C175  1  0.859900  0.681800  0.227500  1.0  0.0952
  C  C176  1  0.872400  0.740100  0.180800  1.0  -0.229
  C  C177  1  0.930900  0.805300  0.191400  1.0  0.1625
  C  C178  1  0.792600  0.617300  0.222200  1.0  0.0211
  C  C179  1  0.791900  0.545400  0.261100  1.0  -0.1161
  C  C180  1  0.732300  0.483500  0.254700  1.0  -0.1145
  C  C181  1  0.665500  0.495900  0.213300  1.0  -0.1167
  C  C182  1  0.661700  0.567700  0.176800  1.0  0.0384
  C  C183  1  0.725000  0.627700  0.181600  1.0  -0.1628
  C  C184  1  0.593200  0.576500  0.133900  1.0  0.216
  C  C185  1  0.495600  0.624700  0.070300  1.0  0.2343
  C  C186  1  0.439700  0.689400  0.039500  1.0  -0.0015
  C  C187  1  0.458000  0.720300  0.980400  1.0  -0.129
  C  C188  1  0.406300  0.781500  0.953000  1.0  -0.1216
  C  C189  1  0.337700  0.809300  0.985700  1.0  -0.1284
  C  C190  1  0.320400  0.778100  0.047500  1.0  0.0029
  C  C191  1  0.369900  0.713900  0.071400  1.0  -0.1331
  C  C192  1  0.248200  0.809600  0.083300  1.0  0.0578
  C  C193  1  0.205300  0.882200  0.069300  1.0  -0.2446
  C  C194  1  0.143300  0.910300  0.108700  1.0  0.1491
  C  C195  1  0.153100  0.800600  0.172000  1.0  0.1462
  C  C196  1  0.217500  0.763400  0.135000  1.0  -0.2426
  C  C197  1  0.257100  0.537500  0.035700  1.0  0.1708
  C  C198  1  0.190200  0.591300  0.031400  1.0  -0.2519
  C  C199  1  0.181800  0.640100  0.977500  1.0  0.0962
  C  C200  1  0.240100  0.627600  0.930800  1.0  -0.2276
  C  C201  1  0.305300  0.569100  0.941400  1.0  0.1633
  C  C202  1  0.117300  0.707400  0.972200  1.0  0.0212
  C  C203  1  0.045400  0.708100  0.011100  1.0  -0.1163
  C  C204  1  0.983500  0.767700  0.004700  1.0  -0.116
  C  C205  1  0.995900  0.834500  0.963300  1.0  -0.1165
  C  C206  1  0.067700  0.838300  0.926800  1.0  0.0382
  C  C207  1  0.127700  0.775000  0.931600  1.0  -0.1635
  C  C208  1  0.076500  0.906800  0.883900  1.0  0.2157
  C  C209  1  0.124700  0.004400  0.820300  1.0  0.2323
  C  C210  1  0.189400  0.060300  0.789500  1.0  -0.0027
  C  C211  1  0.220300  0.042000  0.730400  1.0  -0.1303
  C  C212  1  0.281500  0.093700  0.703000  1.0  -0.123
  C  C213  1  0.309300  0.162300  0.735700  1.0  -0.1291
  C  C214  1  0.278100  0.179600  0.797500  1.0  0.0021
  C  C215  1  0.213900  0.130100  0.821400  1.0  -0.1327
  C  C216  1  0.309600  0.251800  0.833300  1.0  0.0581
  C  C217  1  0.382200  0.294700  0.819300  1.0  -0.241
  C  C218  1  0.410300  0.356700  0.858700  1.0  0.1509
  C  C219  1  0.300600  0.346900  0.922000  1.0  0.1482
  C  C220  1  0.263400  0.282500  0.885000  1.0  -0.242
  C  C221  1  0.742900  0.462500  0.535700  1.0  0.1702
  C  C222  1  0.809800  0.408700  0.531400  1.0  -0.2497
  C  C223  1  0.818200  0.359900  0.477500  1.0  0.0964
  C  C224  1  0.759900  0.372400  0.430800  1.0  -0.2276
  C  C225  1  0.694700  0.430900  0.441400  1.0  0.163
  C  C226  1  0.882700  0.292600  0.472200  1.0  0.0204
  C  C227  1  0.954600  0.291900  0.511100  1.0  -0.1154
  C  C228  1  0.016500  0.232300  0.504700  1.0  -0.1136
  C  C229  1  0.004100  0.165500  0.463300  1.0  -0.1163
  C  C230  1  0.932300  0.161700  0.426800  1.0  0.0394
  C  C231  1  0.872300  0.225000  0.431600  1.0  -0.1637
  C  C232  1  0.923500  0.093200  0.383900  1.0  0.2154
  C  C233  1  0.875300  0.995600  0.320300  1.0  0.2323
  C  C234  1  0.810600  0.939700  0.289500  1.0  -0.002
  C  C235  1  0.779700  0.958000  0.230400  1.0  -0.1298
  C  C236  1  0.718500  0.906300  0.203000  1.0  -0.1226
  C  C237  1  0.690700  0.837700  0.235700  1.0  -0.1291
  C  C238  1  0.721900  0.820400  0.297500  1.0  0.0028
  C  C239  1  0.786100  0.869900  0.321400  1.0  -0.1325
  C  C240  1  0.690400  0.748200  0.333333  1.0  0.0474
  C  C241  1  0.617800  0.705300  0.319300  1.0  -0.2422
  C  C242  1  0.589700  0.643300  0.358700  1.0  0.151
  C  C243  1  0.699400  0.653100  0.422000  1.0  0.148
  C  C244  1  0.736600  0.717500  0.385000  1.0  -0.2419
  C  C245  1  0.462500  0.742900  0.464300  1.0  0.1681
  C  C246  1  0.408700  0.809800  0.468600  1.0  -0.2502
  C  C247  1  0.359900  0.818200  0.522500  1.0  0.0958
  C  C248  1  0.372400  0.759900  0.569200  1.0  -0.2289
  C  C249  1  0.430900  0.694700  0.558600  1.0  0.1623
  C  C250  1  0.292600  0.882700  0.527800  1.0  0.0214
  C  C251  1  0.291900  0.954600  0.488900  1.0  -0.1152
  C  C252  1  0.232300  0.016500  0.495300  1.0  -0.1131
  C  C253  1  0.165500  0.004100  0.536700  1.0  -0.117
  C  C254  1  0.161700  0.932300  0.573200  1.0  0.0387
  C  C255  1  0.225000  0.872300  0.568400  1.0  -0.1617
  C  C256  1  0.093200  0.923500  0.616100  1.0  0.2165
  C  C257  1  0.995600  0.875300  0.679700  1.0  0.2335
  C  C258  1  0.939700  0.810600  0.710500  1.0  -0.0009
  C  C259  1  0.958000  0.779700  0.769600  1.0  -0.1291
  C  C260  1  0.906300  0.718500  0.797000  1.0  -0.1232
  C  C261  1  0.837700  0.690700  0.764300  1.0  -0.1296
  C  C262  1  0.820400  0.721900  0.702500  1.0  0.0029
  C  C263  1  0.869900  0.786100  0.678600  1.0  -0.1344
  C  C264  1  0.748200  0.690400  0.666667  1.0  0.0457
  C  C265  1  0.705300  0.617800  0.680700  1.0  -0.2433
  C  C266  1  0.643300  0.589700  0.641300  1.0  0.1498
  C  C267  1  0.653100  0.699400  0.578000  1.0  0.1467
  C  C268  1  0.717500  0.736600  0.615000  1.0  -0.2417
  C  C269  1  0.537500  0.257100  0.964300  1.0  0.1679
  C  C270  1  0.591300  0.190200  0.968600  1.0  -0.2515
  C  C271  1  0.640100  0.181800  0.022500  1.0  0.0942
  C  C272  1  0.627600  0.240100  0.069200  1.0  -0.2281
  C  C273  1  0.569100  0.305300  0.058600  1.0  0.1606
  C  C274  1  0.707400  0.117300  0.027800  1.0  0.0233
  C  C275  1  0.708100  0.045400  0.988900  1.0  -0.1153
  C  C276  1  0.767700  0.983500  0.995300  1.0  -0.1141
  C  C277  1  0.834500  0.995900  0.036700  1.0  -0.1178
  C  C278  1  0.838300  0.067700  0.073200  1.0  0.0392
  C  C279  1  0.775000  0.127700  0.068400  1.0  -0.1619
  C  C280  1  0.906800  0.076500  0.116100  1.0  0.2166
  C  C281  1  0.004400  0.124700  0.179700  1.0  0.2332
  C  C282  1  0.060300  0.189400  0.210500  1.0  -0.0023
  C  C283  1  0.042000  0.220300  0.269600  1.0  -0.1281
  C  C284  1  0.093700  0.281500  0.297000  1.0  -0.1225
  C  C285  1  0.162300  0.309300  0.264300  1.0  -0.128
  C  C286  1  0.179600  0.278100  0.202500  1.0  0.0021
  C  C287  1  0.130100  0.213900  0.178600  1.0  -0.1342
  C  C288  1  0.251800  0.309600  0.166700  1.0  0.0571
  C  C289  1  0.294700  0.382200  0.180700  1.0  -0.2453
  C  C290  1  0.356700  0.410300  0.141300  1.0  0.1497
  C  C291  1  0.346900  0.300600  0.078000  1.0  0.1467
  C  C292  1  0.282500  0.263400  0.115000  1.0  -0.2436
  C  C293  1  0.242900  0.037500  0.214300  1.0  0.1699
  C  C294  1  0.309800  0.091300  0.218600  1.0  -0.2532
  C  C295  1  0.318200  0.140100  0.272500  1.0  0.0955
  C  C296  1  0.259900  0.127600  0.319200  1.0  -0.2266
  C  C297  1  0.194700  0.069100  0.308600  1.0  0.1632
  C  C298  1  0.382700  0.207400  0.277800  1.0  0.0207
  C  C299  1  0.454600  0.208100  0.238900  1.0  -0.116
  C  C300  1  0.516500  0.267700  0.245300  1.0  -0.1135
  C  C301  1  0.504100  0.334500  0.286700  1.0  -0.1162
  C  C302  1  0.432300  0.338300  0.323200  1.0  0.0391
  C  C303  1  0.372300  0.275000  0.318400  1.0  -0.1631
  C  C304  1  0.423500  0.406800  0.366100  1.0  0.216
  C  C305  1  0.375300  0.504400  0.429700  1.0  0.2317
  C  C306  1  0.310600  0.560300  0.460500  1.0  -0.0029
  C  C307  1  0.279700  0.542000  0.519600  1.0  -0.1297
  C  C308  1  0.218500  0.593700  0.547000  1.0  -0.1223
  C  C309  1  0.190700  0.662300  0.514300  1.0  -0.1294
  C  C310  1  0.221900  0.679600  0.452500  1.0  0.0018
  C  C311  1  0.286100  0.630100  0.428600  1.0  -0.1343
  C  C312  1  0.190400  0.751800  0.416700  1.0  0.0571
  C  C313  1  0.117800  0.794700  0.430700  1.0  -0.2416
  C  C314  1  0.089700  0.856700  0.391300  1.0  0.1514
  C  C315  1  0.199400  0.846900  0.328000  1.0  0.1485
  C  C316  1  0.236600  0.782500  0.365000  1.0  -0.243
  C  C317  1  0.757100  0.962500  0.714300  1.0  0.1695
  C  C318  1  0.690200  0.908700  0.718600  1.0  -0.2514
  C  C319  1  0.681800  0.859900  0.772500  1.0  0.0963
  C  C320  1  0.740100  0.872400  0.819200  1.0  -0.2278
  C  C321  1  0.805300  0.930900  0.808600  1.0  0.1623
  C  C322  1  0.617300  0.792600  0.777800  1.0  0.0213
  C  C323  1  0.545400  0.791900  0.738900  1.0  -0.1152
  C  C324  1  0.483500  0.732300  0.745300  1.0  -0.1168
  C  C325  1  0.495900  0.665500  0.786700  1.0  -0.1161
  C  C326  1  0.567700  0.661700  0.823200  1.0  0.0387
  C  C327  1  0.627700  0.725000  0.818400  1.0  -0.1633
  C  C328  1  0.576500  0.593200  0.866100  1.0  0.2157
  C  C329  1  0.624700  0.495600  0.929700  1.0  0.2317
  C  C330  1  0.689400  0.439700  0.960500  1.0  -0.0016
  C  C331  1  0.720300  0.458000  0.019600  1.0  -0.1297
  C  C332  1  0.781500  0.406300  0.047000  1.0  -0.1224
  C  C333  1  0.809300  0.337700  0.014300  1.0  -0.1297
  C  C334  1  0.778100  0.320400  0.952500  1.0  0.0027
  C  C335  1  0.713900  0.369900  0.928600  1.0  -0.134
  C  C336  1  0.809600  0.248200  0.916700  1.0  0.0573
  C  C337  1  0.882200  0.205300  0.930700  1.0  -0.241
  C  C338  1  0.910300  0.143300  0.891300  1.0  0.1507
  C  C339  1  0.800600  0.153100  0.828000  1.0  0.1484
  C  C340  1  0.763400  0.217500  0.865000  1.0  -0.2422
  N  N341  1  0.027500  0.187000  0.742600  1.0  -0.3415
  N  N342  1  0.446300  0.487400  0.607100  1.0  -0.2719
  N  N343  1  0.507300  0.456500  0.567100  1.0  -0.2556
  N  N344  1  0.446000  0.352900  0.611500  1.0  0.1183
  N  N345  1  0.424000  0.271700  0.631000  1.0  -0.5953
  N  N346  1  0.879400  0.126300  0.660800  1.0  -0.346
  N  N347  1  0.972500  0.813000  0.242600  1.0  -0.3424
  N  N348  1  0.553700  0.512600  0.107100  1.0  -0.2712
  N  N349  1  0.492700  0.543500  0.067100  1.0  -0.2544
  N  N350  1  0.554000  0.647100  0.111500  1.0  0.1181
  N  N351  1  0.576000  0.728300  0.131000  1.0  -0.5972
  N  N352  1  0.120600  0.873700  0.160800  1.0  -0.3463
  N  N353  1  0.313000  0.527500  0.992600  1.0  -0.3425
  N  N354  1  0.012600  0.946300  0.857100  1.0  -0.2716
  N  N355  1  0.043500  0.007300  0.817100  1.0  -0.2541
  N  N356  1  0.147100  0.946000  0.861500  1.0  0.1184
  N  N357  1  0.228300  0.924000  0.881000  1.0  -0.5931
  N  N358  1  0.373700  0.379400  0.910800  1.0  -0.346
  N  N359  1  0.687000  0.472500  0.492600  1.0  -0.3422
  N  N360  1  0.987400  0.053700  0.357100  1.0  -0.2741
  N  N361  1  0.956500  0.992700  0.317100  1.0  -0.2544
  N  N362  1  0.852900  0.054000  0.361500  1.0  0.1171
  N  N363  1  0.771700  0.076000  0.381000  1.0  -0.5927
  N  N364  1  0.626300  0.620600  0.410800  1.0  -0.3456
  N  N365  1  0.472500  0.687000  0.507400  1.0  -0.3429
  N  N366  1  0.053700  0.987400  0.642900  1.0  -0.2729
  N  N367  1  0.992700  0.956500  0.682900  1.0  -0.2553
  N  N368  1  0.054000  0.852900  0.638500  1.0  0.1178
  N  N369  1  0.076000  0.771700  0.619000  1.0  -0.5954
  N  N370  1  0.620600  0.626300  0.589200  1.0  -0.3461
  N  N371  1  0.527500  0.313000  0.007400  1.0  -0.3399
  N  N372  1  0.946300  0.012600  0.142900  1.0  -0.2721
  N  N373  1  0.007300  0.043500  0.182900  1.0  -0.2549
  N  N374  1  0.946000  0.147100  0.138500  1.0  0.1179
  N  N375  1  0.924000  0.228300  0.119000  1.0  -0.595
  N  N376  1  0.379400  0.373700  0.089200  1.0  -0.3466
  N  N377  1  0.187000  0.027500  0.257400  1.0  -0.3408
  N  N378  1  0.487400  0.446300  0.392900  1.0  -0.2747
  N  N379  1  0.456500  0.507300  0.432900  1.0  -0.2548
  N  N380  1  0.352900  0.446000  0.388500  1.0  0.1169
  N  N381  1  0.271700  0.424000  0.369000  1.0  -0.5925
  N  N382  1  0.126300  0.879400  0.339200  1.0  -0.3459
  N  N383  1  0.813000  0.972500  0.757400  1.0  -0.3439
  N  N384  1  0.512600  0.553700  0.892900  1.0  -0.2723
  N  N385  1  0.543500  0.492700  0.932900  1.0  -0.2548
  N  N386  1  0.647100  0.554000  0.888500  1.0  0.1179
  N  N387  1  0.728300  0.576000  0.869000  1.0  -0.5917
  N  N388  1  0.873700  0.120600  0.839200  1.0  -0.3462
