# generated using pymatgen
data_CdH36(C4N)12
_symmetry_space_group_name_H-M   'P 1'
_cell_length_a   15.83460000
_cell_length_b   15.83460000
_cell_length_c   21.46300000
_cell_angle_alpha   90.00000000
_cell_angle_beta   90.00000000
_cell_angle_gamma   90.00000000
_symmetry_Int_Tables_number   1
_chemical_formula_structural   CdH36(C4N)12
_chemical_formula_sum   'Cd4 H144 C192 N48'
_cell_volume   5381.51580033
_cell_formula_units_Z   4
loop_
 _symmetry_equiv_pos_site_id
 _symmetry_equiv_pos_as_xyz
  1  'x, y, z'
loop_
 _atom_site_type_symbol
 _atom_site_label
 _atom_site_symmetry_multiplicity
 _atom_site_fract_x
 _atom_site_fract_y
 _atom_site_fract_z
 _atom_site_occupancy
 _atom_site_charge
  Cd  Cd1  1  0.439790  0.560210  0.750000  1.0  0.7914
  Cd  Cd2  1  0.560210  0.439790  0.250000  1.0  0.7914
  Cd  Cd3  1  0.939790  0.939790  0.000000  1.0  0.7915
  Cd  Cd4  1  0.060210  0.060210  0.500000  1.0  0.7912
  H  H5  1  0.962900  0.888300  0.846800  1.0  0.0695
  H  H6  1  0.913700  0.784400  0.781900  1.0  0.1119
  H  H7  1  0.711300  0.758700  0.894800  1.0  0.1128
  H  H8  1  0.769300  0.858700  0.959100  1.0  0.0632
  H  H9  1  0.849700  0.699000  0.717600  1.0  0.0712
  H  H10  1  0.416000  0.201000  0.837400  1.0  0.0898
  H  H11  1  0.509000  0.298100  0.793200  1.0  0.0852
  H  H12  1  0.361200  0.305000  0.639400  1.0  0.1071
  H  H13  1  0.620000  0.545900  0.540900  1.0  0.0955
  H  H14  1  0.736200  0.572700  0.476900  1.0  0.1025
  H  H15  1  0.835300  0.461700  0.460000  1.0  0.105
  H  H16  1  0.724000  0.325100  0.594300  1.0  0.0965
  H  H17  1  0.850700  0.271500  0.610800  1.0  0.117
  H  H18  1  0.942200  0.161100  0.593100  1.0  0.0479
  H  H19  1  0.990900  0.237900  0.425800  1.0  0.0514
  H  H20  1  0.900300  0.350600  0.434700  1.0  0.109
  H  H21  1  0.583000  0.235200  0.657600  1.0  0.2734
  H  H22  1  0.541000  0.249700  0.596600  1.0  0.328
  H  H23  1  0.037100  0.111700  0.346800  1.0  0.0688
  H  H24  1  0.086300  0.215600  0.281900  1.0  0.1117
  H  H25  1  0.288700  0.241300  0.394800  1.0  0.1127
  H  H26  1  0.230700  0.141300  0.459100  1.0  0.0641
  H  H27  1  0.150300  0.301000  0.217600  1.0  0.0708
  H  H28  1  0.584000  0.799000  0.337400  1.0  0.0898
  H  H29  1  0.491000  0.701900  0.293200  1.0  0.0854
  H  H30  1  0.638800  0.695000  0.139400  1.0  0.1064
  H  H31  1  0.380000  0.454100  0.040900  1.0  0.096
  H  H32  1  0.263800  0.427300  0.976900  1.0  0.1027
  H  H33  1  0.164700  0.538300  0.960000  1.0  0.1034
  H  H34  1  0.276000  0.674900  0.094300  1.0  0.096
  H  H35  1  0.149300  0.728500  0.110800  1.0  0.1171
  H  H36  1  0.057800  0.838900  0.093100  1.0  0.0472
  H  H37  1  0.009100  0.762100  0.925800  1.0  0.0508
  H  H38  1  0.099700  0.649400  0.934700  1.0  0.1105
  H  H39  1  0.417000  0.764800  0.157600  1.0  0.2731
  H  H40  1  0.459000  0.750300  0.096600  1.0  0.328
  H  H41  1  0.611700  0.462900  0.096800  1.0  0.0688
  H  H42  1  0.715600  0.413700  0.031900  1.0  0.1132
  H  H43  1  0.741300  0.211300  0.144800  1.0  0.1128
  H  H44  1  0.641300  0.269300  0.209100  1.0  0.0641
  H  H45  1  0.801000  0.349700  0.967600  1.0  0.0728
  H  H46  1  0.299000  0.916000  0.087400  1.0  0.0885
  H  H47  1  0.201900  0.009000  0.043200  1.0  0.0867
  H  H48  1  0.195000  0.861200  0.889400  1.0  0.1076
  H  H49  1  0.954100  0.120000  0.790900  1.0  0.096
  H  H50  1  0.927300  0.236200  0.726900  1.0  0.1031
  H  H51  1  0.038300  0.335300  0.710000  1.0  0.1043
  H  H52  1  0.174900  0.224000  0.844300  1.0  0.0961
  H  H53  1  0.228500  0.350700  0.860800  1.0  0.1177
  H  H54  1  0.338900  0.442200  0.843100  1.0  0.0471
  H  H55  1  0.262100  0.490900  0.675800  1.0  0.051
  H  H56  1  0.149400  0.400300  0.684700  1.0  0.1105
  H  H57  1  0.264800  0.083000  0.907600  1.0  0.2726
  H  H58  1  0.250300  0.041000  0.846600  1.0  0.3292
  H  H59  1  0.388300  0.537100  0.596800  1.0  0.0686
  H  H60  1  0.284400  0.586300  0.531900  1.0  0.1126
  H  H61  1  0.258700  0.788700  0.644800  1.0  0.1124
  H  H62  1  0.358700  0.730700  0.709100  1.0  0.0637
  H  H63  1  0.199000  0.650300  0.467600  1.0  0.0723
  H  H64  1  0.701000  0.084000  0.587400  1.0  0.089
  H  H65  1  0.798100  0.991000  0.543200  1.0  0.0867
  H  H66  1  0.805000  0.138800  0.389400  1.0  0.1077
  H  H67  1  0.045900  0.880000  0.290900  1.0  0.0962
  H  H68  1  0.072700  0.763800  0.226900  1.0  0.103
  H  H69  1  0.961700  0.664700  0.210000  1.0  0.1036
  H  H70  1  0.825100  0.776000  0.344300  1.0  0.0959
  H  H71  1  0.771500  0.649300  0.360800  1.0  0.1175
  H  H72  1  0.661100  0.557800  0.343100  1.0  0.0467
  H  H73  1  0.737900  0.509100  0.175800  1.0  0.0505
  H  H74  1  0.850600  0.599700  0.184700  1.0  0.1106
  H  H75  1  0.735200  0.917000  0.407600  1.0  0.2725
  H  H76  1  0.749700  0.959000  0.346600  1.0  0.329
  H  H77  1  0.537100  0.388300  0.403200  1.0  0.0689
  H  H78  1  0.586300  0.284400  0.468100  1.0  0.1115
  H  H79  1  0.788700  0.258700  0.355200  1.0  0.1139
  H  H80  1  0.730700  0.358700  0.290900  1.0  0.0645
  H  H81  1  0.650300  0.199000  0.532400  1.0  0.0706
  H  H82  1  0.084000  0.701000  0.412600  1.0  0.0875
  H  H83  1  0.991000  0.798100  0.456800  1.0  0.0851
  H  H84  1  0.138800  0.805000  0.610600  1.0  0.1073
  H  H85  1  0.880000  0.045900  0.709100  1.0  0.0955
  H  H86  1  0.763800  0.072700  0.773100  1.0  0.1029
  H  H87  1  0.664700  0.961700  0.790000  1.0  0.1034
  H  H88  1  0.776000  0.825100  0.655700  1.0  0.0969
  H  H89  1  0.649300  0.771500  0.639200  1.0  0.1168
  H  H90  1  0.557800  0.661100  0.656900  1.0  0.048
  H  H91  1  0.509100  0.737900  0.824200  1.0  0.0533
  H  H92  1  0.599700  0.850600  0.815300  1.0  0.1107
  H  H93  1  0.917000  0.735200  0.592400  1.0  0.2731
  H  H94  1  0.959000  0.749700  0.653400  1.0  0.3273
  H  H95  1  0.462900  0.611700  0.903200  1.0  0.0692
  H  H96  1  0.413700  0.715600  0.968100  1.0  0.1119
  H  H97  1  0.211300  0.741300  0.855200  1.0  0.1139
  H  H98  1  0.269300  0.641300  0.790900  1.0  0.0636
  H  H99  1  0.349700  0.801000  0.032400  1.0  0.0706
  H  H100  1  0.916000  0.299000  0.912600  1.0  0.0873
  H  H101  1  0.009000  0.201900  0.956800  1.0  0.0846
  H  H102  1  0.861200  0.195000  0.110600  1.0  0.1078
  H  H103  1  0.120000  0.954100  0.209100  1.0  0.0958
  H  H104  1  0.236200  0.927300  0.273100  1.0  0.1024
  H  H105  1  0.335300  0.038300  0.290000  1.0  0.1037
  H  H106  1  0.224000  0.174900  0.155700  1.0  0.0966
  H  H107  1  0.350700  0.228500  0.139200  1.0  0.1169
  H  H108  1  0.442200  0.338900  0.156900  1.0  0.0471
  H  H109  1  0.490900  0.262100  0.324200  1.0  0.0521
  H  H110  1  0.400300  0.149400  0.315300  1.0  0.1101
  H  H111  1  0.083000  0.264800  0.092400  1.0  0.2736
  H  H112  1  0.041000  0.250300  0.153400  1.0  0.3282
  H  H113  1  0.888300  0.962900  0.153200  1.0  0.0684
  H  H114  1  0.784400  0.913700  0.218100  1.0  0.1128
  H  H115  1  0.758700  0.711300  0.105200  1.0  0.1134
  H  H116  1  0.858700  0.769300  0.040900  1.0  0.0642
  H  H117  1  0.699000  0.849700  0.282400  1.0  0.0725
  H  H118  1  0.201000  0.416000  0.162600  1.0  0.0863
  H  H119  1  0.298100  0.509000  0.206800  1.0  0.0858
  H  H120  1  0.305000  0.361200  0.360600  1.0  0.1083
  H  H121  1  0.545900  0.620000  0.459100  1.0  0.0964
  H  H122  1  0.572700  0.736200  0.523100  1.0  0.1025
  H  H123  1  0.461700  0.835300  0.540000  1.0  0.103
  H  H124  1  0.325100  0.724000  0.405700  1.0  0.0967
  H  H125  1  0.271500  0.850700  0.389200  1.0  0.1173
  H  H126  1  0.161100  0.942200  0.406900  1.0  0.0467
  H  H127  1  0.237900  0.990900  0.574200  1.0  0.0517
  H  H128  1  0.350600  0.900300  0.565300  1.0  0.1111
  H  H129  1  0.235200  0.583000  0.342400  1.0  0.2719
  H  H130  1  0.249700  0.541000  0.403400  1.0  0.3294
  H  H131  1  0.111700  0.037100  0.653200  1.0  0.0687
  H  H132  1  0.215600  0.086300  0.718100  1.0  0.1128
  H  H133  1  0.241300  0.288700  0.605200  1.0  0.1139
  H  H134  1  0.141300  0.230700  0.540900  1.0  0.064
  H  H135  1  0.301000  0.150300  0.782400  1.0  0.072
  H  H136  1  0.799000  0.584000  0.662600  1.0  0.0863
  H  H137  1  0.701900  0.491000  0.706800  1.0  0.0864
  H  H138  1  0.695000  0.638800  0.860600  1.0  0.1082
  H  H139  1  0.454100  0.380000  0.959100  1.0  0.0961
  H  H140  1  0.427300  0.263800  0.023100  1.0  0.103
  H  H141  1  0.538300  0.164700  0.040000  1.0  0.1043
  H  H142  1  0.674900  0.276000  0.905700  1.0  0.0961
  H  H143  1  0.728500  0.149300  0.889200  1.0  0.1176
  H  H144  1  0.838900  0.057800  0.906900  1.0  0.047
  H  H145  1  0.762100  0.009100  0.074200  1.0  0.0532
  H  H146  1  0.649400  0.099700  0.065300  1.0  0.1113
  H  H147  1  0.764800  0.417000  0.842400  1.0  0.2728
  H  H148  1  0.750300  0.459000  0.903400  1.0  0.3287
  C  C149  1  0.912700  0.859200  0.858000  1.0  0.1396
  C  C150  1  0.883200  0.797800  0.818700  1.0  -0.2162
  C  C151  1  0.807700  0.754300  0.832700  1.0  0.0969
  C  C152  1  0.765100  0.781800  0.885000  1.0  -0.2313
  C  C153  1  0.799700  0.842600  0.922900  1.0  0.132
  C  C154  1  0.778000  0.682200  0.794800  1.0  0.0202
  C  C155  1  0.808100  0.663600  0.735900  1.0  -0.1204
  C  C156  1  0.405700  0.221400  0.796500  1.0  -0.0873
  C  C157  1  0.460400  0.279900  0.771000  1.0  -0.1471
  C  C158  1  0.442700  0.311200  0.712800  1.0  0.0079
  C  C159  1  0.372400  0.282900  0.679700  1.0  -0.1133
  C  C160  1  0.496600  0.375300  0.681300  1.0  0.2251
  C  C161  1  0.592200  0.425700  0.619200  1.0  0.2465
  C  C162  1  0.663700  0.434400  0.575400  1.0  -0.0224
  C  C163  1  0.665100  0.506500  0.538700  1.0  -0.0738
  C  C164  1  0.731700  0.520900  0.499000  1.0  -0.1166
  C  C165  1  0.793700  0.456800  0.491700  1.0  -0.1112
  C  C166  1  0.793400  0.388400  0.530000  1.0  0.0127
  C  C167  1  0.726500  0.375300  0.570100  1.0  -0.1452
  C  C168  1  0.860100  0.319900  0.522500  1.0  0.0453
  C  C169  1  0.877000  0.264900  0.571300  1.0  -0.2595
  C  C170  1  0.933600  0.200300  0.560200  1.0  0.1782
  C  C171  1  0.961100  0.244600  0.463900  1.0  0.1536
  C  C172  1  0.906300  0.311500  0.468000  1.0  -0.2413
  C  C173  1  0.087300  0.140800  0.358000  1.0  0.1403
  C  C174  1  0.116800  0.202200  0.318700  1.0  -0.2177
  C  C175  1  0.192300  0.245700  0.332700  1.0  0.0965
  C  C176  1  0.234900  0.218200  0.385000  1.0  -0.2324
  C  C177  1  0.200300  0.157400  0.422900  1.0  0.1323
  C  C178  1  0.222000  0.317800  0.294800  1.0  0.022
  C  C179  1  0.191900  0.336400  0.235900  1.0  -0.119
  C  C180  1  0.594300  0.778600  0.296500  1.0  -0.0859
  C  C181  1  0.539600  0.720100  0.271000  1.0  -0.1474
  C  C182  1  0.557300  0.688800  0.212800  1.0  0.0061
  C  C183  1  0.627600  0.717100  0.179700  1.0  -0.112
  C  C184  1  0.503400  0.624700  0.181300  1.0  0.2249
  C  C185  1  0.407800  0.574300  0.119200  1.0  0.2468
  C  C186  1  0.336300  0.565600  0.075400  1.0  -0.0221
  C  C187  1  0.334900  0.493500  0.038700  1.0  -0.0731
  C  C188  1  0.268300  0.479100  0.999000  1.0  -0.1167
  C  C189  1  0.206300  0.543200  0.991700  1.0  -0.1129
  C  C190  1  0.206600  0.611600  0.030000  1.0  0.0133
  C  C191  1  0.273500  0.624700  0.070100  1.0  -0.1446
  C  C192  1  0.139900  0.680100  0.022500  1.0  0.0465
  C  C193  1  0.123000  0.735100  0.071300  1.0  -0.2587
  C  C194  1  0.066400  0.799700  0.060200  1.0  0.1771
  C  C195  1  0.038900  0.755400  0.963900  1.0  0.1542
  C  C196  1  0.093700  0.688500  0.968000  1.0  -0.2426
  C  C197  1  0.640800  0.412700  0.108000  1.0  0.1384
  C  C198  1  0.702200  0.383200  0.068700  1.0  -0.2196
  C  C199  1  0.745700  0.307700  0.082700  1.0  0.0961
  C  C200  1  0.718200  0.265100  0.135000  1.0  -0.232
  C  C201  1  0.657400  0.299700  0.172900  1.0  0.1297
  C  C202  1  0.817800  0.278000  0.044800  1.0  0.0211
  C  C203  1  0.836400  0.308100  0.985900  1.0  -0.1216
  C  C204  1  0.278600  0.905700  0.046500  1.0  -0.0876
  C  C205  1  0.220100  0.960400  0.021000  1.0  -0.1481
  C  C206  1  0.188800  0.942700  0.962800  1.0  0.007
  C  C207  1  0.217100  0.872400  0.929700  1.0  -0.1121
  C  C208  1  0.124700  0.996600  0.931300  1.0  0.2236
  C  C209  1  0.074300  0.092200  0.869200  1.0  0.2455
  C  C210  1  0.065600  0.163700  0.825400  1.0  -0.0227
  C  C211  1  0.993500  0.165100  0.788700  1.0  -0.0714
  C  C212  1  0.979100  0.231700  0.749000  1.0  -0.1199
  C  C213  1  0.043200  0.293700  0.741700  1.0  -0.1127
  C  C214  1  0.111600  0.293400  0.780000  1.0  0.0122
  C  C215  1  0.124700  0.226500  0.820100  1.0  -0.1463
  C  C216  1  0.180100  0.360100  0.772500  1.0  0.0466
  C  C217  1  0.235100  0.377000  0.821300  1.0  -0.2583
  C  C218  1  0.299700  0.433600  0.810200  1.0  0.1782
  C  C219  1  0.255400  0.461100  0.713900  1.0  0.1556
  C  C220  1  0.188500  0.406300  0.718000  1.0  -0.2435
  C  C221  1  0.359200  0.587300  0.608000  1.0  0.1384
  C  C222  1  0.297800  0.616800  0.568700  1.0  -0.22
  C  C223  1  0.254300  0.692300  0.582700  1.0  0.0961
  C  C224  1  0.281800  0.734900  0.635000  1.0  -0.2329
  C  C225  1  0.342600  0.700300  0.672900  1.0  0.1307
  C  C226  1  0.182200  0.722000  0.544800  1.0  0.0218
  C  C227  1  0.163600  0.691900  0.485900  1.0  -0.1226
  C  C228  1  0.721400  0.094300  0.546500  1.0  -0.0872
  C  C229  1  0.779900  0.039600  0.521000  1.0  -0.1477
  C  C230  1  0.811200  0.057300  0.462800  1.0  0.0055
  C  C231  1  0.782900  0.127600  0.429700  1.0  -0.1125
  C  C232  1  0.875300  0.003400  0.431300  1.0  0.2234
  C  C233  1  0.925700  0.907800  0.369200  1.0  0.246
  C  C234  1  0.934400  0.836300  0.325400  1.0  -0.0236
  C  C235  1  0.006500  0.834900  0.288700  1.0  -0.0722
  C  C236  1  0.020900  0.768300  0.249000  1.0  -0.1189
  C  C237  1  0.956800  0.706300  0.241700  1.0  -0.1118
  C  C238  1  0.888400  0.706600  0.280000  1.0  0.013
  C  C239  1  0.875300  0.773500  0.320100  1.0  -0.146
  C  C240  1  0.819900  0.639900  0.272500  1.0  0.0457
  C  C241  1  0.764900  0.623000  0.321300  1.0  -0.258
  C  C242  1  0.700300  0.566400  0.310200  1.0  0.1794
  C  C243  1  0.744600  0.538900  0.213900  1.0  0.1558
  C  C244  1  0.811500  0.593700  0.218000  1.0  -0.2425
  C  C245  1  0.587300  0.359200  0.392000  1.0  0.1398
  C  C246  1  0.616800  0.297800  0.431300  1.0  -0.2176
  C  C247  1  0.692300  0.254300  0.417300  1.0  0.0979
  C  C248  1  0.734900  0.281800  0.365000  1.0  -0.2307
  C  C249  1  0.700300  0.342600  0.327100  1.0  0.1325
  C  C250  1  0.722000  0.182200  0.455200  1.0  0.021
  C  C251  1  0.691900  0.163600  0.514100  1.0  -0.119
  C  C252  1  0.094300  0.721400  0.453500  1.0  -0.0863
  C  C253  1  0.039600  0.779900  0.479000  1.0  -0.1471
  C  C254  1  0.057300  0.811200  0.537200  1.0  0.0065
  C  C255  1  0.127600  0.782900  0.570300  1.0  -0.1132
  C  C256  1  0.003400  0.875300  0.568700  1.0  0.2242
  C  C257  1  0.907800  0.925700  0.630800  1.0  0.2462
  C  C258  1  0.836300  0.934400  0.674600  1.0  -0.0222
  C  C259  1  0.834900  0.006500  0.711300  1.0  -0.0737
  C  C260  1  0.768300  0.020900  0.751000  1.0  -0.1158
  C  C261  1  0.706300  0.956800  0.758300  1.0  -0.1129
  C  C262  1  0.706600  0.888400  0.720000  1.0  0.0126
  C  C263  1  0.773500  0.875300  0.679900  1.0  -0.1452
  C  C264  1  0.639900  0.819900  0.727500  1.0  0.0458
  C  C265  1  0.623000  0.764900  0.678700  1.0  -0.2562
  C  C266  1  0.566400  0.700300  0.689800  1.0  0.1775
  C  C267  1  0.538900  0.744600  0.786100  1.0  0.1544
  C  C268  1  0.593700  0.811500  0.782000  1.0  -0.2427
  C  C269  1  0.412700  0.640800  0.892000  1.0  0.1388
  C  C270  1  0.383200  0.702200  0.931300  1.0  -0.2159
  C  C271  1  0.307700  0.745700  0.917300  1.0  0.0978
  C  C272  1  0.265100  0.718200  0.865000  1.0  -0.2298
  C  C273  1  0.299700  0.657400  0.827100  1.0  0.1324
  C  C274  1  0.278000  0.817800  0.955200  1.0  0.0208
  C  C275  1  0.308100  0.836400  0.014100  1.0  -0.121
  C  C276  1  0.905700  0.278600  0.953500  1.0  -0.0856
  C  C277  1  0.960400  0.220100  0.979000  1.0  -0.1478
  C  C278  1  0.942700  0.188800  0.037200  1.0  0.0079
  C  C279  1  0.872400  0.217100  0.070300  1.0  -0.1141
  C  C280  1  0.996600  0.124700  0.068700  1.0  0.2243
  C  C281  1  0.092200  0.074300  0.130800  1.0  0.246
  C  C282  1  0.163700  0.065600  0.174600  1.0  -0.0224
  C  C283  1  0.165100  0.993500  0.211300  1.0  -0.0733
  C  C284  1  0.231700  0.979100  0.251000  1.0  -0.1157
  C  C285  1  0.293700  0.043200  0.258300  1.0  -0.111
  C  C286  1  0.293400  0.111600  0.220000  1.0  0.0128
  C  C287  1  0.226500  0.124700  0.179900  1.0  -0.1455
  C  C288  1  0.360100  0.180100  0.227500  1.0  0.0456
  C  C289  1  0.377000  0.235100  0.178700  1.0  -0.2572
  C  C290  1  0.433600  0.299700  0.189800  1.0  0.1776
  C  C291  1  0.461100  0.255400  0.286100  1.0  0.1543
  C  C292  1  0.406300  0.188500  0.282000  1.0  -0.2418
  C  C293  1  0.859200  0.912700  0.142000  1.0  0.1381
  C  C294  1  0.797800  0.883200  0.181300  1.0  -0.2206
  C  C295  1  0.754300  0.807700  0.167300  1.0  0.0973
  C  C296  1  0.781800  0.765100  0.115000  1.0  -0.2301
  C  C297  1  0.842600  0.799700  0.077100  1.0  0.1309
  C  C298  1  0.682200  0.778000  0.205200  1.0  0.0214
  C  C299  1  0.663600  0.808100  0.264100  1.0  -0.1227
  C  C300  1  0.221400  0.405700  0.203500  1.0  -0.0864
  C  C301  1  0.279900  0.460400  0.229000  1.0  -0.1488
  C  C302  1  0.311200  0.442700  0.287200  1.0  0.0062
  C  C303  1  0.282900  0.372400  0.320300  1.0  -0.1129
  C  C304  1  0.375300  0.496600  0.318700  1.0  0.2228
  C  C305  1  0.425700  0.592200  0.380800  1.0  0.245
  C  C306  1  0.434400  0.663700  0.424600  1.0  -0.0231
  C  C307  1  0.506500  0.665100  0.461300  1.0  -0.0726
  C  C308  1  0.520900  0.731700  0.501000  1.0  -0.1192
  C  C309  1  0.456800  0.793700  0.508300  1.0  -0.1123
  C  C310  1  0.388400  0.793400  0.470000  1.0  0.0113
  C  C311  1  0.375300  0.726500  0.429900  1.0  -0.1464
  C  C312  1  0.319900  0.860100  0.477500  1.0  0.0458
  C  C313  1  0.264900  0.877000  0.428700  1.0  -0.2556
  C  C314  1  0.200300  0.933600  0.439800  1.0  0.1787
  C  C315  1  0.244600  0.961100  0.536100  1.0  0.1556
  C  C316  1  0.311500  0.906300  0.532000  1.0  -0.2421
  C  C317  1  0.140800  0.087300  0.642000  1.0  0.1384
  C  C318  1  0.202200  0.116800  0.681300  1.0  -0.219
  C  C319  1  0.245700  0.192300  0.667300  1.0  0.0969
  C  C320  1  0.218200  0.234900  0.615000  1.0  -0.2314
  C  C321  1  0.157400  0.200300  0.577100  1.0  0.1306
  C  C322  1  0.317800  0.222000  0.705200  1.0  0.0212
  C  C323  1  0.336400  0.191900  0.764100  1.0  -0.1219
  C  C324  1  0.778600  0.594300  0.703500  1.0  -0.0869
  C  C325  1  0.720100  0.539600  0.729000  1.0  -0.1488
  C  C326  1  0.688800  0.557300  0.787200  1.0  0.0064
  C  C327  1  0.717100  0.627600  0.820300  1.0  -0.1138
  C  C328  1  0.624700  0.503400  0.818700  1.0  0.2223
  C  C329  1  0.574300  0.407800  0.880800  1.0  0.2455
  C  C330  1  0.565600  0.336300  0.924600  1.0  -0.0229
  C  C331  1  0.493500  0.334900  0.961300  1.0  -0.0718
  C  C332  1  0.479100  0.268300  0.001000  1.0  -0.1181
  C  C333  1  0.543200  0.206300  0.008300  1.0  -0.1115
  C  C334  1  0.611600  0.206600  0.970000  1.0  0.0123
  C  C335  1  0.624700  0.273500  0.929900  1.0  -0.1466
  C  C336  1  0.680100  0.139900  0.977500  1.0  0.0454
  C  C337  1  0.735100  0.123000  0.928700  1.0  -0.2555
  C  C338  1  0.799700  0.066400  0.939800  1.0  0.1784
  C  C339  1  0.755400  0.038900  0.036100  1.0  0.1562
  C  C340  1  0.688500  0.093700  0.032000  1.0  -0.2438
  N  N341  1  0.874500  0.880600  0.911600  1.0  -0.3604
  N  N342  1  0.491700  0.455900  0.683700  1.0  -0.2182
  N  N343  1  0.552700  0.489500  0.644600  1.0  -0.3139
  N  N344  1  0.559800  0.353000  0.641800  1.0  0.0767
  N  N345  1  0.581200  0.269000  0.623300  1.0  -0.6246
  N  N346  1  0.976400  0.187500  0.509100  1.0  -0.3615
  N  N347  1  0.125500  0.119400  0.411600  1.0  -0.36
  N  N348  1  0.508300  0.544100  0.183700  1.0  -0.2175
  N  N349  1  0.447300  0.510500  0.144600  1.0  -0.3139
  N  N350  1  0.440200  0.647000  0.141800  1.0  0.0759
  N  N351  1  0.418800  0.731000  0.123300  1.0  -0.6242
  N  N352  1  0.023600  0.812500  0.009100  1.0  -0.3611
  N  N353  1  0.619400  0.374500  0.161600  1.0  -0.3605
  N  N354  1  0.044100  0.991700  0.933700  1.0  -0.2178
  N  N355  1  0.010500  0.052700  0.894600  1.0  -0.3148
  N  N356  1  0.147000  0.059800  0.891800  1.0  0.0758
  N  N357  1  0.231000  0.081200  0.873300  1.0  -0.6222
  N  N358  1  0.312500  0.476400  0.759100  1.0  -0.3622
  N  N359  1  0.380600  0.625500  0.661600  1.0  -0.3601
  N  N360  1  0.955900  0.008300  0.433700  1.0  -0.2168
  N  N361  1  0.989500  0.947300  0.394600  1.0  -0.3151
  N  N362  1  0.853000  0.940200  0.391800  1.0  0.0752
  N  N363  1  0.769000  0.918800  0.373300  1.0  -0.622
  N  N364  1  0.687500  0.523600  0.259100  1.0  -0.3616
  N  N365  1  0.625500  0.380600  0.338400  1.0  -0.3603
  N  N366  1  0.008300  0.955900  0.566300  1.0  -0.2189
  N  N367  1  0.947300  0.989500  0.605400  1.0  -0.3133
  N  N368  1  0.940200  0.853000  0.608200  1.0  0.0764
  N  N369  1  0.918800  0.769000  0.626700  1.0  -0.6239
  N  N370  1  0.523600  0.687500  0.740900  1.0  -0.3614
  N  N371  1  0.374500  0.619400  0.838400  1.0  -0.3604
  N  N372  1  0.991700  0.044100  0.066300  1.0  -0.2177
  N  N373  1  0.052700  0.010500  0.105400  1.0  -0.3129
  N  N374  1  0.059800  0.147000  0.108200  1.0  0.076
  N  N375  1  0.081200  0.231000  0.126700  1.0  -0.6248
  N  N376  1  0.476400  0.312500  0.240900  1.0  -0.3622
  N  N377  1  0.880600  0.874500  0.088400  1.0  -0.3608
  N  N378  1  0.455900  0.491700  0.316300  1.0  -0.217
  N  N379  1  0.489500  0.552700  0.355400  1.0  -0.3145
  N  N380  1  0.353000  0.559800  0.358200  1.0  0.0753
  N  N381  1  0.269000  0.581200  0.376700  1.0  -0.6221
  N  N382  1  0.187500  0.976400  0.490900  1.0  -0.3613
  N  N383  1  0.119400  0.125500  0.588400  1.0  -0.3606
  N  N384  1  0.544100  0.508300  0.816300  1.0  -0.218
  N  N385  1  0.510500  0.447300  0.855400  1.0  -0.3138
  N  N386  1  0.647000  0.440200  0.858200  1.0  0.0759
  N  N387  1  0.731000  0.418800  0.876700  1.0  -0.6242
  N  N388  1  0.812500  0.023600  0.990900  1.0  -0.3616
