# generated using pymatgen
data_CdH36C48N12ClO4
_symmetry_space_group_name_H-M   'P 1'
_cell_length_a   15.87460000
_cell_length_b   15.87460000
_cell_length_c   21.49700000
_cell_angle_alpha   90.00000000
_cell_angle_beta   90.00000000
_cell_angle_gamma   90.00000000
_symmetry_Int_Tables_number   1
_chemical_formula_structural   CdH36C48N12ClO4
_chemical_formula_sum   'Cd4 H144 C192 N48 Cl4 O16'
_cell_volume   5417.30688216
_cell_formula_units_Z   4
loop_
 _symmetry_equiv_pos_site_id
 _symmetry_equiv_pos_as_xyz
  1  'x, y, z'
loop_
 _atom_site_type_symbol
 _atom_site_label
 _atom_site_symmetry_multiplicity
 _atom_site_fract_x
 _atom_site_fract_y
 _atom_site_fract_z
 _atom_site_occupancy
 _atom_site_charge
  Cd  Cd1  1  0.059140  0.059140  0.000000  1.0  0.7877
  Cd  Cd2  1  0.940860  0.940860  0.500000  1.0  0.7881
  Cd  Cd3  1  0.440860  0.559140  0.250000  1.0  0.7879
  Cd  Cd4  1  0.559140  0.440860  0.750000  1.0  0.7879
  H  H5  1  0.387900  0.538400  0.098500  1.0  0.0735
  H  H6  1  0.286200  0.590000  0.030900  1.0  0.1303
  H  H7  1  0.257400  0.788100  0.147900  1.0  0.1289
  H  H8  1  0.358300  0.730600  0.210500  1.0  0.0687
  H  H9  1  0.200900  0.653500  0.967400  1.0  0.073
  H  H10  1  0.086800  0.703600  0.912500  1.0  0.0937
  H  H11  1  0.994200  0.801000  0.957100  1.0  0.0906
  H  H12  1  0.137800  0.803000  0.112500  1.0  0.1089
  H  H13  1  0.876600  0.047600  0.208900  1.0  0.1015
  H  H14  1  0.767600  0.066500  0.279400  1.0  0.0989
  H  H15  1  0.661400  0.965300  0.288800  1.0  0.1061
  H  H16  1  0.776200  0.825900  0.156000  1.0  0.0842
  H  H17  1  0.606600  0.845400  0.317100  1.0  0.1289
  H  H18  1  0.513000  0.734000  0.327400  1.0  0.0688
  H  H19  1  0.553400  0.663200  0.154600  1.0  0.061
  H  H20  1  0.649900  0.771800  0.140600  1.0  0.1171
  H  H21  1  0.968700  0.746500  0.146100  1.0  0.3301
  H  H22  1  0.902900  0.740200  0.097200  1.0  0.3082
  H  H23  1  0.612100  0.461600  0.598500  1.0  0.0738
  H  H24  1  0.713800  0.410000  0.530900  1.0  0.1305
  H  H25  1  0.742600  0.211900  0.647900  1.0  0.1287
  H  H26  1  0.641700  0.269400  0.710500  1.0  0.0689
  H  H27  1  0.799100  0.346500  0.467400  1.0  0.074
  H  H28  1  0.913200  0.296400  0.412500  1.0  0.0937
  H  H29  1  0.005800  0.199000  0.457100  1.0  0.0899
  H  H30  1  0.862200  0.197000  0.612500  1.0  0.1083
  H  H31  1  0.123400  0.952400  0.708900  1.0  0.1018
  H  H32  1  0.232400  0.933500  0.779400  1.0  0.0989
  H  H33  1  0.338600  0.034700  0.788800  1.0  0.1061
  H  H34  1  0.223800  0.174100  0.656000  1.0  0.0847
  H  H35  1  0.393400  0.154600  0.817100  1.0  0.1284
  H  H36  1  0.487000  0.266000  0.827400  1.0  0.0688
  H  H37  1  0.446600  0.336800  0.654600  1.0  0.0606
  H  H38  1  0.350100  0.228200  0.640600  1.0  0.117
  H  H39  1  0.031300  0.253500  0.646100  1.0  0.3306
  H  H40  1  0.097100  0.259800  0.597200  1.0  0.3084
  H  H41  1  0.961600  0.887900  0.348500  1.0  0.0727
  H  H42  1  0.910000  0.786200  0.280900  1.0  0.1298
  H  H43  1  0.711900  0.757400  0.397900  1.0  0.1281
  H  H44  1  0.769400  0.858300  0.460500  1.0  0.0683
  H  H45  1  0.846500  0.700900  0.217400  1.0  0.073
  H  H46  1  0.796400  0.586800  0.162500  1.0  0.0928
  H  H47  1  0.699000  0.494200  0.207100  1.0  0.092
  H  H48  1  0.697000  0.637800  0.362500  1.0  0.1084
  H  H49  1  0.452400  0.376600  0.458900  1.0  0.1021
  H  H50  1  0.433500  0.267600  0.529400  1.0  0.0988
  H  H51  1  0.534700  0.161400  0.538800  1.0  0.106
  H  H52  1  0.674100  0.276200  0.406000  1.0  0.084
  H  H53  1  0.654600  0.106600  0.567100  1.0  0.1283
  H  H54  1  0.766000  0.013000  0.577400  1.0  0.0691
  H  H55  1  0.836800  0.053400  0.404600  1.0  0.0596
  H  H56  1  0.728200  0.149900  0.390600  1.0  0.1173
  H  H57  1  0.753500  0.468700  0.396100  1.0  0.3297
  H  H58  1  0.759800  0.402900  0.347200  1.0  0.3086
  H  H59  1  0.038400  0.112100  0.848500  1.0  0.073
  H  H60  1  0.090000  0.213800  0.780900  1.0  0.1299
  H  H61  1  0.288100  0.242600  0.897900  1.0  0.1287
  H  H62  1  0.230600  0.141700  0.960500  1.0  0.0687
  H  H63  1  0.153500  0.299100  0.717400  1.0  0.0723
  H  H64  1  0.203600  0.413200  0.662500  1.0  0.0931
  H  H65  1  0.301000  0.505800  0.707100  1.0  0.091
  H  H66  1  0.303000  0.362200  0.862500  1.0  0.109
  H  H67  1  0.547600  0.623400  0.958900  1.0  0.1021
  H  H68  1  0.566500  0.732400  0.029400  1.0  0.0989
  H  H69  1  0.465300  0.838600  0.038800  1.0  0.1057
  H  H70  1  0.325900  0.723800  0.906000  1.0  0.084
  H  H71  1  0.345400  0.893400  0.067100  1.0  0.1284
  H  H72  1  0.234000  0.987000  0.077400  1.0  0.0683
  H  H73  1  0.163200  0.946600  0.904600  1.0  0.0603
  H  H74  1  0.271800  0.850100  0.890600  1.0  0.1172
  H  H75  1  0.246500  0.531300  0.896100  1.0  0.3313
  H  H76  1  0.240200  0.597100  0.847200  1.0  0.3074
  H  H77  1  0.112100  0.038400  0.151500  1.0  0.0738
  H  H78  1  0.213800  0.090000  0.219100  1.0  0.13
  H  H79  1  0.242600  0.288100  0.102100  1.0  0.1289
  H  H80  1  0.141700  0.230600  0.039500  1.0  0.0688
  H  H81  1  0.299100  0.153500  0.282600  1.0  0.0734
  H  H82  1  0.413200  0.203600  0.337500  1.0  0.0935
  H  H83  1  0.505800  0.301000  0.292900  1.0  0.0902
  H  H84  1  0.362200  0.303000  0.137500  1.0  0.1086
  H  H85  1  0.623400  0.547600  0.041100  1.0  0.1016
  H  H86  1  0.732400  0.566500  0.970600  1.0  0.0994
  H  H87  1  0.838600  0.465300  0.961200  1.0  0.1078
  H  H88  1  0.723800  0.325900  0.094000  1.0  0.084
  H  H89  1  0.893400  0.345400  0.932900  1.0  0.129
  H  H90  1  0.987000  0.234000  0.922600  1.0  0.0689
  H  H91  1  0.946600  0.163200  0.095400  1.0  0.0609
  H  H92  1  0.850100  0.271800  0.109400  1.0  0.117
  H  H93  1  0.531300  0.246500  0.103900  1.0  0.3305
  H  H94  1  0.597100  0.240200  0.152800  1.0  0.3087
  H  H95  1  0.887900  0.961600  0.651500  1.0  0.0738
  H  H96  1  0.786200  0.910000  0.719100  1.0  0.1304
  H  H97  1  0.757400  0.711900  0.602100  1.0  0.1284
  H  H98  1  0.858300  0.769400  0.539500  1.0  0.0687
  H  H99  1  0.700900  0.846500  0.782600  1.0  0.0734
  H  H100  1  0.586800  0.796400  0.837500  1.0  0.0937
  H  H101  1  0.494200  0.699000  0.792900  1.0  0.09
  H  H102  1  0.637800  0.697000  0.637500  1.0  0.1093
  H  H103  1  0.376600  0.452400  0.541100  1.0  0.1017
  H  H104  1  0.267600  0.433500  0.470600  1.0  0.0986
  H  H105  1  0.161400  0.534700  0.461200  1.0  0.1066
  H  H106  1  0.276200  0.674100  0.594000  1.0  0.0835
  H  H107  1  0.106600  0.654600  0.432900  1.0  0.1284
  H  H108  1  0.013000  0.766000  0.422600  1.0  0.0688
  H  H109  1  0.053400  0.836800  0.595400  1.0  0.0604
  H  H110  1  0.149900  0.728200  0.609400  1.0  0.1174
  H  H111  1  0.468700  0.753500  0.603900  1.0  0.3304
  H  H112  1  0.402900  0.759800  0.652800  1.0  0.3082
  H  H113  1  0.538400  0.387900  0.901500  1.0  0.0734
  H  H114  1  0.590000  0.286200  0.969100  1.0  0.1299
  H  H115  1  0.788100  0.257400  0.852100  1.0  0.1285
  H  H116  1  0.730600  0.358300  0.789500  1.0  0.0688
  H  H117  1  0.653500  0.200900  0.032600  1.0  0.0728
  H  H118  1  0.703600  0.086800  0.087500  1.0  0.0933
  H  H119  1  0.801000  0.994200  0.042900  1.0  0.0914
  H  H120  1  0.803000  0.137800  0.887500  1.0  0.1091
  H  H121  1  0.047600  0.876600  0.791100  1.0  0.1016
  H  H122  1  0.066500  0.767600  0.720600  1.0  0.0976
  H  H123  1  0.965300  0.661400  0.711200  1.0  0.1069
  H  H124  1  0.825900  0.776200  0.844000  1.0  0.083
  H  H125  1  0.845400  0.606600  0.682900  1.0  0.1284
  H  H126  1  0.734000  0.513000  0.672600  1.0  0.0683
  H  H127  1  0.663200  0.553400  0.845400  1.0  0.0601
  H  H128  1  0.771800  0.649900  0.859400  1.0  0.1175
  H  H129  1  0.746500  0.968700  0.853900  1.0  0.3316
  H  H130  1  0.740200  0.902900  0.902800  1.0  0.3079
  H  H131  1  0.461600  0.612100  0.401500  1.0  0.0732
  H  H132  1  0.410000  0.713800  0.469100  1.0  0.1294
  H  H133  1  0.211900  0.742600  0.352100  1.0  0.1279
  H  H134  1  0.269400  0.641700  0.289500  1.0  0.0684
  H  H135  1  0.346500  0.799100  0.532600  1.0  0.0724
  H  H136  1  0.296400  0.913200  0.587500  1.0  0.0923
  H  H137  1  0.199000  0.005800  0.542900  1.0  0.0919
  H  H138  1  0.197000  0.862200  0.387500  1.0  0.1089
  H  H139  1  0.952400  0.123400  0.291100  1.0  0.1019
  H  H140  1  0.933500  0.232400  0.220600  1.0  0.0978
  H  H141  1  0.034700  0.338600  0.211200  1.0  0.1078
  H  H142  1  0.174100  0.223800  0.344000  1.0  0.0835
  H  H143  1  0.154600  0.393400  0.182900  1.0  0.1284
  H  H144  1  0.266000  0.487000  0.172600  1.0  0.0686
  H  H145  1  0.336800  0.446600  0.345400  1.0  0.0595
  H  H146  1  0.228200  0.350100  0.359400  1.0  0.1174
  H  H147  1  0.253500  0.031300  0.353900  1.0  0.3305
  H  H148  1  0.259800  0.097100  0.402800  1.0  0.308
  C  C149  1  0.359400  0.589000  0.109300  1.0  0.1601
  C  C150  1  0.298000  0.619100  0.068600  1.0  -0.209
  C  C151  1  0.254200  0.692200  0.083800  1.0  0.0851
  C  C152  1  0.281300  0.735200  0.137400  1.0  -0.1989
  C  C153  1  0.342000  0.700700  0.174200  1.0  0.1393
  C  C154  1  0.181700  0.723400  0.046800  1.0  0.0193
  C  C155  1  0.164800  0.694000  0.986000  1.0  -0.0911
  C  C156  1  0.096800  0.723500  0.953600  1.0  -0.0881
  C  C157  1  0.042000  0.781800  0.979500  1.0  -0.1267
  C  C158  1  0.058800  0.811600  0.039100  1.0  -0.0394
  C  C159  1  0.127500  0.782200  0.071800  1.0  -0.1261
  C  C160  1  0.002500  0.874800  0.069800  1.0  0.2318
  C  C161  1  0.907400  0.925400  0.131900  1.0  0.2307
  C  C162  1  0.836700  0.934600  0.176000  1.0  0.0058
  C  C163  1  0.833700  0.006100  0.212600  1.0  -0.0933
  C  C164  1  0.768900  0.017500  0.254100  1.0  -0.089
  C  C165  1  0.705500  0.957700  0.259400  1.0  -0.127
  C  C166  1  0.706700  0.886400  0.221300  1.0  0.0214
  C  C167  1  0.773700  0.875300  0.180800  1.0  -0.1333
  C  C168  1  0.640800  0.819800  0.227900  1.0  0.0938
  C  C169  1  0.597700  0.808100  0.283200  1.0  -0.2083
  C  C170  1  0.541400  0.741500  0.288900  1.0  0.1634
  C  C171  1  0.565000  0.700000  0.188400  1.0  0.1651
  C  C172  1  0.622800  0.765100  0.179700  1.0  -0.2238
  C  C173  1  0.640600  0.411000  0.609300  1.0  0.1602
  C  C174  1  0.702000  0.380900  0.568600  1.0  -0.2089
  C  C175  1  0.745800  0.307800  0.583800  1.0  0.0844
  C  C176  1  0.718700  0.264800  0.637400  1.0  -0.1992
  C  C177  1  0.658000  0.299300  0.674200  1.0  0.1377
  C  C178  1  0.818300  0.276600  0.546800  1.0  0.0189
  C  C179  1  0.835200  0.306000  0.486000  1.0  -0.0914
  C  C180  1  0.903200  0.276500  0.453600  1.0  -0.0881
  C  C181  1  0.958000  0.218200  0.479500  1.0  -0.1276
  C  C182  1  0.941200  0.188400  0.539100  1.0  -0.0396
  C  C183  1  0.872500  0.217800  0.571800  1.0  -0.1267
  C  C184  1  0.997500  0.125200  0.569800  1.0  0.2322
  C  C185  1  0.092600  0.074600  0.631900  1.0  0.2299
  C  C186  1  0.163300  0.065400  0.676000  1.0  0.0063
  C  C187  1  0.166300  0.993900  0.712600  1.0  -0.0928
  C  C188  1  0.231100  0.982500  0.754100  1.0  -0.089
  C  C189  1  0.294500  0.042300  0.759400  1.0  -0.1267
  C  C190  1  0.293300  0.113600  0.721300  1.0  0.0209
  C  C191  1  0.226300  0.124700  0.680800  1.0  -0.1341
  C  C192  1  0.359200  0.180200  0.727900  1.0  0.0928
  C  C193  1  0.402300  0.191900  0.783200  1.0  -0.2088
  C  C194  1  0.458600  0.258500  0.788900  1.0  0.1635
  C  C195  1  0.435000  0.300000  0.688400  1.0  0.1659
  C  C196  1  0.377200  0.234900  0.679700  1.0  -0.223
  C  C197  1  0.911000  0.859400  0.359300  1.0  0.1605
  C  C198  1  0.880900  0.798000  0.318600  1.0  -0.206
  C  C199  1  0.807800  0.754200  0.333800  1.0  0.0848
  C  C200  1  0.764800  0.781300  0.387400  1.0  -0.1983
  C  C201  1  0.799300  0.842000  0.424200  1.0  0.1402
  C  C202  1  0.776600  0.681700  0.296800  1.0  0.0207
  C  C203  1  0.806000  0.664800  0.236000  1.0  -0.0901
  C  C204  1  0.776500  0.596800  0.203600  1.0  -0.0891
  C  C205  1  0.718200  0.542000  0.229500  1.0  -0.1286
  C  C206  1  0.688400  0.558800  0.289100  1.0  -0.0397
  C  C207  1  0.717800  0.627500  0.321800  1.0  -0.1259
  C  C208  1  0.625200  0.502500  0.319800  1.0  0.2321
  C  C209  1  0.574600  0.407400  0.381900  1.0  0.2307
  C  C210  1  0.565400  0.336700  0.426000  1.0  0.007
  C  C211  1  0.493900  0.333700  0.462600  1.0  -0.0918
  C  C212  1  0.482500  0.268900  0.504100  1.0  -0.0891
  C  C213  1  0.542300  0.205500  0.509400  1.0  -0.1261
  C  C214  1  0.613600  0.206700  0.471300  1.0  0.0197
  C  C215  1  0.624700  0.273700  0.430800  1.0  -0.1353
  C  C216  1  0.680200  0.140800  0.477900  1.0  0.0926
  C  C217  1  0.691900  0.097700  0.533200  1.0  -0.2086
  C  C218  1  0.758500  0.041400  0.538900  1.0  0.1634
  C  C219  1  0.800000  0.065000  0.438400  1.0  0.1666
  C  C220  1  0.734900  0.122800  0.429700  1.0  -0.2221
  C  C221  1  0.089000  0.140600  0.859300  1.0  0.1608
  C  C222  1  0.119100  0.202000  0.818600  1.0  -0.2064
  C  C223  1  0.192200  0.245800  0.833800  1.0  0.0849
  C  C224  1  0.235200  0.218700  0.887400  1.0  -0.1982
  C  C225  1  0.200700  0.158000  0.924200  1.0  0.1408
  C  C226  1  0.223400  0.318300  0.796800  1.0  0.0201
  C  C227  1  0.194000  0.335200  0.736000  1.0  -0.091
  C  C228  1  0.223500  0.403200  0.703600  1.0  -0.0889
  C  C229  1  0.281800  0.458000  0.729500  1.0  -0.1286
  C  C230  1  0.311600  0.441200  0.789100  1.0  -0.04
  C  C231  1  0.282200  0.372500  0.821800  1.0  -0.1256
  C  C232  1  0.374800  0.497500  0.819800  1.0  0.2328
  C  C233  1  0.425400  0.592600  0.881900  1.0  0.2305
  C  C234  1  0.434600  0.663300  0.926000  1.0  0.0069
  C  C235  1  0.506100  0.666300  0.962600  1.0  -0.0918
  C  C236  1  0.517500  0.731100  0.004100  1.0  -0.0894
  C  C237  1  0.457700  0.794500  0.009400  1.0  -0.1273
  C  C238  1  0.386400  0.793300  0.971300  1.0  0.0193
  C  C239  1  0.375300  0.726300  0.930800  1.0  -0.1354
  C  C240  1  0.319800  0.859200  0.977900  1.0  0.092
  C  C241  1  0.308100  0.902300  0.033200  1.0  -0.2091
  C  C242  1  0.241500  0.958600  0.038900  1.0  0.164
  C  C243  1  0.200000  0.935000  0.938400  1.0  0.1666
  C  C244  1  0.265100  0.877200  0.929700  1.0  -0.2227
  C  C245  1  0.140600  0.089000  0.140700  1.0  0.1602
  C  C246  1  0.202000  0.119100  0.181400  1.0  -0.2082
  C  C247  1  0.245800  0.192200  0.166200  1.0  0.0851
  C  C248  1  0.218700  0.235200  0.112600  1.0  -0.1985
  C  C249  1  0.158000  0.200700  0.075800  1.0  0.1386
  C  C250  1  0.318300  0.223400  0.203200  1.0  0.0196
  C  C251  1  0.335200  0.194000  0.264000  1.0  -0.0914
  C  C252  1  0.403200  0.223500  0.296400  1.0  -0.0891
  C  C253  1  0.458000  0.281800  0.270500  1.0  -0.1275
  C  C254  1  0.441200  0.311600  0.210900  1.0  -0.0393
  C  C255  1  0.372500  0.282200  0.178200  1.0  -0.1261
  C  C256  1  0.497500  0.374800  0.180200  1.0  0.2315
  C  C257  1  0.592600  0.425400  0.118100  1.0  0.2304
  C  C258  1  0.663300  0.434600  0.074000  1.0  0.0067
  C  C259  1  0.666300  0.506100  0.037400  1.0  -0.0923
  C  C260  1  0.731100  0.517500  0.995900  1.0  -0.089
  C  C261  1  0.794500  0.457700  0.990600  1.0  -0.127
  C  C262  1  0.793300  0.386400  0.028700  1.0  0.0208
  C  C263  1  0.726300  0.375300  0.069200  1.0  -0.1332
  C  C264  1  0.859200  0.319800  0.022100  1.0  0.093
  C  C265  1  0.902300  0.308100  0.966800  1.0  -0.2083
  C  C266  1  0.958600  0.241500  0.961100  1.0  0.1631
  C  C267  1  0.935000  0.200000  0.061600  1.0  0.1661
  C  C268  1  0.877200  0.265100  0.070300  1.0  -0.2234
  C  C269  1  0.859400  0.911000  0.640700  1.0  0.1601
  C  C270  1  0.798000  0.880900  0.681400  1.0  -0.2091
  C  C271  1  0.754200  0.807800  0.666200  1.0  0.085
  C  C272  1  0.781300  0.764800  0.612600  1.0  -0.198
  C  C273  1  0.842000  0.799300  0.575800  1.0  0.1393
  C  C274  1  0.681700  0.776600  0.703200  1.0  0.0191
  C  C275  1  0.664800  0.806000  0.764000  1.0  -0.0916
  C  C276  1  0.596800  0.776500  0.796400  1.0  -0.089
  C  C277  1  0.542000  0.718200  0.770500  1.0  -0.1268
  C  C278  1  0.558800  0.688400  0.710900  1.0  -0.0393
  C  C279  1  0.627500  0.717800  0.678200  1.0  -0.1256
  C  C280  1  0.502500  0.625200  0.680200  1.0  0.2309
  C  C281  1  0.407400  0.574600  0.618100  1.0  0.2303
  C  C282  1  0.336700  0.565400  0.574000  1.0  0.0063
  C  C283  1  0.333700  0.493900  0.537400  1.0  -0.0946
  C  C284  1  0.268900  0.482500  0.495900  1.0  -0.0891
  C  C285  1  0.205500  0.542300  0.490600  1.0  -0.126
  C  C286  1  0.206700  0.613600  0.528700  1.0  0.0212
  C  C287  1  0.273700  0.624700  0.569200  1.0  -0.1332
  C  C288  1  0.140800  0.680200  0.522100  1.0  0.0939
  C  C289  1  0.097700  0.691900  0.466800  1.0  -0.2083
  C  C290  1  0.041400  0.758500  0.461100  1.0  0.1629
  C  C291  1  0.065000  0.800000  0.561600  1.0  0.1654
  C  C292  1  0.122800  0.734900  0.570300  1.0  -0.2242
  C  C293  1  0.589000  0.359400  0.890700  1.0  0.161
  C  C294  1  0.619100  0.298000  0.931400  1.0  -0.2061
  C  C295  1  0.692200  0.254200  0.916200  1.0  0.0853
  C  C296  1  0.735200  0.281300  0.862600  1.0  -0.1975
  C  C297  1  0.700700  0.342000  0.825800  1.0  0.1411
  C  C298  1  0.723400  0.181700  0.953200  1.0  0.0202
  C  C299  1  0.694000  0.164800  0.014000  1.0  -0.0904
  C  C300  1  0.723500  0.096800  0.046400  1.0  -0.0907
  C  C301  1  0.781800  0.042000  0.020500  1.0  -0.1288
  C  C302  1  0.811600  0.058800  0.960900  1.0  -0.0395
  C  C303  1  0.782200  0.127500  0.928200  1.0  -0.1253
  C  C304  1  0.874800  0.002500  0.930200  1.0  0.2322
  C  C305  1  0.925400  0.907400  0.868100  1.0  0.2308
  C  C306  1  0.934600  0.836700  0.824000  1.0  0.0076
  C  C307  1  0.006100  0.833700  0.787400  1.0  -0.0925
  C  C308  1  0.017500  0.768900  0.745900  1.0  -0.0891
  C  C309  1  0.957700  0.705500  0.740600  1.0  -0.1267
  C  C310  1  0.886400  0.706700  0.778700  1.0  0.0199
  C  C311  1  0.875300  0.773700  0.819200  1.0  -0.1349
  C  C312  1  0.819800  0.640800  0.772100  1.0  0.0921
  C  C313  1  0.808100  0.597700  0.716800  1.0  -0.2099
  C  C314  1  0.741500  0.541400  0.711100  1.0  0.1638
  C  C315  1  0.700000  0.565000  0.811600  1.0  0.1673
  C  C316  1  0.765100  0.622800  0.820300  1.0  -0.223
  C  C317  1  0.411000  0.640600  0.390700  1.0  0.1604
  C  C318  1  0.380900  0.702000  0.431400  1.0  -0.2063
  C  C319  1  0.307800  0.745800  0.416200  1.0  0.0852
  C  C320  1  0.264800  0.718700  0.362600  1.0  -0.1973
  C  C321  1  0.299300  0.658000  0.325800  1.0  0.1406
  C  C322  1  0.276600  0.818300  0.453200  1.0  0.0211
  C  C323  1  0.306000  0.835200  0.514000  1.0  -0.091
  C  C324  1  0.276500  0.903200  0.546400  1.0  -0.0896
  C  C325  1  0.218200  0.958000  0.520500  1.0  -0.1278
  C  C326  1  0.188400  0.941200  0.460900  1.0  -0.0398
  C  C327  1  0.217800  0.872500  0.428200  1.0  -0.1251
  C  C328  1  0.125200  0.997500  0.430200  1.0  0.2313
  C  C329  1  0.074600  0.092600  0.368100  1.0  0.2307
  C  C330  1  0.065400  0.163300  0.324000  1.0  0.0073
  C  C331  1  0.993900  0.166300  0.287400  1.0  -0.0916
  C  C332  1  0.982500  0.231100  0.245900  1.0  -0.0896
  C  C333  1  0.042300  0.294500  0.240600  1.0  -0.1266
  C  C334  1  0.113600  0.293300  0.278700  1.0  0.0193
  C  C335  1  0.124700  0.226300  0.319200  1.0  -0.1345
  C  C336  1  0.180200  0.359200  0.272100  1.0  0.0931
  C  C337  1  0.191900  0.402300  0.216800  1.0  -0.2081
  C  C338  1  0.258500  0.458600  0.211100  1.0  0.1636
  C  C339  1  0.300000  0.435000  0.311600  1.0  0.1666
  C  C340  1  0.234900  0.377200  0.320300  1.0  -0.2239
  N  N341  1  0.006900  0.956800  0.067200  1.0  -0.2268
  N  N342  1  0.946200  0.989300  0.106000  1.0  -0.296
  N  N343  1  0.941300  0.853200  0.109760  1.0  0.0988
  N  N344  1  0.921700  0.771100  0.130100  1.0  -0.5587
  N  N345  1  0.380500  0.626300  0.162100  1.0  -0.358
  N  N346  1  0.525300  0.687300  0.242400  1.0  -0.3686
  N  N347  1  0.993100  0.043200  0.567200  1.0  -0.2263
  N  N348  1  0.053800  0.010700  0.606000  1.0  -0.2953
  N  N349  1  0.058700  0.146800  0.609760  1.0  0.0993
  N  N350  1  0.078300  0.228900  0.630100  1.0  -0.5589
  N  N351  1  0.619500  0.373700  0.662100  1.0  -0.3587
  N  N352  1  0.474700  0.312700  0.742400  1.0  -0.3678
  N  N353  1  0.543200  0.506900  0.317200  1.0  -0.2262
  N  N354  1  0.510700  0.446200  0.356000  1.0  -0.2957
  N  N355  1  0.646800  0.441300  0.359760  1.0  0.0999
  N  N356  1  0.728900  0.421700  0.380100  1.0  -0.5588
  N  N357  1  0.873700  0.880500  0.412100  1.0  -0.3589
  N  N358  1  0.812700  0.025300  0.492400  1.0  -0.3683
  N  N359  1  0.456800  0.493100  0.817200  1.0  -0.2266
  N  N360  1  0.489300  0.553800  0.856000  1.0  -0.2967
  N  N361  1  0.353200  0.558700  0.859760  1.0  0.099
  N  N362  1  0.271100  0.578300  0.880100  1.0  -0.5582
  N  N363  1  0.126300  0.119500  0.912100  1.0  -0.3583
  N  N364  1  0.187300  0.974700  0.992400  1.0  -0.3679
  N  N365  1  0.493100  0.456800  0.182800  1.0  -0.2264
  N  N366  1  0.553800  0.489300  0.144000  1.0  -0.2956
  N  N367  1  0.558700  0.353200  0.140240  1.0  0.0996
  N  N368  1  0.578300  0.271100  0.119900  1.0  -0.5587
  N  N369  1  0.119500  0.126300  0.087900  1.0  -0.359
  N  N370  1  0.974700  0.187300  0.007600  1.0  -0.3682
  N  N371  1  0.506900  0.543200  0.682800  1.0  -0.2261
  N  N372  1  0.446200  0.510700  0.644000  1.0  -0.2959
  N  N373  1  0.441300  0.646800  0.640240  1.0  0.0991
  N  N374  1  0.421700  0.728900  0.619900  1.0  -0.5588
  N  N375  1  0.880500  0.873700  0.587900  1.0  -0.3585
  N  N376  1  0.025300  0.812700  0.507600  1.0  -0.3682
  N  N377  1  0.956800  0.006900  0.932800  1.0  -0.2264
  N  N378  1  0.989300  0.946200  0.894000  1.0  -0.2967
  N  N379  1  0.853200  0.941300  0.890240  1.0  0.0993
  N  N380  1  0.771100  0.921700  0.869900  1.0  -0.5584
  N  N381  1  0.626300  0.380500  0.837900  1.0  -0.3592
  N  N382  1  0.687300  0.525300  0.757600  1.0  -0.3677
  N  N383  1  0.043200  0.993100  0.432800  1.0  -0.2265
  N  N384  1  0.010700  0.053800  0.394000  1.0  -0.2958
  N  N385  1  0.146800  0.058700  0.390240  1.0  0.0995
  N  N386  1  0.228900  0.078300  0.369900  1.0  -0.558
  N  N387  1  0.373700  0.619500  0.337900  1.0  -0.3588
  N  N388  1  0.312700  0.474700  0.257600  1.0  -0.3685
  Cl  Cl389  1  0.881550  0.118450  0.750000  1.0  1.845
  Cl  Cl390  1  0.118450  0.881550  0.250000  1.0  1.8448
  Cl  Cl391  1  0.381550  0.381550  0.000000  1.0  1.845
  Cl  Cl392  1  0.618450  0.618450  0.500000  1.0  1.8448
  O  O393  1  0.887200  0.185700  0.786800  1.0  -0.6971
  O  O394  1  0.871000  0.055600  0.784800  1.0  -0.6453
  O  O395  1  0.814300  0.112800  0.713200  1.0  -0.6964
  O  O396  1  0.944400  0.129000  0.715200  1.0  -0.6449
  O  O397  1  0.112800  0.814300  0.286800  1.0  -0.6982
  O  O398  1  0.129000  0.944400  0.284800  1.0  -0.6456
  O  O399  1  0.185700  0.887200  0.213200  1.0  -0.6975
  O  O400  1  0.055600  0.871000  0.215200  1.0  -0.6449
  O  O401  1  0.314300  0.387200  0.036800  1.0  -0.6966
  O  O402  1  0.444400  0.371000  0.034800  1.0  -0.6449
  O  O403  1  0.387200  0.314300  0.963200  1.0  -0.6972
  O  O404  1  0.371000  0.444400  0.965200  1.0  -0.6458
  O  O405  1  0.685700  0.612800  0.536800  1.0  -0.698
  O  O406  1  0.555600  0.629000  0.534800  1.0  -0.6443
  O  O407  1  0.612800  0.685700  0.463200  1.0  -0.6973
  O  O408  1  0.629000  0.555600  0.465200  1.0  -0.6455
