# generated using pymatgen
data_CdH36C48N12ClO4
_symmetry_space_group_name_H-M   'P 1'
_cell_length_a   15.87740000
_cell_length_b   15.87740000
_cell_length_c   21.54200000
_cell_angle_alpha   90.00000000
_cell_angle_beta   90.00000000
_cell_angle_gamma   90.00000000
_symmetry_Int_Tables_number   1
_chemical_formula_structural   CdH36C48N12ClO4
_chemical_formula_sum   'Cd4 H144 C192 N48 Cl4 O16'
_cell_volume   5430.56221823
_cell_formula_units_Z   4
loop_
 _symmetry_equiv_pos_site_id
 _symmetry_equiv_pos_as_xyz
  1  'x, y, z'
loop_
 _atom_site_type_symbol
 _atom_site_label
 _atom_site_symmetry_multiplicity
 _atom_site_fract_x
 _atom_site_fract_y
 _atom_site_fract_z
 _atom_site_occupancy
 _atom_site_charge
  Cd  Cd1  1  0.058840  0.941160  0.750000  1.0  0.7839
  Cd  Cd2  1  0.941160  0.058840  0.250000  1.0  0.784
  Cd  Cd3  1  0.558840  0.558840  0.000000  1.0  0.7835
  Cd  Cd4  1  0.441160  0.441160  0.500000  1.0  0.7843
  H  H5  1  0.389100  0.461600  0.651500  1.0  0.0703
  H  H6  1  0.286100  0.411300  0.718200  1.0  0.128
  H  H7  1  0.256200  0.212700  0.602100  1.0  0.1291
  H  H8  1  0.358300  0.271500  0.539200  1.0  0.0678
  H  H9  1  0.201700  0.346300  0.783000  1.0  0.0716
  H  H10  1  0.088100  0.298400  0.837000  1.0  0.0954
  H  H11  1  0.994600  0.199800  0.793500  1.0  0.0911
  H  H12  1  0.137800  0.197600  0.637300  1.0  0.1102
  H  H13  1  0.878100  0.954200  0.540500  1.0  0.1023
  H  H14  1  0.767100  0.933100  0.472800  1.0  0.0949
  H  H15  1  0.664500  0.037300  0.459200  1.0  0.1064
  H  H16  1  0.776200  0.175100  0.594600  1.0  0.0909
  H  H17  1  0.606800  0.155400  0.432700  1.0  0.1308
  H  H18  1  0.513400  0.268700  0.423700  1.0  0.0611
  H  H19  1  0.553700  0.336700  0.594800  1.0  0.057
  H  H20  1  0.649100  0.229800  0.610600  1.0  0.1228
  H  H21  1  0.908400  0.261400  0.653900  1.0  0.3099
  H  H22  1  0.966700  0.251900  0.600500  1.0  0.3347
  H  H23  1  0.610900  0.538400  0.151500  1.0  0.0704
  H  H24  1  0.713900  0.588700  0.218200  1.0  0.1274
  H  H25  1  0.743800  0.787300  0.102100  1.0  0.1297
  H  H26  1  0.641700  0.728500  0.039200  1.0  0.0681
  H  H27  1  0.798300  0.653700  0.283000  1.0  0.072
  H  H28  1  0.911900  0.701600  0.337000  1.0  0.0952
  H  H29  1  0.005400  0.800200  0.293500  1.0  0.0903
  H  H30  1  0.862200  0.802400  0.137300  1.0  0.11
  H  H31  1  0.121900  0.045800  0.040500  1.0  0.1026
  H  H32  1  0.232900  0.066900  0.972800  1.0  0.0955
  H  H33  1  0.335500  0.962700  0.959200  1.0  0.1076
  H  H34  1  0.223800  0.824900  0.094600  1.0  0.0911
  H  H35  1  0.393200  0.844600  0.932700  1.0  0.1313
  H  H36  1  0.486600  0.731300  0.923700  1.0  0.0612
  H  H37  1  0.446300  0.663300  0.094800  1.0  0.0576
  H  H38  1  0.350900  0.770200  0.110600  1.0  0.1226
  H  H39  1  0.091600  0.738600  0.153900  1.0  0.31
  H  H40  1  0.033300  0.748100  0.100500  1.0  0.336
  H  H41  1  0.038400  0.889100  0.901500  1.0  0.07
  H  H42  1  0.088700  0.786100  0.968200  1.0  0.1274
  H  H43  1  0.287300  0.756200  0.852100  1.0  0.1292
  H  H44  1  0.228500  0.858300  0.789200  1.0  0.0683
  H  H45  1  0.153700  0.701700  0.033000  1.0  0.0722
  H  H46  1  0.201600  0.588100  0.087000  1.0  0.0951
  H  H47  1  0.300200  0.494600  0.043500  1.0  0.0926
  H  H48  1  0.302400  0.637800  0.887300  1.0  0.1105
  H  H49  1  0.545800  0.378100  0.790500  1.0  0.1024
  H  H50  1  0.566900  0.267100  0.722800  1.0  0.095
  H  H51  1  0.462700  0.164500  0.709200  1.0  0.1068
  H  H52  1  0.324900  0.276200  0.844600  1.0  0.0902
  H  H53  1  0.344600  0.106800  0.682700  1.0  0.1308
  H  H54  1  0.231300  0.013400  0.673700  1.0  0.0608
  H  H55  1  0.163300  0.053700  0.844800  1.0  0.0571
  H  H56  1  0.270200  0.149100  0.860600  1.0  0.1229
  H  H57  1  0.238600  0.408400  0.903900  1.0  0.3098
  H  H58  1  0.248100  0.466700  0.850500  1.0  0.3379
  H  H59  1  0.961600  0.110900  0.401500  1.0  0.0703
  H  H60  1  0.911300  0.213900  0.468200  1.0  0.1269
  H  H61  1  0.712700  0.243800  0.352100  1.0  0.1286
  H  H62  1  0.771500  0.141700  0.289200  1.0  0.0682
  H  H63  1  0.846300  0.298300  0.533000  1.0  0.0715
  H  H64  1  0.798400  0.411900  0.587000  1.0  0.0948
  H  H65  1  0.699800  0.505400  0.543500  1.0  0.0928
  H  H66  1  0.697600  0.362200  0.387300  1.0  0.1102
  H  H67  1  0.454200  0.621900  0.290500  1.0  0.1028
  H  H68  1  0.433100  0.732900  0.222800  1.0  0.0952
  H  H69  1  0.537300  0.835500  0.209200  1.0  0.1075
  H  H70  1  0.675100  0.723800  0.344600  1.0  0.0904
  H  H71  1  0.655400  0.893200  0.182700  1.0  0.1312
  H  H72  1  0.768700  0.986600  0.173700  1.0  0.0612
  H  H73  1  0.836700  0.946300  0.344800  1.0  0.0565
  H  H74  1  0.729800  0.850900  0.360600  1.0  0.123
  H  H75  1  0.761400  0.591600  0.403900  1.0  0.3095
  H  H76  1  0.751900  0.533300  0.350500  1.0  0.3363
  H  H77  1  0.110900  0.961600  0.598500  1.0  0.0703
  H  H78  1  0.213900  0.911300  0.531800  1.0  0.1277
  H  H79  1  0.243800  0.712700  0.647900  1.0  0.1297
  H  H80  1  0.141700  0.771500  0.710800  1.0  0.068
  H  H81  1  0.298300  0.846300  0.467000  1.0  0.0728
  H  H82  1  0.411900  0.798400  0.413000  1.0  0.0956
  H  H83  1  0.505400  0.699800  0.456500  1.0  0.09
  H  H84  1  0.362200  0.697600  0.612700  1.0  0.1099
  H  H85  1  0.621900  0.454200  0.709500  1.0  0.1027
  H  H86  1  0.732900  0.433100  0.777200  1.0  0.095
  H  H87  1  0.835500  0.537300  0.790800  1.0  0.106
  H  H88  1  0.723800  0.675100  0.655400  1.0  0.0916
  H  H89  1  0.893200  0.655400  0.817300  1.0  0.1306
  H  H90  1  0.986600  0.768700  0.826300  1.0  0.0618
  H  H91  1  0.946300  0.836700  0.655200  1.0  0.0574
  H  H92  1  0.850900  0.729800  0.639400  1.0  0.123
  H  H93  1  0.591600  0.761400  0.596100  1.0  0.3103
  H  H94  1  0.533300  0.751900  0.649500  1.0  0.3351
  H  H95  1  0.889100  0.038400  0.098500  1.0  0.0701
  H  H96  1  0.786100  0.088700  0.031800  1.0  0.1279
  H  H97  1  0.756200  0.287300  0.147900  1.0  0.1296
  H  H98  1  0.858300  0.228500  0.210800  1.0  0.0677
  H  H99  1  0.701700  0.153700  0.967000  1.0  0.0713
  H  H100  1  0.588100  0.201600  0.913000  1.0  0.0956
  H  H101  1  0.494600  0.300200  0.956500  1.0  0.0906
  H  H102  1  0.637800  0.302400  0.112700  1.0  0.11
  H  H103  1  0.378100  0.545800  0.209500  1.0  0.1021
  H  H104  1  0.267100  0.566900  0.277200  1.0  0.0952
  H  H105  1  0.164500  0.462700  0.290800  1.0  0.106
  H  H106  1  0.276200  0.324900  0.155400  1.0  0.0915
  H  H107  1  0.106800  0.344600  0.317300  1.0  0.1313
  H  H108  1  0.013400  0.231300  0.326300  1.0  0.0616
  H  H109  1  0.053700  0.163300  0.155200  1.0  0.0579
  H  H110  1  0.149100  0.270200  0.139400  1.0  0.1228
  H  H111  1  0.408400  0.238600  0.096100  1.0  0.3095
  H  H112  1  0.466700  0.248100  0.149500  1.0  0.3355
  H  H113  1  0.461600  0.389100  0.348500  1.0  0.0695
  H  H114  1  0.411300  0.286100  0.281800  1.0  0.127
  H  H115  1  0.212700  0.256200  0.397900  1.0  0.1289
  H  H116  1  0.271500  0.358300  0.460800  1.0  0.068
  H  H117  1  0.346300  0.201700  0.217000  1.0  0.072
  H  H118  1  0.298400  0.088100  0.163000  1.0  0.0953
  H  H119  1  0.199800  0.994600  0.206500  1.0  0.0922
  H  H120  1  0.197600  0.137800  0.362700  1.0  0.1101
  H  H121  1  0.954200  0.878100  0.459500  1.0  0.1029
  H  H122  1  0.933100  0.767100  0.527200  1.0  0.0952
  H  H123  1  0.037300  0.664500  0.540800  1.0  0.1065
  H  H124  1  0.175100  0.776200  0.405400  1.0  0.0907
  H  H125  1  0.155400  0.606800  0.567300  1.0  0.1312
  H  H126  1  0.268700  0.513400  0.576300  1.0  0.0623
  H  H127  1  0.336700  0.553700  0.405200  1.0  0.0567
  H  H128  1  0.229800  0.649100  0.389400  1.0  0.1232
  H  H129  1  0.261400  0.908400  0.346100  1.0  0.31
  H  H130  1  0.251900  0.966700  0.399500  1.0  0.3353
  H  H131  1  0.538400  0.610900  0.848500  1.0  0.0698
  H  H132  1  0.588700  0.713900  0.781800  1.0  0.1273
  H  H133  1  0.787300  0.743800  0.897900  1.0  0.1294
  H  H134  1  0.728500  0.641700  0.960800  1.0  0.068
  H  H135  1  0.653700  0.798300  0.717000  1.0  0.0719
  H  H136  1  0.701600  0.911900  0.663000  1.0  0.0951
  H  H137  1  0.800200  0.005400  0.706500  1.0  0.0918
  H  H138  1  0.802400  0.862200  0.862700  1.0  0.1106
  H  H139  1  0.045800  0.121900  0.959500  1.0  0.1029
  H  H140  1  0.066900  0.232900  0.027200  1.0  0.0951
  H  H141  1  0.962700  0.335500  0.040800  1.0  0.1057
  H  H142  1  0.824900  0.223800  0.905400  1.0  0.0911
  H  H143  1  0.844600  0.393200  0.067300  1.0  0.1308
  H  H144  1  0.731300  0.486600  0.076300  1.0  0.0612
  H  H145  1  0.663300  0.446300  0.905200  1.0  0.0575
  H  H146  1  0.770200  0.350900  0.889400  1.0  0.1232
  H  H147  1  0.738600  0.091600  0.846100  1.0  0.3093
  H  H148  1  0.748100  0.033300  0.899500  1.0  0.3372
  C  C149  1  0.359900  0.411600  0.640400  1.0  0.1572
  C  C150  1  0.298000  0.381800  0.680800  1.0  -0.2042
  C  C151  1  0.253800  0.308800  0.666200  1.0  0.088
  C  C152  1  0.280300  0.265500  0.612700  1.0  -0.2031
  C  C153  1  0.342000  0.301000  0.575600  1.0  0.1378
  C  C154  1  0.182200  0.277400  0.702800  1.0  0.0155
  C  C155  1  0.165100  0.306300  0.764300  1.0  -0.089
  C  C156  1  0.097900  0.277900  0.796200  1.0  -0.0872
  C  C157  1  0.042100  0.219000  0.770800  1.0  -0.1216
  C  C158  1  0.058300  0.189200  0.710900  1.0  -0.0512
  C  C159  1  0.127700  0.218500  0.677900  1.0  -0.123
  C  C160  1  0.003000  0.126100  0.680500  1.0  0.2322
  C  C161  1  0.907600  0.075100  0.618300  1.0  0.2284
  C  C162  1  0.837000  0.066700  0.574100  1.0  -0.0056
  C  C163  1  0.834700  0.995100  0.537400  1.0  -0.1024
  C  C164  1  0.769600  0.983400  0.496700  1.0  -0.0823
  C  C165  1  0.707100  0.044000  0.489900  1.0  -0.1281
  C  C166  1  0.707300  0.114100  0.528000  1.0  0.0206
  C  C167  1  0.774200  0.125900  0.569500  1.0  -0.1289
  C  C168  1  0.641400  0.180400  0.521700  1.0  0.0941
  C  C169  1  0.598400  0.192400  0.466800  1.0  -0.2186
  C  C170  1  0.541700  0.260500  0.462100  1.0  0.178
  C  C171  1  0.565700  0.299700  0.561300  1.0  0.1648
  C  C172  1  0.622700  0.236300  0.571300  1.0  -0.2296
  C  C173  1  0.640100  0.588400  0.140400  1.0  0.1573
  C  C174  1  0.702000  0.618200  0.180800  1.0  -0.2035
  C  C175  1  0.746200  0.691200  0.166200  1.0  0.0879
  C  C176  1  0.719700  0.734500  0.112700  1.0  -0.2021
  C  C177  1  0.658000  0.699000  0.075600  1.0  0.1368
  C  C178  1  0.817800  0.722600  0.202800  1.0  0.0162
  C  C179  1  0.834900  0.693700  0.264300  1.0  -0.0891
  C  C180  1  0.902100  0.722100  0.296200  1.0  -0.0866
  C  C181  1  0.957900  0.781000  0.270800  1.0  -0.1221
  C  C182  1  0.941700  0.810800  0.210900  1.0  -0.0516
  C  C183  1  0.872300  0.781500  0.177900  1.0  -0.1234
  C  C184  1  0.997000  0.873900  0.180500  1.0  0.2325
  C  C185  1  0.092400  0.924900  0.118300  1.0  0.2293
  C  C186  1  0.163000  0.933300  0.074100  1.0  -0.0055
  C  C187  1  0.165300  0.004900  0.037400  1.0  -0.1007
  C  C188  1  0.230400  0.016600  0.996700  1.0  -0.0823
  C  C189  1  0.292900  0.956000  0.989900  1.0  -0.1288
  C  C190  1  0.292700  0.885900  0.028000  1.0  0.0197
  C  C191  1  0.225800  0.874100  0.069500  1.0  -0.1284
  C  C192  1  0.358600  0.819600  0.021700  1.0  0.0933
  C  C193  1  0.401600  0.807600  0.966800  1.0  -0.2182
  C  C194  1  0.458300  0.739500  0.962100  1.0  0.1782
  C  C195  1  0.434300  0.700300  0.061300  1.0  0.1656
  C  C196  1  0.377300  0.763700  0.071300  1.0  -0.2303
  C  C197  1  0.088400  0.859900  0.890400  1.0  0.1579
  C  C198  1  0.118200  0.798000  0.930800  1.0  -0.2015
  C  C199  1  0.191200  0.753800  0.916200  1.0  0.0883
  C  C200  1  0.234500  0.780300  0.862700  1.0  -0.2029
  C  C201  1  0.199000  0.842000  0.825600  1.0  0.1387
  C  C202  1  0.222600  0.682200  0.952800  1.0  0.016
  C  C203  1  0.193700  0.665100  0.014300  1.0  -0.0874
  C  C204  1  0.222100  0.597900  0.046200  1.0  -0.0871
  C  C205  1  0.281000  0.542100  0.020800  1.0  -0.1237
  C  C206  1  0.310800  0.558300  0.960900  1.0  -0.0522
  C  C207  1  0.281500  0.627700  0.927900  1.0  -0.1228
  C  C208  1  0.373900  0.503000  0.930500  1.0  0.2331
  C  C209  1  0.424900  0.407600  0.868300  1.0  0.2298
  C  C210  1  0.433300  0.337000  0.824100  1.0  -0.0048
  C  C211  1  0.504900  0.334700  0.787400  1.0  -0.101
  C  C212  1  0.516600  0.269600  0.746700  1.0  -0.083
  C  C213  1  0.456000  0.207100  0.739900  1.0  -0.1283
  C  C214  1  0.385900  0.207300  0.778000  1.0  0.0195
  C  C215  1  0.374100  0.274200  0.819500  1.0  -0.1302
  C  C216  1  0.319600  0.141400  0.771700  1.0  0.093
  C  C217  1  0.307600  0.098400  0.716800  1.0  -0.2197
  C  C218  1  0.239500  0.041700  0.712100  1.0  0.1781
  C  C219  1  0.200300  0.065700  0.811300  1.0  0.1664
  C  C220  1  0.263700  0.122700  0.821300  1.0  -0.2291
  C  C221  1  0.911600  0.140100  0.390400  1.0  0.1578
  C  C222  1  0.881800  0.202000  0.430800  1.0  -0.202
  C  C223  1  0.808800  0.246200  0.416200  1.0  0.0881
  C  C224  1  0.765500  0.219700  0.362700  1.0  -0.2023
  C  C225  1  0.801000  0.158000  0.325600  1.0  0.1386
  C  C226  1  0.777400  0.317800  0.452800  1.0  0.0163
  C  C227  1  0.806300  0.334900  0.514300  1.0  -0.0885
  C  C228  1  0.777900  0.402100  0.546200  1.0  -0.0867
  C  C229  1  0.719000  0.457900  0.520800  1.0  -0.1218
  C  C230  1  0.689200  0.441700  0.460900  1.0  -0.0519
  C  C231  1  0.718500  0.372300  0.427900  1.0  -0.1224
  C  C232  1  0.626100  0.497000  0.430500  1.0  0.2328
  C  C233  1  0.575100  0.592400  0.368300  1.0  0.2297
  C  C234  1  0.566700  0.663000  0.324100  1.0  -0.0044
  C  C235  1  0.495100  0.665300  0.287400  1.0  -0.1002
  C  C236  1  0.483400  0.730400  0.246700  1.0  -0.0841
  C  C237  1  0.544000  0.792900  0.239900  1.0  -0.1278
  C  C238  1  0.614100  0.792700  0.278000  1.0  0.0195
  C  C239  1  0.625900  0.725800  0.319500  1.0  -0.13
  C  C240  1  0.680400  0.858600  0.271700  1.0  0.0936
  C  C241  1  0.692400  0.901600  0.216800  1.0  -0.2194
  C  C242  1  0.760500  0.958300  0.212100  1.0  0.1789
  C  C243  1  0.799700  0.934300  0.311300  1.0  0.1656
  C  C244  1  0.736300  0.877300  0.321300  1.0  -0.2291
  C  C245  1  0.140100  0.911600  0.609600  1.0  0.1574
  C  C246  1  0.202000  0.881800  0.569200  1.0  -0.2041
  C  C247  1  0.246200  0.808800  0.583800  1.0  0.087
  C  C248  1  0.219700  0.765500  0.637300  1.0  -0.2022
  C  C249  1  0.158000  0.801000  0.674400  1.0  0.1364
  C  C250  1  0.317800  0.777400  0.547200  1.0  0.0159
  C  C251  1  0.334900  0.806300  0.485700  1.0  -0.0883
  C  C252  1  0.402100  0.777900  0.453800  1.0  -0.0865
  C  C253  1  0.457900  0.719000  0.479200  1.0  -0.1218
  C  C254  1  0.441700  0.689200  0.539100  1.0  -0.0513
  C  C255  1  0.372300  0.718500  0.572100  1.0  -0.1239
  C  C256  1  0.497000  0.626100  0.569500  1.0  0.2337
  C  C257  1  0.592400  0.575100  0.631700  1.0  0.2293
  C  C258  1  0.663000  0.566700  0.675900  1.0  -0.006
  C  C259  1  0.665300  0.495100  0.712600  1.0  -0.1007
  C  C260  1  0.730400  0.483400  0.753300  1.0  -0.0824
  C  C261  1  0.792900  0.544000  0.760100  1.0  -0.1285
  C  C262  1  0.792700  0.614100  0.722000  1.0  0.0199
  C  C263  1  0.725800  0.625900  0.680500  1.0  -0.1292
  C  C264  1  0.858600  0.680400  0.728300  1.0  0.0937
  C  C265  1  0.901600  0.692400  0.783200  1.0  -0.2189
  C  C266  1  0.958300  0.760500  0.787900  1.0  0.1777
  C  C267  1  0.934300  0.799700  0.688700  1.0  0.1656
  C  C268  1  0.877300  0.736300  0.678700  1.0  -0.2284
  C  C269  1  0.859900  0.088400  0.109600  1.0  0.157
  C  C270  1  0.798000  0.118200  0.069200  1.0  -0.2038
  C  C271  1  0.753800  0.191200  0.083800  1.0  0.0875
  C  C272  1  0.780300  0.234500  0.137300  1.0  -0.2024
  C  C273  1  0.842000  0.199000  0.174400  1.0  0.1375
  C  C274  1  0.682200  0.222600  0.047200  1.0  0.0157
  C  C275  1  0.665100  0.193700  0.985700  1.0  -0.0887
  C  C276  1  0.597900  0.222100  0.953800  1.0  -0.086
  C  C277  1  0.542100  0.281000  0.979200  1.0  -0.1214
  C  C278  1  0.558300  0.310800  0.039100  1.0  -0.052
  C  C279  1  0.627700  0.281500  0.072100  1.0  -0.1237
  C  C280  1  0.503000  0.373900  0.069500  1.0  0.233
  C  C281  1  0.407600  0.424900  0.131700  1.0  0.2287
  C  C282  1  0.337000  0.433300  0.175900  1.0  -0.0064
  C  C283  1  0.334700  0.504900  0.212600  1.0  -0.1019
  C  C284  1  0.269600  0.516600  0.253300  1.0  -0.0821
  C  C285  1  0.207100  0.456000  0.260100  1.0  -0.1291
  C  C286  1  0.207300  0.385900  0.222000  1.0  0.0208
  C  C287  1  0.274200  0.374100  0.180500  1.0  -0.1289
  C  C288  1  0.141400  0.319600  0.228300  1.0  0.094
  C  C289  1  0.098400  0.307600  0.283200  1.0  -0.219
  C  C290  1  0.041700  0.239500  0.287900  1.0  0.178
  C  C291  1  0.065700  0.200300  0.188700  1.0  0.165
  C  C292  1  0.122700  0.263700  0.178700  1.0  -0.228
  C  C293  1  0.411600  0.359900  0.359600  1.0  0.1578
  C  C294  1  0.381800  0.298000  0.319200  1.0  -0.2012
  C  C295  1  0.308800  0.253800  0.333800  1.0  0.0877
  C  C296  1  0.265500  0.280300  0.387300  1.0  -0.2022
  C  C297  1  0.301000  0.342000  0.424400  1.0  0.1383
  C  C298  1  0.277400  0.182200  0.297200  1.0  0.0166
  C  C299  1  0.306300  0.165100  0.235700  1.0  -0.087
  C  C300  1  0.277900  0.097900  0.203800  1.0  -0.086
  C  C301  1  0.219000  0.042100  0.229200  1.0  -0.1226
  C  C302  1  0.189200  0.058300  0.289100  1.0  -0.0525
  C  C303  1  0.218500  0.127700  0.322100  1.0  -0.1232
  C  C304  1  0.126100  0.003000  0.319500  1.0  0.2336
  C  C305  1  0.075100  0.907600  0.381700  1.0  0.2299
  C  C306  1  0.066700  0.837000  0.425900  1.0  -0.0049
  C  C307  1  0.995100  0.834700  0.462600  1.0  -0.1001
  C  C308  1  0.983400  0.769600  0.503300  1.0  -0.0834
  C  C309  1  0.044000  0.707100  0.510100  1.0  -0.1281
  C  C310  1  0.114100  0.707300  0.472000  1.0  0.0196
  C  C311  1  0.125900  0.774200  0.430500  1.0  -0.1309
  C  C312  1  0.180400  0.641400  0.478300  1.0  0.0935
  C  C313  1  0.192400  0.598400  0.533200  1.0  -0.2197
  C  C314  1  0.260500  0.541700  0.537900  1.0  0.1779
  C  C315  1  0.299700  0.565700  0.438700  1.0  0.1662
  C  C316  1  0.236300  0.622700  0.428700  1.0  -0.2267
  C  C317  1  0.588400  0.640100  0.859600  1.0  0.1578
  C  C318  1  0.618200  0.702000  0.819200  1.0  -0.2016
  C  C319  1  0.691200  0.746200  0.833800  1.0  0.0875
  C  C320  1  0.734500  0.719700  0.887300  1.0  -0.2024
  C  C321  1  0.699000  0.658000  0.924400  1.0  0.1389
  C  C322  1  0.722600  0.817800  0.797200  1.0  0.0156
  C  C323  1  0.693700  0.834900  0.735700  1.0  -0.0883
  C  C324  1  0.722100  0.902100  0.703800  1.0  -0.0863
  C  C325  1  0.781000  0.957900  0.729200  1.0  -0.1231
  C  C326  1  0.810800  0.941700  0.789100  1.0  -0.0522
  C  C327  1  0.781500  0.872300  0.822100  1.0  -0.1232
  C  C328  1  0.873900  0.997000  0.819500  1.0  0.2341
  C  C329  1  0.924900  0.092400  0.881700  1.0  0.2293
  C  C330  1  0.933300  0.163000  0.925900  1.0  -0.0058
  C  C331  1  0.004900  0.165300  0.962600  1.0  -0.1007
  C  C332  1  0.016600  0.230400  0.003300  1.0  -0.0836
  C  C333  1  0.956000  0.292900  0.010100  1.0  -0.1279
  C  C334  1  0.885900  0.292700  0.972000  1.0  0.0193
  C  C335  1  0.874100  0.225800  0.930500  1.0  -0.1306
  C  C336  1  0.819600  0.358600  0.978300  1.0  0.0937
  C  C337  1  0.807600  0.401600  0.033200  1.0  -0.2198
  C  C338  1  0.739500  0.458300  0.037900  1.0  0.1781
  C  C339  1  0.700300  0.434300  0.938700  1.0  0.1658
  C  C340  1  0.763700  0.377300  0.928700  1.0  -0.2276
  N  N341  1  0.007100  0.043500  0.683100  1.0  -0.2247
  N  N342  1  0.946100  0.011400  0.644600  1.0  -0.2959
  N  N343  1  0.941700  0.147500  0.640000  1.0  0.0966
  N  N344  1  0.921600  0.229100  0.620400  1.0  -0.5609
  N  N345  1  0.380300  0.374400  0.587800  1.0  -0.3536
  N  N346  1  0.525800  0.312900  0.507200  1.0  -0.368
  N  N347  1  0.992900  0.956500  0.183100  1.0  -0.2254
  N  N348  1  0.053900  0.988600  0.144600  1.0  -0.2958
  N  N349  1  0.058300  0.852500  0.140000  1.0  0.0964
  N  N350  1  0.078400  0.770900  0.120400  1.0  -0.5608
  N  N351  1  0.619700  0.625600  0.087800  1.0  -0.354
  N  N352  1  0.474200  0.687100  0.007200  1.0  -0.3681
  N  N353  1  0.456500  0.507100  0.933100  1.0  -0.2252
  N  N354  1  0.488600  0.446100  0.894600  1.0  -0.2973
  N  N355  1  0.352500  0.441700  0.890000  1.0  0.0973
  N  N356  1  0.270900  0.421600  0.870400  1.0  -0.5596
  N  N357  1  0.125600  0.880300  0.837800  1.0  -0.354
  N  N358  1  0.187100  0.025800  0.757200  1.0  -0.3678
  N  N359  1  0.543500  0.492900  0.433100  1.0  -0.2254
  N  N360  1  0.511400  0.553900  0.394600  1.0  -0.2964
  N  N361  1  0.647500  0.558300  0.390000  1.0  0.097
  N  N362  1  0.729100  0.578400  0.370400  1.0  -0.5593
  N  N363  1  0.874400  0.119700  0.337800  1.0  -0.3539
  N  N364  1  0.812900  0.974200  0.257200  1.0  -0.3687
  N  N365  1  0.492900  0.543500  0.566900  1.0  -0.2253
  N  N366  1  0.553900  0.511400  0.605400  1.0  -0.295
  N  N367  1  0.558300  0.647500  0.610000  1.0  0.096
  N  N368  1  0.578400  0.729100  0.629600  1.0  -0.5609
  N  N369  1  0.119700  0.874400  0.662200  1.0  -0.3537
  N  N370  1  0.974200  0.812900  0.742800  1.0  -0.3678
  N  N371  1  0.507100  0.456500  0.066900  1.0  -0.2255
  N  N372  1  0.446100  0.488600  0.105400  1.0  -0.2963
  N  N373  1  0.441700  0.352500  0.110000  1.0  0.0962
  N  N374  1  0.421600  0.270900  0.129600  1.0  -0.5602
  N  N375  1  0.880300  0.125600  0.162200  1.0  -0.3534
  N  N376  1  0.025800  0.187100  0.242800  1.0  -0.3684
  N  N377  1  0.043500  0.007100  0.316900  1.0  -0.2249
  N  N378  1  0.011400  0.946100  0.355400  1.0  -0.2961
  N  N379  1  0.147500  0.941700  0.360000  1.0  0.0972
  N  N380  1  0.229100  0.921600  0.379600  1.0  -0.5597
  N  N381  1  0.374400  0.380300  0.412200  1.0  -0.3542
  N  N382  1  0.312900  0.525800  0.492800  1.0  -0.3679
  N  N383  1  0.956500  0.992900  0.816900  1.0  -0.2256
  N  N384  1  0.988600  0.053900  0.855400  1.0  -0.2975
  N  N385  1  0.852500  0.058300  0.860000  1.0  0.0968
  N  N386  1  0.770900  0.078400  0.879600  1.0  -0.5593
  N  N387  1  0.625600  0.619700  0.912200  1.0  -0.3533
  N  N388  1  0.687100  0.474200  0.992800  1.0  -0.3683
  Cl  Cl389  1  0.881230  0.881230  0.000000  1.0  1.7758
  Cl  Cl390  1  0.118770  0.118770  0.500000  1.0  1.7759
  Cl  Cl391  1  0.618770  0.381230  0.250000  1.0  1.776
  Cl  Cl392  1  0.381230  0.618770  0.750000  1.0  1.7758
  O  O393  1  0.818500  0.888100  0.038800  1.0  -0.6677
  O  O394  1  0.942500  0.856000  0.035600  1.0  -0.6278
  O  O395  1  0.888100  0.818500  0.961200  1.0  -0.6699
  O  O396  1  0.856000  0.942500  0.964400  1.0  -0.6277
  O  O397  1  0.181500  0.111900  0.538800  1.0  -0.6689
  O  O398  1  0.057500  0.144000  0.535600  1.0  -0.6273
  O  O399  1  0.111900  0.181500  0.461200  1.0  -0.6693
  O  O400  1  0.144000  0.057500  0.464400  1.0  -0.6283
  O  O401  1  0.611900  0.318500  0.288800  1.0  -0.6693
  O  O402  1  0.644000  0.442500  0.285600  1.0  -0.6287
  O  O403  1  0.681500  0.388100  0.211200  1.0  -0.6694
  O  O404  1  0.557500  0.356000  0.214400  1.0  -0.6269
  O  O405  1  0.388100  0.681500  0.788800  1.0  -0.669
  O  O406  1  0.356000  0.557500  0.785600  1.0  -0.6278
  O  O407  1  0.318500  0.611900  0.711200  1.0  -0.6687
  O  O408  1  0.442500  0.644000  0.714400  1.0  -0.6273
