# generated using pymatgen
data_MnH10(C3O)6
_symmetry_space_group_name_H-M   'P 1'
_cell_length_a   18.42020000
_cell_length_b   9.55100000
_cell_length_c   33.87900000
_cell_angle_alpha   90.00000000
_cell_angle_beta   92.71800000
_cell_angle_gamma   90.00000000
_symmetry_Int_Tables_number   1
_chemical_formula_structural   MnH10(C3O)6
_chemical_formula_sum   'Mn12 H120 C216 O72'
_cell_volume   5953.67227050
_cell_formula_units_Z   12
loop_
 _symmetry_equiv_pos_site_id
 _symmetry_equiv_pos_as_xyz
  1  'x, y, z'
loop_
 _atom_site_type_symbol
 _atom_site_label
 _atom_site_symmetry_multiplicity
 _atom_site_fract_x
 _atom_site_fract_y
 _atom_site_fract_z
 _atom_site_occupancy
 _atom_site_charge
  Mn  Mn1  1  0.479870  0.647250  0.028270  1.0  1.1088
  Mn  Mn2  1  0.979870  0.147250  0.028270  1.0  1.1088
  Mn  Mn3  1  0.520130  0.647250  0.471730  1.0  1.1083
  Mn  Mn4  1  0.020130  0.147250  0.471730  1.0  1.1083
  Mn  Mn5  1  0.520130  0.352750  0.971730  1.0  1.1082
  Mn  Mn6  1  0.020130  0.852750  0.971730  1.0  1.1082
  Mn  Mn7  1  0.479870  0.352750  0.528270  1.0  1.1085
  Mn  Mn8  1  0.979870  0.852750  0.528270  1.0  1.1085
  Mn  Mn9  1  0.500000  0.000000  0.000000  1.0  1.1907
  Mn  Mn10  1  0.000000  0.500000  0.000000  1.0  1.1907
  Mn  Mn11  1  0.500000  0.000000  0.500000  1.0  1.1929
  Mn  Mn12  1  0.000000  0.500000  0.500000  1.0  1.1929
  H  H13  1  0.717200  0.016200  0.052300  1.0  0.1087
  H  H14  1  0.805400  0.073100  0.100000  1.0  0.1194
  H  H15  1  0.715100  0.805000  0.174300  1.0  0.1165
  H  H16  1  0.631500  0.739200  0.125000  1.0  0.1044
  H  H17  1  0.007400  0.995200  0.393000  1.0  0.0932
  H  H18  1  0.976000  0.986900  0.326900  1.0  0.1418
  H  H19  1  0.892400  0.603500  0.341100  1.0  0.1236
  H  H20  1  0.923700  0.612200  0.407000  1.0  0.0845
  H  H21  1  0.613300  0.725800  0.355500  1.0  0.0966
  H  H22  1  0.667800  0.813100  0.299900  1.0  0.1304
  H  H23  1  0.646300  0.202100  0.342000  1.0  0.1055
  H  H24  1  0.589900  0.115000  0.396300  1.0  0.0955
  H  H25  1  0.907200  0.847000  0.216300  1.0  0.1313
  H  H26  1  0.805600  0.921000  0.316400  1.0  0.1198
  H  H27  1  0.723600  0.076700  0.213600  1.0  0.1242
  H  H28  1  0.217200  0.516200  0.052300  1.0  0.1087
  H  H29  1  0.305400  0.573100  0.100000  1.0  0.1194
  H  H30  1  0.215100  0.305000  0.174300  1.0  0.1165
  H  H31  1  0.131500  0.239200  0.125000  1.0  0.1044
  H  H32  1  0.507400  0.495200  0.393000  1.0  0.0932
  H  H33  1  0.476000  0.486900  0.326900  1.0  0.1418
  H  H34  1  0.392400  0.103500  0.341100  1.0  0.1236
  H  H35  1  0.423700  0.112200  0.407000  1.0  0.0845
  H  H36  1  0.113300  0.225800  0.355500  1.0  0.0966
  H  H37  1  0.167800  0.313100  0.299900  1.0  0.1304
  H  H38  1  0.146300  0.702100  0.342000  1.0  0.1055
  H  H39  1  0.089900  0.615000  0.396300  1.0  0.0955
  H  H40  1  0.407200  0.347000  0.216300  1.0  0.1313
  H  H41  1  0.305600  0.421000  0.316400  1.0  0.1198
  H  H42  1  0.223600  0.576700  0.213600  1.0  0.1242
  H  H43  1  0.282800  0.016200  0.447700  1.0  0.1092
  H  H44  1  0.194600  0.073100  0.400000  1.0  0.1197
  H  H45  1  0.284900  0.805000  0.325700  1.0  0.1166
  H  H46  1  0.368500  0.739200  0.375000  1.0  0.105
  H  H47  1  0.992600  0.995200  0.107000  1.0  0.0933
  H  H48  1  0.024000  0.986900  0.173100  1.0  0.1412
  H  H49  1  0.107600  0.603500  0.158900  1.0  0.1244
  H  H50  1  0.076300  0.612200  0.093000  1.0  0.084
  H  H51  1  0.386700  0.725800  0.144500  1.0  0.0969
  H  H52  1  0.332200  0.813100  0.200100  1.0  0.1301
  H  H53  1  0.353700  0.202100  0.158000  1.0  0.1056
  H  H54  1  0.410100  0.115000  0.103700  1.0  0.0959
  H  H55  1  0.092800  0.847000  0.283700  1.0  0.1309
  H  H56  1  0.194400  0.921000  0.183600  1.0  0.1207
  H  H57  1  0.276400  0.076700  0.286400  1.0  0.1243
  H  H58  1  0.782800  0.516200  0.447700  1.0  0.1092
  H  H59  1  0.694600  0.573100  0.400000  1.0  0.1197
  H  H60  1  0.784900  0.305000  0.325700  1.0  0.1166
  H  H61  1  0.868500  0.239200  0.375000  1.0  0.105
  H  H62  1  0.492600  0.495200  0.107000  1.0  0.0933
  H  H63  1  0.524000  0.486900  0.173100  1.0  0.1412
  H  H64  1  0.607600  0.103500  0.158900  1.0  0.1244
  H  H65  1  0.576300  0.112200  0.093000  1.0  0.084
  H  H66  1  0.886700  0.225800  0.144500  1.0  0.0969
  H  H67  1  0.832200  0.313100  0.200100  1.0  0.1301
  H  H68  1  0.853700  0.702100  0.158000  1.0  0.1056
  H  H69  1  0.910100  0.615000  0.103700  1.0  0.0959
  H  H70  1  0.592800  0.347000  0.283700  1.0  0.1309
  H  H71  1  0.694400  0.421000  0.183600  1.0  0.1207
  H  H72  1  0.776400  0.576700  0.286400  1.0  0.1243
  H  H73  1  0.282800  0.983800  0.947700  1.0  0.1093
  H  H74  1  0.194600  0.926900  0.900000  1.0  0.1196
  H  H75  1  0.284900  0.195000  0.825700  1.0  0.1167
  H  H76  1  0.368500  0.260800  0.875000  1.0  0.1051
  H  H77  1  0.992600  0.004800  0.607000  1.0  0.093
  H  H78  1  0.024000  0.013100  0.673100  1.0  0.1413
  H  H79  1  0.107600  0.396500  0.658900  1.0  0.1245
  H  H80  1  0.076300  0.387800  0.593000  1.0  0.0841
  H  H81  1  0.386700  0.274200  0.644500  1.0  0.0965
  H  H82  1  0.332200  0.186900  0.700100  1.0  0.1298
  H  H83  1  0.353700  0.797900  0.658000  1.0  0.1053
  H  H84  1  0.410100  0.885000  0.603700  1.0  0.0955
  H  H85  1  0.092800  0.153000  0.783700  1.0  0.131
  H  H86  1  0.194400  0.079000  0.683600  1.0  0.1206
  H  H87  1  0.276400  0.923300  0.786400  1.0  0.1246
  H  H88  1  0.782800  0.483800  0.947700  1.0  0.1093
  H  H89  1  0.694600  0.426900  0.900000  1.0  0.1196
  H  H90  1  0.784900  0.695000  0.825700  1.0  0.1167
  H  H91  1  0.868500  0.760800  0.875000  1.0  0.1051
  H  H92  1  0.492600  0.504800  0.607000  1.0  0.0929
  H  H93  1  0.524000  0.513100  0.673100  1.0  0.1413
  H  H94  1  0.607600  0.896500  0.658900  1.0  0.1245
  H  H95  1  0.576300  0.887800  0.593000  1.0  0.0841
  H  H96  1  0.886700  0.774200  0.644500  1.0  0.0965
  H  H97  1  0.832200  0.686900  0.700100  1.0  0.1298
  H  H98  1  0.853700  0.297900  0.658000  1.0  0.1053
  H  H99  1  0.910100  0.385000  0.603700  1.0  0.0955
  H  H100  1  0.592800  0.653000  0.783700  1.0  0.131
  H  H101  1  0.694400  0.579000  0.683600  1.0  0.1206
  H  H102  1  0.776400  0.423300  0.786400  1.0  0.1246
  H  H103  1  0.717200  0.983800  0.552300  1.0  0.1086
  H  H104  1  0.805400  0.926900  0.600000  1.0  0.1195
  H  H105  1  0.715100  0.195000  0.674300  1.0  0.1161
  H  H106  1  0.631500  0.260800  0.625000  1.0  0.1043
  H  H107  1  0.007400  0.004800  0.893000  1.0  0.0936
  H  H108  1  0.976000  0.013100  0.826900  1.0  0.1418
  H  H109  1  0.892400  0.396500  0.841100  1.0  0.1243
  H  H110  1  0.923700  0.387800  0.907000  1.0  0.0842
  H  H111  1  0.613300  0.274200  0.855500  1.0  0.0966
  H  H112  1  0.667800  0.186900  0.799900  1.0  0.1307
  H  H113  1  0.646300  0.797900  0.842000  1.0  0.1051
  H  H114  1  0.589900  0.885000  0.896300  1.0  0.0956
  H  H115  1  0.907200  0.153000  0.716300  1.0  0.1311
  H  H116  1  0.805600  0.079000  0.816400  1.0  0.1198
  H  H117  1  0.723600  0.923300  0.713600  1.0  0.1244
  H  H118  1  0.217200  0.483800  0.552300  1.0  0.1086
  H  H119  1  0.305400  0.426900  0.600000  1.0  0.1195
  H  H120  1  0.215100  0.695000  0.674300  1.0  0.1161
  H  H121  1  0.131500  0.760800  0.625000  1.0  0.1043
  H  H122  1  0.507400  0.504800  0.893000  1.0  0.0936
  H  H123  1  0.476000  0.513100  0.826900  1.0  0.1418
  H  H124  1  0.392400  0.896500  0.841100  1.0  0.1243
  H  H125  1  0.423700  0.887800  0.907000  1.0  0.0842
  H  H126  1  0.113300  0.774200  0.855500  1.0  0.0966
  H  H127  1  0.167800  0.686900  0.799900  1.0  0.1307
  H  H128  1  0.146300  0.297900  0.842000  1.0  0.1051
  H  H129  1  0.089900  0.385000  0.896300  1.0  0.0956
  H  H130  1  0.407200  0.653000  0.716300  1.0  0.1311
  H  H131  1  0.305600  0.579000  0.816400  1.0  0.1198
  H  H132  1  0.223600  0.423300  0.713600  1.0  0.1244
  C  C133  1  0.610700  0.831500  0.050900  1.0  0.7077
  C  C134  1  0.666000  0.871000  0.083300  1.0  -0.1546
  C  C135  1  0.717600  0.971600  0.076700  1.0  -0.0056
  C  C136  1  0.769800  0.007800  0.105300  1.0  -0.2181
  C  C137  1  0.768200  0.945600  0.141800  1.0  0.2789
  C  C138  1  0.716000  0.846000  0.149500  1.0  -0.2129
  C  C139  1  0.665800  0.807800  0.120100  1.0  -0.0005
  C  C140  1  0.987100  0.810800  0.449900  1.0  0.6736
  C  C141  1  0.968800  0.805100  0.407800  1.0  -0.1245
  C  C142  1  0.983900  0.916300  0.382600  1.0  -0.0004
  C  C143  1  0.965200  0.912400  0.343300  1.0  -0.252
  C  C144  1  0.929400  0.793700  0.328100  1.0  0.3007
  C  C145  1  0.915100  0.682800  0.351700  1.0  -0.1945
  C  C146  1  0.934100  0.688100  0.391000  1.0  -0.0361
  C  C147  1  0.569000  0.851900  0.418800  1.0  0.7222
  C  C148  1  0.598300  0.911300  0.382000  1.0  -0.1458
  C  C149  1  0.620600  0.821600  0.352900  1.0  -0.0413
  C  C150  1  0.654000  0.873300  0.319800  1.0  -0.2265
  C  C151  1  0.666200  0.015600  0.317000  1.0  0.3168
  C  C152  1  0.640700  0.105900  0.345000  1.0  -0.2361
  C  C153  1  0.606900  0.053900  0.377500  1.0  -0.0479
  C  C154  1  0.815300  0.961500  0.208900  1.0  0.2559
  C  C155  1  0.868900  0.886900  0.229200  1.0  -0.252
  C  C156  1  0.863900  0.873200  0.269100  1.0  0.2817
  C  C157  1  0.807800  0.931900  0.289200  1.0  -0.2047
  C  C158  1  0.755700  0.006200  0.268100  1.0  0.2968
  C  C159  1  0.758600  0.024300  0.227700  1.0  -0.1977
  C  C160  1  0.110700  0.331500  0.050900  1.0  0.7077
  C  C161  1  0.166000  0.371000  0.083300  1.0  -0.1546
  C  C162  1  0.217600  0.471600  0.076700  1.0  -0.0056
  C  C163  1  0.269800  0.507800  0.105300  1.0  -0.2181
  C  C164  1  0.268200  0.445600  0.141800  1.0  0.2789
  C  C165  1  0.216000  0.346000  0.149500  1.0  -0.2129
  C  C166  1  0.165800  0.307800  0.120100  1.0  -0.0005
  C  C167  1  0.487100  0.310800  0.449900  1.0  0.6736
  C  C168  1  0.468800  0.305100  0.407800  1.0  -0.1245
  C  C169  1  0.483900  0.416300  0.382600  1.0  -0.0004
  C  C170  1  0.465200  0.412400  0.343300  1.0  -0.252
  C  C171  1  0.429400  0.293700  0.328100  1.0  0.3007
  C  C172  1  0.415100  0.182800  0.351700  1.0  -0.1945
  C  C173  1  0.434100  0.188100  0.391000  1.0  -0.0361
  C  C174  1  0.069000  0.351900  0.418800  1.0  0.7222
  C  C175  1  0.098300  0.411300  0.382000  1.0  -0.1458
  C  C176  1  0.120600  0.321600  0.352900  1.0  -0.0413
  C  C177  1  0.154000  0.373300  0.319800  1.0  -0.2265
  C  C178  1  0.166200  0.515600  0.317000  1.0  0.3168
  C  C179  1  0.140700  0.605900  0.345000  1.0  -0.2361
  C  C180  1  0.106900  0.553900  0.377500  1.0  -0.0479
  C  C181  1  0.315300  0.461500  0.208900  1.0  0.2559
  C  C182  1  0.368900  0.386900  0.229200  1.0  -0.252
  C  C183  1  0.363900  0.373200  0.269100  1.0  0.2817
  C  C184  1  0.307800  0.431900  0.289200  1.0  -0.2047
  C  C185  1  0.255700  0.506200  0.268100  1.0  0.2968
  C  C186  1  0.258600  0.524300  0.227700  1.0  -0.1977
  C  C187  1  0.389300  0.831500  0.449100  1.0  0.7066
  C  C188  1  0.334000  0.871000  0.416700  1.0  -0.1555
  C  C189  1  0.282400  0.971600  0.423300  1.0  -0.0061
  C  C190  1  0.230200  0.007800  0.394700  1.0  -0.219
  C  C191  1  0.231800  0.945600  0.358200  1.0  0.2794
  C  C192  1  0.284000  0.846000  0.350500  1.0  -0.2127
  C  C193  1  0.334200  0.807800  0.379900  1.0  -0.004
  C  C194  1  0.012900  0.810800  0.050100  1.0  0.673
  C  C195  1  0.031200  0.805100  0.092200  1.0  -0.1246
  C  C196  1  0.016100  0.916300  0.117400  1.0  0.0007
  C  C197  1  0.034800  0.912400  0.156700  1.0  -0.2549
  C  C198  1  0.070600  0.793700  0.171900  1.0  0.2995
  C  C199  1  0.084900  0.682800  0.148300  1.0  -0.1938
  C  C200  1  0.065900  0.688100  0.109000  1.0  -0.0364
  C  C201  1  0.431000  0.851900  0.081200  1.0  0.722
  C  C202  1  0.401700  0.911300  0.118000  1.0  -0.147
  C  C203  1  0.379400  0.821600  0.147100  1.0  -0.0401
  C  C204  1  0.346000  0.873300  0.180200  1.0  -0.2286
  C  C205  1  0.333800  0.015600  0.183000  1.0  0.3164
  C  C206  1  0.359300  0.105900  0.155000  1.0  -0.2366
  C  C207  1  0.393100  0.053900  0.122500  1.0  -0.0492
  C  C208  1  0.184700  0.961500  0.291100  1.0  0.2566
  C  C209  1  0.131100  0.886900  0.270800  1.0  -0.2506
  C  C210  1  0.136100  0.873200  0.230900  1.0  0.2823
  C  C211  1  0.192200  0.931900  0.210800  1.0  -0.2034
  C  C212  1  0.244300  0.006200  0.231900  1.0  0.2963
  C  C213  1  0.241400  0.024300  0.272300  1.0  -0.1981
  C  C214  1  0.889300  0.331500  0.449100  1.0  0.7066
  C  C215  1  0.834000  0.371000  0.416700  1.0  -0.1555
  C  C216  1  0.782400  0.471600  0.423300  1.0  -0.0061
  C  C217  1  0.730200  0.507800  0.394700  1.0  -0.219
  C  C218  1  0.731800  0.445600  0.358200  1.0  0.2794
  C  C219  1  0.784000  0.346000  0.350500  1.0  -0.2127
  C  C220  1  0.834200  0.307800  0.379900  1.0  -0.004
  C  C221  1  0.512900  0.310800  0.050100  1.0  0.673
  C  C222  1  0.531200  0.305100  0.092200  1.0  -0.1246
  C  C223  1  0.516100  0.416300  0.117400  1.0  0.0007
  C  C224  1  0.534800  0.412400  0.156700  1.0  -0.2549
  C  C225  1  0.570600  0.293700  0.171900  1.0  0.2995
  C  C226  1  0.584900  0.182800  0.148300  1.0  -0.1938
  C  C227  1  0.565900  0.188100  0.109000  1.0  -0.0364
  C  C228  1  0.931000  0.351900  0.081200  1.0  0.722
  C  C229  1  0.901700  0.411300  0.118000  1.0  -0.147
  C  C230  1  0.879400  0.321600  0.147100  1.0  -0.0401
  C  C231  1  0.846000  0.373300  0.180200  1.0  -0.2286
  C  C232  1  0.833800  0.515600  0.183000  1.0  0.3164
  C  C233  1  0.859300  0.605900  0.155000  1.0  -0.2366
  C  C234  1  0.893100  0.553900  0.122500  1.0  -0.0492
  C  C235  1  0.684700  0.461500  0.291100  1.0  0.2566
  C  C236  1  0.631100  0.386900  0.270800  1.0  -0.2506
  C  C237  1  0.636100  0.373200  0.230900  1.0  0.2823
  C  C238  1  0.692200  0.431900  0.210800  1.0  -0.2034
  C  C239  1  0.744300  0.506200  0.231900  1.0  0.2963
  C  C240  1  0.741400  0.524300  0.272300  1.0  -0.1981
  C  C241  1  0.389300  0.168500  0.949100  1.0  0.7062
  C  C242  1  0.334000  0.129000  0.916700  1.0  -0.1565
  C  C243  1  0.282400  0.028400  0.923300  1.0  -0.0066
  C  C244  1  0.230200  0.992200  0.894700  1.0  -0.2189
  C  C245  1  0.231800  0.054400  0.858200  1.0  0.2794
  C  C246  1  0.284000  0.154000  0.850500  1.0  -0.2127
  C  C247  1  0.334200  0.192200  0.879900  1.0  -0.0024
  C  C248  1  0.012900  0.189200  0.550100  1.0  0.6721
  C  C249  1  0.031200  0.194900  0.592200  1.0  -0.1255
  C  C250  1  0.016100  0.083700  0.617400  1.0  0.0003
  C  C251  1  0.034800  0.087600  0.656700  1.0  -0.2536
  C  C252  1  0.070600  0.206300  0.671900  1.0  0.2995
  C  C253  1  0.084900  0.317200  0.648300  1.0  -0.1945
  C  C254  1  0.065900  0.311900  0.609000  1.0  -0.0365
  C  C255  1  0.431000  0.148100  0.581200  1.0  0.7223
  C  C256  1  0.401700  0.088700  0.618000  1.0  -0.1464
  C  C257  1  0.379400  0.178400  0.647100  1.0  -0.0406
  C  C258  1  0.346000  0.126700  0.680200  1.0  -0.2284
  C  C259  1  0.333800  0.984400  0.683000  1.0  0.3163
  C  C260  1  0.359300  0.894100  0.655000  1.0  -0.2366
  C  C261  1  0.393100  0.946100  0.622500  1.0  -0.0489
  C  C262  1  0.184700  0.038500  0.791100  1.0  0.2563
  C  C263  1  0.131100  0.113100  0.770800  1.0  -0.251
  C  C264  1  0.136100  0.126800  0.730900  1.0  0.2822
  C  C265  1  0.192200  0.068100  0.710800  1.0  -0.2032
  C  C266  1  0.244300  0.993800  0.731900  1.0  0.2964
  C  C267  1  0.241400  0.975700  0.772300  1.0  -0.1975
  C  C268  1  0.889300  0.668500  0.949100  1.0  0.7062
  C  C269  1  0.834000  0.629000  0.916700  1.0  -0.1565
  C  C270  1  0.782400  0.528400  0.923300  1.0  -0.0066
  C  C271  1  0.730200  0.492200  0.894700  1.0  -0.2189
  C  C272  1  0.731800  0.554400  0.858200  1.0  0.2794
  C  C273  1  0.784000  0.654000  0.850500  1.0  -0.2127
  C  C274  1  0.834200  0.692200  0.879900  1.0  -0.0024
  C  C275  1  0.512900  0.689200  0.550100  1.0  0.6721
  C  C276  1  0.531200  0.694900  0.592200  1.0  -0.1255
  C  C277  1  0.516100  0.583700  0.617400  1.0  0.0003
  C  C278  1  0.534800  0.587600  0.656700  1.0  -0.2536
  C  C279  1  0.570600  0.706300  0.671900  1.0  0.2995
  C  C280  1  0.584900  0.817200  0.648300  1.0  -0.1945
  C  C281  1  0.565900  0.811900  0.609000  1.0  -0.0365
  C  C282  1  0.931000  0.648100  0.581200  1.0  0.7223
  C  C283  1  0.901700  0.588700  0.618000  1.0  -0.1464
  C  C284  1  0.879400  0.678400  0.647100  1.0  -0.0406
  C  C285  1  0.846000  0.626700  0.680200  1.0  -0.2284
  C  C286  1  0.833800  0.484400  0.683000  1.0  0.3163
  C  C287  1  0.859300  0.394100  0.655000  1.0  -0.2366
  C  C288  1  0.893100  0.446100  0.622500  1.0  -0.0489
  C  C289  1  0.684700  0.538500  0.791100  1.0  0.2563
  C  C290  1  0.631100  0.613100  0.770800  1.0  -0.251
  C  C291  1  0.636100  0.626800  0.730900  1.0  0.2822
  C  C292  1  0.692200  0.568100  0.710800  1.0  -0.2032
  C  C293  1  0.744300  0.493800  0.731900  1.0  0.2964
  C  C294  1  0.741400  0.475700  0.772300  1.0  -0.1975
  C  C295  1  0.610700  0.168500  0.550900  1.0  0.708
  C  C296  1  0.666000  0.129000  0.583300  1.0  -0.1535
  C  C297  1  0.717600  0.028400  0.576700  1.0  -0.0059
  C  C298  1  0.769800  0.992200  0.605300  1.0  -0.2177
  C  C299  1  0.768200  0.054400  0.641800  1.0  0.2786
  C  C300  1  0.716000  0.154000  0.649500  1.0  -0.2133
  C  C301  1  0.665800  0.192200  0.620100  1.0  -0.0007
  C  C302  1  0.987100  0.189200  0.949900  1.0  0.673
  C  C303  1  0.968800  0.194900  0.907800  1.0  -0.1242
  C  C304  1  0.983900  0.083700  0.882600  1.0  -0.0004
  C  C305  1  0.965200  0.087600  0.843300  1.0  -0.2527
  C  C306  1  0.929400  0.206300  0.828100  1.0  0.3006
  C  C307  1  0.915100  0.317200  0.851700  1.0  -0.1939
  C  C308  1  0.934100  0.311900  0.891000  1.0  -0.0351
  C  C309  1  0.569000  0.148100  0.918800  1.0  0.7223
  C  C310  1  0.598300  0.088700  0.882000  1.0  -0.1461
  C  C311  1  0.620600  0.178400  0.852900  1.0  -0.0408
  C  C312  1  0.654000  0.126700  0.819800  1.0  -0.2265
  C  C313  1  0.666200  0.984400  0.817000  1.0  0.3166
  C  C314  1  0.640700  0.894100  0.845000  1.0  -0.2369
  C  C315  1  0.606900  0.946100  0.877500  1.0  -0.0484
  C  C316  1  0.815300  0.038500  0.708900  1.0  0.2563
  C  C317  1  0.868900  0.113100  0.729200  1.0  -0.2521
  C  C318  1  0.863900  0.126800  0.769100  1.0  0.2817
  C  C319  1  0.807800  0.068100  0.789200  1.0  -0.2048
  C  C320  1  0.755700  0.993800  0.768100  1.0  0.2964
  C  C321  1  0.758600  0.975700  0.727700  1.0  -0.1972
  C  C322  1  0.110700  0.668500  0.550900  1.0  0.708
  C  C323  1  0.166000  0.629000  0.583300  1.0  -0.1535
  C  C324  1  0.217600  0.528400  0.576700  1.0  -0.0059
  C  C325  1  0.269800  0.492200  0.605300  1.0  -0.2177
  C  C326  1  0.268200  0.554400  0.641800  1.0  0.2786
  C  C327  1  0.216000  0.654000  0.649500  1.0  -0.2133
  C  C328  1  0.165800  0.692200  0.620100  1.0  -0.0007
  C  C329  1  0.487100  0.689200  0.949900  1.0  0.673
  C  C330  1  0.468800  0.694900  0.907800  1.0  -0.1242
  C  C331  1  0.483900  0.583700  0.882600  1.0  -0.0004
  C  C332  1  0.465200  0.587600  0.843300  1.0  -0.2527
  C  C333  1  0.429400  0.706300  0.828100  1.0  0.3006
  C  C334  1  0.415100  0.817200  0.851700  1.0  -0.1939
  C  C335  1  0.434100  0.811900  0.891000  1.0  -0.0351
  C  C336  1  0.069000  0.648100  0.918800  1.0  0.7223
  C  C337  1  0.098300  0.588700  0.882000  1.0  -0.1461
  C  C338  1  0.120600  0.678400  0.852900  1.0  -0.0408
  C  C339  1  0.154000  0.626700  0.819800  1.0  -0.2265
  C  C340  1  0.166200  0.484400  0.817000  1.0  0.3166
  C  C341  1  0.140700  0.394100  0.845000  1.0  -0.2369
  C  C342  1  0.106900  0.446100  0.877500  1.0  -0.0484
  C  C343  1  0.315300  0.538500  0.708900  1.0  0.2563
  C  C344  1  0.368900  0.613100  0.729200  1.0  -0.2521
  C  C345  1  0.363900  0.626800  0.769100  1.0  0.2817
  C  C346  1  0.307800  0.568100  0.789200  1.0  -0.2048
  C  C347  1  0.255700  0.493800  0.768100  1.0  0.2964
  C  C348  1  0.258600  0.475700  0.727700  1.0  -0.1972
  O  O349  1  0.598500  0.918900  0.024410  1.0  -0.6134
  O  O350  1  0.582000  0.710900  0.053110  1.0  -0.6239
  O  O351  1  0.010100  0.925100  0.465400  1.0  -0.6819
  O  O352  1  0.975300  0.708100  0.472580  1.0  -0.6637
  O  O353  1  0.565000  0.721200  0.421200  1.0  -0.5894
  O  O354  1  0.551600  0.931300  0.446100  1.0  -0.7309
  O  O355  1  0.824100  0.982500  0.168570  1.0  -0.2468
  O  O356  1  0.915500  0.783700  0.287720  1.0  -0.2677
  O  O357  1  0.699400  0.075300  0.285300  1.0  -0.2581
  O  O358  1  0.098500  0.418900  0.024410  1.0  -0.6134
  O  O359  1  0.082000  0.210900  0.053110  1.0  -0.6239
  O  O360  1  0.510100  0.425100  0.465400  1.0  -0.6819
  O  O361  1  0.475300  0.208100  0.472580  1.0  -0.6637
  O  O362  1  0.065000  0.221200  0.421200  1.0  -0.5894
  O  O363  1  0.051600  0.431300  0.446100  1.0  -0.7309
  O  O364  1  0.324100  0.482500  0.168570  1.0  -0.2468
  O  O365  1  0.415500  0.283700  0.287720  1.0  -0.2677
  O  O366  1  0.199400  0.575300  0.285300  1.0  -0.2581
  O  O367  1  0.401500  0.918900  0.475590  1.0  -0.6136
  O  O368  1  0.418000  0.710900  0.446890  1.0  -0.6235
  O  O369  1  0.989900  0.925100  0.034600  1.0  -0.6821
  O  O370  1  0.024700  0.708100  0.027420  1.0  -0.6646
  O  O371  1  0.435000  0.721200  0.078800  1.0  -0.5907
  O  O372  1  0.448400  0.931300  0.053900  1.0  -0.7334
  O  O373  1  0.175900  0.982500  0.331430  1.0  -0.2468
  O  O374  1  0.084500  0.783700  0.212280  1.0  -0.2681
  O  O375  1  0.300600  0.075300  0.214700  1.0  -0.2573
  O  O376  1  0.901500  0.418900  0.475590  1.0  -0.6136
  O  O377  1  0.918000  0.210900  0.446890  1.0  -0.6235
  O  O378  1  0.489900  0.425100  0.034600  1.0  -0.6821
  O  O379  1  0.524700  0.208100  0.027420  1.0  -0.6646
  O  O380  1  0.935000  0.221200  0.078800  1.0  -0.5907
  O  O381  1  0.948400  0.431300  0.053900  1.0  -0.7334
  O  O382  1  0.675900  0.482500  0.331430  1.0  -0.2468
  O  O383  1  0.584500  0.283700  0.212280  1.0  -0.2681
  O  O384  1  0.800600  0.575300  0.214700  1.0  -0.2573
  O  O385  1  0.401500  0.081100  0.975590  1.0  -0.6131
  O  O386  1  0.418000  0.289100  0.946890  1.0  -0.6241
  O  O387  1  0.989900  0.074900  0.534600  1.0  -0.6823
  O  O388  1  0.024700  0.291900  0.527420  1.0  -0.6644
  O  O389  1  0.435000  0.278800  0.578800  1.0  -0.5908
  O  O390  1  0.448400  0.068700  0.553900  1.0  -0.7334
  O  O391  1  0.175900  0.017500  0.831430  1.0  -0.248
  O  O392  1  0.084500  0.216300  0.712280  1.0  -0.267
  O  O393  1  0.300600  0.924700  0.714700  1.0  -0.2585
  O  O394  1  0.901500  0.581100  0.975590  1.0  -0.6131
  O  O395  1  0.918000  0.789100  0.946890  1.0  -0.6241
  O  O396  1  0.489900  0.574900  0.534600  1.0  -0.6823
  O  O397  1  0.524700  0.791900  0.527420  1.0  -0.6644
  O  O398  1  0.935000  0.778800  0.578800  1.0  -0.5908
  O  O399  1  0.948400  0.568700  0.553900  1.0  -0.7334
  O  O400  1  0.675900  0.517500  0.831430  1.0  -0.248
  O  O401  1  0.584500  0.716300  0.712280  1.0  -0.267
  O  O402  1  0.800600  0.424700  0.714700  1.0  -0.2585
  O  O403  1  0.598500  0.081100  0.524410  1.0  -0.6135
  O  O404  1  0.582000  0.289100  0.553110  1.0  -0.6233
  O  O405  1  0.010100  0.074900  0.965400  1.0  -0.681
  O  O406  1  0.975300  0.291900  0.972580  1.0  -0.6639
  O  O407  1  0.565000  0.278800  0.921200  1.0  -0.5899
  O  O408  1  0.551600  0.068700  0.946100  1.0  -0.7308
  O  O409  1  0.824100  0.017500  0.668570  1.0  -0.2472
  O  O410  1  0.915500  0.216300  0.787720  1.0  -0.2672
  O  O411  1  0.699400  0.924700  0.785300  1.0  -0.2597
  O  O412  1  0.098500  0.581100  0.524410  1.0  -0.6135
  O  O413  1  0.082000  0.789100  0.553110  1.0  -0.6233
  O  O414  1  0.510100  0.574900  0.965400  1.0  -0.681
  O  O415  1  0.475300  0.791900  0.972580  1.0  -0.6639
  O  O416  1  0.065000  0.778800  0.921200  1.0  -0.5899
  O  O417  1  0.051600  0.568700  0.946100  1.0  -0.7308
  O  O418  1  0.324100  0.517500  0.668570  1.0  -0.2472
  O  O419  1  0.415500  0.716300  0.787720  1.0  -0.2672
  O  O420  1  0.199400  0.424700  0.785300  1.0  -0.2597
