# generated using pymatgen
data_Zr3C11N2O13
_symmetry_space_group_name_H-M   'P 1'
_cell_length_a   21.28950000
_cell_length_b   14.55850000
_cell_length_c   8.10660000
_cell_angle_alpha   90.00000000
_cell_angle_beta   84.17300000
_cell_angle_gamma   90.00000000
_symmetry_Int_Tables_number   1
_chemical_formula_structural   Zr3C11N2O13
_chemical_formula_sum   'Zr12 C44 N8 O52'
_cell_volume   2499.60284216
_cell_formula_units_Z   4
loop_
 _symmetry_equiv_pos_site_id
 _symmetry_equiv_pos_as_xyz
  1  'x, y, z'
loop_
 _atom_site_type_symbol
 _atom_site_label
 _atom_site_symmetry_multiplicity
 _atom_site_fract_x
 _atom_site_fract_y
 _atom_site_fract_z
 _atom_site_occupancy
 _atom_site_charge
  Zr  Zr1  1  0.578510  0.619120  0.040520  1.0  2.0914
  Zr  Zr2  1  0.078510  0.119120  0.040520  1.0  2.0914
  Zr  Zr3  1  0.421490  0.619120  0.959480  1.0  2.0922
  Zr  Zr4  1  0.921490  0.119120  0.959480  1.0  2.0922
  Zr  Zr5  1  0.421490  0.380880  0.959480  1.0  2.0907
  Zr  Zr6  1  0.921490  0.880880  0.959480  1.0  2.0907
  Zr  Zr7  1  0.578510  0.380880  0.040520  1.0  2.09
  Zr  Zr8  1  0.078510  0.880880  0.040520  1.0  2.09
  Zr  Zr9  1  0.463340  0.500000  0.306760  1.0  2.0974
  Zr  Zr10  1  0.963340  0.000000  0.306760  1.0  2.0974
  Zr  Zr11  1  0.536660  0.500000  0.693240  1.0  2.0973
  Zr  Zr12  1  0.036660  0.000000  0.693240  1.0  2.0973
  C  C13  1  0.644620  0.649030  0.679040  1.0  0.7457
  C  C14  1  0.697730  0.701010  0.584230  1.0  0.0811
  C  C15  1  0.728600  0.772440  0.662490  1.0  0.0827
  C  C16  1  0.542390  0.953200  0.091800  1.0  0.0547
  C  C17  1  0.144620  0.149030  0.679040  1.0  0.7457
  C  C18  1  0.197730  0.201010  0.584230  1.0  0.0811
  C  C19  1  0.228600  0.272440  0.662490  1.0  0.0827
  C  C20  1  0.042390  0.453200  0.091800  1.0  0.0547
  C  C21  1  0.355380  0.649030  0.320960  1.0  0.7457
  C  C22  1  0.302270  0.701010  0.415770  1.0  0.0803
  C  C23  1  0.271400  0.772440  0.337510  1.0  0.0858
  C  C24  1  0.457610  0.953200  0.908200  1.0  0.0549
  C  C25  1  0.855380  0.149030  0.320960  1.0  0.7457
  C  C26  1  0.802270  0.201010  0.415770  1.0  0.0803
  C  C27  1  0.771400  0.272440  0.337510  1.0  0.0858
  C  C28  1  0.957610  0.453200  0.908200  1.0  0.0549
  C  C29  1  0.355380  0.350970  0.320960  1.0  0.7454
  C  C30  1  0.302270  0.298990  0.415770  1.0  0.0807
  C  C31  1  0.271400  0.227560  0.337510  1.0  0.089
  C  C32  1  0.457610  0.046800  0.908200  1.0  0.0553
  C  C33  1  0.855380  0.850970  0.320960  1.0  0.7454
  C  C34  1  0.802270  0.798990  0.415770  1.0  0.0807
  C  C35  1  0.771400  0.727560  0.337510  1.0  0.089
  C  C36  1  0.957610  0.546800  0.908200  1.0  0.0553
  C  C37  1  0.644620  0.350970  0.679040  1.0  0.7453
  C  C38  1  0.697730  0.298990  0.584230  1.0  0.0816
  C  C39  1  0.728600  0.227560  0.662490  1.0  0.0852
  C  C40  1  0.542390  0.046800  0.091800  1.0  0.0545
  C  C41  1  0.144620  0.850970  0.679040  1.0  0.7453
  C  C42  1  0.197730  0.798990  0.584230  1.0  0.0816
  C  C43  1  0.228600  0.727560  0.662490  1.0  0.0852
  C  C44  1  0.042390  0.546800  0.091800  1.0  0.0545
  C  C45  1  0.705100  0.500000  0.105800  1.0  0.2139
  C  C46  1  0.205100  0.000000  0.105800  1.0  0.2139
  C  C47  1  0.294900  0.500000  0.894200  1.0  0.2073
  C  C48  1  0.794900  0.000000  0.894200  1.0  0.2073
  C  C49  1  0.500000  0.803600  0.000000  1.0  0.6773
  C  C50  1  0.500000  0.911600  0.000000  1.0  0.0558
  C  C51  1  0.000000  0.303600  0.000000  1.0  0.6773
  C  C52  1  0.000000  0.411600  0.000000  1.0  0.0558
  C  C53  1  0.500000  0.196400  0.000000  1.0  0.6758
  C  C54  1  0.500000  0.088400  0.000000  1.0  0.0522
  C  C55  1  0.000000  0.696400  0.000000  1.0  0.6758
  C  C56  1  0.000000  0.588400  0.000000  1.0  0.0522
  N  N57  1  0.720180  0.679070  0.420300  1.0  -0.3426
  N  N58  1  0.220180  0.179070  0.420300  1.0  -0.3426
  N  N59  1  0.279820  0.679070  0.579700  1.0  -0.3431
  N  N60  1  0.779820  0.179070  0.579700  1.0  -0.3431
  N  N61  1  0.279820  0.320930  0.579700  1.0  -0.344
  N  N62  1  0.779820  0.820930  0.579700  1.0  -0.344
  N  N63  1  0.720180  0.320930  0.420300  1.0  -0.3445
  N  N64  1  0.220180  0.820930  0.420300  1.0  -0.3445
  O  O65  1  0.516620  0.628300  0.833200  1.0  -0.7684
  O  O66  1  0.611250  0.598520  0.603100  1.0  -0.5452
  O  O67  1  0.552250  0.766290  0.012900  1.0  -0.5646
  O  O68  1  0.643260  0.656600  0.834400  1.0  -0.5667
  O  O69  1  0.673660  0.575360  0.096800  1.0  -0.5978
  O  O70  1  0.016620  0.128300  0.833200  1.0  -0.7684
  O  O71  1  0.111250  0.098520  0.603100  1.0  -0.5452
  O  O72  1  0.052250  0.266290  0.012900  1.0  -0.5646
  O  O73  1  0.143260  0.156600  0.834400  1.0  -0.5667
  O  O74  1  0.173660  0.075360  0.096800  1.0  -0.5978
  O  O75  1  0.483380  0.628300  0.166800  1.0  -0.7688
  O  O76  1  0.388750  0.598520  0.396900  1.0  -0.5467
  O  O77  1  0.447750  0.766290  0.987100  1.0  -0.5655
  O  O78  1  0.356740  0.656600  0.165600  1.0  -0.5655
  O  O79  1  0.326340  0.575360  0.903200  1.0  -0.6008
  O  O80  1  0.983380  0.128300  0.166800  1.0  -0.7688
  O  O81  1  0.888750  0.098520  0.396900  1.0  -0.5467
  O  O82  1  0.947750  0.266290  0.987100  1.0  -0.5655
  O  O83  1  0.856740  0.156600  0.165600  1.0  -0.5655
  O  O84  1  0.826340  0.075360  0.903200  1.0  -0.6008
  O  O85  1  0.483380  0.371700  0.166800  1.0  -0.7714
  O  O86  1  0.388750  0.401480  0.396900  1.0  -0.5456
  O  O87  1  0.447750  0.233710  0.987100  1.0  -0.5641
  O  O88  1  0.356740  0.343400  0.165600  1.0  -0.5649
  O  O89  1  0.326340  0.424640  0.903200  1.0  -0.6014
  O  O90  1  0.983380  0.871700  0.166800  1.0  -0.7714
  O  O91  1  0.888750  0.901480  0.396900  1.0  -0.5456
  O  O92  1  0.947750  0.733710  0.987100  1.0  -0.5641
  O  O93  1  0.856740  0.843400  0.165600  1.0  -0.5649
  O  O94  1  0.826340  0.924640  0.903200  1.0  -0.6014
  O  O95  1  0.516620  0.371700  0.833200  1.0  -0.7701
  O  O96  1  0.611250  0.401480  0.603100  1.0  -0.5446
  O  O97  1  0.552250  0.233710  0.012900  1.0  -0.5644
  O  O98  1  0.643260  0.343400  0.834400  1.0  -0.566
  O  O99  1  0.673660  0.424640  0.096800  1.0  -0.5997
  O  O100  1  0.016620  0.871700  0.833200  1.0  -0.7701
  O  O101  1  0.111250  0.901480  0.603100  1.0  -0.5446
  O  O102  1  0.052250  0.733710  0.012900  1.0  -0.5644
  O  O103  1  0.143260  0.843400  0.834400  1.0  -0.566
  O  O104  1  0.173660  0.924640  0.096800  1.0  -0.5997
  O  O105  1  0.556650  0.500000  0.185800  1.0  -0.9018
  O  O106  1  0.603000  0.500000  0.884300  1.0  -0.9146
  O  O107  1  0.056650  0.000000  0.185800  1.0  -0.9018
  O  O108  1  0.103000  0.000000  0.884300  1.0  -0.9146
  O  O109  1  0.443350  0.500000  0.814200  1.0  -0.9028
  O  O110  1  0.397000  0.500000  0.115700  1.0  -0.9118
  O  O111  1  0.943350  0.000000  0.814200  1.0  -0.9028
  O  O112  1  0.897000  0.000000  0.115700  1.0  -0.9118
  O  O113  1  0.500000  0.578300  0.500000  1.0  -0.5606
  O  O114  1  0.000000  0.078300  0.500000  1.0  -0.5606
  O  O115  1  0.500000  0.421700  0.500000  1.0  -0.5612
  O  O116  1  0.000000  0.921700  0.500000  1.0  -0.5612
