# generated using pymatgen
data_ZnPH3(C2O3)2
_symmetry_space_group_name_H-M   'P 1'
_cell_length_a   10.89280000
_cell_length_b   8.79170000
_cell_length_c   27.76650000
_cell_angle_alpha   90.00000000
_cell_angle_beta   101.05100000
_cell_angle_gamma   90.00000000
_symmetry_Int_Tables_number   1
_chemical_formula_structural   ZnPH3(C2O3)2
_chemical_formula_sum   'Zn8 P8 H24 C32 O48'
_cell_volume   2609.78532938
_cell_formula_units_Z   8
loop_
 _symmetry_equiv_pos_site_id
 _symmetry_equiv_pos_as_xyz
  1  'x, y, z'
loop_
 _atom_site_type_symbol
 _atom_site_label
 _atom_site_symmetry_multiplicity
 _atom_site_fract_x
 _atom_site_fract_y
 _atom_site_fract_z
 _atom_site_occupancy
 _atom_site_charge
  Zn  Zn1  1  0.629560  0.033080  0.800940  1.0  1.1656
  Zn  Zn2  1  0.872840  0.237810  0.704000  1.0  1.1193
  Zn  Zn3  1  0.370440  0.533080  0.699060  1.0  1.1652
  Zn  Zn4  1  0.127160  0.737810  0.795990  1.0  1.1197
  Zn  Zn5  1  0.370440  0.966920  0.199060  1.0  1.1654
  Zn  Zn6  1  0.127160  0.762190  0.296000  1.0  1.1198
  Zn  Zn7  1  0.629560  0.466920  0.300940  1.0  1.1659
  Zn  Zn8  1  0.872840  0.262190  0.204000  1.0  1.1194
  P  P9  1  0.881720  0.952900  0.767830  1.0  1.8384
  P  P10  1  0.613280  0.305000  0.728990  1.0  1.7876
  P  P11  1  0.118280  0.452900  0.732170  1.0  1.8395
  P  P12  1  0.386720  0.805000  0.771010  1.0  1.7894
  P  P13  1  0.118280  0.047100  0.232170  1.0  1.8404
  P  P14  1  0.386720  0.695000  0.271010  1.0  1.7896
  P  P15  1  0.881720  0.547100  0.267830  1.0  1.8392
  P  P16  1  0.613280  0.195000  0.228990  1.0  1.7876
  H  H17  1  0.924300  0.056300  0.838500  1.0  0.4275
  H  H18  1  0.601100  0.210500  0.662100  1.0  0.3489
  H  H19  1  0.576400  0.082100  0.945200  1.0  0.1058
  H  H20  1  0.561400  0.141900  0.024300  1.0  0.0967
  H  H21  1  0.934500  0.176400  0.060800  1.0  0.1074
  H  H22  1  0.948400  0.129000  0.980400  1.0  0.1026
  H  H23  1  0.075700  0.556300  0.661500  1.0  0.4301
  H  H24  1  0.398900  0.710500  0.837900  1.0  0.3477
  H  H25  1  0.423600  0.582100  0.554800  1.0  0.1063
  H  H26  1  0.438600  0.641900  0.475700  1.0  0.0976
  H  H27  1  0.065500  0.676400  0.439200  1.0  0.108
  H  H28  1  0.051600  0.629000  0.519600  1.0  0.1006
  H  H29  1  0.075700  0.943700  0.161500  1.0  0.4287
  H  H30  1  0.398900  0.789500  0.337900  1.0  0.3474
  H  H31  1  0.423600  0.917900  0.054800  1.0  0.1065
  H  H32  1  0.438600  0.858100  0.975700  1.0  0.0973
  H  H33  1  0.065500  0.823600  0.939200  1.0  0.1076
  H  H34  1  0.051600  0.871000  0.019600  1.0  0.1007
  H  H35  1  0.924300  0.443700  0.338500  1.0  0.4268
  H  H36  1  0.601100  0.289500  0.162100  1.0  0.3493
  H  H37  1  0.576400  0.417900  0.445200  1.0  0.1058
  H  H38  1  0.561400  0.358100  0.524300  1.0  0.0967
  H  H39  1  0.934500  0.323600  0.560800  1.0  0.1073
  H  H40  1  0.948400  0.371000  0.480400  1.0  0.1023
  C  C41  1  0.772000  0.073000  0.901690  1.0  0.7085
  C  C42  1  0.763200  0.102700  0.954300  1.0  -0.1284
  C  C43  1  0.647700  0.103700  0.968090  1.0  -0.0602
  C  C44  1  0.639200  0.139500  0.015660  1.0  -0.0305
  C  C45  1  0.746800  0.169200  0.050560  1.0  -0.1466
  C  C46  1  0.862300  0.162200  0.037300  1.0  -0.037
  C  C47  1  0.870900  0.130500  0.989080  1.0  -0.0313
  C  C48  1  0.735500  0.209600  0.102150  1.0  0.6977
  C  C49  1  0.228000  0.573000  0.598310  1.0  0.7094
  C  C50  1  0.236800  0.602700  0.545700  1.0  -0.1289
  C  C51  1  0.352300  0.603700  0.531910  1.0  -0.0615
  C  C52  1  0.360800  0.639500  0.484340  1.0  -0.031
  C  C53  1  0.253200  0.669200  0.449440  1.0  -0.1452
  C  C54  1  0.137700  0.662200  0.462700  1.0  -0.0365
  C  C55  1  0.129100  0.630500  0.510920  1.0  -0.032
  C  C56  1  0.264500  0.709600  0.397850  1.0  0.6974
  C  C57  1  0.228000  0.927000  0.098310  1.0  0.7101
  C  C58  1  0.236800  0.897300  0.045700  1.0  -0.1288
  C  C59  1  0.352300  0.896300  0.031910  1.0  -0.0617
  C  C60  1  0.360800  0.860500  0.984340  1.0  -0.031
  C  C61  1  0.253200  0.830800  0.949440  1.0  -0.1462
  C  C62  1  0.137700  0.837800  0.962700  1.0  -0.0366
  C  C63  1  0.129100  0.869500  0.010920  1.0  -0.032
  C  C64  1  0.264500  0.790400  0.897850  1.0  0.697
  C  C65  1  0.772000  0.427000  0.401690  1.0  0.709
  C  C66  1  0.763200  0.397300  0.454300  1.0  -0.1284
  C  C67  1  0.647700  0.396300  0.468090  1.0  -0.0606
  C  C68  1  0.639200  0.360500  0.515660  1.0  -0.0302
  C  C69  1  0.746800  0.330800  0.550560  1.0  -0.1471
  C  C70  1  0.862300  0.337800  0.537300  1.0  -0.0372
  C  C71  1  0.870900  0.369500  0.489080  1.0  -0.0318
  C  C72  1  0.735500  0.290400  0.602150  1.0  0.6977
  O  O73  1  0.887800  0.020400  0.718230  1.0  -0.7276
  O  O74  1  0.954660  0.804500  0.777000  1.0  -0.7938
  O  O75  1  0.746790  0.920400  0.771900  1.0  -0.7639
  O  O76  1  0.939600  0.075300  0.806780  1.0  -0.5273
  O  O77  1  0.752070  0.347700  0.733610  1.0  -0.7444
  O  O78  1  0.588000  0.239300  0.776610  1.0  -0.7398
  O  O79  1  0.584400  0.175300  0.689330  1.0  -0.5621
  O  O80  1  0.668000  0.064600  0.871460  1.0  -0.6238
  O  O81  1  0.836500  0.237800  0.132100  1.0  -0.6063
  O  O82  1  0.876900  0.058000  0.891680  1.0  -0.5689
  O  O83  1  0.628400  0.215200  0.110910  1.0  -0.5648
  O  O84  1  0.533700  0.442000  0.713710  1.0  -0.8529
  O  O85  1  0.112200  0.520400  0.781770  1.0  -0.7266
  O  O86  1  0.045340  0.304500  0.723000  1.0  -0.7937
  O  O87  1  0.253210  0.420400  0.728100  1.0  -0.7629
  O  O88  1  0.060400  0.575300  0.693220  1.0  -0.5266
  O  O89  1  0.247930  0.847700  0.766390  1.0  -0.7463
  O  O90  1  0.412000  0.739300  0.723390  1.0  -0.7377
  O  O91  1  0.415600  0.675300  0.810670  1.0  -0.5635
  O  O92  1  0.332000  0.564600  0.628540  1.0  -0.6215
  O  O93  1  0.163500  0.737800  0.367900  1.0  -0.6068
  O  O94  1  0.123100  0.558000  0.608320  1.0  -0.5697
  O  O95  1  0.371600  0.715200  0.389090  1.0  -0.5656
  O  O96  1  0.466300  0.942000  0.786290  1.0  -0.8528
  O  O97  1  0.112200  0.979600  0.281770  1.0  -0.7256
  O  O98  1  0.045340  0.195500  0.223000  1.0  -0.7929
  O  O99  1  0.253210  0.079600  0.228100  1.0  -0.7624
  O  O100  1  0.060400  0.924700  0.193220  1.0  -0.5247
  O  O101  1  0.247930  0.652300  0.266390  1.0  -0.7467
  O  O102  1  0.412000  0.760700  0.223390  1.0  -0.7377
  O  O103  1  0.415600  0.824700  0.310670  1.0  -0.5651
  O  O104  1  0.332000  0.935400  0.128540  1.0  -0.6213
  O  O105  1  0.163500  0.762200  0.867900  1.0  -0.6046
  O  O106  1  0.123100  0.942000  0.108320  1.0  -0.5702
  O  O107  1  0.371600  0.784800  0.889090  1.0  -0.5656
  O  O108  1  0.466300  0.558000  0.286290  1.0  -0.8516
  O  O109  1  0.887800  0.479600  0.218230  1.0  -0.7274
  O  O110  1  0.954660  0.695500  0.277000  1.0  -0.7929
  O  O111  1  0.746790  0.579600  0.271900  1.0  -0.7637
  O  O112  1  0.939600  0.424700  0.306780  1.0  -0.5257
  O  O113  1  0.752070  0.152300  0.233610  1.0  -0.7456
  O  O114  1  0.588000  0.260700  0.276610  1.0  -0.7401
  O  O115  1  0.584400  0.324700  0.189330  1.0  -0.5653
  O  O116  1  0.668000  0.435400  0.371460  1.0  -0.6238
  O  O117  1  0.836500  0.262200  0.632100  1.0  -0.6066
  O  O118  1  0.876900  0.442000  0.391680  1.0  -0.5693
  O  O119  1  0.628400  0.284800  0.610910  1.0  -0.5648
  O  O120  1  0.533700  0.058000  0.213710  1.0  -0.851
