# generated using pymatgen
data_CdH32C28(NO)4
_symmetry_space_group_name_H-M   'P 1'
_cell_length_a   11.33560000
_cell_length_b   12.15130000
_cell_length_c   12.86110000
_cell_angle_alpha   87.54300000
_cell_angle_beta   68.76100000
_cell_angle_gamma   71.79900000
_symmetry_Int_Tables_number   1
_chemical_formula_structural   CdH32C28(NO)4
_chemical_formula_sum   'Cd2 H64 C56 N8 O8'
_cell_volume   1563.62727686
_cell_formula_units_Z   2
loop_
 _symmetry_equiv_pos_site_id
 _symmetry_equiv_pos_as_xyz
  1  'x, y, z'
loop_
 _atom_site_type_symbol
 _atom_site_label
 _atom_site_symmetry_multiplicity
 _atom_site_fract_x
 _atom_site_fract_y
 _atom_site_fract_z
 _atom_site_occupancy
 _atom_site_charge
  Cd  Cd1  1  0.652520  0.217550  0.709920  1.0  0.9342
  Cd  Cd2  1  0.347480  0.782450  0.290080  1.0  0.9333
  H  H3  1  0.586300  0.983800  0.782800  1.0  0.0776
  H  H4  1  0.423700  0.914000  0.901200  1.0  0.1266
  H  H5  1  0.235100  0.231000  0.061700  1.0  0.1224
  H  H6  1  0.400900  0.293100  0.939000  1.0  0.0774
  H  H7  1  0.136600  0.083400  0.130000  1.0  0.072
  H  H8  1  0.236900  0.956500  0.107800  1.0  0.1006
  H  H9  1  0.061500  0.882200  0.129400  1.0  0.0716
  H  H10  1  0.962500  0.009900  0.153000  1.0  0.0574
  H  H11  1  0.003400  0.150200  0.017400  1.0  0.0547
  H  H12  1  0.128600  0.113700  0.905400  1.0  0.0671
  H  H13  1  0.879800  0.987300  0.376200  1.0  0.105
  H  H14  1  0.955900  0.903200  0.443900  1.0  0.1164
  H  H15  1  0.785500  0.824300  0.519400  1.0  0.0955
  H  H16  1  0.817700  0.821600  0.390200  1.0  0.1036
  H  H17  1  0.560000  0.891700  0.634800  1.0  0.102
  H  H18  1  0.661600  0.008700  0.330100  1.0  0.1051
  H  H19  1  0.692400  0.439600  0.977100  1.0  0.1185
  H  H20  1  0.746900  0.501400  0.869500  1.0  0.1139
  H  H21  1  0.890000  0.300400  0.932800  1.0  0.0778
  H  H22  1  0.945700  0.351800  0.818700  1.0  0.0766
  H  H23  1  0.887200  0.378600  0.097500  1.0  0.0999
  H  H24  1  0.015400  0.531400  0.820300  1.0  0.089
  H  H25  1  0.552300  0.222100  0.507500  1.0  0.0641
  H  H26  1  0.411800  0.332400  0.425800  1.0  0.1277
  H  H27  1  0.272300  0.577300  0.676000  1.0  0.1223
  H  H28  1  0.416800  0.460500  0.751800  1.0  0.0753
  H  H29  1  0.285500  0.565100  0.416300  1.0  0.0981
  H  H30  1  0.183800  0.620400  0.535500  1.0  0.0755
  H  H31  1  0.110200  0.410000  0.615900  1.0  0.0646
  H  H32  1  0.007200  0.535800  0.635900  1.0  0.0549
  H  H33  1  0.000500  0.652100  0.482000  1.0  0.0571
  H  H34  1  0.099500  0.603400  0.359800  1.0  0.0713
  H  H35  1  0.413700  0.016200  0.217200  1.0  0.0767
  H  H36  1  0.576300  0.086000  0.098800  1.0  0.1248
  H  H37  1  0.764900  0.769000  0.938300  1.0  0.1223
  H  H38  1  0.599100  0.706900  0.061000  1.0  0.0771
  H  H39  1  0.863400  0.916600  0.870000  1.0  0.0711
  H  H40  1  0.763100  0.043500  0.892200  1.0  0.1011
  H  H41  1  0.938500  0.117800  0.870600  1.0  0.0725
  H  H42  1  0.037500  0.990100  0.847000  1.0  0.0585
  H  H43  1  0.996600  0.849800  0.982600  1.0  0.0595
  H  H44  1  0.871400  0.886300  0.094600  1.0  0.0665
  H  H45  1  0.120200  0.012700  0.623800  1.0  0.1051
  H  H46  1  0.044100  0.096800  0.556100  1.0  0.1165
  H  H47  1  0.214500  0.175700  0.480600  1.0  0.0954
  H  H48  1  0.182300  0.178400  0.609800  1.0  0.1033
  H  H49  1  0.440000  0.108300  0.365200  1.0  0.1022
  H  H50  1  0.338400  0.991300  0.669900  1.0  0.1055
  H  H51  1  0.307600  0.560400  0.022900  1.0  0.1177
  H  H52  1  0.253100  0.498600  0.130500  1.0  0.1143
  H  H53  1  0.110000  0.699600  0.067200  1.0  0.0777
  H  H54  1  0.054300  0.648200  0.181300  1.0  0.0772
  H  H55  1  0.112800  0.621400  0.902500  1.0  0.1002
  H  H56  1  0.984600  0.468600  0.179700  1.0  0.0895
  H  H57  1  0.447700  0.777900  0.492500  1.0  0.0647
  H  H58  1  0.588200  0.667600  0.574200  1.0  0.1268
  H  H59  1  0.727700  0.422700  0.324000  1.0  0.1224
  H  H60  1  0.583200  0.539500  0.248200  1.0  0.0762
  H  H61  1  0.714500  0.434900  0.583700  1.0  0.0982
  H  H62  1  0.816200  0.379600  0.464500  1.0  0.0752
  H  H63  1  0.889800  0.590000  0.384100  1.0  0.0675
  H  H64  1  0.992800  0.464200  0.364100  1.0  0.057
  H  H65  1  0.999500  0.347900  0.518000  1.0  0.0565
  H  H66  1  0.900500  0.396600  0.640200  1.0  0.0713
  C  C67  1  0.514000  0.034400  0.838920  1.0  0.1768
  C  C68  1  0.416500  0.991700  0.909950  1.0  -0.2088
  C  C69  1  0.308100  0.065300  0.994210  1.0  0.1262
  C  C70  1  0.304900  0.179400  0.004700  1.0  -0.2189
  C  C71  1  0.405000  0.216200  0.930900  1.0  0.1758
  C  C72  1  0.198400  0.022400  0.072000  1.0  -0.0047
  C  C73  1  0.020600  0.948000  0.094810  1.0  0.0173
  C  C74  1  0.061000  0.086800  0.960660  1.0  0.0042
  C  C75  1  0.806600  0.043700  0.542290  1.0  0.7115
  C  C76  1  0.868400  0.950700  0.446100  1.0  -0.3173
  C  C77  1  0.781000  0.872700  0.458000  1.0  -0.1592
  C  C78  1  0.635800  0.938510  0.479000  1.0  0.0966
  C  C79  1  0.536600  0.935200  0.579900  1.0  -0.1349
  C  C80  1  0.597200  0.004700  0.398700  1.0  -0.1236
  C  C81  1  0.703600  0.358900  0.836200  1.0  0.7114
  C  C82  1  0.752700  0.426100  0.899500  1.0  -0.3101
  C  C83  1  0.886800  0.372300  0.896400  1.0  -0.1292
  C  C84  1  0.942700  0.442200  0.949700  1.0  0.0761
  C  C85  1  0.933300  0.427200  0.056700  1.0  -0.1392
  C  C86  1  0.009300  0.517600  0.893500  1.0  -0.1302
  C  C87  1  0.495400  0.294900  0.541800  1.0  0.1788
  C  C88  1  0.411100  0.360700  0.492200  1.0  -0.2213
  C  C89  1  0.325000  0.469200  0.541360  1.0  0.1331
  C  C90  1  0.328900  0.505100  0.639800  1.0  -0.2366
  C  C91  1  0.416300  0.434300  0.685100  1.0  0.1799
  C  C92  1  0.232500  0.547720  0.489300  1.0  -0.0286
  C  C93  1  0.053700  0.466740  0.584230  1.0  0.007
  C  C94  1  0.047000  0.582440  0.431180  1.0  0.0161
  C  C95  1  0.486000  0.965600  0.161080  1.0  0.1775
  C  C96  1  0.583500  0.008300  0.090050  1.0  -0.2098
  C  C97  1  0.691900  0.934700  0.005790  1.0  0.1278
  C  C98  1  0.695100  0.820600  0.995300  1.0  -0.218
  C  C99  1  0.595000  0.783800  0.069100  1.0  0.1746
  C  C100  1  0.801600  0.977600  0.928000  1.0  -0.0068
  C  C101  1  0.979400  0.052000  0.905190  1.0  0.0168
  C  C102  1  0.939000  0.913200  0.039340  1.0  0.0044
  C  C103  1  0.193400  0.956300  0.457710  1.0  0.7126
  C  C104  1  0.131600  0.049300  0.553900  1.0  -0.3171
  C  C105  1  0.219000  0.127300  0.542000  1.0  -0.1572
  C  C106  1  0.364200  0.061490  0.521000  1.0  0.0914
  C  C107  1  0.463400  0.064800  0.420100  1.0  -0.1288
  C  C108  1  0.402800  0.995300  0.601300  1.0  -0.1233
  C  C109  1  0.296400  0.641100  0.163800  1.0  0.711
  C  C110  1  0.247300  0.573900  0.100500  1.0  -0.3108
  C  C111  1  0.113200  0.627700  0.103600  1.0  -0.1294
  C  C112  1  0.057300  0.557800  0.050300  1.0  0.0775
  C  C113  1  0.066700  0.572800  0.943300  1.0  -0.14
  C  C114  1  0.990700  0.482400  0.106500  1.0  -0.1313
  C  C115  1  0.504600  0.705100  0.458200  1.0  0.1784
  C  C116  1  0.588900  0.639300  0.507800  1.0  -0.2214
  C  C117  1  0.675000  0.530800  0.458640  1.0  0.1329
  C  C118  1  0.671100  0.494900  0.360200  1.0  -0.2361
  C  C119  1  0.583700  0.565700  0.314900  1.0  0.1805
  C  C120  1  0.767500  0.452280  0.510700  1.0  -0.0257
  C  C121  1  0.946300  0.533260  0.415770  1.0  0.0071
  C  C122  1  0.953000  0.417560  0.568820  1.0  0.0158
  N  N123  1  0.508450  0.145650  0.847530  1.0  -0.3709
  N  N124  1  0.125260  0.987830  0.012280  1.0  -0.3753
  N  N125  1  0.500360  0.329830  0.637170  1.0  -0.3632
  N  N126  1  0.136260  0.496150  0.476630  1.0  -0.3665
  N  N127  1  0.491550  0.854350  0.152470  1.0  -0.3713
  N  N128  1  0.874740  0.012170  0.987720  1.0  -0.3724
  N  N129  1  0.499640  0.670170  0.362830  1.0  -0.3632
  N  N130  1  0.863740  0.503850  0.523370  1.0  -0.3663
  O  O131  1  0.780350  0.149340  0.521950  1.0  -0.6376
  O  O132  1  0.778370  0.015220  0.641370  1.0  -0.6502
  O  O133  1  0.782110  0.262280  0.784430  1.0  -0.6031
  O  O134  1  0.589550  0.402110  0.833080  1.0  -0.6652
  O  O135  1  0.219650  0.850660  0.478050  1.0  -0.6395
  O  O136  1  0.221630  0.984780  0.358630  1.0  -0.6487
  O  O137  1  0.217890  0.737720  0.215570  1.0  -0.6018
  O  O138  1  0.410450  0.597890  0.166920  1.0  -0.6655
