# generated using pymatgen
data_CuH16C20S2(N2O3)2
_symmetry_space_group_name_H-M   'P 1'
_cell_length_a   11.08370000
_cell_length_b   11.14960000
_cell_length_c   16.93700000
_cell_angle_alpha   90.00000000
_cell_angle_beta   97.53400000
_cell_angle_gamma   90.00000000
_symmetry_Int_Tables_number   1
_chemical_formula_structural   CuH16C20S2(N2O3)2
_chemical_formula_sum   'Cu2 H32 C40 S4 N8 O12'
_cell_volume   2074.98564411
_cell_formula_units_Z   2
loop_
 _symmetry_equiv_pos_site_id
 _symmetry_equiv_pos_as_xyz
  1  'x, y, z'
loop_
 _atom_site_type_symbol
 _atom_site_label
 _atom_site_symmetry_multiplicity
 _atom_site_fract_x
 _atom_site_fract_y
 _atom_site_fract_z
 _atom_site_occupancy
 _atom_site_charge
  Cu  Cu1  1  0.500000  0.542090  0.250000  1.0  0.6014
  Cu  Cu2  1  0.500000  0.457910  0.750000  1.0  0.6039
  H  H3  1  0.277100  0.451000  0.155100  1.0  0.0841
  H  H4  1  0.066600  0.434200  0.155100  1.0  0.1346
  H  H5  1  0.114900  0.622300  0.361500  1.0  0.1387
  H  H6  1  0.326900  0.638400  0.354000  1.0  0.1056
  H  H7  1  0.360800  0.741500  0.168200  1.0  0.0973
  H  H8  1  0.355000  0.949300  0.164000  1.0  0.1389
  H  H9  1  0.576400  0.137000  0.149300  1.0  0.109
  H  H10  1  0.581200  0.339700  0.153000  1.0  0.1007
  H  H11  1  0.722900  0.451000  0.344900  1.0  0.0838
  H  H12  1  0.933400  0.434200  0.344900  1.0  0.1347
  H  H13  1  0.885100  0.622300  0.138500  1.0  0.1387
  H  H14  1  0.673100  0.638400  0.146000  1.0  0.1054
  H  H15  1  0.639200  0.741500  0.331800  1.0  0.0978
  H  H16  1  0.645000  0.949300  0.336000  1.0  0.1389
  H  H17  1  0.423600  0.137000  0.350700  1.0  0.1086
  H  H18  1  0.418800  0.339700  0.347000  1.0  0.1011
  H  H19  1  0.722900  0.549000  0.844900  1.0  0.0778
  H  H20  1  0.933400  0.565800  0.844900  1.0  0.1363
  H  H21  1  0.885100  0.377700  0.638500  1.0  0.1389
  H  H22  1  0.673100  0.361600  0.646000  1.0  0.105
  H  H23  1  0.396500  0.256300  0.836800  1.0  0.09
  H  H24  1  0.391300  0.044200  0.838400  1.0  0.134
  H  H25  1  0.423600  0.863000  0.850700  1.0  0.116
  H  H26  1  0.418800  0.660300  0.847000  1.0  0.1018
  H  H27  1  0.277100  0.549000  0.655100  1.0  0.0769
  H  H28  1  0.066600  0.565800  0.655100  1.0  0.1369
  H  H29  1  0.114900  0.377700  0.861500  1.0  0.1387
  H  H30  1  0.326900  0.361600  0.854000  1.0  0.1056
  H  H31  1  0.603500  0.256300  0.663200  1.0  0.0893
  H  H32  1  0.608700  0.044200  0.661600  1.0  0.1334
  H  H33  1  0.576400  0.863000  0.649300  1.0  0.1168
  H  H34  1  0.581200  0.660300  0.653000  1.0  0.1013
  C  C35  1  0.240500  0.489200  0.196200  1.0  0.1749
  C  C36  1  0.117500  0.478900  0.193900  1.0  -0.1838
  C  C37  1  0.078000  0.539500  0.253000  1.0  0.0811
  C  C38  1  0.149600  0.592200  0.317100  1.0  -0.1554
  C  C39  1  0.273100  0.599300  0.313800  1.0  0.1628
  C  C40  1  0.418400  0.787700  0.201900  1.0  0.1688
  C  C41  1  0.414500  0.908100  0.199400  1.0  -0.1394
  C  C42  1  0.545100  0.176300  0.192000  1.0  -0.161
  C  C43  1  0.547000  0.295600  0.192600  1.0  0.1497
  C  C44  1  0.759500  0.489200  0.303800  1.0  0.1761
  C  C45  1  0.882500  0.478900  0.306100  1.0  -0.178
  C  C46  1  0.922000  0.539500  0.247000  1.0  0.0798
  C  C47  1  0.850400  0.592200  0.182900  1.0  -0.1523
  C  C48  1  0.726900  0.599300  0.186200  1.0  0.1637
  C  C49  1  0.581600  0.787700  0.298100  1.0  0.1718
  C  C50  1  0.585500  0.908100  0.300600  1.0  -0.12
  C  C51  1  0.454900  0.176300  0.308000  1.0  -0.161
  C  C52  1  0.453000  0.295600  0.307400  1.0  0.1503
  C  C53  1  0.759500  0.510800  0.803800  1.0  0.1824
  C  C54  1  0.882500  0.521100  0.806100  1.0  -0.1857
  C  C55  1  0.922000  0.460500  0.747000  1.0  0.08
  C  C56  1  0.850400  0.407800  0.682900  1.0  -0.159
  C  C57  1  0.726900  0.400700  0.686200  1.0  0.1596
  C  C58  1  0.438100  0.210500  0.801600  1.0  0.1553
  C  C59  1  0.435100  0.087400  0.803100  1.0  -0.1614
  C  C60  1  0.454900  0.823700  0.808000  1.0  -0.1392
  C  C61  1  0.453000  0.704400  0.807400  1.0  0.1496
  C  C62  1  0.240500  0.510800  0.696200  1.0  0.1823
  C  C63  1  0.117500  0.521100  0.693900  1.0  -0.1847
  C  C64  1  0.078000  0.460500  0.753000  1.0  0.0798
  C  C65  1  0.149600  0.407800  0.817100  1.0  -0.1615
  C  C66  1  0.273100  0.400700  0.813800  1.0  0.1575
  C  C67  1  0.561900  0.210500  0.698400  1.0  0.1534
  C  C68  1  0.564900  0.087400  0.696900  1.0  -0.1627
  C  C69  1  0.545100  0.823700  0.692000  1.0  -0.1383
  C  C70  1  0.547000  0.704400  0.692600  1.0  0.1491
  C  C71  1  0.500000  0.969100  0.250000  1.0  0.103
  C  C72  1  0.500000  0.103300  0.250000  1.0  0.0575
  C  C73  1  0.500000  0.030900  0.750000  1.0  0.0468
  C  C74  1  0.500000  0.896700  0.750000  1.0  0.0454
  S  S75  1  0.455100  0.552300  0.030200  1.0  1.0688
  S  S76  1  0.544900  0.552300  0.469800  1.0  1.0676
  S  S77  1  0.544900  0.447700  0.969800  1.0  1.07
  S  S78  1  0.455100  0.447700  0.530200  1.0  1.0704
  N  N79  1  0.312500  0.548000  0.250900  1.0  -0.3178
  N  N80  1  0.687500  0.548000  0.249100  1.0  -0.3189
  N  N81  1  0.687500  0.452000  0.749100  1.0  -0.3127
  N  N82  1  0.312500  0.452000  0.750900  1.0  -0.3144
  N  N83  1  0.500000  0.736300  0.250000  1.0  -0.2849
  N  N84  1  0.500000  0.350000  0.250000  1.0  -0.3016
  N  N85  1  0.500000  0.263700  0.750000  1.0  -0.296
  N  N86  1  0.500000  0.650000  0.750000  1.0  -0.307
  O  O87  1  0.467900  0.546600  0.108400  1.0  -0.5246
  O  O88  1  0.335000  0.582200  0.984700  1.0  -0.6138
  O  O89  1  0.510100  0.669900  0.010300  1.0  -0.6818
  O  O90  1  0.532100  0.546600  0.391600  1.0  -0.5244
  O  O91  1  0.665000  0.582200  0.515300  1.0  -0.6172
  O  O92  1  0.489900  0.669900  0.489700  1.0  -0.6825
  O  O93  1  0.532100  0.453400  0.891600  1.0  -0.5333
  O  O94  1  0.665000  0.417800  0.015300  1.0  -0.6147
  O  O95  1  0.489900  0.330100  0.989700  1.0  -0.6745
  O  O96  1  0.467900  0.453400  0.608400  1.0  -0.5342
  O  O97  1  0.335000  0.417800  0.484700  1.0  -0.6087
  O  O98  1  0.510100  0.330100  0.510300  1.0  -0.6726
