# generated using pymatgen
data_AlP2C8N3O7
_symmetry_space_group_name_H-M   'P 1'
_cell_length_a   18.94700000
_cell_length_b   6.91500000
_cell_length_c   11.29500000
_cell_angle_alpha   90.00000000
_cell_angle_beta   90.45000000
_cell_angle_gamma   90.00000000
_symmetry_Int_Tables_number   1
_chemical_formula_structural   AlP2C8N3O7
_chemical_formula_sum   'Al4 P8 C32 N12 O28'
_cell_volume   1479.80837179
_cell_formula_units_Z   4
loop_
 _symmetry_equiv_pos_site_id
 _symmetry_equiv_pos_as_xyz
  1  'x, y, z'
loop_
 _atom_site_type_symbol
 _atom_site_label
 _atom_site_symmetry_multiplicity
 _atom_site_fract_x
 _atom_site_fract_y
 _atom_site_fract_z
 _atom_site_occupancy
 _atom_site_charge
  Al  Al1  1  0.250000  0.250000  0.500000  1.0  1.8075
  Al  Al2  1  0.750000  0.250000  0.500000  1.0  1.8075
  Al  Al3  1  0.750000  0.750000  0.500000  1.0  1.8075
  Al  Al4  1  0.250000  0.750000  0.500000  1.0  1.8075
  P  P5  1  0.332000  0.000000  0.705000  1.0  1.4557
  P  P6  1  0.340000  0.000000  0.305000  1.0  1.5817
  P  P7  1  0.832000  0.500000  0.705000  1.0  1.4557
  P  P8  1  0.840000  0.500000  0.305000  1.0  1.5817
  P  P9  1  0.668000  0.000000  0.295000  1.0  1.4557
  P  P10  1  0.660000  0.000000  0.695000  1.0  1.5903
  P  P11  1  0.168000  0.500000  0.295000  1.0  1.4557
  P  P12  1  0.160000  0.500000  0.695000  1.0  1.5903
  C  C13  1  0.469000  0.176000  0.455000  1.0  0.0222
  C  C14  1  0.317000  0.201000  0.946000  1.0  -0.0051
  C  C15  1  0.186000  0.142000  0.966000  1.0  -0.0057
  C  C16  1  0.969000  0.676000  0.455000  1.0  0.0222
  C  C17  1  0.817000  0.701000  0.946000  1.0  -0.0051
  C  C18  1  0.686000  0.642000  0.966000  1.0  -0.0057
  C  C19  1  0.531000  0.176000  0.545000  1.0  0.0215
  C  C20  1  0.683000  0.201000  0.054000  1.0  -0.0025
  C  C21  1  0.814000  0.142000  0.034000  1.0  -0.0077
  C  C22  1  0.031000  0.676000  0.545000  1.0  0.0215
  C  C23  1  0.183000  0.701000  0.054000  1.0  -0.0025
  C  C24  1  0.314000  0.642000  0.034000  1.0  -0.0077
  C  C25  1  0.531000  0.824000  0.545000  1.0  0.0204
  C  C26  1  0.683000  0.799000  0.054000  1.0  -0.0025
  C  C27  1  0.814000  0.858000  0.034000  1.0  -0.0076
  C  C28  1  0.031000  0.324000  0.545000  1.0  0.0204
  C  C29  1  0.183000  0.299000  0.054000  1.0  -0.0025
  C  C30  1  0.314000  0.358000  0.034000  1.0  -0.0076
  C  C31  1  0.469000  0.824000  0.455000  1.0  0.0207
  C  C32  1  0.317000  0.799000  0.946000  1.0  -0.0047
  C  C33  1  0.186000  0.858000  0.966000  1.0  -0.006
  C  C34  1  0.969000  0.324000  0.455000  1.0  0.0207
  C  C35  1  0.817000  0.299000  0.946000  1.0  -0.0047
  C  C36  1  0.686000  0.358000  0.966000  1.0  -0.006
  C  C37  1  0.431000  0.000000  0.262000  1.0  -0.0438
  C  C38  1  0.251000  0.000000  0.794000  1.0  0.0158
  C  C39  1  0.931000  0.500000  0.262000  1.0  -0.0438
  C  C40  1  0.751000  0.500000  0.794000  1.0  0.0158
  C  C41  1  0.569000  0.000000  0.738000  1.0  -0.0472
  C  C42  1  0.749000  0.000000  0.206000  1.0  0.0162
  C  C43  1  0.069000  0.500000  0.738000  1.0  -0.0472
  C  C44  1  0.249000  0.500000  0.206000  1.0  0.0162
  N  N45  1  0.248000  0.154000  0.885000  1.0  -0.0992
  N  N46  1  0.748000  0.654000  0.885000  1.0  -0.0992
  N  N47  1  0.752000  0.154000  0.115000  1.0  -0.102
  N  N48  1  0.252000  0.654000  0.115000  1.0  -0.102
  N  N49  1  0.752000  0.846000  0.115000  1.0  -0.1044
  N  N50  1  0.252000  0.346000  0.115000  1.0  -0.1044
  N  N51  1  0.248000  0.846000  0.885000  1.0  -0.1039
  N  N52  1  0.748000  0.346000  0.885000  1.0  -0.1039
  N  N53  1  0.474000  0.000000  0.378000  1.0  0.052
  N  N54  1  0.974000  0.500000  0.378000  1.0  0.052
  N  N55  1  0.526000  0.000000  0.622000  1.0  0.0518
  N  N56  1  0.026000  0.500000  0.622000  1.0  0.0518
  O  O57  1  0.322000  0.175000  0.620000  1.0  -0.7646
  O  O58  1  0.314000  0.162000  0.365000  1.0  -0.643
  O  O59  1  0.822000  0.675000  0.620000  1.0  -0.7646
  O  O60  1  0.814000  0.662000  0.365000  1.0  -0.643
  O  O61  1  0.678000  0.175000  0.380000  1.0  -0.767
  O  O62  1  0.686000  0.162000  0.635000  1.0  -0.6442
  O  O63  1  0.178000  0.675000  0.380000  1.0  -0.767
  O  O64  1  0.186000  0.662000  0.635000  1.0  -0.6442
  O  O65  1  0.678000  0.825000  0.380000  1.0  -0.7672
  O  O66  1  0.686000  0.838000  0.635000  1.0  -0.6445
  O  O67  1  0.178000  0.325000  0.380000  1.0  -0.7672
  O  O68  1  0.186000  0.338000  0.635000  1.0  -0.6445
  O  O69  1  0.322000  0.825000  0.620000  1.0  -0.7652
  O  O70  1  0.314000  0.838000  0.365000  1.0  -0.6436
  O  O71  1  0.822000  0.325000  0.620000  1.0  -0.7652
  O  O72  1  0.814000  0.338000  0.365000  1.0  -0.6436
  O  O73  1  0.215000  0.000000  0.541000  1.0  -0.6718
  O  O74  1  0.411000  0.000000  0.730000  1.0  -0.6242
  O  O75  1  0.300000  0.000000  0.193000  1.0  -0.5731
  O  O76  1  0.715000  0.500000  0.541000  1.0  -0.6718
  O  O77  1  0.911000  0.500000  0.730000  1.0  -0.6242
  O  O78  1  0.800000  0.500000  0.193000  1.0  -0.5731
  O  O79  1  0.785000  0.000000  0.459000  1.0  -0.671
  O  O80  1  0.589000  0.000000  0.270000  1.0  -0.6236
  O  O81  1  0.700000  0.000000  0.807000  1.0  -0.5738
  O  O82  1  0.285000  0.500000  0.459000  1.0  -0.671
  O  O83  1  0.089000  0.500000  0.270000  1.0  -0.6236
  O  O84  1  0.200000  0.500000  0.807000  1.0  -0.5738
