# generated using pymatgen
data_TiP2C8N3O7
_symmetry_space_group_name_H-M   'P 1'
_cell_length_a   19.41500000
_cell_length_b   7.07100000
_cell_length_c   11.48300000
_cell_angle_alpha   90.00000000
_cell_angle_beta   92.78000000
_cell_angle_gamma   90.00000000
_symmetry_Int_Tables_number   1
_chemical_formula_structural   TiP2C8N3O7
_chemical_formula_sum   'Ti4 P8 C32 N12 O28'
_cell_volume   1574.57077738
_cell_formula_units_Z   4
loop_
 _symmetry_equiv_pos_site_id
 _symmetry_equiv_pos_as_xyz
  1  'x, y, z'
loop_
 _atom_site_type_symbol
 _atom_site_label
 _atom_site_symmetry_multiplicity
 _atom_site_fract_x
 _atom_site_fract_y
 _atom_site_fract_z
 _atom_site_occupancy
 _atom_site_charge
  Ti  Ti1  1  0.250000  0.250000  0.500000  1.0  1.956
  Ti  Ti2  1  0.750000  0.250000  0.500000  1.0  1.956
  Ti  Ti3  1  0.750000  0.750000  0.500000  1.0  1.956
  Ti  Ti4  1  0.250000  0.750000  0.500000  1.0  1.956
  P  P5  1  0.343000  0.000000  0.701000  1.0  1.4769
  P  P6  1  0.320000  0.000000  0.297000  1.0  1.5731
  P  P7  1  0.843000  0.500000  0.701000  1.0  1.4769
  P  P8  1  0.820000  0.500000  0.297000  1.0  1.5731
  P  P9  1  0.657000  0.000000  0.299000  1.0  1.4771
  P  P10  1  0.680000  0.000000  0.703000  1.0  1.5833
  P  P11  1  0.157000  0.500000  0.299000  1.0  1.4771
  P  P12  1  0.180000  0.500000  0.703000  1.0  1.5833
  C  C13  1  0.504000  0.178000  0.433000  1.0  0.0182
  C  C14  1  0.320000  0.270000  0.959000  1.0  -0.0102
  C  C15  1  0.202000  0.111000  0.949000  1.0  0.054
  C  C16  1  0.004000  0.678000  0.433000  1.0  0.0182
  C  C17  1  0.820000  0.770000  0.959000  1.0  -0.0102
  C  C18  1  0.702000  0.611000  0.949000  1.0  0.054
  C  C19  1  0.496000  0.178000  0.567000  1.0  0.0169
  C  C20  1  0.680000  0.270000  0.041000  1.0  -0.0099
  C  C21  1  0.798000  0.111000  0.051000  1.0  0.0536
  C  C22  1  0.996000  0.678000  0.567000  1.0  0.0169
  C  C23  1  0.180000  0.770000  0.041000  1.0  -0.0099
  C  C24  1  0.298000  0.611000  0.051000  1.0  0.0536
  C  C25  1  0.496000  0.822000  0.567000  1.0  0.0153
  C  C26  1  0.680000  0.730000  0.041000  1.0  -0.0092
  C  C27  1  0.798000  0.889000  0.051000  1.0  0.0537
  C  C28  1  0.996000  0.322000  0.567000  1.0  0.0153
  C  C29  1  0.180000  0.230000  0.041000  1.0  -0.0092
  C  C30  1  0.298000  0.389000  0.051000  1.0  0.0537
  C  C31  1  0.504000  0.822000  0.433000  1.0  0.0215
  C  C32  1  0.320000  0.730000  0.959000  1.0  -0.0099
  C  C33  1  0.202000  0.889000  0.949000  1.0  0.0538
  C  C34  1  0.004000  0.322000  0.433000  1.0  0.0215
  C  C35  1  0.820000  0.230000  0.959000  1.0  -0.0099
  C  C36  1  0.702000  0.389000  0.949000  1.0  0.0538
  C  C37  1  0.411000  0.000000  0.273000  1.0  0.0098
  C  C38  1  0.294000  0.000000  0.827000  1.0  -0.0814
  C  C39  1  0.911000  0.500000  0.273000  1.0  0.0098
  C  C40  1  0.794000  0.500000  0.827000  1.0  -0.0814
  C  C41  1  0.589000  0.000000  0.727000  1.0  0.0087
  C  C42  1  0.706000  0.000000  0.173000  1.0  -0.0814
  C  C43  1  0.089000  0.500000  0.727000  1.0  0.0087
  C  C44  1  0.206000  0.500000  0.173000  1.0  -0.0814
  N  N45  1  0.261000  0.195000  0.878000  1.0  -0.2225
  N  N46  1  0.761000  0.695000  0.878000  1.0  -0.2225
  N  N47  1  0.739000  0.195000  0.122000  1.0  -0.2177
  N  N48  1  0.239000  0.695000  0.122000  1.0  -0.2177
  N  N49  1  0.739000  0.805000  0.122000  1.0  -0.2174
  N  N50  1  0.239000  0.305000  0.122000  1.0  -0.2174
  N  N51  1  0.261000  0.805000  0.878000  1.0  -0.2219
  N  N52  1  0.761000  0.305000  0.878000  1.0  -0.2219
  N  N53  1  0.469000  0.000000  0.381000  1.0  0.035
  N  N54  1  0.969000  0.500000  0.381000  1.0  0.035
  N  N55  1  0.531000  0.000000  0.619000  1.0  0.035
  N  N56  1  0.031000  0.500000  0.619000  1.0  0.035
  O  O57  1  0.331000  0.182000  0.629000  1.0  -0.7349
  O  O58  1  0.304000  0.158000  0.367000  1.0  -0.6354
  O  O59  1  0.831000  0.682000  0.629000  1.0  -0.7349
  O  O60  1  0.804000  0.658000  0.367000  1.0  -0.6354
  O  O61  1  0.669000  0.182000  0.371000  1.0  -0.7356
  O  O62  1  0.696000  0.158000  0.633000  1.0  -0.6356
  O  O63  1  0.169000  0.682000  0.371000  1.0  -0.7356
  O  O64  1  0.196000  0.658000  0.633000  1.0  -0.6356
  O  O65  1  0.669000  0.818000  0.371000  1.0  -0.7351
  O  O66  1  0.696000  0.842000  0.633000  1.0  -0.6346
  O  O67  1  0.169000  0.318000  0.371000  1.0  -0.7351
  O  O68  1  0.196000  0.342000  0.633000  1.0  -0.6346
  O  O69  1  0.331000  0.818000  0.629000  1.0  -0.735
  O  O70  1  0.304000  0.842000  0.367000  1.0  -0.634
  O  O71  1  0.831000  0.318000  0.629000  1.0  -0.735
  O  O72  1  0.804000  0.342000  0.367000  1.0  -0.634
  O  O73  1  0.223000  0.000000  0.532000  1.0  -0.6846
  O  O74  1  0.419000  0.000000  0.740000  1.0  -0.6127
  O  O75  1  0.287000  0.000000  0.175000  1.0  -0.6227
  O  O76  1  0.723000  0.500000  0.532000  1.0  -0.6846
  O  O77  1  0.919000  0.500000  0.740000  1.0  -0.6127
  O  O78  1  0.787000  0.500000  0.175000  1.0  -0.6227
  O  O79  1  0.777000  0.000000  0.468000  1.0  -0.6842
  O  O80  1  0.581000  0.000000  0.260000  1.0  -0.6105
  O  O81  1  0.713000  0.000000  0.825000  1.0  -0.6218
  O  O82  1  0.277000  0.500000  0.468000  1.0  -0.6842
  O  O83  1  0.081000  0.500000  0.260000  1.0  -0.6105
  O  O84  1  0.213000  0.500000  0.825000  1.0  -0.6218
