# generated using pymatgen
data_CuH32C45N4
_symmetry_space_group_name_H-M   'P 1'
_cell_length_a   14.68900000
_cell_length_b   14.99500000
_cell_length_c   30.62500000
_cell_angle_alpha   90.00000000
_cell_angle_beta   90.00000000
_cell_angle_gamma   90.00000000
_symmetry_Int_Tables_number   1
_chemical_formula_structural   CuH32C45N4
_chemical_formula_sum   'Cu4 H128 C180 N16'
_cell_volume   6745.51012187
_cell_formula_units_Z   4
loop_
 _symmetry_equiv_pos_site_id
 _symmetry_equiv_pos_as_xyz
  1  'x, y, z'
loop_
 _atom_site_type_symbol
 _atom_site_label
 _atom_site_symmetry_multiplicity
 _atom_site_fract_x
 _atom_site_fract_y
 _atom_site_fract_z
 _atom_site_occupancy
 _atom_site_charge
  Cu  Cu1  1  0.500000  0.250000  0.250000  1.0  0.3748
  Cu  Cu2  1  0.000000  0.750000  0.750000  1.0  0.3727
  Cu  Cu3  1  0.500000  0.750000  0.750000  1.0  0.3748
  Cu  Cu4  1  0.000000  0.250000  0.250000  1.0  0.3727
  H  H5  1  0.601300  0.087800  0.226500  1.0  0.0753
  H  H6  1  0.607300  0.978500  0.172000  1.0  0.1214
  H  H7  1  0.386200  0.096000  0.117900  1.0  0.0998
  H  H8  1  0.392500  0.200000  0.171300  1.0  0.056
  H  H9  1  0.629000  0.919700  0.110200  1.0  0.0986
  H  H10  1  0.632600  0.812800  0.054800  1.0  0.1104
  H  H11  1  0.371100  0.871600  0.026000  1.0  0.1056
  H  H12  1  0.369900  0.976600  0.080800  1.0  0.0928
  H  H13  1  0.855200  0.626300  0.788000  1.0  0.079
  H  H14  1  0.757900  0.623000  0.846800  1.0  0.1092
  H  H15  1  0.840900  0.871300  0.880300  1.0  0.1265
  H  H16  1  0.935800  0.865300  0.818800  1.0  0.0617
  H  H17  1  0.667900  0.617700  0.896000  1.0  0.0881
  H  H18  1  0.554000  0.624800  0.948000  1.0  0.092
  H  H19  1  0.637000  0.869200  0.984100  1.0  0.0929
  H  H20  1  0.752000  0.865200  0.931600  1.0  0.1018
  H  H21  1  0.601300  0.412200  0.273500  1.0  0.0736
  H  H22  1  0.607300  0.521500  0.328000  1.0  0.1219
  H  H23  1  0.386200  0.404000  0.382100  1.0  0.0994
  H  H24  1  0.392500  0.300000  0.328700  1.0  0.0565
  H  H25  1  0.629000  0.580300  0.389800  1.0  0.0979
  H  H26  1  0.632600  0.687200  0.445200  1.0  0.1107
  H  H27  1  0.371100  0.628400  0.474000  1.0  0.1059
  H  H28  1  0.369900  0.523400  0.419200  1.0  0.0921
  H  H29  1  0.855200  0.873700  0.712000  1.0  0.0797
  H  H30  1  0.757900  0.877000  0.653200  1.0  0.1091
  H  H31  1  0.840900  0.628700  0.619700  1.0  0.1266
  H  H32  1  0.935800  0.634700  0.681200  1.0  0.0619
  H  H33  1  0.667900  0.882300  0.604000  1.0  0.0878
  H  H34  1  0.554000  0.875200  0.552000  1.0  0.092
  H  H35  1  0.637000  0.630800  0.515900  1.0  0.0928
  H  H36  1  0.752000  0.634800  0.568400  1.0  0.1023
  H  H37  1  0.398700  0.412200  0.226500  1.0  0.0755
  H  H38  1  0.392700  0.521500  0.172000  1.0  0.1217
  H  H39  1  0.613800  0.404000  0.117900  1.0  0.0991
  H  H40  1  0.607500  0.300000  0.171300  1.0  0.0561
  H  H41  1  0.371000  0.580300  0.110200  1.0  0.0994
  H  H42  1  0.367400  0.687200  0.054800  1.0  0.1097
  H  H43  1  0.628900  0.628400  0.026000  1.0  0.1062
  H  H44  1  0.630100  0.523400  0.080800  1.0  0.0929
  H  H45  1  0.144800  0.873700  0.788000  1.0  0.081
  H  H46  1  0.242100  0.877000  0.846800  1.0  0.1091
  H  H47  1  0.159100  0.628700  0.880300  1.0  0.1275
  H  H48  1  0.064200  0.634700  0.818800  1.0  0.0616
  H  H49  1  0.332100  0.882300  0.896000  1.0  0.0879
  H  H50  1  0.446000  0.875200  0.948000  1.0  0.0918
  H  H51  1  0.363000  0.630800  0.984100  1.0  0.0931
  H  H52  1  0.248000  0.634800  0.931600  1.0  0.1023
  H  H53  1  0.398700  0.087800  0.273500  1.0  0.0752
  H  H54  1  0.392700  0.978500  0.328000  1.0  0.1206
  H  H55  1  0.613800  0.096000  0.382100  1.0  0.0994
  H  H56  1  0.607500  0.200000  0.328700  1.0  0.0556
  H  H57  1  0.371000  0.919700  0.389800  1.0  0.0984
  H  H58  1  0.367400  0.812800  0.445200  1.0  0.1106
  H  H59  1  0.628900  0.871600  0.474000  1.0  0.1055
  H  H60  1  0.630100  0.976600  0.419200  1.0  0.0931
  H  H61  1  0.144800  0.626300  0.712000  1.0  0.0794
  H  H62  1  0.242100  0.623000  0.653200  1.0  0.1089
  H  H63  1  0.159100  0.871300  0.619700  1.0  0.1262
  H  H64  1  0.064200  0.865300  0.681200  1.0  0.0615
  H  H65  1  0.332100  0.617700  0.604000  1.0  0.0873
  H  H66  1  0.446000  0.624800  0.552000  1.0  0.0917
  H  H67  1  0.363000  0.869200  0.515900  1.0  0.0925
  H  H68  1  0.248000  0.865200  0.568400  1.0  0.1026
  H  H69  1  0.398700  0.912200  0.773500  1.0  0.0744
  H  H70  1  0.392700  0.021500  0.828000  1.0  0.122
  H  H71  1  0.613800  0.904000  0.882100  1.0  0.0991
  H  H72  1  0.607500  0.800000  0.828700  1.0  0.0567
  H  H73  1  0.371000  0.080300  0.889800  1.0  0.0986
  H  H74  1  0.367400  0.187200  0.945200  1.0  0.1107
  H  H75  1  0.628900  0.128400  0.974000  1.0  0.1052
  H  H76  1  0.630100  0.023400  0.919200  1.0  0.0927
  H  H77  1  0.144800  0.373700  0.212000  1.0  0.0787
  H  H78  1  0.242100  0.377000  0.153200  1.0  0.1087
  H  H79  1  0.159100  0.128700  0.119700  1.0  0.1271
  H  H80  1  0.064200  0.134700  0.181200  1.0  0.0613
  H  H81  1  0.332100  0.382300  0.104000  1.0  0.0885
  H  H82  1  0.446000  0.375200  0.052000  1.0  0.0918
  H  H83  1  0.363000  0.130800  0.015900  1.0  0.092
  H  H84  1  0.248000  0.134800  0.068400  1.0  0.1017
  H  H85  1  0.398700  0.587800  0.726500  1.0  0.0756
  H  H86  1  0.392700  0.478500  0.672000  1.0  0.1211
  H  H87  1  0.613800  0.596000  0.617900  1.0  0.0995
  H  H88  1  0.607500  0.700000  0.671300  1.0  0.0557
  H  H89  1  0.371000  0.419700  0.610200  1.0  0.0996
  H  H90  1  0.367400  0.312800  0.554800  1.0  0.1103
  H  H91  1  0.628900  0.371600  0.526000  1.0  0.1061
  H  H92  1  0.630100  0.476600  0.580800  1.0  0.0932
  H  H93  1  0.144800  0.126300  0.288000  1.0  0.0811
  H  H94  1  0.242100  0.123000  0.346800  1.0  0.1099
  H  H95  1  0.159100  0.371300  0.380300  1.0  0.1267
  H  H96  1  0.064200  0.365300  0.318800  1.0  0.061
  H  H97  1  0.332100  0.117700  0.396000  1.0  0.0876
  H  H98  1  0.446000  0.124800  0.448000  1.0  0.0918
  H  H99  1  0.363000  0.369200  0.484100  1.0  0.0929
  H  H100  1  0.248000  0.365200  0.431600  1.0  0.1021
  H  H101  1  0.601300  0.587800  0.773500  1.0  0.0748
  H  H102  1  0.607300  0.478500  0.828000  1.0  0.1216
  H  H103  1  0.386200  0.596000  0.882100  1.0  0.0998
  H  H104  1  0.392500  0.700000  0.828700  1.0  0.056
  H  H105  1  0.629000  0.419700  0.889800  1.0  0.0976
  H  H106  1  0.632600  0.312800  0.945200  1.0  0.1099
  H  H107  1  0.371100  0.371600  0.974000  1.0  0.1059
  H  H108  1  0.369900  0.476600  0.919200  1.0  0.0924
  H  H109  1  0.855200  0.126300  0.212000  1.0  0.0804
  H  H110  1  0.757900  0.123000  0.153200  1.0  0.1089
  H  H111  1  0.840900  0.371300  0.119700  1.0  0.1262
  H  H112  1  0.935800  0.365300  0.181200  1.0  0.0605
  H  H113  1  0.667900  0.117700  0.104000  1.0  0.0887
  H  H114  1  0.554000  0.124800  0.052000  1.0  0.0918
  H  H115  1  0.637000  0.369200  0.015900  1.0  0.0929
  H  H116  1  0.752000  0.365200  0.068400  1.0  0.1024
  H  H117  1  0.601300  0.912200  0.726500  1.0  0.0746
  H  H118  1  0.607300  0.021500  0.672000  1.0  0.1212
  H  H119  1  0.386200  0.904000  0.617900  1.0  0.0994
  H  H120  1  0.392500  0.800000  0.671300  1.0  0.0563
  H  H121  1  0.629000  0.080300  0.610200  1.0  0.0986
  H  H122  1  0.632600  0.187200  0.554800  1.0  0.1104
  H  H123  1  0.371100  0.128400  0.526000  1.0  0.1062
  H  H124  1  0.369900  0.023400  0.580800  1.0  0.0927
  H  H125  1  0.855200  0.373700  0.288000  1.0  0.0788
  H  H126  1  0.757900  0.377000  0.346800  1.0  0.1095
  H  H127  1  0.840900  0.128700  0.380300  1.0  0.1265
  H  H128  1  0.935800  0.134700  0.318800  1.0  0.0613
  H  H129  1  0.667900  0.382300  0.396000  1.0  0.0882
  H  H130  1  0.554000  0.375200  0.448000  1.0  0.0922
  H  H131  1  0.637000  0.130800  0.484100  1.0  0.0937
  H  H132  1  0.752000  0.134800  0.431600  1.0  0.1026
  C  C133  1  0.558200  0.089500  0.203430  1.0  0.1251
  C  C134  1  0.562200  0.023800  0.171150  1.0  -0.2334
  C  C135  1  0.496700  0.026900  0.137140  1.0  0.0934
  C  C136  1  0.433100  0.092900  0.139230  1.0  -0.198
  C  C137  1  0.436700  0.153800  0.171510  1.0  0.1483
  C  C138  1  0.496100  0.959300  0.101820  1.0  0.0017
  C  C139  1  0.576000  0.909500  0.093080  1.0  -0.1223
  C  C140  1  0.578500  0.845900  0.059940  1.0  -0.1393
  C  C141  1  0.501400  0.830700  0.034140  1.0  0.04
  C  C142  1  0.424500  0.880500  0.042970  1.0  -0.1524
  C  C143  1  0.424000  0.943200  0.076070  1.0  -0.098
  C  C144  1  0.852300  0.676400  0.807000  1.0  0.1036
  C  C145  1  0.794200  0.674400  0.841800  1.0  -0.1996
  C  C146  1  0.787700  0.745700  0.869680  1.0  0.0867
  C  C147  1  0.842100  0.820300  0.861900  1.0  -0.2393
  C  C148  1  0.898800  0.814900  0.825000  1.0  0.1466
  C  C149  1  0.719400  0.740200  0.907190  1.0  -0.0087
  C  C150  1  0.661600  0.669800  0.913430  1.0  -0.1049
  C  C151  1  0.594500  0.673800  0.944730  1.0  -0.1203
  C  C152  1  0.584600  0.747400  0.971610  1.0  0.0257
  C  C153  1  0.643300  0.818000  0.966020  1.0  -0.1217
  C  C154  1  0.711300  0.816300  0.934690  1.0  -0.1177
  C  C155  1  0.558200  0.410500  0.296570  1.0  0.1259
  C  C156  1  0.562200  0.476200  0.328850  1.0  -0.2326
  C  C157  1  0.496700  0.473100  0.362860  1.0  0.0927
  C  C158  1  0.433100  0.407100  0.360770  1.0  -0.1973
  C  C159  1  0.436700  0.346200  0.328490  1.0  0.1497
  C  C160  1  0.496100  0.540700  0.398180  1.0  0.0007
  C  C161  1  0.576000  0.590500  0.406920  1.0  -0.1225
  C  C162  1  0.578500  0.654100  0.440060  1.0  -0.1391
  C  C163  1  0.501400  0.669300  0.465860  1.0  0.04
  C  C164  1  0.424500  0.619500  0.457030  1.0  -0.1489
  C  C165  1  0.424000  0.556800  0.423930  1.0  -0.0977
  C  C166  1  0.852300  0.823600  0.693000  1.0  0.1045
  C  C167  1  0.794200  0.825600  0.658200  1.0  -0.2001
  C  C168  1  0.787700  0.754300  0.630320  1.0  0.0875
  C  C169  1  0.842100  0.679700  0.638100  1.0  -0.2402
  C  C170  1  0.898800  0.685100  0.675000  1.0  0.1456
  C  C171  1  0.719400  0.759800  0.592810  1.0  -0.0088
  C  C172  1  0.661600  0.830200  0.586570  1.0  -0.1035
  C  C173  1  0.594500  0.826200  0.555270  1.0  -0.1207
  C  C174  1  0.584600  0.752600  0.528390  1.0  0.0259
  C  C175  1  0.643300  0.682000  0.533980  1.0  -0.1217
  C  C176  1  0.711300  0.683700  0.565310  1.0  -0.1182
  C  C177  1  0.441800  0.410500  0.203430  1.0  0.1258
  C  C178  1  0.437800  0.476200  0.171150  1.0  -0.2332
  C  C179  1  0.503300  0.473100  0.137140  1.0  0.093
  C  C180  1  0.566900  0.407100  0.139230  1.0  -0.1989
  C  C181  1  0.563300  0.346200  0.171510  1.0  0.1482
  C  C182  1  0.503900  0.540700  0.101820  1.0  0.0015
  C  C183  1  0.424000  0.590500  0.093080  1.0  -0.122
  C  C184  1  0.421500  0.654100  0.059940  1.0  -0.139
  C  C185  1  0.498600  0.669300  0.034140  1.0  0.0389
  C  C186  1  0.575500  0.619500  0.042970  1.0  -0.1474
  C  C187  1  0.576000  0.556800  0.076070  1.0  -0.0982
  C  C188  1  0.147700  0.823600  0.807000  1.0  0.105
  C  C189  1  0.205800  0.825600  0.841800  1.0  -0.1996
  C  C190  1  0.212300  0.754300  0.869680  1.0  0.0875
  C  C191  1  0.157900  0.679700  0.861900  1.0  -0.24
  C  C192  1  0.101200  0.685100  0.825000  1.0  0.1467
  C  C193  1  0.280600  0.759800  0.907190  1.0  -0.0089
  C  C194  1  0.338400  0.830200  0.913430  1.0  -0.103
  C  C195  1  0.405500  0.826200  0.944730  1.0  -0.1209
  C  C196  1  0.415400  0.752600  0.971610  1.0  0.0261
  C  C197  1  0.356700  0.682000  0.966020  1.0  -0.1228
  C  C198  1  0.288700  0.683700  0.934690  1.0  -0.1188
  C  C199  1  0.441800  0.089500  0.296570  1.0  0.1259
  C  C200  1  0.437800  0.023800  0.328850  1.0  -0.2331
  C  C201  1  0.503300  0.026900  0.362860  1.0  0.093
  C  C202  1  0.566900  0.092900  0.360770  1.0  -0.1989
  C  C203  1  0.563300  0.153800  0.328490  1.0  0.1482
  C  C204  1  0.503900  0.959300  0.398180  1.0  0.0005
  C  C205  1  0.424000  0.909500  0.406920  1.0  -0.1218
  C  C206  1  0.421500  0.845900  0.440060  1.0  -0.1386
  C  C207  1  0.498600  0.830700  0.465860  1.0  0.0403
  C  C208  1  0.575500  0.880500  0.457030  1.0  -0.145
  C  C209  1  0.576000  0.943200  0.423930  1.0  -0.0968
  C  C210  1  0.147700  0.676400  0.693000  1.0  0.1044
  C  C211  1  0.205800  0.674400  0.658200  1.0  -0.1984
  C  C212  1  0.212300  0.745700  0.630320  1.0  0.0873
  C  C213  1  0.157900  0.820300  0.638100  1.0  -0.2386
  C  C214  1  0.101200  0.814900  0.675000  1.0  0.1456
  C  C215  1  0.280600  0.740200  0.592810  1.0  -0.0094
  C  C216  1  0.338400  0.669800  0.586570  1.0  -0.1032
  C  C217  1  0.405500  0.673800  0.555270  1.0  -0.1218
  C  C218  1  0.415400  0.747400  0.528390  1.0  0.0258
  C  C219  1  0.356700  0.818000  0.533980  1.0  -0.1225
  C  C220  1  0.288700  0.816300  0.565310  1.0  -0.1187
  C  C221  1  0.500000  0.750000  0.003030  1.0  0.0121
  C  C222  1  0.500000  0.750000  0.496970  1.0  0.0128
  C  C223  1  0.441800  0.910500  0.796570  1.0  0.1263
  C  C224  1  0.437800  0.976200  0.828850  1.0  -0.2326
  C  C225  1  0.503300  0.973100  0.862860  1.0  0.0929
  C  C226  1  0.566900  0.907100  0.860770  1.0  -0.1979
  C  C227  1  0.563300  0.846200  0.828490  1.0  0.1487
  C  C228  1  0.503900  0.040700  0.898180  1.0  0.0006
  C  C229  1  0.424000  0.090500  0.906920  1.0  -0.1218
  C  C230  1  0.421500  0.154100  0.940060  1.0  -0.1385
  C  C231  1  0.498600  0.169300  0.965860  1.0  0.0399
  C  C232  1  0.575500  0.119500  0.957030  1.0  -0.144
  C  C233  1  0.576000  0.056800  0.923930  1.0  -0.0978
  C  C234  1  0.147700  0.323600  0.193000  1.0  0.1042
  C  C235  1  0.205800  0.325600  0.158200  1.0  -0.199
  C  C236  1  0.212300  0.254300  0.130320  1.0  0.0871
  C  C237  1  0.157900  0.179700  0.138100  1.0  -0.2399
  C  C238  1  0.101200  0.185100  0.175000  1.0  0.146
  C  C239  1  0.280600  0.259800  0.092810  1.0  -0.0091
  C  C240  1  0.338400  0.330200  0.086570  1.0  -0.1031
  C  C241  1  0.405500  0.326200  0.055270  1.0  -0.1212
  C  C242  1  0.415400  0.252600  0.028390  1.0  0.0259
  C  C243  1  0.356700  0.182000  0.033980  1.0  -0.1226
  C  C244  1  0.288700  0.183700  0.065310  1.0  -0.1181
  C  C245  1  0.441800  0.589500  0.703430  1.0  0.1255
  C  C246  1  0.437800  0.523800  0.671150  1.0  -0.2334
  C  C247  1  0.503300  0.526900  0.637140  1.0  0.0935
  C  C248  1  0.566900  0.592900  0.639230  1.0  -0.199
  C  C249  1  0.563300  0.653800  0.671510  1.0  0.1476
  C  C250  1  0.503900  0.459300  0.601820  1.0  0.0017
  C  C251  1  0.424000  0.409500  0.593080  1.0  -0.1215
  C  C252  1  0.421500  0.345900  0.559940  1.0  -0.1386
  C  C253  1  0.498600  0.330700  0.534140  1.0  0.0397
  C  C254  1  0.575500  0.380500  0.542970  1.0  -0.1481
  C  C255  1  0.576000  0.443200  0.576070  1.0  -0.0979
  C  C256  1  0.147700  0.176400  0.307000  1.0  0.1036
  C  C257  1  0.205800  0.174400  0.341800  1.0  -0.1986
  C  C258  1  0.212300  0.245700  0.369680  1.0  0.0876
  C  C259  1  0.157900  0.320300  0.361900  1.0  -0.2388
  C  C260  1  0.101200  0.314900  0.325000  1.0  0.1464
  C  C261  1  0.280600  0.240200  0.407190  1.0  -0.009
  C  C262  1  0.338400  0.169800  0.413430  1.0  -0.1031
  C  C263  1  0.405500  0.173800  0.444730  1.0  -0.1216
  C  C264  1  0.415400  0.247400  0.471610  1.0  0.026
  C  C265  1  0.356700  0.318000  0.466020  1.0  -0.1227
  C  C266  1  0.288700  0.316300  0.434690  1.0  -0.1193
  C  C267  1  0.558200  0.589500  0.796570  1.0  0.1253
  C  C268  1  0.562200  0.523800  0.828850  1.0  -0.234
  C  C269  1  0.496700  0.526900  0.862860  1.0  0.0929
  C  C270  1  0.433100  0.592900  0.860770  1.0  -0.198
  C  C271  1  0.436700  0.653800  0.828490  1.0  0.1487
  C  C272  1  0.496100  0.459300  0.898180  1.0  0.0006
  C  C273  1  0.576000  0.409500  0.906920  1.0  -0.1227
  C  C274  1  0.578500  0.345900  0.940060  1.0  -0.1397
  C  C275  1  0.501400  0.330700  0.965860  1.0  0.0404
  C  C276  1  0.424500  0.380500  0.957030  1.0  -0.1495
  C  C277  1  0.424000  0.443200  0.923930  1.0  -0.0965
  C  C278  1  0.852300  0.176400  0.193000  1.0  0.1043
  C  C279  1  0.794200  0.174400  0.158200  1.0  -0.1995
  C  C280  1  0.787700  0.245700  0.130320  1.0  0.0876
  C  C281  1  0.842100  0.320300  0.138100  1.0  -0.2395
  C  C282  1  0.898800  0.314900  0.175000  1.0  0.1457
  C  C283  1  0.719400  0.240200  0.092810  1.0  -0.0088
  C  C284  1  0.661600  0.169800  0.086570  1.0  -0.104
  C  C285  1  0.594500  0.173800  0.055270  1.0  -0.1205
  C  C286  1  0.584600  0.247400  0.028390  1.0  0.026
  C  C287  1  0.643300  0.318000  0.033980  1.0  -0.1216
  C  C288  1  0.711300  0.316300  0.065310  1.0  -0.1186
  C  C289  1  0.558200  0.910500  0.703430  1.0  0.1259
  C  C290  1  0.562200  0.976200  0.671150  1.0  -0.232
  C  C291  1  0.496700  0.973100  0.637140  1.0  0.0926
  C  C292  1  0.433100  0.907100  0.639230  1.0  -0.1981
  C  C293  1  0.436700  0.846200  0.671510  1.0  0.149
  C  C294  1  0.496100  0.040700  0.601820  1.0  0.0017
  C  C295  1  0.576000  0.090500  0.593080  1.0  -0.1223
  C  C296  1  0.578500  0.154100  0.559940  1.0  -0.1391
  C  C297  1  0.501400  0.169300  0.534140  1.0  0.0391
  C  C298  1  0.424500  0.119500  0.542970  1.0  -0.1519
  C  C299  1  0.424000  0.056800  0.576070  1.0  -0.0983
  C  C300  1  0.852300  0.323600  0.307000  1.0  0.105
  C  C301  1  0.794200  0.325600  0.341800  1.0  -0.2005
  C  C302  1  0.787700  0.254300  0.369680  1.0  0.0866
  C  C303  1  0.842100  0.179700  0.361900  1.0  -0.2398
  C  C304  1  0.898800  0.185100  0.325000  1.0  0.1462
  C  C305  1  0.719400  0.259800  0.407190  1.0  -0.0092
  C  C306  1  0.661600  0.330200  0.413430  1.0  -0.1042
  C  C307  1  0.594500  0.326200  0.444730  1.0  -0.1205
  C  C308  1  0.584600  0.252600  0.471610  1.0  0.0256
  C  C309  1  0.643300  0.182000  0.466020  1.0  -0.1221
  C  C310  1  0.711300  0.183700  0.434690  1.0  -0.1178
  C  C311  1  0.500000  0.250000  0.996970  1.0  0.0128
  C  C312  1  0.500000  0.250000  0.503030  1.0  0.0121
  N  N313  1  0.496600  0.154000  0.203150  1.0  -0.3118
  N  N314  1  0.905400  0.747700  0.798810  1.0  -0.3126
  N  N315  1  0.496600  0.346000  0.296850  1.0  -0.3134
  N  N316  1  0.905400  0.752300  0.701190  1.0  -0.3116
  N  N317  1  0.503400  0.346000  0.203150  1.0  -0.3119
  N  N318  1  0.094600  0.752300  0.798810  1.0  -0.3125
  N  N319  1  0.503400  0.154000  0.296850  1.0  -0.3123
  N  N320  1  0.094600  0.747700  0.701190  1.0  -0.3118
  N  N321  1  0.503400  0.846000  0.796850  1.0  -0.3131
  N  N322  1  0.094600  0.252300  0.201190  1.0  -0.312
  N  N323  1  0.503400  0.654000  0.703150  1.0  -0.3114
  N  N324  1  0.094600  0.247700  0.298810  1.0  -0.3126
  N  N325  1  0.496600  0.654000  0.796850  1.0  -0.3126
  N  N326  1  0.905400  0.247700  0.201190  1.0  -0.3116
  N  N327  1  0.496600  0.846000  0.703150  1.0  -0.3121
  N  N328  1  0.905400  0.252300  0.298810  1.0  -0.3126
