# generated using pymatgen
data_CdH8C16(NO)2
_symmetry_space_group_name_H-M   'P 1'
_cell_length_a   20.83500000
_cell_length_b   10.17700000
_cell_length_c   16.01400000
_cell_angle_alpha   90.00000000
_cell_angle_beta   106.12000000
_cell_angle_gamma   90.00000000
_symmetry_Int_Tables_number   1
_chemical_formula_structural   CdH8C16(NO)2
_chemical_formula_sum   'Cd8 H64 C128 N16 O16'
_cell_volume   3262.06710029
_cell_formula_units_Z   8
loop_
 _symmetry_equiv_pos_site_id
 _symmetry_equiv_pos_as_xyz
  1  'x, y, z'
loop_
 _atom_site_type_symbol
 _atom_site_label
 _atom_site_symmetry_multiplicity
 _atom_site_fract_x
 _atom_site_fract_y
 _atom_site_fract_z
 _atom_site_occupancy
 _atom_site_charge
  Cd  Cd1  1  0.059600  0.107350  0.577430  1.0  0.8957
  Cd  Cd2  1  0.559600  0.607350  0.577430  1.0  0.8957
  Cd  Cd3  1  0.940400  0.107350  0.922570  1.0  0.8946
  Cd  Cd4  1  0.440400  0.607350  0.922570  1.0  0.8946
  Cd  Cd5  1  0.940400  0.892650  0.422570  1.0  0.8953
  Cd  Cd6  1  0.440400  0.392650  0.422570  1.0  0.8953
  Cd  Cd7  1  0.059600  0.892650  0.077430  1.0  0.8962
  Cd  Cd8  1  0.559600  0.392650  0.077430  1.0  0.8962
  H  H9  1  0.967400  0.350600  0.489100  1.0  0.0596
  H  H10  1  0.865200  0.443100  0.476400  1.0  0.1256
  H  H11  1  0.846600  0.208400  0.668900  1.0  0.1149
  H  H12  1  0.950900  0.127900  0.679500  1.0  0.0713
  H  H13  1  0.763600  0.503300  0.458500  1.0  0.1271
  H  H14  1  0.161100  0.085200  0.457700  1.0  0.068
  H  H15  1  0.165700  0.904100  0.672200  1.0  0.071
  H  H16  1  0.767900  0.313900  0.680000  1.0  0.1259
  H  H17  1  0.467400  0.850600  0.489100  1.0  0.0596
  H  H18  1  0.365200  0.943100  0.476400  1.0  0.1256
  H  H19  1  0.346600  0.708400  0.668900  1.0  0.1149
  H  H20  1  0.450900  0.627900  0.679500  1.0  0.0713
  H  H21  1  0.263600  0.003300  0.458500  1.0  0.1271
  H  H22  1  0.661100  0.585200  0.457700  1.0  0.068
  H  H23  1  0.665700  0.404100  0.672200  1.0  0.071
  H  H24  1  0.267900  0.813900  0.680000  1.0  0.1259
  H  H25  1  0.032600  0.350600  0.010900  1.0  0.0593
  H  H26  1  0.134800  0.443100  0.023600  1.0  0.1262
  H  H27  1  0.153400  0.208400  0.831100  1.0  0.1159
  H  H28  1  0.049100  0.127900  0.820500  1.0  0.0711
  H  H29  1  0.236400  0.503300  0.041500  1.0  0.1267
  H  H30  1  0.838900  0.085200  0.042300  1.0  0.0677
  H  H31  1  0.834300  0.904100  0.827800  1.0  0.071
  H  H32  1  0.232100  0.313900  0.820000  1.0  0.125
  H  H33  1  0.532600  0.850600  0.010900  1.0  0.0593
  H  H34  1  0.634800  0.943100  0.023600  1.0  0.1262
  H  H35  1  0.653400  0.708400  0.831100  1.0  0.1159
  H  H36  1  0.549100  0.627900  0.820500  1.0  0.0711
  H  H37  1  0.736400  0.003300  0.041500  1.0  0.1267
  H  H38  1  0.338900  0.585200  0.042300  1.0  0.0677
  H  H39  1  0.334300  0.404100  0.827800  1.0  0.0711
  H  H40  1  0.732100  0.813900  0.820000  1.0  0.125
  H  H41  1  0.032600  0.649400  0.510900  1.0  0.0601
  H  H42  1  0.134800  0.556900  0.523600  1.0  0.126
  H  H43  1  0.153400  0.791600  0.331100  1.0  0.1156
  H  H44  1  0.049100  0.872100  0.320500  1.0  0.0709
  H  H45  1  0.236400  0.496700  0.541500  1.0  0.1266
  H  H46  1  0.838900  0.914800  0.542300  1.0  0.0682
  H  H47  1  0.834300  0.095900  0.327800  1.0  0.071
  H  H48  1  0.232100  0.686100  0.320000  1.0  0.125
  H  H49  1  0.532600  0.149400  0.510900  1.0  0.0601
  H  H50  1  0.634800  0.056900  0.523600  1.0  0.126
  H  H51  1  0.653400  0.291600  0.331100  1.0  0.1156
  H  H52  1  0.549100  0.372100  0.320500  1.0  0.0709
  H  H53  1  0.736400  0.996700  0.541500  1.0  0.1266
  H  H54  1  0.338900  0.414800  0.542300  1.0  0.0682
  H  H55  1  0.334300  0.595900  0.327800  1.0  0.071
  H  H56  1  0.732100  0.186100  0.320000  1.0  0.125
  H  H57  1  0.967400  0.649400  0.989100  1.0  0.0597
  H  H58  1  0.865200  0.556900  0.976400  1.0  0.125
  H  H59  1  0.846600  0.791600  0.168900  1.0  0.1146
  H  H60  1  0.950900  0.872100  0.179500  1.0  0.0707
  H  H61  1  0.763600  0.496700  0.958500  1.0  0.1269
  H  H62  1  0.161100  0.914800  0.957700  1.0  0.0677
  H  H63  1  0.165700  0.095900  0.172200  1.0  0.071
  H  H64  1  0.767900  0.686100  0.180000  1.0  0.1261
  H  H65  1  0.467400  0.149400  0.989100  1.0  0.0597
  H  H66  1  0.365200  0.056900  0.976400  1.0  0.125
  H  H67  1  0.346600  0.291600  0.168900  1.0  0.1146
  H  H68  1  0.450900  0.372100  0.179500  1.0  0.0707
  H  H69  1  0.263600  0.996700  0.958500  1.0  0.1269
  H  H70  1  0.661100  0.414800  0.957700  1.0  0.0677
  H  H71  1  0.665700  0.595900  0.172200  1.0  0.071
  H  H72  1  0.267900  0.186100  0.180000  1.0  0.1261
  C  C73  1  0.011400  0.898600  0.655800  1.0  0.67
  C  C74  1  0.990100  0.786900  0.701500  1.0  -0.0671
  C  C75  1  0.976000  0.653700  0.654400  1.0  0.0516
  C  C76  1  0.048900  0.605400  0.681800  1.0  -0.0477
  C  C77  1  0.926000  0.595700  0.718400  1.0  -0.0387
  C  C78  1  0.919900  0.727300  0.669400  1.0  -0.0566
  C  C79  1  0.942500  0.320500  0.526900  1.0  0.1618
  C  C80  1  0.881600  0.377700  0.519300  1.0  -0.2326
  C  C81  1  0.844600  0.340400  0.573400  1.0  0.0885
  C  C82  1  0.871200  0.241700  0.631700  1.0  -0.2348
  C  C83  1  0.932700  0.191700  0.636100  1.0  0.1573
  C  C84  1  0.777600  0.398100  0.568800  1.0  0.0936
  C  C85  1  0.744300  0.479900  0.503700  1.0  -0.2304
  C  C86  1  0.183000  0.028300  0.503800  1.0  0.1631
  C  C87  1  0.185700  0.923800  0.627100  1.0  0.1592
  C  C88  1  0.746900  0.369900  0.632800  1.0  -0.2347
  C  C89  1  0.511400  0.398600  0.655800  1.0  0.67
  C  C90  1  0.490100  0.286900  0.701500  1.0  -0.0671
  C  C91  1  0.476000  0.153700  0.654400  1.0  0.0516
  C  C92  1  0.548900  0.105400  0.681800  1.0  -0.0477
  C  C93  1  0.426000  0.095700  0.718400  1.0  -0.0387
  C  C94  1  0.419900  0.227300  0.669400  1.0  -0.0566
  C  C95  1  0.442500  0.820500  0.526900  1.0  0.1618
  C  C96  1  0.381600  0.877700  0.519300  1.0  -0.2326
  C  C97  1  0.344600  0.840400  0.573400  1.0  0.0885
  C  C98  1  0.371200  0.741700  0.631700  1.0  -0.2348
  C  C99  1  0.432700  0.691700  0.636100  1.0  0.1573
  C  C100  1  0.277600  0.898100  0.568800  1.0  0.0936
  C  C101  1  0.244300  0.979900  0.503700  1.0  -0.2304
  C  C102  1  0.683000  0.528300  0.503800  1.0  0.1631
  C  C103  1  0.685700  0.423800  0.627100  1.0  0.1592
  C  C104  1  0.246900  0.869900  0.632800  1.0  -0.235
  C  C105  1  0.988600  0.898600  0.844200  1.0  0.6712
  C  C106  1  0.009900  0.786900  0.798500  1.0  -0.0665
  C  C107  1  0.024000  0.653700  0.845600  1.0  0.0535
  C  C108  1  0.951100  0.605400  0.818200  1.0  -0.0503
  C  C109  1  0.074000  0.595700  0.781600  1.0  -0.0395
  C  C110  1  0.080100  0.727300  0.830600  1.0  -0.0539
  C  C111  1  0.057500  0.320500  0.973100  1.0  0.1629
  C  C112  1  0.118400  0.377700  0.980700  1.0  -0.2316
  C  C113  1  0.155400  0.340400  0.926600  1.0  0.0879
  C  C114  1  0.128800  0.241700  0.868300  1.0  -0.2338
  C  C115  1  0.067300  0.191700  0.863900  1.0  0.1566
  C  C116  1  0.222400  0.398100  0.931200  1.0  0.0937
  C  C117  1  0.255700  0.479900  0.996300  1.0  -0.2317
  C  C118  1  0.817000  0.028300  0.996200  1.0  0.1645
  C  C119  1  0.814300  0.923800  0.872900  1.0  0.1606
  C  C120  1  0.253100  0.369900  0.867200  1.0  -0.2338
  C  C121  1  0.488600  0.398600  0.844200  1.0  0.6712
  C  C122  1  0.509900  0.286900  0.798500  1.0  -0.0665
  C  C123  1  0.524000  0.153700  0.845600  1.0  0.0535
  C  C124  1  0.451100  0.105400  0.818200  1.0  -0.0503
  C  C125  1  0.574000  0.095700  0.781600  1.0  -0.0395
  C  C126  1  0.580100  0.227300  0.830600  1.0  -0.0539
  C  C127  1  0.557500  0.820500  0.973100  1.0  0.1629
  C  C128  1  0.618400  0.877700  0.980700  1.0  -0.2316
  C  C129  1  0.655400  0.840400  0.926600  1.0  0.0879
  C  C130  1  0.628800  0.741700  0.868300  1.0  -0.2338
  C  C131  1  0.567300  0.691700  0.863900  1.0  0.1566
  C  C132  1  0.722400  0.898100  0.931200  1.0  0.0937
  C  C133  1  0.755700  0.979900  0.996300  1.0  -0.2318
  C  C134  1  0.317000  0.528300  0.996200  1.0  0.1645
  C  C135  1  0.314300  0.423800  0.872900  1.0  0.1606
  C  C136  1  0.753100  0.869900  0.867200  1.0  -0.2342
  C  C137  1  0.988600  0.101400  0.344200  1.0  0.67
  C  C138  1  0.009900  0.213100  0.298500  1.0  -0.0669
  C  C139  1  0.024000  0.346300  0.345600  1.0  0.051
  C  C140  1  0.951100  0.394600  0.318200  1.0  -0.0524
  C  C141  1  0.074000  0.404300  0.281600  1.0  -0.0398
  C  C142  1  0.080100  0.272700  0.330600  1.0  -0.0528
  C  C143  1  0.057500  0.679500  0.473100  1.0  0.1633
  C  C144  1  0.118400  0.622300  0.480700  1.0  -0.2308
  C  C145  1  0.155400  0.659600  0.426600  1.0  0.0878
  C  C146  1  0.128800  0.758300  0.368300  1.0  -0.234
  C  C147  1  0.067300  0.808300  0.363900  1.0  0.1569
  C  C148  1  0.222400  0.601900  0.431200  1.0  0.0942
  C  C149  1  0.255700  0.520100  0.496300  1.0  -0.2299
  C  C150  1  0.817000  0.971700  0.496200  1.0  0.1661
  C  C151  1  0.814300  0.076200  0.372900  1.0  0.1608
  C  C152  1  0.253100  0.630100  0.367200  1.0  -0.233
  C  C153  1  0.488600  0.601400  0.344200  1.0  0.67
  C  C154  1  0.509900  0.713100  0.298500  1.0  -0.0669
  C  C155  1  0.524000  0.846300  0.345600  1.0  0.051
  C  C156  1  0.451100  0.894600  0.318200  1.0  -0.0524
  C  C157  1  0.574000  0.904300  0.281600  1.0  -0.0398
  C  C158  1  0.580100  0.772700  0.330600  1.0  -0.0528
  C  C159  1  0.557500  0.179500  0.473100  1.0  0.1633
  C  C160  1  0.618400  0.122300  0.480700  1.0  -0.2308
  C  C161  1  0.655400  0.159600  0.426600  1.0  0.0878
  C  C162  1  0.628800  0.258300  0.368300  1.0  -0.234
  C  C163  1  0.567300  0.308300  0.363900  1.0  0.1569
  C  C164  1  0.722400  0.101900  0.431200  1.0  0.0942
  C  C165  1  0.755700  0.020100  0.496300  1.0  -0.23
  C  C166  1  0.317000  0.471700  0.496200  1.0  0.1661
  C  C167  1  0.314300  0.576200  0.372900  1.0  0.1608
  C  C168  1  0.753100  0.130100  0.367200  1.0  -0.2334
  C  C169  1  0.011400  0.101400  0.155800  1.0  0.679
  C  C170  1  0.990100  0.213100  0.201500  1.0  -0.0677
  C  C171  1  0.976000  0.346300  0.154400  1.0  0.0515
  C  C172  1  0.048900  0.394600  0.181800  1.0  -0.0503
  C  C173  1  0.926000  0.404300  0.218400  1.0  -0.0384
  C  C174  1  0.919900  0.272700  0.169400  1.0  -0.0566
  C  C175  1  0.942500  0.679500  0.026900  1.0  0.1619
  C  C176  1  0.881600  0.622300  0.019300  1.0  -0.2323
  C  C177  1  0.844600  0.659600  0.073400  1.0  0.0885
  C  C178  1  0.871200  0.758300  0.131700  1.0  -0.235
  C  C179  1  0.932700  0.808300  0.136100  1.0  0.1579
  C  C180  1  0.777600  0.601900  0.068800  1.0  0.0943
  C  C181  1  0.744300  0.520100  0.003700  1.0  -0.2303
  C  C182  1  0.183000  0.971700  0.003800  1.0  0.1644
  C  C183  1  0.185700  0.076200  0.127100  1.0  0.1594
  C  C184  1  0.746900  0.630100  0.132800  1.0  -0.2338
  C  C185  1  0.511400  0.601400  0.155800  1.0  0.679
  C  C186  1  0.490100  0.713100  0.201500  1.0  -0.0677
  C  C187  1  0.476000  0.846300  0.154400  1.0  0.0515
  C  C188  1  0.548900  0.894600  0.181800  1.0  -0.0503
  C  C189  1  0.426000  0.904300  0.218400  1.0  -0.0384
  C  C190  1  0.419900  0.772700  0.169400  1.0  -0.0566
  C  C191  1  0.442500  0.179500  0.026900  1.0  0.1619
  C  C192  1  0.381600  0.122300  0.019300  1.0  -0.2323
  C  C193  1  0.344600  0.159600  0.073400  1.0  0.0885
  C  C194  1  0.371200  0.258300  0.131700  1.0  -0.235
  C  C195  1  0.432700  0.308300  0.136100  1.0  0.1579
  C  C196  1  0.277600  0.101900  0.068800  1.0  0.0943
  C  C197  1  0.244300  0.020100  0.003700  1.0  -0.2303
  C  C198  1  0.683000  0.471700  0.003800  1.0  0.1644
  C  C199  1  0.685700  0.576200  0.127100  1.0  0.1594
  C  C200  1  0.246900  0.130100  0.132800  1.0  -0.2342
  N  N201  1  0.969100  0.227500  0.582400  1.0  -0.3373
  N  N202  1  0.152500  0.001200  0.563600  1.0  -0.3341
  N  N203  1  0.469100  0.727500  0.582400  1.0  -0.3373
  N  N204  1  0.652500  0.501200  0.563600  1.0  -0.3358
  N  N205  1  0.030900  0.227500  0.917600  1.0  -0.3398
  N  N206  1  0.847500  0.001200  0.936400  1.0  -0.3356
  N  N207  1  0.530900  0.727500  0.917600  1.0  -0.3398
  N  N208  1  0.347500  0.501200  0.936400  1.0  -0.3371
  N  N209  1  0.030900  0.772500  0.417600  1.0  -0.3384
  N  N210  1  0.847500  0.998800  0.436400  1.0  -0.3371
  N  N211  1  0.530900  0.272500  0.417600  1.0  -0.3384
  N  N212  1  0.347500  0.498800  0.436400  1.0  -0.3385
  N  N213  1  0.969100  0.772500  0.082400  1.0  -0.3371
  N  N214  1  0.152500  0.998800  0.063600  1.0  -0.3364
  N  N215  1  0.469100  0.272500  0.082400  1.0  -0.3371
  N  N216  1  0.652500  0.498800  0.063600  1.0  -0.3381
  O  O217  1  0.054680  0.976200  0.698600  1.0  -0.6178
  O  O218  1  0.011970  0.090500  0.426000  1.0  -0.7752
  O  O219  1  0.554680  0.476200  0.698600  1.0  -0.6178
  O  O220  1  0.511970  0.590500  0.426000  1.0  -0.7752
  O  O221  1  0.945320  0.976200  0.801400  1.0  -0.6176
  O  O222  1  0.988030  0.090500  0.074000  1.0  -0.7741
  O  O223  1  0.445320  0.476200  0.801400  1.0  -0.6176
  O  O224  1  0.488030  0.590500  0.074000  1.0  -0.7741
  O  O225  1  0.945320  0.023800  0.301400  1.0  -0.6172
  O  O226  1  0.988030  0.909500  0.574000  1.0  -0.7741
  O  O227  1  0.445320  0.523800  0.301400  1.0  -0.6172
  O  O228  1  0.488030  0.409500  0.574000  1.0  -0.7741
  O  O229  1  0.054680  0.023800  0.198600  1.0  -0.6178
  O  O230  1  0.011970  0.909500  0.926000  1.0  -0.7748
  O  O231  1  0.554680  0.523800  0.198600  1.0  -0.6178
  O  O232  1  0.511970  0.409500  0.926000  1.0  -0.7748
