# generated using pymatgen
data_Zn8H80C108N20O17
_symmetry_space_group_name_H-M   'P 1'
_cell_length_a   32.14460000
_cell_length_b   32.14460000
_cell_length_c   10.98080000
_cell_angle_alpha   90.00000000
_cell_angle_beta   90.00000000
_cell_angle_gamma   90.00000000
_symmetry_Int_Tables_number   1
_chemical_formula_structural   Zn8H80C108N20O17
_chemical_formula_sum   'Zn16 H160 C216 N40 O34'
_cell_volume   11346.18951482
_cell_formula_units_Z   2
loop_
 _symmetry_equiv_pos_site_id
 _symmetry_equiv_pos_as_xyz
  1  'x, y, z'
loop_
 _atom_site_type_symbol
 _atom_site_label
 _atom_site_symmetry_multiplicity
 _atom_site_fract_x
 _atom_site_fract_y
 _atom_site_fract_z
 _atom_site_occupancy
 _atom_site_charge
  Zn  Zn1  1  0.283840  0.716090  0.607550  1.0  0.8617
  Zn  Zn2  1  0.216160  0.783910  0.607550  1.0  0.8621
  Zn  Zn3  1  0.216160  0.716090  0.392450  1.0  0.8623
  Zn  Zn4  1  0.283840  0.783910  0.392450  1.0  0.8612
  Zn  Zn5  1  0.716160  0.283910  0.392450  1.0  0.8619
  Zn  Zn6  1  0.783840  0.216090  0.392450  1.0  0.8617
  Zn  Zn7  1  0.783840  0.283910  0.607550  1.0  0.8614
  Zn  Zn8  1  0.716160  0.216090  0.607550  1.0  0.8622
  Zn  Zn9  1  0.250000  0.899310  0.000000  1.0  0.8844
  Zn  Zn10  1  0.250000  0.600690  0.000000  1.0  0.8799
  Zn  Zn11  1  0.750000  0.100690  0.000000  1.0  0.8799
  Zn  Zn12  1  0.750000  0.399310  0.000000  1.0  0.8844
  Zn  Zn13  1  0.399300  0.750000  0.000000  1.0  0.9124
  Zn  Zn14  1  0.100700  0.750000  0.000000  1.0  0.9121
  Zn  Zn15  1  0.600700  0.250000  0.000000  1.0  0.9121
  Zn  Zn16  1  0.899300  0.250000  0.000000  1.0  0.9124
  H  H17  1  0.327500  0.864700  0.023200  1.0  0.3429
  H  H18  1  0.365000  0.841700  0.065100  1.0  0.3616
  H  H19  1  0.222500  0.864600  0.763900  1.0  0.1446
  H  H20  1  0.359800  0.726000  0.771600  1.0  0.1082
  H  H21  1  0.588800  0.124100  0.608900  1.0  0.1087
  H  H22  1  0.549200  0.075500  0.504100  1.0  0.1032
  H  H23  1  0.642600  0.059500  0.265400  1.0  0.1109
  H  H24  1  0.682200  0.108100  0.370200  1.0  0.1027
  H  H25  1  0.443000  0.851300  0.241600  1.0  0.1111
  H  H26  1  0.478900  0.908300  0.317000  1.0  0.1042
  H  H27  1  0.548300  0.911500  0.012800  1.0  0.1214
  H  H28  1  0.512400  0.854500  0.937400  1.0  0.1105
  H  H29  1  0.562600  0.000000  0.484400  1.0  0.1169
  H  H30  1  0.527800  0.992200  0.084400  1.0  0.1291
  H  H31  1  0.603400  0.064200  0.092500  1.0  0.1194
  H  H32  1  0.561800  0.056600  0.021400  1.0  0.1329
  H  H33  1  0.563800  0.090800  0.122900  1.0  0.1318
  H  H34  1  0.536300  0.931800  0.472600  1.0  0.1017
  H  H35  1  0.581200  0.920900  0.427200  1.0  0.111
  H  H36  1  0.542400  0.902300  0.360300  1.0  0.0652
  H  H37  1  0.172500  0.635300  0.023200  1.0  0.3448
  H  H38  1  0.135000  0.658300  0.065100  1.0  0.3602
  H  H39  1  0.277500  0.635400  0.763900  1.0  0.1441
  H  H40  1  0.140200  0.774000  0.771600  1.0  0.1081
  H  H41  1  0.911200  0.375900  0.608900  1.0  0.1096
  H  H42  1  0.950800  0.424500  0.504100  1.0  0.1039
  H  H43  1  0.857400  0.440500  0.265400  1.0  0.1101
  H  H44  1  0.817800  0.391900  0.370200  1.0  0.1034
  H  H45  1  0.057000  0.648700  0.241600  1.0  0.1112
  H  H46  1  0.021100  0.591700  0.317000  1.0  0.1042
  H  H47  1  0.951700  0.588500  0.012800  1.0  0.1211
  H  H48  1  0.987600  0.645500  0.937400  1.0  0.1097
  H  H49  1  0.937400  0.500000  0.484400  1.0  0.1175
  H  H50  1  0.972200  0.507800  0.084400  1.0  0.129
  H  H51  1  0.896600  0.435800  0.092500  1.0  0.1202
  H  H52  1  0.938200  0.443400  0.021400  1.0  0.132
  H  H53  1  0.936200  0.409200  0.122900  1.0  0.1304
  H  H54  1  0.963700  0.568200  0.472600  1.0  0.1005
  H  H55  1  0.918800  0.579100  0.427200  1.0  0.111
  H  H56  1  0.957600  0.597700  0.360300  1.0  0.0663
  H  H57  1  0.172500  0.864700  0.976800  1.0  0.3438
  H  H58  1  0.135000  0.841700  0.934900  1.0  0.36
  H  H59  1  0.277500  0.864600  0.236100  1.0  0.1438
  H  H60  1  0.140200  0.726000  0.228400  1.0  0.1077
  H  H61  1  0.911200  0.124100  0.391100  1.0  0.1094
  H  H62  1  0.950800  0.075500  0.495900  1.0  0.1037
  H  H63  1  0.857400  0.059500  0.734600  1.0  0.11
  H  H64  1  0.817800  0.108100  0.629800  1.0  0.1034
  H  H65  1  0.057000  0.851300  0.758400  1.0  0.1109
  H  H66  1  0.021100  0.908300  0.683000  1.0  0.1042
  H  H67  1  0.951700  0.911500  0.987200  1.0  0.1212
  H  H68  1  0.987600  0.854500  0.062600  1.0  0.1106
  H  H69  1  0.937400  0.000000  0.515600  1.0  0.118
  H  H70  1  0.972200  0.992200  0.915600  1.0  0.1294
  H  H71  1  0.896600  0.064200  0.907500  1.0  0.1201
  H  H72  1  0.938200  0.056600  0.978600  1.0  0.1331
  H  H73  1  0.936200  0.090800  0.877100  1.0  0.1327
  H  H74  1  0.963700  0.931800  0.527400  1.0  0.0986
  H  H75  1  0.918800  0.920900  0.572800  1.0  0.1106
  H  H76  1  0.957600  0.902300  0.639700  1.0  0.0668
  H  H77  1  0.327500  0.635300  0.976800  1.0  0.3428
  H  H78  1  0.365000  0.658300  0.934900  1.0  0.3614
  H  H79  1  0.222500  0.635400  0.236100  1.0  0.1444
  H  H80  1  0.359800  0.774000  0.228400  1.0  0.1078
  H  H81  1  0.588800  0.375900  0.391100  1.0  0.1093
  H  H82  1  0.549200  0.424500  0.495900  1.0  0.1031
  H  H83  1  0.642600  0.440500  0.734600  1.0  0.1097
  H  H84  1  0.682200  0.391900  0.629800  1.0  0.1033
  H  H85  1  0.443000  0.648700  0.758400  1.0  0.111
  H  H86  1  0.478900  0.591700  0.683000  1.0  0.1042
  H  H87  1  0.548300  0.588500  0.987200  1.0  0.1211
  H  H88  1  0.512400  0.645500  0.062600  1.0  0.1097
  H  H89  1  0.562600  0.500000  0.515600  1.0  0.1179
  H  H90  1  0.527800  0.507800  0.915600  1.0  0.1294
  H  H91  1  0.603400  0.435800  0.907500  1.0  0.1181
  H  H92  1  0.561800  0.443400  0.978600  1.0  0.1324
  H  H93  1  0.563800  0.409200  0.877100  1.0  0.1305
  H  H94  1  0.536300  0.568200  0.527400  1.0  0.1021
  H  H95  1  0.581200  0.579100  0.572800  1.0  0.1118
  H  H96  1  0.542400  0.597700  0.639700  1.0  0.0643
  H  H97  1  0.672500  0.135300  0.976800  1.0  0.3446
  H  H98  1  0.635000  0.158300  0.934900  1.0  0.3592
  H  H99  1  0.777500  0.135400  0.236100  1.0  0.1443
  H  H100  1  0.640200  0.274000  0.228400  1.0  0.108
  H  H101  1  0.411200  0.875900  0.391100  1.0  0.1094
  H  H102  1  0.450800  0.924500  0.495900  1.0  0.1038
  H  H103  1  0.357400  0.940500  0.734600  1.0  0.1098
  H  H104  1  0.317800  0.891900  0.629800  1.0  0.1036
  H  H105  1  0.557000  0.148700  0.758400  1.0  0.1123
  H  H106  1  0.521100  0.091700  0.683000  1.0  0.1042
  H  H107  1  0.451700  0.088500  0.987200  1.0  0.1213
  H  H108  1  0.487600  0.145500  0.062600  1.0  0.1102
  H  H109  1  0.437400  0.000000  0.515600  1.0  0.1181
  H  H110  1  0.472200  0.007800  0.915600  1.0  0.1293
  H  H111  1  0.396600  0.935800  0.907500  1.0  0.1199
  H  H112  1  0.438200  0.943400  0.978600  1.0  0.1329
  H  H113  1  0.436200  0.909200  0.877100  1.0  0.1305
  H  H114  1  0.463700  0.068200  0.527400  1.0  0.0986
  H  H115  1  0.418800  0.079100  0.572800  1.0  0.1089
  H  H116  1  0.457600  0.097700  0.639700  1.0  0.0669
  H  H117  1  0.827500  0.364700  0.976800  1.0  0.3429
  H  H118  1  0.865000  0.341700  0.934900  1.0  0.3613
  H  H119  1  0.722500  0.364600  0.236100  1.0  0.1443
  H  H120  1  0.859800  0.226000  0.228400  1.0  0.1077
  H  H121  1  0.088800  0.624100  0.391100  1.0  0.1094
  H  H122  1  0.049200  0.575500  0.495900  1.0  0.1032
  H  H123  1  0.142600  0.559500  0.734600  1.0  0.1102
  H  H124  1  0.182200  0.608100  0.629800  1.0  0.103
  H  H125  1  0.943000  0.351300  0.758400  1.0  0.1123
  H  H126  1  0.978900  0.408300  0.683000  1.0  0.104
  H  H127  1  0.048300  0.411500  0.987200  1.0  0.1209
  H  H128  1  0.012400  0.354500  0.062600  1.0  0.1097
  H  H129  1  0.062600  0.500000  0.515600  1.0  0.1178
  H  H130  1  0.027800  0.492200  0.915600  1.0  0.1295
  H  H131  1  0.103400  0.564200  0.907500  1.0  0.1182
  H  H132  1  0.061800  0.556600  0.978600  1.0  0.1323
  H  H133  1  0.063800  0.590800  0.877100  1.0  0.1324
  H  H134  1  0.036300  0.431800  0.527400  1.0  0.1017
  H  H135  1  0.081200  0.420900  0.572800  1.0  0.1114
  H  H136  1  0.042400  0.402300  0.639700  1.0  0.065
  H  H137  1  0.827500  0.135300  0.023200  1.0  0.3428
  H  H138  1  0.865000  0.158300  0.065100  1.0  0.3624
  H  H139  1  0.722500  0.135400  0.763900  1.0  0.1443
  H  H140  1  0.859800  0.274000  0.771600  1.0  0.1081
  H  H141  1  0.088800  0.875900  0.608900  1.0  0.109
  H  H142  1  0.049200  0.924500  0.504100  1.0  0.1031
  H  H143  1  0.142600  0.940500  0.265400  1.0  0.1106
  H  H144  1  0.182200  0.891900  0.370200  1.0  0.1029
  H  H145  1  0.943000  0.148700  0.241600  1.0  0.1124
  H  H146  1  0.978900  0.091700  0.317000  1.0  0.1041
  H  H147  1  0.048300  0.088500  0.012800  1.0  0.1216
  H  H148  1  0.012400  0.145500  0.937400  1.0  0.1102
  H  H149  1  0.062600  0.000000  0.484400  1.0  0.1167
  H  H150  1  0.027800  0.007800  0.084400  1.0  0.1291
  H  H151  1  0.103400  0.935800  0.092500  1.0  0.1195
  H  H152  1  0.061800  0.943400  0.021400  1.0  0.1326
  H  H153  1  0.063800  0.909200  0.122900  1.0  0.1303
  H  H154  1  0.036300  0.068200  0.472600  1.0  0.1013
  H  H155  1  0.081200  0.079100  0.427200  1.0  0.1113
  H  H156  1  0.042400  0.097700  0.360300  1.0  0.0645
  H  H157  1  0.672500  0.364700  0.023200  1.0  0.3437
  H  H158  1  0.635000  0.341700  0.065100  1.0  0.3602
  H  H159  1  0.777500  0.364600  0.763900  1.0  0.1441
  H  H160  1  0.640200  0.226000  0.771600  1.0  0.1078
  H  H161  1  0.411200  0.624100  0.608900  1.0  0.1091
  H  H162  1  0.450800  0.575500  0.504100  1.0  0.1038
  H  H163  1  0.357400  0.559500  0.265400  1.0  0.1104
  H  H164  1  0.317800  0.608100  0.370200  1.0  0.1033
  H  H165  1  0.557000  0.351300  0.241600  1.0  0.113
  H  H166  1  0.521100  0.408300  0.317000  1.0  0.1043
  H  H167  1  0.451700  0.411500  0.012800  1.0  0.1212
  H  H168  1  0.487600  0.354500  0.937400  1.0  0.1101
  H  H169  1  0.437400  0.500000  0.484400  1.0  0.1176
  H  H170  1  0.472200  0.492200  0.084400  1.0  0.129
  H  H171  1  0.396600  0.564200  0.092500  1.0  0.1201
  H  H172  1  0.438200  0.556600  0.021400  1.0  0.1326
  H  H173  1  0.436200  0.590800  0.122900  1.0  0.1322
  H  H174  1  0.463700  0.431800  0.472600  1.0  0.1005
  H  H175  1  0.418800  0.420900  0.427200  1.0  0.1119
  H  H176  1  0.457600  0.402300  0.360300  1.0  0.0665
  C  C177  1  0.245200  0.847900  0.782600  1.0  0.0934
  C  C178  1  0.658800  0.155600  0.567500  1.0  0.6715
  C  C179  1  0.335290  0.809430  0.922100  1.0  0.1772
  C  C180  1  0.299620  0.820030  0.857600  1.0  0.1601
  C  C181  1  0.286480  0.795410  0.760900  1.0  0.292
  C  C182  1  0.344680  0.749570  0.793200  1.0  0.2644
  C  C183  1  0.599600  0.111100  0.540100  1.0  -0.0808
  C  C184  1  0.575900  0.082000  0.477300  1.0  -0.1551
  C  C185  1  0.592000  0.062700  0.374400  1.0  0.0053
  C  C186  1  0.631800  0.072400  0.334300  1.0  -0.1193
  C  C187  1  0.655500  0.101500  0.397000  1.0  -0.0896
  C  C188  1  0.639400  0.120900  0.500000  1.0  -0.096
  C  C189  1  0.450000  0.814200  0.029000  1.0  0.6882
  C  C190  1  0.474100  0.847200  0.082000  1.0  -0.1158
  C  C191  1  0.464100  0.863300  0.195700  1.0  -0.1151
  C  C192  1  0.485600  0.897500  0.241000  1.0  -0.1452
  C  C193  1  0.517200  0.915500  0.172400  1.0  0.0882
  C  C194  1  0.527200  0.899400  0.058700  1.0  -0.1591
  C  C195  1  0.505700  0.865300  0.013500  1.0  -0.1074
  C  C196  1  0.568400  0.029200  0.314200  1.0  -0.0143
  C  C197  1  0.541300  0.951000  0.214000  1.0  -0.0817
  C  C198  1  0.549600  0.961800  0.334000  1.0  0.1162
  C  C199  1  0.562500  0.028800  0.187000  1.0  0.0068
  C  C200  1  0.560700  0.997600  0.400000  1.0  -0.1012
  C  C201  1  0.542800  0.990900  0.157000  1.0  -0.1185
  C  C202  1  0.573600  0.063800  0.099000  1.0  -0.394
  C  C203  1  0.553100  0.926200  0.402000  1.0  -0.3829
  C  C204  1  0.254800  0.652100  0.782600  1.0  0.0941
  C  C205  1  0.841200  0.344400  0.567500  1.0  0.6709
  C  C206  1  0.164710  0.690570  0.922100  1.0  0.1774
  C  C207  1  0.200380  0.679970  0.857600  1.0  0.1584
  C  C208  1  0.213520  0.704590  0.760900  1.0  0.293
  C  C209  1  0.155320  0.750430  0.793200  1.0  0.2632
  C  C210  1  0.900400  0.388900  0.540100  1.0  -0.0799
  C  C211  1  0.924100  0.418000  0.477300  1.0  -0.1556
  C  C212  1  0.908000  0.437300  0.374400  1.0  0.0048
  C  C213  1  0.868200  0.427600  0.334300  1.0  -0.1201
  C  C214  1  0.844500  0.398500  0.397000  1.0  -0.091
  C  C215  1  0.860600  0.379100  0.500000  1.0  -0.0964
  C  C216  1  0.050000  0.685800  0.029000  1.0  0.689
  C  C217  1  0.025900  0.652800  0.082000  1.0  -0.1149
  C  C218  1  0.035900  0.636700  0.195700  1.0  -0.1161
  C  C219  1  0.014400  0.602500  0.241000  1.0  -0.1425
  C  C220  1  0.982800  0.584500  0.172400  1.0  0.0882
  C  C221  1  0.972800  0.600600  0.058700  1.0  -0.1601
  C  C222  1  0.994300  0.634700  0.013500  1.0  -0.1073
  C  C223  1  0.931600  0.470800  0.314200  1.0  -0.0137
  C  C224  1  0.958700  0.549000  0.214000  1.0  -0.0848
  C  C225  1  0.950400  0.538200  0.334000  1.0  0.1145
  C  C226  1  0.937500  0.471200  0.187000  1.0  0.0071
  C  C227  1  0.939300  0.502400  0.400000  1.0  -0.1022
  C  C228  1  0.957200  0.509100  0.157000  1.0  -0.1184
  C  C229  1  0.926400  0.436200  0.099000  1.0  -0.3935
  C  C230  1  0.946900  0.573800  0.402000  1.0  -0.3835
  C  C231  1  0.254800  0.847900  0.217400  1.0  0.0956
  C  C232  1  0.841200  0.155600  0.432500  1.0  0.6704
  C  C233  1  0.164710  0.809430  0.077900  1.0  0.1774
  C  C234  1  0.200380  0.820030  0.142400  1.0  0.1596
  C  C235  1  0.213520  0.795410  0.239100  1.0  0.2924
  C  C236  1  0.155320  0.749570  0.206800  1.0  0.2626
  C  C237  1  0.900400  0.111100  0.459900  1.0  -0.0794
  C  C238  1  0.924100  0.082000  0.522700  1.0  -0.1561
  C  C239  1  0.908000  0.062700  0.625600  1.0  0.0048
  C  C240  1  0.868200  0.072400  0.665700  1.0  -0.1188
  C  C241  1  0.844500  0.101500  0.603000  1.0  -0.0911
  C  C242  1  0.860600  0.120900  0.500000  1.0  -0.0959
  C  C243  1  0.050000  0.814200  0.971000  1.0  0.69
  C  C244  1  0.025900  0.847200  0.918000  1.0  -0.1162
  C  C245  1  0.035900  0.863300  0.804300  1.0  -0.1141
  C  C246  1  0.014400  0.897500  0.759000  1.0  -0.144
  C  C247  1  0.982800  0.915500  0.827600  1.0  0.0879
  C  C248  1  0.972800  0.899400  0.941300  1.0  -0.1615
  C  C249  1  0.994300  0.865300  0.986500  1.0  -0.1044
  C  C250  1  0.931600  0.029200  0.685800  1.0  -0.0136
  C  C251  1  0.958700  0.951000  0.786000  1.0  -0.084
  C  C252  1  0.950400  0.961800  0.666000  1.0  0.1166
  C  C253  1  0.937500  0.028800  0.813000  1.0  0.0073
  C  C254  1  0.939300  0.997600  0.600000  1.0  -0.1
  C  C255  1  0.957200  0.990900  0.843000  1.0  -0.1187
  C  C256  1  0.926400  0.063800  0.901000  1.0  -0.3936
  C  C257  1  0.946900  0.926200  0.598000  1.0  -0.3811
  C  C258  1  0.245200  0.652100  0.217400  1.0  0.0933
  C  C259  1  0.658800  0.344400  0.432500  1.0  0.6705
  C  C260  1  0.335290  0.690570  0.077900  1.0  0.1777
  C  C261  1  0.299620  0.679970  0.142400  1.0  0.1588
  C  C262  1  0.286480  0.704590  0.239100  1.0  0.2919
  C  C263  1  0.344680  0.750430  0.206800  1.0  0.2641
  C  C264  1  0.599600  0.388900  0.459900  1.0  -0.0801
  C  C265  1  0.575900  0.418000  0.522700  1.0  -0.1555
  C  C266  1  0.592000  0.437300  0.625600  1.0  0.0056
  C  C267  1  0.631800  0.427600  0.665700  1.0  -0.1184
  C  C268  1  0.655500  0.398500  0.603000  1.0  -0.0896
  C  C269  1  0.639400  0.379100  0.500000  1.0  -0.096
  C  C270  1  0.450000  0.685800  0.971000  1.0  0.6871
  C  C271  1  0.474100  0.652800  0.918000  1.0  -0.1152
  C  C272  1  0.464100  0.636700  0.804300  1.0  -0.1141
  C  C273  1  0.485600  0.602500  0.759000  1.0  -0.1473
  C  C274  1  0.517200  0.584500  0.827600  1.0  0.0881
  C  C275  1  0.527200  0.600600  0.941300  1.0  -0.1597
  C  C276  1  0.505700  0.634700  0.986500  1.0  -0.1054
  C  C277  1  0.568400  0.470800  0.685800  1.0  -0.0143
  C  C278  1  0.541300  0.549000  0.786000  1.0  -0.0819
  C  C279  1  0.549600  0.538200  0.666000  1.0  0.1137
  C  C280  1  0.562500  0.471200  0.813000  1.0  0.0065
  C  C281  1  0.560700  0.502400  0.600000  1.0  -0.101
  C  C282  1  0.542800  0.509100  0.843000  1.0  -0.1193
  C  C283  1  0.573600  0.436200  0.901000  1.0  -0.3942
  C  C284  1  0.553100  0.573800  0.598000  1.0  -0.3825
  C  C285  1  0.754800  0.152100  0.217400  1.0  0.0943
  C  C286  1  0.341200  0.844400  0.432500  1.0  0.6702
  C  C287  1  0.664710  0.190570  0.077900  1.0  0.1775
  C  C288  1  0.700380  0.179970  0.142400  1.0  0.1584
  C  C289  1  0.713520  0.204590  0.239100  1.0  0.2927
  C  C290  1  0.655320  0.250430  0.206800  1.0  0.2623
  C  C291  1  0.400400  0.888900  0.459900  1.0  -0.0798
  C  C292  1  0.424100  0.918000  0.522700  1.0  -0.1561
  C  C293  1  0.408000  0.937300  0.625600  1.0  0.0049
  C  C294  1  0.368200  0.927600  0.665700  1.0  -0.1187
  C  C295  1  0.344500  0.898500  0.603000  1.0  -0.0913
  C  C296  1  0.360600  0.879100  0.500000  1.0  -0.0964
  C  C297  1  0.550000  0.185800  0.971000  1.0  0.6884
  C  C298  1  0.525900  0.152800  0.918000  1.0  -0.1149
  C  C299  1  0.535900  0.136700  0.804300  1.0  -0.1135
  C  C300  1  0.514400  0.102500  0.759000  1.0  -0.1444
  C  C301  1  0.482800  0.084500  0.827600  1.0  0.0882
  C  C302  1  0.472800  0.100600  0.941300  1.0  -0.1607
  C  C303  1  0.494300  0.134700  0.986500  1.0  -0.1056
  C  C304  1  0.431600  0.970800  0.685800  1.0  -0.0136
  C  C305  1  0.458700  0.049000  0.786000  1.0  -0.0847
  C  C306  1  0.450400  0.038200  0.666000  1.0  0.1135
  C  C307  1  0.437500  0.971200  0.813000  1.0  0.0069
  C  C308  1  0.439300  0.002400  0.600000  1.0  -0.1006
  C  C309  1  0.457200  0.009100  0.843000  1.0  -0.1188
  C  C310  1  0.426400  0.936200  0.901000  1.0  -0.3943
  C  C311  1  0.446900  0.073800  0.598000  1.0  -0.3811
  C  C312  1  0.745200  0.347900  0.217400  1.0  0.0932
  C  C313  1  0.158800  0.655600  0.432500  1.0  0.6708
  C  C314  1  0.835290  0.309430  0.077900  1.0  0.1773
  C  C315  1  0.799620  0.320030  0.142400  1.0  0.16
  C  C316  1  0.786480  0.295410  0.239100  1.0  0.2923
  C  C317  1  0.844680  0.249570  0.206800  1.0  0.2639
  C  C318  1  0.099600  0.611100  0.459900  1.0  -0.0797
  C  C319  1  0.075900  0.582000  0.522700  1.0  -0.1554
  C  C320  1  0.092000  0.562700  0.625600  1.0  0.0055
  C  C321  1  0.131800  0.572400  0.665700  1.0  -0.1181
  C  C322  1  0.155500  0.601500  0.603000  1.0  -0.0896
  C  C323  1  0.139400  0.620900  0.500000  1.0  -0.0956
  C  C324  1  0.950000  0.314200  0.971000  1.0  0.689
  C  C325  1  0.974100  0.347200  0.918000  1.0  -0.1158
  C  C326  1  0.964100  0.363300  0.804300  1.0  -0.1137
  C  C327  1  0.985600  0.397500  0.759000  1.0  -0.1469
  C  C328  1  0.017200  0.415500  0.827600  1.0  0.0881
  C  C329  1  0.027200  0.399400  0.941300  1.0  -0.1598
  C  C330  1  0.005700  0.365300  0.986500  1.0  -0.1053
  C  C331  1  0.068400  0.529200  0.685800  1.0  -0.0143
  C  C332  1  0.041300  0.451000  0.786000  1.0  -0.0812
  C  C333  1  0.049600  0.461800  0.666000  1.0  0.1159
  C  C334  1  0.062500  0.528800  0.813000  1.0  0.0068
  C  C335  1  0.060700  0.497600  0.600000  1.0  -0.1008
  C  C336  1  0.042800  0.490900  0.843000  1.0  -0.1194
  C  C337  1  0.073600  0.563800  0.901000  1.0  -0.3935
  C  C338  1  0.053100  0.426200  0.598000  1.0  -0.382
  C  C339  1  0.745200  0.152100  0.782600  1.0  0.093
  C  C340  1  0.158800  0.844400  0.567500  1.0  0.6711
  C  C341  1  0.835290  0.190570  0.922100  1.0  0.1776
  C  C342  1  0.799620  0.179970  0.857600  1.0  0.1589
  C  C343  1  0.786480  0.204590  0.760900  1.0  0.2919
  C  C344  1  0.844680  0.250430  0.793200  1.0  0.2642
  C  C345  1  0.099600  0.888900  0.540100  1.0  -0.0811
  C  C346  1  0.075900  0.918000  0.477300  1.0  -0.155
  C  C347  1  0.092000  0.937300  0.374400  1.0  0.0054
  C  C348  1  0.131800  0.927600  0.334300  1.0  -0.1197
  C  C349  1  0.155500  0.898500  0.397000  1.0  -0.0896
  C  C350  1  0.139400  0.879100  0.500000  1.0  -0.0963
  C  C351  1  0.950000  0.185800  0.029000  1.0  0.6877
  C  C352  1  0.974100  0.152800  0.082000  1.0  -0.1151
  C  C353  1  0.964100  0.136700  0.195700  1.0  -0.1169
  C  C354  1  0.985600  0.102500  0.241000  1.0  -0.1452
  C  C355  1  0.017200  0.084500  0.172400  1.0  0.0881
  C  C356  1  0.027200  0.100600  0.058700  1.0  -0.1595
  C  C357  1  0.005700  0.134700  0.013500  1.0  -0.1071
  C  C358  1  0.068400  0.970800  0.314200  1.0  -0.0143
  C  C359  1  0.041300  0.049000  0.214000  1.0  -0.0822
  C  C360  1  0.049600  0.038200  0.334000  1.0  0.1141
  C  C361  1  0.062500  0.971200  0.187000  1.0  0.0066
  C  C362  1  0.060700  0.002400  0.400000  1.0  -0.1015
  C  C363  1  0.042800  0.009100  0.157000  1.0  -0.1184
  C  C364  1  0.073600  0.936200  0.099000  1.0  -0.3941
  C  C365  1  0.053100  0.073800  0.402000  1.0  -0.3845
  C  C366  1  0.754800  0.347900  0.782600  1.0  0.0958
  C  C367  1  0.341200  0.655600  0.567500  1.0  0.6712
  C  C368  1  0.664710  0.309430  0.922100  1.0  0.1771
  C  C369  1  0.700380  0.320030  0.857600  1.0  0.1596
  C  C370  1  0.713520  0.295410  0.760900  1.0  0.2923
  C  C371  1  0.655320  0.249570  0.793200  1.0  0.2636
  C  C372  1  0.400400  0.611100  0.540100  1.0  -0.0798
  C  C373  1  0.424100  0.582000  0.477300  1.0  -0.1558
  C  C374  1  0.408000  0.562700  0.374400  1.0  0.0047
  C  C375  1  0.368200  0.572400  0.334300  1.0  -0.1203
  C  C376  1  0.344500  0.601500  0.397000  1.0  -0.0906
  C  C377  1  0.360600  0.620900  0.500000  1.0  -0.0959
  C  C378  1  0.550000  0.314200  0.029000  1.0  0.6888
  C  C379  1  0.525900  0.347200  0.082000  1.0  -0.1165
  C  C380  1  0.535900  0.363300  0.195700  1.0  -0.1153
  C  C381  1  0.514400  0.397500  0.241000  1.0  -0.1425
  C  C382  1  0.482800  0.415500  0.172400  1.0  0.0881
  C  C383  1  0.472800  0.399400  0.058700  1.0  -0.1604
  C  C384  1  0.494300  0.365300  0.013500  1.0  -0.1064
  C  C385  1  0.431600  0.529200  0.314200  1.0  -0.0137
  C  C386  1  0.458700  0.451000  0.214000  1.0  -0.0847
  C  C387  1  0.450400  0.461800  0.334000  1.0  0.1171
  C  C388  1  0.437500  0.528800  0.187000  1.0  0.0074
  C  C389  1  0.439300  0.497600  0.400000  1.0  -0.1019
  C  C390  1  0.457200  0.490900  0.157000  1.0  -0.1183
  C  C391  1  0.426400  0.563800  0.099000  1.0  -0.3935
  C  C392  1  0.446900  0.426200  0.402000  1.0  -0.3824
  N  N393  1  0.275380  0.855860  0.880100  1.0  -0.502
  N  N394  1  0.256320  0.810670  0.721400  1.0  -0.1869
  N  N395  1  0.343880  0.843700  0.017600  1.0  -0.6176
  N  N396  1  0.309010  0.760180  0.728700  1.0  -0.3683
  N  N397  1  0.357820  0.774200  0.889800  1.0  -0.3821
  N  N398  1  0.224620  0.644140  0.880100  1.0  -0.5028
  N  N399  1  0.243680  0.689330  0.721400  1.0  -0.1861
  N  N400  1  0.156120  0.656300  0.017600  1.0  -0.6173
  N  N401  1  0.190990  0.739820  0.728700  1.0  -0.3667
  N  N402  1  0.142180  0.725800  0.889800  1.0  -0.383
  N  N403  1  0.224620  0.855860  0.119900  1.0  -0.5046
  N  N404  1  0.243680  0.810670  0.278600  1.0  -0.1865
  N  N405  1  0.156120  0.843700  0.982400  1.0  -0.6168
  N  N406  1  0.190990  0.760180  0.271300  1.0  -0.3668
  N  N407  1  0.142180  0.774200  0.110200  1.0  -0.3826
  N  N408  1  0.275380  0.644140  0.119900  1.0  -0.5039
  N  N409  1  0.256320  0.689330  0.278600  1.0  -0.1863
  N  N410  1  0.343880  0.656300  0.982400  1.0  -0.6156
  N  N411  1  0.309010  0.739820  0.271300  1.0  -0.3664
  N  N412  1  0.357820  0.725800  0.110200  1.0  -0.3816
  N  N413  1  0.724620  0.144140  0.119900  1.0  -0.5034
  N  N414  1  0.743680  0.189330  0.278600  1.0  -0.1858
  N  N415  1  0.656120  0.156300  0.982400  1.0  -0.6161
  N  N416  1  0.690990  0.239820  0.271300  1.0  -0.3668
  N  N417  1  0.642180  0.225800  0.110200  1.0  -0.3829
  N  N418  1  0.775380  0.355860  0.119900  1.0  -0.5053
  N  N419  1  0.756320  0.310670  0.278600  1.0  -0.1867
  N  N420  1  0.843880  0.343700  0.982400  1.0  -0.6165
  N  N421  1  0.809010  0.260180  0.271300  1.0  -0.3664
  N  N422  1  0.857820  0.274200  0.110200  1.0  -0.3815
  N  N423  1  0.775380  0.144140  0.880100  1.0  -0.5033
  N  N424  1  0.756320  0.189330  0.721400  1.0  -0.1865
  N  N425  1  0.843880  0.156300  0.017600  1.0  -0.6169
  N  N426  1  0.809010  0.239820  0.728700  1.0  -0.3677
  N  N427  1  0.857820  0.225800  0.889800  1.0  -0.3823
  N  N428  1  0.724620  0.355860  0.880100  1.0  -0.5012
  N  N429  1  0.743680  0.310670  0.721400  1.0  -0.1868
  N  N430  1  0.656120  0.343700  0.017600  1.0  -0.6179
  N  N431  1  0.690990  0.260180  0.728700  1.0  -0.3675
  N  N432  1  0.642180  0.274200  0.889800  1.0  -0.3828
  O  O433  1  0.418500  0.799950  0.088100  1.0  -0.5919
  O  O434  1  0.656820  0.157200  0.679100  1.0  -0.5692
  O  O435  1  0.681200  0.181600  0.504500  1.0  -0.6134
  O  O436  1  0.458700  0.795900  0.928600  1.0  -0.6745
  O  O437  1  0.081500  0.700050  0.088100  1.0  -0.5923
  O  O438  1  0.843180  0.342800  0.679100  1.0  -0.5692
  O  O439  1  0.818800  0.318400  0.504500  1.0  -0.614
  O  O440  1  0.041300  0.704100  0.928600  1.0  -0.6771
  O  O441  1  0.081500  0.799950  0.911900  1.0  -0.5926
  O  O442  1  0.843180  0.157200  0.320900  1.0  -0.5688
  O  O443  1  0.818800  0.181600  0.495500  1.0  -0.6137
  O  O444  1  0.041300  0.795900  0.071400  1.0  -0.678
  O  O445  1  0.418500  0.700050  0.911900  1.0  -0.5908
  O  O446  1  0.656820  0.342800  0.320900  1.0  -0.5684
  O  O447  1  0.681200  0.318400  0.495500  1.0  -0.6132
  O  O448  1  0.458700  0.704100  0.071400  1.0  -0.6778
  O  O449  1  0.581500  0.200050  0.911900  1.0  -0.5921
  O  O450  1  0.343180  0.842800  0.320900  1.0  -0.5686
  O  O451  1  0.318800  0.818400  0.495500  1.0  -0.6138
  O  O452  1  0.541300  0.204100  0.071400  1.0  -0.6787
  O  O453  1  0.918500  0.299950  0.911900  1.0  -0.5917
  O  O454  1  0.156820  0.657200  0.320900  1.0  -0.5685
  O  O455  1  0.181200  0.681600  0.495500  1.0  -0.6133
  O  O456  1  0.958700  0.295900  0.071400  1.0  -0.6777
  O  O457  1  0.918500  0.200050  0.088100  1.0  -0.5913
  O  O458  1  0.156820  0.842800  0.679100  1.0  -0.5692
  O  O459  1  0.181200  0.818400  0.504500  1.0  -0.6134
  O  O460  1  0.958700  0.204100  0.928600  1.0  -0.6746
  O  O461  1  0.581500  0.299950  0.088100  1.0  -0.5927
  O  O462  1  0.343180  0.657200  0.679100  1.0  -0.5693
  O  O463  1  0.318800  0.681600  0.504500  1.0  -0.6139
  O  O464  1  0.541300  0.295900  0.928600  1.0  -0.676
  O  O465  1  0.250000  0.750000  0.500000  1.0  -1.098
  O  O466  1  0.750000  0.250000  0.500000  1.0  -1.098
