# generated using pymatgen
data_AgH9C13(NO)2
_symmetry_space_group_name_H-M   'P 1'
_cell_length_a   3.80830000
_cell_length_b   12.47600000
_cell_length_c   13.09000000
_cell_angle_alpha   76.75700000
_cell_angle_beta   84.64900000
_cell_angle_gamma   86.80900000
_symmetry_Int_Tables_number   1
_chemical_formula_structural   AgH9C13(NO)2
_chemical_formula_sum   'Ag2 H18 C26 N4 O4'
_cell_volume   602.38175801
_cell_formula_units_Z   2
loop_
 _symmetry_equiv_pos_site_id
 _symmetry_equiv_pos_as_xyz
  1  'x, y, z'
loop_
 _atom_site_type_symbol
 _atom_site_label
 _atom_site_symmetry_multiplicity
 _atom_site_fract_x
 _atom_site_fract_y
 _atom_site_fract_z
 _atom_site_occupancy
 _atom_site_charge
  Ag  Ag1  1  0.161610  0.918780  0.595410  1.0  0.4395
  Ag  Ag2  1  0.838390  0.081220  0.404590  1.0  0.4405
  H  H3  1  0.615500  0.994500  0.222300  1.0  0.1152
  H  H4  1  0.136300  0.794400  0.054100  1.0  0.1208
  H  H5  1  0.031500  0.647000  0.192900  1.0  0.0981
  H  H6  1  0.720800  0.670400  0.347900  1.0  0.1206
  H  H7  1  0.924800  0.848200  0.842000  1.0  0.08
  H  H8  1  0.711800  0.704500  0.968300  1.0  0.1227
  H  H9  1  0.576200  0.547700  0.740500  1.0  0.1276
  H  H10  1  0.797400  0.697300  0.620000  1.0  0.0899
  H  H11  1  0.401200  0.454200  0.922600  1.0  0.1048
  H  H12  1  0.384500  0.005500  0.777700  1.0  0.1151
  H  H13  1  0.863700  0.205600  0.945900  1.0  0.1208
  H  H14  1  0.968500  0.353000  0.807100  1.0  0.0983
  H  H15  1  0.279200  0.329600  0.652100  1.0  0.1196
  H  H16  1  0.075200  0.151800  0.158000  1.0  0.0792
  H  H17  1  0.288200  0.295500  0.031700  1.0  0.1232
  H  H18  1  0.423800  0.452300  0.259500  1.0  0.1288
  H  H19  1  0.202600  0.302700  0.380000  1.0  0.0897
  H  H20  1  0.598800  0.545800  0.077400  1.0  0.1045
  C  C21  1  0.637100  0.835100  0.301800  1.0  -0.1432
  C  C22  1  0.697900  0.924300  0.216700  1.0  -0.0816
  C  C23  1  0.880100  0.909400  0.123900  1.0  0.1597
  C  C24  1  0.009500  0.804600  0.115600  1.0  -0.0612
  C  C25  1  0.947900  0.717100  0.198700  1.0  -0.0667
  C  C26  1  0.761500  0.730900  0.292200  1.0  -0.0226
  C  C27  1  0.443200  0.851900  0.402500  1.0  0.6953
  C  C28  1  0.855300  0.786600  0.821400  1.0  0.1973
  C  C29  1  0.728700  0.700300  0.897900  1.0  -0.1883
  C  C30  1  0.625100  0.605900  0.870300  1.0  0.1331
  C  C31  1  0.648700  0.607500  0.763400  1.0  -0.1796
  C  C32  1  0.780900  0.698600  0.691000  1.0  0.1938
  C  C33  1  0.496600  0.508700  0.948400  1.0  -0.1299
  C  C34  1  0.362900  0.164900  0.698200  1.0  -0.143
  C  C35  1  0.302100  0.075700  0.783300  1.0  -0.0823
  C  C36  1  0.119900  0.090600  0.876100  1.0  0.1597
  C  C37  1  0.990500  0.195400  0.884400  1.0  -0.0611
  C  C38  1  0.052100  0.282900  0.801300  1.0  -0.0662
  C  C39  1  0.238500  0.269100  0.707800  1.0  -0.0249
  C  C40  1  0.556800  0.148100  0.597500  1.0  0.6972
  C  C41  1  0.144700  0.213400  0.178600  1.0  0.1971
  C  C42  1  0.271300  0.299700  0.102100  1.0  -0.1877
  C  C43  1  0.374900  0.394100  0.129700  1.0  0.1341
  C  C44  1  0.351300  0.392500  0.236600  1.0  -0.1784
  C  C45  1  0.219100  0.301400  0.309000  1.0  0.1921
  C  C46  1  0.503400  0.491300  0.051600  1.0  -0.1301
  N  N47  1  0.926700  0.007600  0.042500  1.0  -0.2013
  N  N48  1  0.885000  0.787500  0.717800  1.0  -0.3494
  N  N49  1  0.073300  0.992400  0.957500  1.0  -0.202
  N  N50  1  0.115000  0.212500  0.282200  1.0  -0.3499
  O  O51  1  0.397900  0.951200  0.413300  1.0  -0.7883
  O  O52  1  0.334800  0.771800  0.470700  1.0  -0.5857
  O  O53  1  0.602100  0.048800  0.586700  1.0  -0.7897
  O  O54  1  0.665200  0.228200  0.529300  1.0  -0.5853
