# generated using pymatgen
data_Zn3P4(HO3)4
_symmetry_space_group_name_H-M   'P 1'
_cell_length_a   13.70500000
_cell_length_b   10.73370000
_cell_length_c   15.87780000
_cell_angle_alpha   90.00000000
_cell_angle_beta   90.00000000
_cell_angle_gamma   90.00000000
_symmetry_Int_Tables_number   1
_chemical_formula_structural   Zn3P4(HO3)4
_chemical_formula_sum   'Zn12 P16 H16 O48'
_cell_volume   2335.70946119
_cell_formula_units_Z   4
loop_
 _symmetry_equiv_pos_site_id
 _symmetry_equiv_pos_as_xyz
  1  'x, y, z'
loop_
 _atom_site_type_symbol
 _atom_site_label
 _atom_site_symmetry_multiplicity
 _atom_site_fract_x
 _atom_site_fract_y
 _atom_site_fract_z
 _atom_site_occupancy
 _atom_site_charge
  Zn  Zn1  1  0.662760  0.658600  0.429760  1.0  1.1287
  Zn  Zn2  1  0.162760  0.158600  0.429760  1.0  1.1287
  Zn  Zn3  1  0.337240  0.341400  0.929760  1.0  1.1295
  Zn  Zn4  1  0.837240  0.841400  0.929760  1.0  1.1295
  Zn  Zn5  1  0.662760  0.341400  0.929760  1.0  1.1295
  Zn  Zn6  1  0.162760  0.841400  0.929760  1.0  1.1295
  Zn  Zn7  1  0.337240  0.658600  0.429760  1.0  1.1287
  Zn  Zn8  1  0.837240  0.158600  0.429760  1.0  1.1287
  Zn  Zn9  1  0.500000  0.381610  0.275720  1.0  1.1227
  Zn  Zn10  1  0.000000  0.881610  0.275720  1.0  1.1227
  Zn  Zn11  1  0.500000  0.618390  0.775720  1.0  1.1226
  Zn  Zn12  1  0.000000  0.118390  0.775720  1.0  1.1226
  P  P13  1  0.840210  0.862570  0.416480  1.0  1.5347
  P  P14  1  0.340210  0.362570  0.416480  1.0  1.5347
  P  P15  1  0.159790  0.137430  0.916480  1.0  1.528
  P  P16  1  0.659790  0.637430  0.916480  1.0  1.528
  P  P17  1  0.840210  0.137430  0.916480  1.0  1.5342
  P  P18  1  0.340210  0.637430  0.916480  1.0  1.5342
  P  P19  1  0.159790  0.862570  0.416480  1.0  1.5287
  P  P20  1  0.659790  0.362570  0.416480  1.0  1.5287
  P  P21  1  0.500000  0.644800  0.580890  1.0  1.5074
  P  P22  1  0.500000  0.683200  0.288370  1.0  1.5055
  P  P23  1  0.000000  0.144800  0.580890  1.0  1.5074
  P  P24  1  0.000000  0.183200  0.288370  1.0  1.5055
  P  P25  1  0.500000  0.355200  0.080890  1.0  1.5045
  P  P26  1  0.500000  0.316800  0.788370  1.0  1.5068
  P  P27  1  0.000000  0.855200  0.080890  1.0  1.5045
  P  P28  1  0.000000  0.816800  0.788370  1.0  1.5068
  H  H29  1  0.912300  0.860700  0.470200  1.0  -0.0645
  H  H30  1  0.412300  0.360700  0.470200  1.0  -0.0645
  H  H31  1  0.087700  0.139300  0.970200  1.0  -0.0661
  H  H32  1  0.587700  0.639300  0.970200  1.0  -0.0661
  H  H33  1  0.912300  0.139300  0.970200  1.0  -0.0651
  H  H34  1  0.412300  0.639300  0.970200  1.0  -0.0651
  H  H35  1  0.087700  0.860700  0.470200  1.0  -0.0658
  H  H36  1  0.587700  0.360700  0.470200  1.0  -0.0658
  H  H37  1  0.500000  0.527300  0.601100  1.0  -0.0673
  H  H38  1  0.500000  0.747600  0.219100  1.0  -0.0273
  H  H39  1  0.000000  0.027300  0.601100  1.0  -0.0673
  H  H40  1  0.000000  0.247600  0.219100  1.0  -0.0273
  H  H41  1  0.500000  0.472700  0.101100  1.0  -0.0668
  H  H42  1  0.500000  0.252400  0.719100  1.0  -0.0273
  H  H43  1  0.000000  0.972700  0.101100  1.0  -0.0668
  H  H44  1  0.000000  0.752400  0.719100  1.0  -0.0273
  O  O45  1  0.774700  0.763700  0.450100  1.0  -0.8331
  O  O46  1  0.883200  0.828300  0.333200  1.0  -0.7382
  O  O47  1  0.792600  0.987900  0.416400  1.0  -0.7418
  O  O48  1  0.591800  0.676900  0.535700  1.0  -0.8109
  O  O49  1  0.591000  0.718900  0.333400  1.0  -0.7246
  O  O50  1  0.274700  0.263700  0.450100  1.0  -0.8331
  O  O51  1  0.383200  0.328300  0.333200  1.0  -0.7382
  O  O52  1  0.292600  0.487900  0.416400  1.0  -0.7418
  O  O53  1  0.091800  0.176900  0.535700  1.0  -0.8105
  O  O54  1  0.091000  0.218900  0.333400  1.0  -0.7246
  O  O55  1  0.225300  0.236300  0.950100  1.0  -0.8329
  O  O56  1  0.116800  0.171700  0.833200  1.0  -0.7376
  O  O57  1  0.207400  0.012100  0.916400  1.0  -0.7397
  O  O58  1  0.408200  0.323100  0.035700  1.0  -0.8114
  O  O59  1  0.409000  0.281100  0.833400  1.0  -0.7254
  O  O60  1  0.725300  0.736300  0.950100  1.0  -0.8329
  O  O61  1  0.616800  0.671700  0.833200  1.0  -0.7376
  O  O62  1  0.707400  0.512100  0.916400  1.0  -0.7397
  O  O63  1  0.908200  0.823100  0.035700  1.0  -0.8112
  O  O64  1  0.909000  0.781100  0.833400  1.0  -0.7254
  O  O65  1  0.774700  0.236300  0.950100  1.0  -0.8335
  O  O66  1  0.883200  0.171700  0.833200  1.0  -0.7381
  O  O67  1  0.792600  0.012100  0.916400  1.0  -0.7413
  O  O68  1  0.591800  0.323100  0.035700  1.0  -0.8108
  O  O69  1  0.591000  0.281100  0.833400  1.0  -0.7256
  O  O70  1  0.274700  0.736300  0.950100  1.0  -0.8335
  O  O71  1  0.383200  0.671700  0.833200  1.0  -0.7381
  O  O72  1  0.292600  0.512100  0.916400  1.0  -0.7413
  O  O73  1  0.091800  0.823100  0.035700  1.0  -0.8108
  O  O74  1  0.091000  0.781100  0.833400  1.0  -0.7256
  O  O75  1  0.225300  0.763700  0.450100  1.0  -0.8332
  O  O76  1  0.116800  0.828300  0.333200  1.0  -0.7377
  O  O77  1  0.207400  0.987900  0.416400  1.0  -0.7404
  O  O78  1  0.408200  0.676900  0.535700  1.0  -0.8103
  O  O79  1  0.409000  0.718900  0.333400  1.0  -0.725
  O  O80  1  0.725300  0.263700  0.450100  1.0  -0.8332
  O  O81  1  0.616800  0.328300  0.333200  1.0  -0.7377
  O  O82  1  0.707400  0.487900  0.416400  1.0  -0.7404
  O  O83  1  0.908200  0.176900  0.535700  1.0  -0.8103
  O  O84  1  0.909000  0.218900  0.333400  1.0  -0.725
  O  O85  1  0.500000  0.708300  0.666800  1.0  -0.7296
  O  O86  1  0.500000  0.557200  0.251400  1.0  -0.8051
  O  O87  1  0.000000  0.208300  0.666800  1.0  -0.7296
  O  O88  1  0.000000  0.057200  0.251400  1.0  -0.8051
  O  O89  1  0.500000  0.291700  0.166800  1.0  -0.7308
  O  O90  1  0.500000  0.442800  0.751400  1.0  -0.805
  O  O91  1  0.000000  0.791700  0.166800  1.0  -0.7308
  O  O92  1  0.000000  0.942800  0.751400  1.0  -0.805
