# generated using pymatgen
data_Zn2H2C9N4O5
_symmetry_space_group_name_H-M   'P 1'
_cell_length_a   10.42100000
_cell_length_b   23.35260000
_cell_length_c   6.92140000
_cell_angle_alpha   90.00000000
_cell_angle_beta   90.00000000
_cell_angle_gamma   90.00000000
_symmetry_Int_Tables_number   1
_chemical_formula_structural   Zn2H2C9N4O5
_chemical_formula_sum   'Zn8 H8 C36 N16 O20'
_cell_volume   1684.37421705
_cell_formula_units_Z   4
loop_
 _symmetry_equiv_pos_site_id
 _symmetry_equiv_pos_as_xyz
  1  'x, y, z'
loop_
 _atom_site_type_symbol
 _atom_site_label
 _atom_site_symmetry_multiplicity
 _atom_site_fract_x
 _atom_site_fract_y
 _atom_site_fract_z
 _atom_site_occupancy
 _atom_site_charge
  Zn  Zn1  1  0.500000  0.365810  0.250000  1.0  1.0344
  Zn  Zn2  1  0.000000  0.865810  0.250000  1.0  1.0344
  Zn  Zn3  1  0.500000  0.634190  0.750000  1.0  1.0338
  Zn  Zn4  1  0.000000  0.134190  0.750000  1.0  1.0338
  Zn  Zn5  1  0.500000  0.500000  0.000000  1.0  1.0176
  Zn  Zn6  1  0.000000  0.000000  0.000000  1.0  1.0176
  Zn  Zn7  1  0.500000  0.500000  0.500000  1.0  1.0176
  Zn  Zn8  1  0.000000  0.000000  0.500000  1.0  1.0176
  H  H9  1  0.192300  0.236400  0.250000  1.0  0.0942
  H  H10  1  0.692300  0.736400  0.250000  1.0  0.0942
  H  H11  1  0.807700  0.763600  0.750000  1.0  0.0934
  H  H12  1  0.307700  0.263600  0.750000  1.0  0.0934
  H  H13  1  0.807700  0.236400  0.250000  1.0  0.0933
  H  H14  1  0.307700  0.736400  0.250000  1.0  0.0933
  H  H15  1  0.192300  0.763600  0.750000  1.0  0.0942
  H  H16  1  0.692300  0.263600  0.750000  1.0  0.0942
  C  C17  1  0.000000  0.162900  0.250000  1.0  0.326
  C  C18  1  0.000000  0.346000  0.250000  1.0  0.0181
  C  C19  1  0.000000  0.226900  0.250000  1.0  -0.0384
  C  C20  1  0.500000  0.662900  0.250000  1.0  0.326
  C  C21  1  0.500000  0.846000  0.250000  1.0  0.0181
  C  C22  1  0.500000  0.726900  0.250000  1.0  -0.0384
  C  C23  1  0.000000  0.837100  0.750000  1.0  0.325
  C  C24  1  0.000000  0.654000  0.750000  1.0  0.0193
  C  C25  1  0.000000  0.773100  0.750000  1.0  -0.0378
  C  C26  1  0.500000  0.337100  0.750000  1.0  0.325
  C  C27  1  0.500000  0.154000  0.750000  1.0  0.0193
  C  C28  1  0.500000  0.273100  0.750000  1.0  -0.0378
  C  C29  1  0.240800  0.348600  0.250000  1.0  0.6976
  C  C30  1  0.116000  0.316300  0.250000  1.0  -0.1399
  C  C31  1  0.115200  0.256500  0.250000  1.0  0.0198
  C  C32  1  0.740800  0.848600  0.250000  1.0  0.6976
  C  C33  1  0.616000  0.816300  0.250000  1.0  -0.1399
  C  C34  1  0.615200  0.756500  0.250000  1.0  0.0198
  C  C35  1  0.759200  0.651400  0.750000  1.0  0.6989
  C  C36  1  0.884000  0.683700  0.750000  1.0  -0.1413
  C  C37  1  0.884800  0.743500  0.750000  1.0  0.0193
  C  C38  1  0.259200  0.151400  0.750000  1.0  0.6989
  C  C39  1  0.384000  0.183700  0.750000  1.0  -0.1413
  C  C40  1  0.384800  0.243500  0.750000  1.0  0.0193
  C  C41  1  0.759200  0.348600  0.250000  1.0  0.6981
  C  C42  1  0.884000  0.316300  0.250000  1.0  -0.1397
  C  C43  1  0.884800  0.256500  0.250000  1.0  0.0186
  C  C44  1  0.259200  0.848600  0.250000  1.0  0.6981
  C  C45  1  0.384000  0.816300  0.250000  1.0  -0.1397
  C  C46  1  0.384800  0.756500  0.250000  1.0  0.0186
  C  C47  1  0.240800  0.651400  0.750000  1.0  0.6979
  C  C48  1  0.116000  0.683700  0.750000  1.0  -0.1403
  C  C49  1  0.115200  0.743500  0.750000  1.0  0.0205
  C  C50  1  0.740800  0.151400  0.750000  1.0  0.6979
  C  C51  1  0.616000  0.183700  0.750000  1.0  -0.1403
  C  C52  1  0.615200  0.243500  0.750000  1.0  0.0205
  N  N53  1  0.000000  0.077300  0.343000  1.0  -0.0642
  N  N54  1  0.000000  0.130920  0.409500  1.0  -0.2819
  N  N55  1  0.500000  0.577300  0.343000  1.0  -0.0642
  N  N56  1  0.500000  0.630920  0.409500  1.0  -0.2819
  N  N57  1  0.000000  0.922700  0.843000  1.0  -0.0638
  N  N58  1  0.000000  0.869080  0.909500  1.0  -0.282
  N  N59  1  0.500000  0.422700  0.843000  1.0  -0.0638
  N  N60  1  0.500000  0.369080  0.909500  1.0  -0.282
  N  N61  1  0.000000  0.077300  0.157000  1.0  -0.0682
  N  N62  1  0.000000  0.130920  0.090500  1.0  -0.2809
  N  N63  1  0.500000  0.577300  0.157000  1.0  -0.0682
  N  N64  1  0.500000  0.630920  0.090500  1.0  -0.2809
  N  N65  1  0.000000  0.922700  0.657000  1.0  -0.0672
  N  N66  1  0.000000  0.869080  0.590500  1.0  -0.2809
  N  N67  1  0.500000  0.422700  0.657000  1.0  -0.0672
  N  N68  1  0.500000  0.369080  0.590500  1.0  -0.2809
  O  O69  1  0.500000  0.451100  0.250000  1.0  -0.792
  O  O70  1  0.000000  0.951100  0.250000  1.0  -0.792
  O  O71  1  0.500000  0.548900  0.750000  1.0  -0.7921
  O  O72  1  0.000000  0.048900  0.750000  1.0  -0.7921
  O  O73  1  0.342200  0.319990  0.250000  1.0  -0.5837
  O  O74  1  0.235800  0.402300  0.250000  1.0  -0.5233
  O  O75  1  0.842200  0.819990  0.250000  1.0  -0.5837
  O  O76  1  0.735800  0.902300  0.250000  1.0  -0.5233
  O  O77  1  0.657800  0.680010  0.750000  1.0  -0.5836
  O  O78  1  0.764200  0.597700  0.750000  1.0  -0.5235
  O  O79  1  0.157800  0.180010  0.750000  1.0  -0.5836
  O  O80  1  0.264200  0.097700  0.750000  1.0  -0.5235
  O  O81  1  0.657800  0.319990  0.250000  1.0  -0.5833
  O  O82  1  0.764200  0.402300  0.250000  1.0  -0.5217
  O  O83  1  0.157800  0.819990  0.250000  1.0  -0.5833
  O  O84  1  0.264200  0.902300  0.250000  1.0  -0.5217
  O  O85  1  0.342200  0.680010  0.750000  1.0  -0.5844
  O  O86  1  0.235800  0.597700  0.750000  1.0  -0.5232
  O  O87  1  0.842200  0.180010  0.750000  1.0  -0.5844
  O  O88  1  0.735800  0.097700  0.750000  1.0  -0.5232
