# generated using pymatgen
data_NaMn2(CO3)4
_symmetry_space_group_name_H-M   'P 1'
_cell_length_a   14.56620000
_cell_length_b   14.56620000
_cell_length_c   14.56620000
_cell_angle_alpha   90.00000000
_cell_angle_beta   90.00000000
_cell_angle_gamma   90.00000000
_symmetry_Int_Tables_number   1
_chemical_formula_structural   NaMn2(CO3)4
_chemical_formula_sum   'Na6 Mn12 C24 O72'
_cell_volume   3090.57157626
_cell_formula_units_Z   6
loop_
 _symmetry_equiv_pos_site_id
 _symmetry_equiv_pos_as_xyz
  1  'x, y, z'
loop_
 _atom_site_type_symbol
 _atom_site_label
 _atom_site_symmetry_multiplicity
 _atom_site_fract_x
 _atom_site_fract_y
 _atom_site_fract_z
 _atom_site_occupancy
 _atom_site_charge
  Na  Na1  1  0.000000  0.500000  0.000000  1.0  1.0552
  Na  Na2  1  0.500000  0.000000  0.500000  1.0  1.0552
  Na  Na3  1  0.000000  0.000000  0.500000  1.0  1.0552
  Na  Na4  1  0.500000  0.500000  0.000000  1.0  1.0552
  Na  Na5  1  0.500000  0.000000  0.000000  1.0  1.0552
  Na  Na6  1  0.000000  0.500000  0.500000  1.0  1.0552
  Mn  Mn7  1  0.000000  0.500000  0.250000  1.0  1.118
  Mn  Mn8  1  0.000000  0.500000  0.750000  1.0  1.118
  Mn  Mn9  1  0.500000  0.000000  0.250000  1.0  1.118
  Mn  Mn10  1  0.250000  0.000000  0.500000  1.0  1.118
  Mn  Mn11  1  0.750000  0.000000  0.500000  1.0  1.118
  Mn  Mn12  1  0.250000  0.500000  0.000000  1.0  1.118
  Mn  Mn13  1  0.500000  0.250000  0.000000  1.0  1.118
  Mn  Mn14  1  0.500000  0.750000  0.000000  1.0  1.1184
  Mn  Mn15  1  0.500000  0.000000  0.750000  1.0  1.118
  Mn  Mn16  1  0.000000  0.250000  0.500000  1.0  1.1184
  Mn  Mn17  1  0.000000  0.750000  0.500000  1.0  1.118
  Mn  Mn18  1  0.750000  0.500000  0.000000  1.0  1.118
  C  C19  1  0.827000  0.500000  0.173000  1.0  0.8333
  C  C20  1  0.327000  0.000000  0.673000  1.0  0.8333
  C  C21  1  0.173000  0.500000  0.173000  1.0  0.8324
  C  C22  1  0.673000  0.000000  0.673000  1.0  0.8324
  C  C23  1  0.173000  0.500000  0.827000  1.0  0.8315
  C  C24  1  0.673000  0.000000  0.327000  1.0  0.8315
  C  C25  1  0.827000  0.500000  0.827000  1.0  0.8325
  C  C26  1  0.327000  0.000000  0.327000  1.0  0.8325
  C  C27  1  0.173000  0.827000  0.500000  1.0  0.832
  C  C28  1  0.673000  0.327000  0.000000  1.0  0.832
  C  C29  1  0.173000  0.173000  0.500000  1.0  0.831
  C  C30  1  0.673000  0.673000  0.000000  1.0  0.831
  C  C31  1  0.827000  0.173000  0.500000  1.0  0.8322
  C  C32  1  0.327000  0.673000  0.000000  1.0  0.8322
  C  C33  1  0.827000  0.827000  0.500000  1.0  0.8326
  C  C34  1  0.327000  0.327000  0.000000  1.0  0.8326
  C  C35  1  0.500000  0.173000  0.827000  1.0  0.8299
  C  C36  1  0.000000  0.673000  0.327000  1.0  0.8299
  C  C37  1  0.500000  0.173000  0.173000  1.0  0.831
  C  C38  1  0.000000  0.673000  0.673000  1.0  0.831
  C  C39  1  0.500000  0.827000  0.173000  1.0  0.8318
  C  C40  1  0.000000  0.327000  0.673000  1.0  0.8318
  C  C41  1  0.500000  0.827000  0.827000  1.0  0.8302
  C  C42  1  0.000000  0.327000  0.327000  1.0  0.8302
  O  O43  1  0.850600  0.500000  0.258200  1.0  -0.4991
  O  O44  1  0.350600  0.000000  0.758200  1.0  -0.4991
  O  O45  1  0.149400  0.500000  0.258200  1.0  -0.4969
  O  O46  1  0.649400  0.000000  0.758200  1.0  -0.4969
  O  O47  1  0.149400  0.500000  0.741800  1.0  -0.4961
  O  O48  1  0.649400  0.000000  0.241800  1.0  -0.4961
  O  O49  1  0.850600  0.500000  0.741800  1.0  -0.5002
  O  O50  1  0.350600  0.000000  0.241800  1.0  -0.5002
  O  O51  1  0.258200  0.850600  0.500000  1.0  -0.5021
  O  O52  1  0.758200  0.350600  0.000000  1.0  -0.5021
  O  O53  1  0.258200  0.149400  0.500000  1.0  -0.5012
  O  O54  1  0.758200  0.649400  0.000000  1.0  -0.5012
  O  O55  1  0.741800  0.149400  0.500000  1.0  -0.5029
  O  O56  1  0.241800  0.649400  0.000000  1.0  -0.5029
  O  O57  1  0.741800  0.850600  0.500000  1.0  -0.5029
  O  O58  1  0.241800  0.350600  0.000000  1.0  -0.5029
  O  O59  1  0.500000  0.258200  0.850600  1.0  -0.4992
  O  O60  1  0.000000  0.758200  0.350600  1.0  -0.4992
  O  O61  1  0.500000  0.258200  0.149400  1.0  -0.4983
  O  O62  1  0.000000  0.758200  0.649400  1.0  -0.4983
  O  O63  1  0.500000  0.741800  0.149400  1.0  -0.4987
  O  O64  1  0.000000  0.241800  0.649400  1.0  -0.4987
  O  O65  1  0.500000  0.741800  0.850600  1.0  -0.4987
  O  O66  1  0.000000  0.241800  0.350600  1.0  -0.4987
  O  O67  1  0.500000  0.850600  0.741800  1.0  -0.4989
  O  O68  1  0.000000  0.350600  0.241800  1.0  -0.4989
  O  O69  1  0.500000  0.149400  0.741800  1.0  -0.4974
  O  O70  1  0.000000  0.649400  0.241800  1.0  -0.4974
  O  O71  1  0.500000  0.149400  0.258200  1.0  -0.4978
  O  O72  1  0.000000  0.649400  0.758200  1.0  -0.4978
  O  O73  1  0.500000  0.850600  0.258200  1.0  -0.4984
  O  O74  1  0.000000  0.350600  0.758200  1.0  -0.4984
  O  O75  1  0.850600  0.258200  0.500000  1.0  -0.5027
  O  O76  1  0.350600  0.758200  0.000000  1.0  -0.5027
  O  O77  1  0.149400  0.258200  0.500000  1.0  -0.4985
  O  O78  1  0.649400  0.758200  0.000000  1.0  -0.4985
  O  O79  1  0.149400  0.741800  0.500000  1.0  -0.5007
  O  O80  1  0.649400  0.241800  0.000000  1.0  -0.5007
  O  O81  1  0.850600  0.741800  0.500000  1.0  -0.5015
  O  O82  1  0.350600  0.241800  0.000000  1.0  -0.5015
  O  O83  1  0.258200  0.500000  0.149400  1.0  -0.5011
  O  O84  1  0.758200  0.000000  0.649400  1.0  -0.5011
  O  O85  1  0.258200  0.500000  0.850600  1.0  -0.5012
  O  O86  1  0.758200  0.000000  0.350600  1.0  -0.5012
  O  O87  1  0.741800  0.500000  0.850600  1.0  -0.5016
  O  O88  1  0.241800  0.000000  0.350600  1.0  -0.5016
  O  O89  1  0.741800  0.500000  0.149400  1.0  -0.5013
  O  O90  1  0.241800  0.000000  0.649400  1.0  -0.5013
  O  O91  1  0.889200  0.500000  0.110800  1.0  -0.6527
  O  O92  1  0.389200  0.000000  0.610800  1.0  -0.6529
  O  O93  1  0.110800  0.500000  0.110800  1.0  -0.6519
  O  O94  1  0.610800  0.000000  0.610800  1.0  -0.6535
  O  O95  1  0.110800  0.500000  0.889200  1.0  -0.6554
  O  O96  1  0.610800  0.000000  0.389200  1.0  -0.6538
  O  O97  1  0.889200  0.500000  0.889200  1.0  -0.6552
  O  O98  1  0.389200  0.000000  0.389200  1.0  -0.6553
  O  O99  1  0.110800  0.889200  0.500000  1.0  -0.6557
  O  O100  1  0.610800  0.389200  0.000000  1.0  -0.655
  O  O101  1  0.110800  0.110800  0.500000  1.0  -0.6535
  O  O102  1  0.610800  0.610800  0.000000  1.0  -0.6551
  O  O103  1  0.889200  0.110800  0.500000  1.0  -0.6549
  O  O104  1  0.389200  0.610800  0.000000  1.0  -0.6547
  O  O105  1  0.889200  0.889200  0.500000  1.0  -0.6557
  O  O106  1  0.389200  0.389200  0.000000  1.0  -0.6558
  O  O107  1  0.500000  0.110800  0.889200  1.0  -0.6566
  O  O108  1  0.000000  0.610800  0.389200  1.0  -0.6549
  O  O109  1  0.500000  0.110800  0.110800  1.0  -0.6523
  O  O110  1  0.000000  0.610800  0.610800  1.0  -0.654
  O  O111  1  0.500000  0.889200  0.110800  1.0  -0.6551
  O  O112  1  0.000000  0.389200  0.610800  1.0  -0.6553
  O  O113  1  0.500000  0.889200  0.889200  1.0  -0.6573
  O  O114  1  0.000000  0.389200  0.389200  1.0  -0.6574
