# generated using pymatgen
data_KCaC2O7
_symmetry_space_group_name_H-M   'P 1'
_cell_length_a   14.81730000
_cell_length_b   14.81730000
_cell_length_c   14.81730000
_cell_angle_alpha   90.00000000
_cell_angle_beta   90.00000000
_cell_angle_gamma   90.00000000
_symmetry_Int_Tables_number   1
_chemical_formula_structural   KCaC2O7
_chemical_formula_sum   'K12 Ca12 C24 O84'
_cell_volume   3253.17346965
_cell_formula_units_Z   12
loop_
 _symmetry_equiv_pos_site_id
 _symmetry_equiv_pos_as_xyz
  1  'x, y, z'
loop_
 _atom_site_type_symbol
 _atom_site_label
 _atom_site_symmetry_multiplicity
 _atom_site_fract_x
 _atom_site_fract_y
 _atom_site_fract_z
 _atom_site_occupancy
 _atom_site_charge
  K  K1  1  0.000000  0.000000  0.437500  1.0  0.9171
  K  K2  1  0.500000  0.500000  0.937500  1.0  0.9171
  K  K3  1  0.000000  0.000000  0.562500  1.0  0.9172
  K  K4  1  0.500000  0.500000  0.062500  1.0  0.9151
  K  K5  1  0.437500  0.000000  0.000000  1.0  0.9158
  K  K6  1  0.937500  0.500000  0.500000  1.0  0.9158
  K  K7  1  0.562500  0.000000  0.000000  1.0  0.9567
  K  K8  1  0.062500  0.500000  0.500000  1.0  0.9567
  K  K9  1  0.000000  0.437500  0.000000  1.0  0.9196
  K  K10  1  0.500000  0.937500  0.500000  1.0  0.9196
  K  K11  1  0.000000  0.562500  0.000000  1.0  0.9181
  K  K12  1  0.500000  0.062500  0.500000  1.0  0.9159
  Ca  Ca13  1  0.250000  0.000000  0.500000  1.0  1.5296
  Ca  Ca14  1  0.750000  0.000000  0.500000  1.0  1.5296
  Ca  Ca15  1  0.250000  0.500000  0.000000  1.0  1.5296
  Ca  Ca16  1  0.500000  0.250000  0.000000  1.0  1.5296
  Ca  Ca17  1  0.500000  0.750000  0.000000  1.0  1.5296
  Ca  Ca18  1  0.000000  0.500000  0.250000  1.0  1.5296
  Ca  Ca19  1  0.000000  0.500000  0.750000  1.0  1.5296
  Ca  Ca20  1  0.500000  0.000000  0.250000  1.0  1.5296
  Ca  Ca21  1  0.000000  0.250000  0.500000  1.0  1.5296
  Ca  Ca22  1  0.000000  0.750000  0.500000  1.0  1.5296
  Ca  Ca23  1  0.750000  0.500000  0.000000  1.0  1.5296
  Ca  Ca24  1  0.500000  0.000000  0.750000  1.0  1.5296
  C  C25  1  0.319000  0.000000  0.319000  1.0  0.783
  C  C26  1  0.819000  0.500000  0.819000  1.0  0.783
  C  C27  1  0.681000  0.000000  0.319000  1.0  0.782
  C  C28  1  0.181000  0.500000  0.819000  1.0  0.782
  C  C29  1  0.681000  0.000000  0.681000  1.0  0.7813
  C  C30  1  0.181000  0.500000  0.181000  1.0  0.7813
  C  C31  1  0.319000  0.000000  0.681000  1.0  0.7823
  C  C32  1  0.819000  0.500000  0.181000  1.0  0.7823
  C  C33  1  0.319000  0.319000  0.000000  1.0  0.7821
  C  C34  1  0.819000  0.819000  0.500000  1.0  0.7821
  C  C35  1  0.319000  0.681000  0.000000  1.0  0.782
  C  C36  1  0.819000  0.181000  0.500000  1.0  0.782
  C  C37  1  0.681000  0.681000  0.000000  1.0  0.7808
  C  C38  1  0.181000  0.181000  0.500000  1.0  0.7808
  C  C39  1  0.681000  0.319000  0.000000  1.0  0.7815
  C  C40  1  0.181000  0.819000  0.500000  1.0  0.7815
  C  C41  1  0.000000  0.319000  0.319000  1.0  0.7799
  C  C42  1  0.500000  0.819000  0.819000  1.0  0.7799
  C  C43  1  0.000000  0.319000  0.681000  1.0  0.7801
  C  C44  1  0.500000  0.819000  0.181000  1.0  0.7801
  C  C45  1  0.000000  0.681000  0.681000  1.0  0.7792
  C  C46  1  0.500000  0.181000  0.181000  1.0  0.7792
  C  C47  1  0.000000  0.681000  0.319000  1.0  0.7804
  C  C48  1  0.500000  0.181000  0.819000  1.0  0.7804
  O  O49  1  0.380300  0.000000  0.380300  1.0  -0.6556
  O  O50  1  0.880300  0.500000  0.880300  1.0  -0.6556
  O  O51  1  0.619700  0.000000  0.380300  1.0  -0.6545
  O  O52  1  0.119700  0.500000  0.880300  1.0  -0.6545
  O  O53  1  0.619700  0.000000  0.619700  1.0  -0.6537
  O  O54  1  0.119700  0.500000  0.119700  1.0  -0.6537
  O  O55  1  0.380300  0.000000  0.619700  1.0  -0.6549
  O  O56  1  0.880300  0.500000  0.119700  1.0  -0.6549
  O  O57  1  0.380300  0.380300  0.000000  1.0  -0.6545
  O  O58  1  0.880300  0.880300  0.500000  1.0  -0.6545
  O  O59  1  0.380300  0.619700  0.000000  1.0  -0.6554
  O  O60  1  0.880300  0.119700  0.500000  1.0  -0.6554
  O  O61  1  0.619700  0.619700  0.000000  1.0  -0.6541
  O  O62  1  0.119700  0.119700  0.500000  1.0  -0.6541
  O  O63  1  0.619700  0.380300  0.000000  1.0  -0.6542
  O  O64  1  0.119700  0.880300  0.500000  1.0  -0.6542
  O  O65  1  0.000000  0.380300  0.380300  1.0  -0.6553
  O  O66  1  0.500000  0.880300  0.880300  1.0  -0.6553
  O  O67  1  0.000000  0.380300  0.619700  1.0  -0.6544
  O  O68  1  0.500000  0.880300  0.119700  1.0  -0.6544
  O  O69  1  0.000000  0.619700  0.619700  1.0  -0.6541
  O  O70  1  0.500000  0.119700  0.119700  1.0  -0.6541
  O  O71  1  0.000000  0.619700  0.380300  1.0  -0.6552
  O  O72  1  0.500000  0.119700  0.880300  1.0  -0.6552
  O  O73  1  0.235600  0.000000  0.342200  1.0  -0.5953
  O  O74  1  0.735600  0.500000  0.842200  1.0  -0.5953
  O  O75  1  0.764400  0.000000  0.342200  1.0  -0.5947
  O  O76  1  0.264400  0.500000  0.842200  1.0  -0.5947
  O  O77  1  0.764400  0.000000  0.657800  1.0  -0.5949
  O  O78  1  0.264400  0.500000  0.157800  1.0  -0.5949
  O  O79  1  0.235600  0.000000  0.657800  1.0  -0.5955
  O  O80  1  0.735600  0.500000  0.157800  1.0  -0.5955
  O  O81  1  0.342200  0.235600  0.000000  1.0  -0.596
  O  O82  1  0.842200  0.735600  0.500000  1.0  -0.596
  O  O83  1  0.342200  0.764400  0.000000  1.0  -0.5972
  O  O84  1  0.842200  0.264400  0.500000  1.0  -0.5972
  O  O85  1  0.657800  0.764400  0.000000  1.0  -0.5945
  O  O86  1  0.157800  0.264400  0.500000  1.0  -0.5945
  O  O87  1  0.657800  0.235600  0.000000  1.0  -0.5974
  O  O88  1  0.157800  0.735600  0.500000  1.0  -0.5974
  O  O89  1  0.000000  0.342200  0.235600  1.0  -0.5938
  O  O90  1  0.500000  0.842200  0.735600  1.0  -0.5938
  O  O91  1  0.000000  0.342200  0.764400  1.0  -0.5942
  O  O92  1  0.500000  0.842200  0.264400  1.0  -0.5942
  O  O93  1  0.000000  0.657800  0.764400  1.0  -0.5951
  O  O94  1  0.500000  0.157800  0.264400  1.0  -0.5951
  O  O95  1  0.000000  0.657800  0.235600  1.0  -0.5931
  O  O96  1  0.500000  0.157800  0.735600  1.0  -0.5931
  O  O97  1  0.000000  0.235600  0.657800  1.0  -0.5938
  O  O98  1  0.500000  0.735600  0.157800  1.0  -0.5938
  O  O99  1  0.000000  0.764400  0.657800  1.0  -0.5929
  O  O100  1  0.500000  0.264400  0.157800  1.0  -0.5929
  O  O101  1  0.000000  0.764400  0.342200  1.0  -0.5941
  O  O102  1  0.500000  0.264400  0.842200  1.0  -0.5941
  O  O103  1  0.000000  0.235600  0.342200  1.0  -0.5937
  O  O104  1  0.500000  0.735600  0.842200  1.0  -0.5937
  O  O105  1  0.235600  0.342200  0.000000  1.0  -0.5969
  O  O106  1  0.735600  0.842200  0.500000  1.0  -0.5969
  O  O107  1  0.764400  0.342200  0.000000  1.0  -0.5959
  O  O108  1  0.264400  0.842200  0.500000  1.0  -0.5959
  O  O109  1  0.764400  0.657800  0.000000  1.0  -0.5953
  O  O110  1  0.264400  0.157800  0.500000  1.0  -0.5953
  O  O111  1  0.235600  0.657800  0.000000  1.0  -0.5977
  O  O112  1  0.735600  0.157800  0.500000  1.0  -0.5977
  O  O113  1  0.342200  0.000000  0.764400  1.0  -0.5951
  O  O114  1  0.842200  0.500000  0.264400  1.0  -0.5951
  O  O115  1  0.342200  0.000000  0.235600  1.0  -0.5949
  O  O116  1  0.842200  0.500000  0.735600  1.0  -0.5949
  O  O117  1  0.657800  0.000000  0.235600  1.0  -0.5932
  O  O118  1  0.157800  0.500000  0.735600  1.0  -0.5932
  O  O119  1  0.657800  0.000000  0.764400  1.0  -0.5948
  O  O120  1  0.157800  0.500000  0.264400  1.0  -0.5948
  O  O121  1  0.000000  0.000000  0.361000  1.0  -0.3252
  O  O122  1  0.500000  0.500000  0.861000  1.0  -0.3252
  O  O123  1  0.000000  0.000000  0.639000  1.0  -0.3281
  O  O124  1  0.500000  0.500000  0.139000  1.0  -0.3281
  O  O125  1  0.361000  0.000000  0.000000  1.0  -0.3292
  O  O126  1  0.861000  0.500000  0.500000  1.0  -0.3292
  O  O127  1  0.639000  0.000000  0.000000  1.0  -0.3281
  O  O128  1  0.139000  0.500000  0.500000  1.0  -0.3281
  O  O129  1  0.000000  0.361000  0.000000  1.0  -0.3233
  O  O130  1  0.500000  0.861000  0.500000  1.0  -0.3233
  O  O131  1  0.000000  0.639000  0.000000  1.0  -0.3244
  O  O132  1  0.500000  0.139000  0.500000  1.0  -0.3244
