# generated using pymatgen
data_NaCd2(CO3)4
_symmetry_space_group_name_H-M   'P 1'
_cell_length_a   14.74930000
_cell_length_b   14.74930000
_cell_length_c   14.74930000
_cell_angle_alpha   90.00000000
_cell_angle_beta   90.00000000
_cell_angle_gamma   90.00000000
_symmetry_Int_Tables_number   1
_chemical_formula_structural   NaCd2(CO3)4
_chemical_formula_sum   'Na6 Cd12 C24 O72'
_cell_volume   3208.59001543
_cell_formula_units_Z   6
loop_
 _symmetry_equiv_pos_site_id
 _symmetry_equiv_pos_as_xyz
  1  'x, y, z'
loop_
 _atom_site_type_symbol
 _atom_site_label
 _atom_site_symmetry_multiplicity
 _atom_site_fract_x
 _atom_site_fract_y
 _atom_site_fract_z
 _atom_site_occupancy
 _atom_site_charge
  Na  Na1  1  0.500000  0.000000  0.500000  1.0  1.0369
  Na  Na2  1  0.000000  0.500000  0.000000  1.0  1.0369
  Na  Na3  1  0.500000  0.500000  0.000000  1.0  1.0369
  Na  Na4  1  0.000000  0.000000  0.500000  1.0  1.0369
  Na  Na5  1  0.000000  0.500000  0.500000  1.0  1.0369
  Na  Na6  1  0.500000  0.000000  0.000000  1.0  1.0369
  Cd  Cd7  1  0.500000  0.000000  0.250000  1.0  1.0738
  Cd  Cd8  1  0.500000  0.000000  0.750000  1.0  1.0738
  Cd  Cd9  1  0.250000  0.500000  0.000000  1.0  1.0738
  Cd  Cd10  1  0.750000  0.500000  0.000000  1.0  1.0738
  Cd  Cd11  1  0.000000  0.250000  0.500000  1.0  1.0738
  Cd  Cd12  1  0.000000  0.750000  0.500000  1.0  1.0738
  Cd  Cd13  1  0.500000  0.250000  0.000000  1.0  1.0738
  Cd  Cd14  1  0.000000  0.500000  0.750000  1.0  1.0738
  Cd  Cd15  1  0.000000  0.500000  0.250000  1.0  1.0738
  Cd  Cd16  1  0.500000  0.750000  0.000000  1.0  1.0738
  Cd  Cd17  1  0.250000  0.000000  0.500000  1.0  1.0738
  Cd  Cd18  1  0.750000  0.000000  0.500000  1.0  1.0738
  C  C19  1  0.500000  0.824000  0.176000  1.0  0.8737
  C  C20  1  0.000000  0.324000  0.676000  1.0  0.8737
  C  C21  1  0.500000  0.176000  0.176000  1.0  0.8734
  C  C22  1  0.000000  0.676000  0.676000  1.0  0.8734
  C  C23  1  0.500000  0.824000  0.824000  1.0  0.8734
  C  C24  1  0.000000  0.324000  0.324000  1.0  0.8734
  C  C25  1  0.500000  0.176000  0.824000  1.0  0.8735
  C  C26  1  0.000000  0.676000  0.324000  1.0  0.8735
  C  C27  1  0.176000  0.500000  0.824000  1.0  0.8748
  C  C28  1  0.676000  0.000000  0.324000  1.0  0.8748
  C  C29  1  0.176000  0.500000  0.176000  1.0  0.8745
  C  C30  1  0.676000  0.000000  0.676000  1.0  0.8745
  C  C31  1  0.824000  0.500000  0.824000  1.0  0.8754
  C  C32  1  0.324000  0.000000  0.324000  1.0  0.8754
  C  C33  1  0.824000  0.500000  0.176000  1.0  0.8752
  C  C34  1  0.324000  0.000000  0.676000  1.0  0.8752
  C  C35  1  0.824000  0.176000  0.500000  1.0  0.8751
  C  C36  1  0.324000  0.676000  0.000000  1.0  0.8751
  C  C37  1  0.176000  0.176000  0.500000  1.0  0.8744
  C  C38  1  0.676000  0.676000  0.000000  1.0  0.8744
  C  C39  1  0.824000  0.824000  0.500000  1.0  0.8753
  C  C40  1  0.324000  0.324000  0.000000  1.0  0.8753
  C  C41  1  0.176000  0.824000  0.500000  1.0  0.8746
  C  C42  1  0.676000  0.324000  0.000000  1.0  0.8746
  O  O43  1  0.500000  0.845900  0.261000  1.0  -0.5199
  O  O44  1  0.000000  0.345900  0.761000  1.0  -0.5199
  O  O45  1  0.500000  0.154100  0.261000  1.0  -0.5193
  O  O46  1  0.000000  0.654100  0.761000  1.0  -0.5193
  O  O47  1  0.500000  0.845900  0.739000  1.0  -0.5189
  O  O48  1  0.000000  0.345900  0.239000  1.0  -0.5189
  O  O49  1  0.500000  0.154100  0.739000  1.0  -0.5181
  O  O50  1  0.000000  0.654100  0.239000  1.0  -0.5181
  O  O51  1  0.261000  0.500000  0.845900  1.0  -0.518
  O  O52  1  0.761000  0.000000  0.345900  1.0  -0.518
  O  O53  1  0.261000  0.500000  0.154100  1.0  -0.5193
  O  O54  1  0.761000  0.000000  0.654100  1.0  -0.5193
  O  O55  1  0.739000  0.500000  0.845900  1.0  -0.5184
  O  O56  1  0.239000  0.000000  0.345900  1.0  -0.5184
  O  O57  1  0.739000  0.500000  0.154100  1.0  -0.5195
  O  O58  1  0.239000  0.000000  0.654100  1.0  -0.5195
  O  O59  1  0.845900  0.261000  0.500000  1.0  -0.5199
  O  O60  1  0.345900  0.761000  0.000000  1.0  -0.5199
  O  O61  1  0.154100  0.261000  0.500000  1.0  -0.5181
  O  O62  1  0.654100  0.761000  0.000000  1.0  -0.5181
  O  O63  1  0.845900  0.739000  0.500000  1.0  -0.5211
  O  O64  1  0.345900  0.239000  0.000000  1.0  -0.5211
  O  O65  1  0.154100  0.739000  0.500000  1.0  -0.5223
  O  O66  1  0.654100  0.239000  0.000000  1.0  -0.5223
  O  O67  1  0.845900  0.500000  0.739000  1.0  -0.5186
  O  O68  1  0.345900  0.000000  0.239000  1.0  -0.5186
  O  O69  1  0.154100  0.500000  0.739000  1.0  -0.5185
  O  O70  1  0.654100  0.000000  0.239000  1.0  -0.5185
  O  O71  1  0.845900  0.500000  0.261000  1.0  -0.5199
  O  O72  1  0.345900  0.000000  0.761000  1.0  -0.5199
  O  O73  1  0.154100  0.500000  0.261000  1.0  -0.5201
  O  O74  1  0.654100  0.000000  0.761000  1.0  -0.5201
  O  O75  1  0.500000  0.261000  0.154100  1.0  -0.5156
  O  O76  1  0.000000  0.761000  0.654100  1.0  -0.5156
  O  O77  1  0.500000  0.261000  0.845900  1.0  -0.5151
  O  O78  1  0.000000  0.761000  0.345900  1.0  -0.5151
  O  O79  1  0.500000  0.739000  0.154100  1.0  -0.5182
  O  O80  1  0.000000  0.239000  0.654100  1.0  -0.5182
  O  O81  1  0.500000  0.739000  0.845900  1.0  -0.5169
  O  O82  1  0.000000  0.239000  0.345900  1.0  -0.5169
  O  O83  1  0.261000  0.845900  0.500000  1.0  -0.5213
  O  O84  1  0.761000  0.345900  0.000000  1.0  -0.5213
  O  O85  1  0.261000  0.154100  0.500000  1.0  -0.5199
  O  O86  1  0.761000  0.654100  0.000000  1.0  -0.5199
  O  O87  1  0.739000  0.845900  0.500000  1.0  -0.5218
  O  O88  1  0.239000  0.345900  0.000000  1.0  -0.5218
  O  O89  1  0.739000  0.154100  0.500000  1.0  -0.5214
  O  O90  1  0.239000  0.654100  0.000000  1.0  -0.5214
  O  O91  1  0.500000  0.884900  0.115100  1.0  -0.6309
  O  O92  1  0.000000  0.384900  0.615100  1.0  -0.6309
  O  O93  1  0.500000  0.115100  0.115100  1.0  -0.633
  O  O94  1  0.000000  0.615100  0.615100  1.0  -0.633
  O  O95  1  0.500000  0.884900  0.884900  1.0  -0.633
  O  O96  1  0.000000  0.384900  0.384900  1.0  -0.633
  O  O97  1  0.500000  0.115100  0.884900  1.0  -0.6351
  O  O98  1  0.000000  0.615100  0.384900  1.0  -0.6351
  O  O99  1  0.115100  0.500000  0.884900  1.0  -0.6338
  O  O100  1  0.615100  0.000000  0.384900  1.0  -0.6338
  O  O101  1  0.115100  0.500000  0.115100  1.0  -0.6313
  O  O102  1  0.615100  0.000000  0.615100  1.0  -0.6313
  O  O103  1  0.884900  0.500000  0.884900  1.0  -0.6334
  O  O104  1  0.384900  0.000000  0.384900  1.0  -0.6334
  O  O105  1  0.884900  0.500000  0.115100  1.0  -0.6305
  O  O106  1  0.384900  0.000000  0.615100  1.0  -0.6305
  O  O107  1  0.884900  0.115100  0.500000  1.0  -0.6319
  O  O108  1  0.384900  0.615100  0.000000  1.0  -0.6319
  O  O109  1  0.115100  0.115100  0.500000  1.0  -0.6325
  O  O110  1  0.615100  0.615100  0.000000  1.0  -0.6325
  O  O111  1  0.884900  0.884900  0.500000  1.0  -0.6303
  O  O112  1  0.384900  0.384900  0.000000  1.0  -0.6303
  O  O113  1  0.115100  0.884900  0.500000  1.0  -0.6307
  O  O114  1  0.615100  0.384900  0.000000  1.0  -0.6307
