# generated using pymatgen
data_Co3H6C10(N4O3)2
_symmetry_space_group_name_H-M   'P 1'
_cell_length_a   8.46820000
_cell_length_b   15.27440000
_cell_length_c   15.27440000
_cell_angle_alpha   85.59300000
_cell_angle_beta   73.90680000
_cell_angle_gamma   73.90680000
_symmetry_Int_Tables_number   1
_chemical_formula_structural   Co3H6C10(N4O3)2
_chemical_formula_sum   'Co12 H24 C40 N32 O24'
_cell_volume   1823.88023372
_cell_formula_units_Z   4
loop_
 _symmetry_equiv_pos_site_id
 _symmetry_equiv_pos_as_xyz
  1  'x, y, z'
loop_
 _atom_site_type_symbol
 _atom_site_label
 _atom_site_symmetry_multiplicity
 _atom_site_fract_x
 _atom_site_fract_y
 _atom_site_fract_z
 _atom_site_occupancy
 _atom_site_charge
  Co  Co1  1  0.404070  0.960530  0.949810  1.0  0.9904
  Co  Co2  1  0.814410  0.539470  0.550190  1.0  0.9912
  Co  Co3  1  0.353880  0.050190  0.460530  1.0  0.991
  Co  Co4  1  0.364600  0.449810  0.039470  1.0  0.9906
  Co  Co5  1  0.595930  0.039470  0.050190  1.0  0.9904
  Co  Co6  1  0.185590  0.460530  0.449810  1.0  0.9907
  Co  Co7  1  0.646120  0.949810  0.539470  1.0  0.9915
  Co  Co8  1  0.635400  0.550190  0.960530  1.0  0.9909
  Co  Co9  1  0.000000  0.000000  0.000000  1.0  0.904
  Co  Co10  1  0.500000  0.500000  0.500000  1.0  0.904
  Co  Co11  1  0.000000  0.000000  0.500000  1.0  0.904
  Co  Co12  1  0.000000  0.500000  0.000000  1.0  0.904
  H  H13  1  0.933400  0.975600  0.193200  1.0  0.3276
  H  H14  1  0.864000  0.979500  0.341100  1.0  0.0804
  H  H15  1  0.542300  0.078100  0.252900  1.0  0.078
  H  H16  1  0.602200  0.524400  0.306800  1.0  0.3291
  H  H17  1  0.684600  0.520500  0.158900  1.0  0.0787
  H  H18  1  0.373300  0.421900  0.247100  1.0  0.0778
  H  H19  1  0.126600  0.806800  0.475600  1.0  0.3289
  H  H20  1  0.205100  0.658900  0.479500  1.0  0.0791
  H  H21  1  0.795200  0.747100  0.578100  1.0  0.0773
  H  H22  1  0.909000  0.693200  0.024400  1.0  0.3295
  H  H23  1  0.843500  0.841100  0.020500  1.0  0.0797
  H  H24  1  0.620400  0.752900  0.921900  1.0  0.0788
  H  H25  1  0.066600  0.024400  0.806800  1.0  0.3274
  H  H26  1  0.136000  0.020500  0.658900  1.0  0.0807
  H  H27  1  0.457700  0.921900  0.747100  1.0  0.0783
  H  H28  1  0.397800  0.475600  0.693200  1.0  0.3298
  H  H29  1  0.315400  0.479500  0.841100  1.0  0.079
  H  H30  1  0.626700  0.578100  0.752900  1.0  0.0781
  H  H31  1  0.873400  0.193200  0.524400  1.0  0.3291
  H  H32  1  0.794900  0.341100  0.520500  1.0  0.0797
  H  H33  1  0.204800  0.252900  0.421900  1.0  0.0778
  H  H34  1  0.091000  0.306800  0.975600  1.0  0.3285
  H  H35  1  0.156500  0.158900  0.979500  1.0  0.0794
  H  H36  1  0.379600  0.247100  0.078100  1.0  0.0798
  C  C37  1  0.966900  0.990700  0.308500  1.0  0.3522
  C  C38  1  0.209300  0.026000  0.300200  1.0  0.3801
  C  C39  1  0.261100  0.021900  0.204700  1.0  -0.0843
  C  C40  1  0.156800  0.999100  0.158500  1.0  0.5101
  C  C41  1  0.445600  0.060800  0.252400  1.0  0.3226
  C  C42  1  0.766100  0.509300  0.191500  1.0  0.3518
  C  C43  1  0.035500  0.474000  0.199800  1.0  0.3807
  C  C44  1  0.987700  0.478100  0.295300  1.0  -0.0857
  C  C45  1  0.814400  0.500900  0.341500  1.0  0.5076
  C  C46  1  0.258800  0.439200  0.247600  1.0  0.3223
  C  C47  1  0.275400  0.691500  0.490700  1.0  0.3508
  C  C48  1  0.509500  0.699800  0.526000  1.0  0.3797
  C  C49  1  0.465800  0.795300  0.521900  1.0  -0.0839
  C  C50  1  0.315300  0.841500  0.499100  1.0  0.5068
  C  C51  1  0.698000  0.747600  0.560800  1.0  0.3237
  C  C52  1  0.957600  0.808500  0.009300  1.0  0.349
  C  C53  1  0.235300  0.800200  0.974000  1.0  0.3795
  C  C54  1  0.283000  0.704700  0.978100  1.0  -0.0844
  C  C55  1  0.155900  0.658500  0.000900  1.0  0.5079
  C  C56  1  0.506400  0.752400  0.939200  1.0  0.322
  C  C57  1  0.033100  0.009300  0.691500  1.0  0.3536
  C  C58  1  0.790700  0.974000  0.699800  1.0  0.3805
  C  C59  1  0.738900  0.978100  0.795300  1.0  -0.0852
  C  C60  1  0.843200  0.000900  0.841500  1.0  0.5091
  C  C61  1  0.554400  0.939200  0.747600  1.0  0.3228
  C  C62  1  0.233900  0.490700  0.808500  1.0  0.3523
  C  C63  1  0.964500  0.526000  0.800200  1.0  0.3797
  C  C64  1  0.012300  0.521900  0.704700  1.0  -0.0849
  C  C65  1  0.185600  0.499100  0.658500  1.0  0.5085
  C  C66  1  0.741200  0.560800  0.752400  1.0  0.3226
  C  C67  1  0.724600  0.308500  0.509300  1.0  0.351
  C  C68  1  0.490500  0.300200  0.474000  1.0  0.3793
  C  C69  1  0.534200  0.204700  0.478100  1.0  -0.0841
  C  C70  1  0.684700  0.158500  0.500900  1.0  0.5062
  C  C71  1  0.302000  0.252400  0.439200  1.0  0.3229
  C  C72  1  0.042400  0.191500  0.990700  1.0  0.3496
  C  C73  1  0.764700  0.199800  0.026000  1.0  0.3798
  C  C74  1  0.717000  0.295300  0.021900  1.0  -0.0842
  C  C75  1  0.844100  0.341500  0.999100  1.0  0.5072
  C  C76  1  0.493600  0.247600  0.060800  1.0  0.3224
  N  N77  1  0.006500  0.986600  0.217200  1.0  -0.3576
  N  N78  1  0.062000  0.009200  0.354600  1.0  -0.4185
  N  N79  1  0.414300  0.045100  0.175500  1.0  -0.3621
  N  N80  1  0.327800  0.050000  0.330200  1.0  -0.4614
  N  N81  1  0.710300  0.513400  0.282800  1.0  -0.3581
  N  N82  1  0.925800  0.490800  0.145400  1.0  -0.4173
  N  N83  1  0.134900  0.454900  0.324500  1.0  -0.3624
  N  N84  1  0.208000  0.450000  0.169800  1.0  -0.4627
  N  N85  1  0.223700  0.782800  0.486600  1.0  -0.3565
  N  N86  1  0.416600  0.645400  0.509200  1.0  -0.4166
  N  N87  1  0.589800  0.824500  0.545100  1.0  -0.3646
  N  N88  1  0.658000  0.669800  0.550000  1.0  -0.4623
  N  N89  1  0.993100  0.717200  0.013400  1.0  -0.3571
  N  N90  1  0.071200  0.854600  0.990800  1.0  -0.4166
  N  N91  1  0.459400  0.675500  0.954900  1.0  -0.3644
  N  N92  1  0.377800  0.830200  0.950000  1.0  -0.4621
  N  N93  1  0.993500  0.013400  0.782800  1.0  -0.3577
  N  N94  1  0.938000  0.990800  0.645400  1.0  -0.4173
  N  N95  1  0.585700  0.954900  0.824500  1.0  -0.3618
  N  N96  1  0.672200  0.950000  0.669800  1.0  -0.4617
  N  N97  1  0.289700  0.486600  0.717200  1.0  -0.358
  N  N98  1  0.074200  0.509200  0.854600  1.0  -0.4173
  N  N99  1  0.865100  0.545100  0.675500  1.0  -0.3642
  N  N100  1  0.792000  0.550000  0.830200  1.0  -0.4633
  N  N101  1  0.776300  0.217200  0.513400  1.0  -0.3567
  N  N102  1  0.583400  0.354600  0.490800  1.0  -0.4173
  N  N103  1  0.410200  0.175500  0.454900  1.0  -0.3651
  N  N104  1  0.342000  0.330200  0.450000  1.0  -0.4626
  N  N105  1  0.006900  0.282800  0.986600  1.0  -0.3576
  N  N106  1  0.928800  0.145400  0.009200  1.0  -0.4171
  N  N107  1  0.540600  0.324500  0.045100  1.0  -0.3644
  N  N108  1  0.622200  0.169800  0.050000  1.0  -0.4635
  O  O109  1  0.425500  0.083600  0.973800  1.0  -0.5968
  O  O110  1  0.200000  0.008000  0.894400  1.0  -0.6856
  O  O111  1  0.182000  0.990700  0.073100  1.0  -0.5201
  O  O112  1  0.982900  0.416400  0.526200  1.0  -0.5965
  O  O113  1  0.602400  0.492000  0.605600  1.0  -0.6872
  O  O114  1  0.745800  0.509300  0.426900  1.0  -0.5226
  O  O115  1  0.399300  0.026200  0.583600  1.0  -0.5964
  O  O116  1  0.094400  0.105600  0.508000  1.0  -0.6883
  O  O117  1  0.255100  0.926900  0.490700  1.0  -0.5223
  O  O118  1  0.509100  0.473800  0.916400  1.0  -0.5966
  O  O119  1  0.208000  0.394400  0.992000  1.0  -0.6887
  O  O120  1  0.172700  0.573100  0.009300  1.0  -0.5215
  O  O121  1  0.574500  0.916400  0.026200  1.0  -0.5967
  O  O122  1  0.800000  0.992000  0.105600  1.0  -0.687
  O  O123  1  0.818000  0.009300  0.926900  1.0  -0.5218
  O  O124  1  0.017100  0.583600  0.473800  1.0  -0.5965
  O  O125  1  0.397600  0.508000  0.394400  1.0  -0.6875
  O  O126  1  0.254200  0.490700  0.573100  1.0  -0.5214
  O  O127  1  0.600700  0.973800  0.416400  1.0  -0.5961
  O  O128  1  0.905600  0.894400  0.492000  1.0  -0.6881
  O  O129  1  0.744900  0.073100  0.509300  1.0  -0.5228
  O  O130  1  0.490900  0.526200  0.083600  1.0  -0.5968
  O  O131  1  0.792000  0.605600  0.008000  1.0  -0.6886
  O  O132  1  0.827300  0.426900  0.990700  1.0  -0.5211
