# generated using pymatgen
data_Co3H6C10(N4O3)2
_symmetry_space_group_name_H-M   'P 1'
_cell_length_a   8.44950000
_cell_length_b   15.26090000
_cell_length_c   15.26090000
_cell_angle_alpha   85.60470000
_cell_angle_beta   73.92860000
_cell_angle_gamma   73.92850000
_symmetry_Int_Tables_number   1
_chemical_formula_structural   Co3H6C10(N4O3)2
_chemical_formula_sum   'Co12 H24 C40 N32 O24'
_cell_volume   1817.03483888
_cell_formula_units_Z   4
loop_
 _symmetry_equiv_pos_site_id
 _symmetry_equiv_pos_as_xyz
  1  'x, y, z'
loop_
 _atom_site_type_symbol
 _atom_site_label
 _atom_site_symmetry_multiplicity
 _atom_site_fract_x
 _atom_site_fract_y
 _atom_site_fract_z
 _atom_site_occupancy
 _atom_site_charge
  Co  Co1  1  0.904040  0.949830  0.960340  1.0  0.9862
  Co  Co2  1  0.314220  0.550170  0.539660  1.0  0.9857
  Co  Co3  1  0.864390  0.039660  0.449820  1.0  0.9856
  Co  Co4  1  0.853870  0.460340  0.050180  1.0  0.9864
  Co  Co5  1  0.095960  0.050170  0.039660  1.0  0.9867
  Co  Co6  1  0.685780  0.449830  0.460340  1.0  0.9861
  Co  Co7  1  0.135610  0.960340  0.550180  1.0  0.9855
  Co  Co8  1  0.146130  0.539660  0.949820  1.0  0.9859
  Co  Co9  1  0.500000  0.000000  0.000000  1.0  0.9029
  Co  Co10  1  0.000000  0.500000  0.500000  1.0  0.9029
  Co  Co11  1  0.500000  0.000000  0.500000  1.0  0.9029
  Co  Co12  1  0.500000  0.500000  0.000000  1.0  0.9029
  H  H13  1  0.567200  0.807800  0.025000  1.0  0.3174
  H  H14  1  0.957300  0.747300  0.922500  1.0  0.075
  H  H15  1  0.635900  0.658100  0.023500  1.0  0.0825
  H  H16  1  0.900000  0.692200  0.475000  1.0  0.3174
  H  H17  1  0.127100  0.752700  0.577500  1.0  0.077
  H  H18  1  0.817500  0.841900  0.476500  1.0  0.082
  H  H19  1  0.592200  0.975000  0.307800  1.0  0.3162
  H  H20  1  0.879800  0.077500  0.247300  1.0  0.0756
  H  H21  1  0.659400  0.976500  0.158100  1.0  0.0832
  H  H22  1  0.375000  0.525000  0.192200  1.0  0.3173
  H  H23  1  0.704600  0.422500  0.252700  1.0  0.0751
  H  H24  1  0.294000  0.523500  0.341900  1.0  0.0821
  H  H25  1  0.432800  0.192200  0.975000  1.0  0.3202
  H  H26  1  0.042700  0.252700  0.077500  1.0  0.0747
  H  H27  1  0.364100  0.341900  0.976500  1.0  0.0816
  H  H28  1  0.100000  0.307800  0.525000  1.0  0.3195
  H  H29  1  0.872900  0.247300  0.422500  1.0  0.0763
  H  H30  1  0.182500  0.158100  0.523500  1.0  0.0824
  H  H31  1  0.407800  0.025000  0.692200  1.0  0.3172
  H  H32  1  0.120200  0.922500  0.752700  1.0  0.0755
  H  H33  1  0.340600  0.023500  0.841900  1.0  0.0832
  H  H34  1  0.625000  0.475000  0.807800  1.0  0.32
  H  H35  1  0.295400  0.577500  0.747300  1.0  0.0752
  H  H36  1  0.706000  0.476500  0.658100  1.0  0.0815
  C  C37  1  0.343590  0.842430  0.000590  1.0  0.5128
  C  C38  1  0.240260  0.795320  0.976760  1.0  -0.0855
  C  C39  1  0.054820  0.747670  0.939290  1.0  0.3156
  C  C40  1  0.291050  0.699280  0.973220  1.0  0.3843
  C  C41  1  0.534460  0.690990  0.010690  1.0  0.3485
  C  C42  1  0.686610  0.657570  0.499410  1.0  0.5135
  C  C43  1  0.512340  0.704680  0.523240  1.0  -0.0854
  C  C44  1  0.241780  0.752330  0.560710  1.0  0.315
  C  C45  1  0.463550  0.800720  0.526780  1.0  0.3846
  C  C46  1  0.736140  0.809010  0.489310  1.0  0.348
  C  C47  1  0.344180  0.999410  0.342430  1.0  0.5158
  C  C48  1  0.217020  0.023240  0.295320  1.0  -0.0875
  C  C49  1  0.994110  0.060710  0.247670  1.0  0.3153
  C  C50  1  0.264270  0.026780  0.199280  1.0  0.3839
  C  C51  1  0.545150  0.989310  0.190990  1.0  0.3509
  C  C52  1  0.186020  0.500590  0.157570  1.0  0.5151
  C  C53  1  0.035580  0.476760  0.204680  1.0  -0.0852
  C  C54  1  0.802490  0.439290  0.252330  1.0  0.3158
  C  C55  1  0.990330  0.473220  0.300720  1.0  0.3844
  C  C56  1  0.225450  0.510690  0.309010  1.0  0.3494
  C  C57  1  0.656410  0.157570  0.999410  1.0  0.5129
  C  C58  1  0.759740  0.204680  0.023240  1.0  -0.0856
  C  C59  1  0.945180  0.252330  0.060710  1.0  0.316
  C  C60  1  0.708950  0.300720  0.026780  1.0  0.3842
  C  C61  1  0.465540  0.309010  0.989310  1.0  0.3491
  C  C62  1  0.313390  0.342430  0.500590  1.0  0.5139
  C  C63  1  0.487660  0.295320  0.476760  1.0  -0.0855
  C  C64  1  0.758220  0.247670  0.439290  1.0  0.3143
  C  C65  1  0.536450  0.199280  0.473220  1.0  0.3842
  C  C66  1  0.263860  0.190990  0.510690  1.0  0.3475
  C  C67  1  0.655820  0.000590  0.657570  1.0  0.5167
  C  C68  1  0.782980  0.976760  0.704680  1.0  -0.0858
  C  C69  1  0.005890  0.939290  0.752330  1.0  0.3149
  C  C70  1  0.735730  0.973220  0.800720  1.0  0.3849
  C  C71  1  0.454850  0.010690  0.809010  1.0  0.3488
  C  C72  1  0.813980  0.499410  0.842430  1.0  0.5144
  C  C73  1  0.964420  0.523240  0.795320  1.0  -0.0868
  C  C74  1  0.197510  0.560710  0.747670  1.0  0.3146
  C  C75  1  0.009670  0.526780  0.699280  1.0  0.3836
  C  C76  1  0.774550  0.489310  0.690990  1.0  0.3495
  N  N77  1  0.088050  0.824640  0.954460  1.0  -0.3594
  N  N78  1  0.172640  0.669800  0.949920  1.0  -0.4519
  N  N79  1  0.438880  0.645670  0.990770  1.0  -0.419
  N  N80  1  0.494110  0.783670  0.013910  1.0  -0.3617
  N  N81  1  0.367150  0.675360  0.545540  1.0  -0.3588
  N  N82  1  0.292360  0.830200  0.550080  1.0  -0.4513
  N  N83  1  0.575320  0.854330  0.509230  1.0  -0.4193
  N  N84  1  0.791690  0.716330  0.486090  1.0  -0.3652
  N  N85  1  0.042510  0.045540  0.324640  1.0  -0.3567
  N  N86  1  0.122560  0.050080  0.169800  1.0  -0.4519
  N  N87  1  0.429650  0.009230  0.145670  1.0  -0.4185
  N  N88  1  0.508020  0.986090  0.283670  1.0  -0.3643
  N  N89  1  0.912690  0.454460  0.175360  1.0  -0.358
  N  N90  1  0.842440  0.449920  0.330200  1.0  -0.452
  N  N91  1  0.084550  0.490770  0.354330  1.0  -0.4193
  N  N92  1  0.277780  0.513910  0.216330  1.0  -0.3632
  N  N93  1  0.911950  0.175360  0.045540  1.0  -0.3588
  N  N94  1  0.827360  0.330200  0.050080  1.0  -0.4509
  N  N95  1  0.561120  0.354330  0.009230  1.0  -0.4188
  N  N96  1  0.505890  0.216330  0.986090  1.0  -0.3629
  N  N97  1  0.632850  0.324640  0.454460  1.0  -0.3595
  N  N98  1  0.707640  0.169800  0.449920  1.0  -0.4514
  N  N99  1  0.424680  0.145670  0.490770  1.0  -0.4184
  N  N100  1  0.208310  0.283670  0.513910  1.0  -0.3635
  N  N101  1  0.957490  0.954460  0.675360  1.0  -0.3571
  N  N102  1  0.877440  0.949920  0.830200  1.0  -0.4509
  N  N103  1  0.570350  0.990770  0.854330  1.0  -0.4203
  N  N104  1  0.491980  0.013910  0.716330  1.0  -0.3628
  N  N105  1  0.087310  0.545540  0.824640  1.0  -0.3569
  N  N106  1  0.157560  0.550080  0.669800  1.0  -0.4528
  N  N107  1  0.915450  0.509230  0.645670  1.0  -0.4183
  N  N108  1  0.722220  0.486090  0.783670  1.0  -0.3625
  O  O109  1  0.699280  0.894280  0.007360  1.0  -0.6871
  O  O110  1  0.319340  0.926470  0.009450  1.0  -0.5193
  O  O111  1  0.925280  0.973410  0.084230  1.0  -0.5933
  O  O112  1  0.100920  0.605720  0.492640  1.0  -0.6882
  O  O113  1  0.755260  0.573530  0.490550  1.0  -0.5179
  O  O114  1  0.482920  0.526590  0.415770  1.0  -0.5935
  O  O115  1  0.706640  0.992640  0.394280  1.0  -0.6848
  O  O116  1  0.328790  0.990550  0.426470  1.0  -0.5173
  O  O117  1  0.009510  0.915770  0.473410  1.0  -0.5941
  O  O118  1  0.593560  0.507360  0.105720  1.0  -0.6856
  O  O119  1  0.245810  0.509450  0.073530  1.0  -0.5185
  O  O120  1  0.898690  0.584230  0.026590  1.0  -0.5929
  O  O121  1  0.300720  0.105720  0.992640  1.0  -0.6869
  O  O122  1  0.680660  0.073530  0.990550  1.0  -0.5202
  O  O123  1  0.074720  0.026590  0.915770  1.0  -0.593
  O  O124  1  0.899080  0.394280  0.507360  1.0  -0.6882
  O  O125  1  0.244740  0.426470  0.509450  1.0  -0.5181
  O  O126  1  0.517080  0.473410  0.584230  1.0  -0.5938
  O  O127  1  0.293360  0.007360  0.605720  1.0  -0.6861
  O  O128  1  0.671210  0.009450  0.573530  1.0  -0.5177
  O  O129  1  0.990490  0.084230  0.526590  1.0  -0.5933
  O  O130  1  0.406440  0.492640  0.894280  1.0  -0.6848
  O  O131  1  0.754190  0.490550  0.926470  1.0  -0.5184
  O  O132  1  0.101310  0.415770  0.973410  1.0  -0.5937
