# generated using pymatgen
data_Cu7C48(NO4)6
_symmetry_space_group_name_H-M   'P 1'
_cell_length_a   26.21700000
_cell_length_b   26.21700000
_cell_length_c   44.81300000
_cell_angle_alpha   90.00000000
_cell_angle_beta   90.00000000
_cell_angle_gamma   90.00000000
_symmetry_Int_Tables_number   1
_chemical_formula_structural   Cu7C48(NO4)6
_chemical_formula_sum   'Cu56 C384 N48 O192'
_cell_volume   30801.36809136
_cell_formula_units_Z   8
loop_
 _symmetry_equiv_pos_site_id
 _symmetry_equiv_pos_as_xyz
  1  'x, y, z'
loop_
 _atom_site_type_symbol
 _atom_site_label
 _atom_site_symmetry_multiplicity
 _atom_site_fract_x
 _atom_site_fract_y
 _atom_site_fract_z
 _atom_site_occupancy
 _atom_site_charge
  Cu  Cu1  1  0.213240  0.213240  0.500000  1.0  0.9393
  Cu  Cu2  1  0.284710  0.284710  0.500000  1.0  0.9485
  Cu  Cu3  1  0.713240  0.713240  0.000000  1.0  0.9393
  Cu  Cu4  1  0.784710  0.784710  0.000000  1.0  0.9485
  Cu  Cu5  1  0.786760  0.786760  0.500000  1.0  0.9401
  Cu  Cu6  1  0.715290  0.715290  0.500000  1.0  0.947
  Cu  Cu7  1  0.286760  0.286760  0.000000  1.0  0.9401
  Cu  Cu8  1  0.215290  0.215290  0.000000  1.0  0.947
  Cu  Cu9  1  0.786760  0.213240  0.500000  1.0  0.9387
  Cu  Cu10  1  0.715290  0.284710  0.500000  1.0  0.9479
  Cu  Cu11  1  0.286760  0.713240  0.000000  1.0  0.9387
  Cu  Cu12  1  0.215290  0.784710  0.000000  1.0  0.9479
  Cu  Cu13  1  0.213240  0.786760  0.500000  1.0  0.9397
  Cu  Cu14  1  0.284710  0.715290  0.500000  1.0  0.9466
  Cu  Cu15  1  0.713240  0.286760  0.000000  1.0  0.9397
  Cu  Cu16  1  0.784710  0.215290  0.000000  1.0  0.9466
  Cu  Cu17  1  0.284550  0.500000  0.374130  1.0  0.9161
  Cu  Cu18  1  0.213130  0.500000  0.332550  1.0  0.9031
  Cu  Cu19  1  0.784550  0.000000  0.874130  1.0  0.9161
  Cu  Cu20  1  0.713130  0.000000  0.832550  1.0  0.9031
  Cu  Cu21  1  0.715450  0.500000  0.374130  1.0  0.9163
  Cu  Cu22  1  0.786870  0.500000  0.332550  1.0  0.9036
  Cu  Cu23  1  0.215450  0.000000  0.874130  1.0  0.9163
  Cu  Cu24  1  0.286870  0.000000  0.832550  1.0  0.9036
  Cu  Cu25  1  0.500000  0.284550  0.374130  1.0  0.9167
  Cu  Cu26  1  0.500000  0.213130  0.332550  1.0  0.9028
  Cu  Cu27  1  0.000000  0.784550  0.874130  1.0  0.9167
  Cu  Cu28  1  0.000000  0.713130  0.832550  1.0  0.9028
  Cu  Cu29  1  0.500000  0.715450  0.374130  1.0  0.9152
  Cu  Cu30  1  0.500000  0.786870  0.332550  1.0  0.9038
  Cu  Cu31  1  0.000000  0.215450  0.874130  1.0  0.9152
  Cu  Cu32  1  0.000000  0.286870  0.832550  1.0  0.9038
  Cu  Cu33  1  0.715450  0.500000  0.625870  1.0  0.9167
  Cu  Cu34  1  0.786870  0.500000  0.667450  1.0  0.9052
  Cu  Cu35  1  0.215450  0.000000  0.125870  1.0  0.9167
  Cu  Cu36  1  0.286870  0.000000  0.167450  1.0  0.9052
  Cu  Cu37  1  0.284550  0.500000  0.625870  1.0  0.9157
  Cu  Cu38  1  0.213130  0.500000  0.667450  1.0  0.9038
  Cu  Cu39  1  0.784550  0.000000  0.125870  1.0  0.9157
  Cu  Cu40  1  0.713130  0.000000  0.167450  1.0  0.9038
  Cu  Cu41  1  0.500000  0.284550  0.625870  1.0  0.9164
  Cu  Cu42  1  0.500000  0.213130  0.667450  1.0  0.9031
  Cu  Cu43  1  0.000000  0.784550  0.125870  1.0  0.9164
  Cu  Cu44  1  0.000000  0.713130  0.167450  1.0  0.9031
  Cu  Cu45  1  0.500000  0.715450  0.625870  1.0  0.9156
  Cu  Cu46  1  0.500000  0.786870  0.667450  1.0  0.9048
  Cu  Cu47  1  0.000000  0.215450  0.125870  1.0  0.9156
  Cu  Cu48  1  0.000000  0.286870  0.167450  1.0  0.9048
  Cu  Cu49  1  0.250000  0.250000  0.250000  1.0  0.4019
  Cu  Cu50  1  0.750000  0.750000  0.250000  1.0  0.4019
  Cu  Cu51  1  0.750000  0.250000  0.250000  1.0  0.4019
  Cu  Cu52  1  0.250000  0.750000  0.250000  1.0  0.4019
  Cu  Cu53  1  0.750000  0.250000  0.750000  1.0  0.4019
  Cu  Cu54  1  0.250000  0.750000  0.750000  1.0  0.4019
  Cu  Cu55  1  0.250000  0.250000  0.750000  1.0  0.4019
  Cu  Cu56  1  0.750000  0.750000  0.750000  1.0  0.4019
  C  C57  1  0.204000  0.431700  0.380200  1.0  0.7079
  C  C58  1  0.203300  0.295500  0.460190  1.0  0.7136
  C  C59  1  0.293700  0.430800  0.326830  1.0  0.6787
  C  C60  1  0.303000  0.366900  0.284200  1.0  0.0766
  C  C61  1  0.201100  0.366400  0.421850  1.0  0.0088
  C  C62  1  0.129900  0.302900  0.423200  1.0  0.0149
  C  C63  1  0.178400  0.387800  0.396800  1.0  -0.0465
  C  C64  1  0.129400  0.368400  0.383800  1.0  -0.0253
  C  C65  1  0.176200  0.323000  0.434350  1.0  -0.0514
  C  C66  1  0.107400  0.325700  0.397300  1.0  0.1438
  C  C67  1  0.322000  0.386500  0.310760  1.0  -0.0453
  C  C68  1  0.704000  0.931700  0.880200  1.0  0.7079
  C  C69  1  0.703300  0.795500  0.960190  1.0  0.7136
  C  C70  1  0.793700  0.930800  0.826830  1.0  0.6787
  C  C71  1  0.803000  0.866900  0.784200  1.0  0.0766
  C  C72  1  0.701100  0.866400  0.921850  1.0  0.0088
  C  C73  1  0.629900  0.802900  0.923200  1.0  0.0149
  C  C74  1  0.678400  0.887800  0.896800  1.0  -0.0465
  C  C75  1  0.629400  0.868400  0.883800  1.0  -0.0253
  C  C76  1  0.676200  0.823000  0.934350  1.0  -0.0514
  C  C77  1  0.607400  0.825700  0.897300  1.0  0.1438
  C  C78  1  0.822000  0.886500  0.810760  1.0  -0.0453
  C  C79  1  0.796000  0.568300  0.380200  1.0  0.7077
  C  C80  1  0.796700  0.704500  0.460190  1.0  0.7135
  C  C81  1  0.706300  0.569200  0.326830  1.0  0.6784
  C  C82  1  0.697000  0.633100  0.284200  1.0  0.0737
  C  C83  1  0.798900  0.633600  0.421850  1.0  0.0093
  C  C84  1  0.870100  0.697100  0.423200  1.0  0.0172
  C  C85  1  0.821600  0.612200  0.396800  1.0  -0.0468
  C  C86  1  0.870600  0.631600  0.383800  1.0  -0.0265
  C  C87  1  0.823800  0.677000  0.434350  1.0  -0.052
  C  C88  1  0.892600  0.674300  0.397300  1.0  0.1437
  C  C89  1  0.678000  0.613500  0.310760  1.0  -0.0466
  C  C90  1  0.296000  0.068300  0.880200  1.0  0.7077
  C  C91  1  0.296700  0.204500  0.960190  1.0  0.7135
  C  C92  1  0.206300  0.069200  0.826830  1.0  0.6784
  C  C93  1  0.197000  0.133100  0.784200  1.0  0.0737
  C  C94  1  0.298900  0.133600  0.921850  1.0  0.0093
  C  C95  1  0.370100  0.197100  0.923200  1.0  0.0172
  C  C96  1  0.321600  0.112200  0.896800  1.0  -0.0468
  C  C97  1  0.370600  0.131600  0.883800  1.0  -0.0265
  C  C98  1  0.323800  0.177000  0.934350  1.0  -0.052
  C  C99  1  0.392600  0.174300  0.897300  1.0  0.1437
  C  C100  1  0.178000  0.113500  0.810760  1.0  -0.0466
  C  C101  1  0.568300  0.204000  0.380200  1.0  0.7058
  C  C102  1  0.704500  0.203300  0.460190  1.0  0.7132
  C  C103  1  0.569200  0.293700  0.326830  1.0  0.676
  C  C104  1  0.633100  0.303000  0.284200  1.0  0.0743
  C  C105  1  0.633600  0.201100  0.421850  1.0  0.0082
  C  C106  1  0.697100  0.129900  0.423200  1.0  0.018
  C  C107  1  0.612200  0.178400  0.396800  1.0  -0.047
  C  C108  1  0.631600  0.129400  0.383800  1.0  -0.027
  C  C109  1  0.677000  0.176200  0.434350  1.0  -0.0527
  C  C110  1  0.674300  0.107400  0.397300  1.0  0.1438
  C  C111  1  0.613500  0.322000  0.310760  1.0  -0.0454
  C  C112  1  0.068300  0.704000  0.880200  1.0  0.7058
  C  C113  1  0.204500  0.703300  0.960190  1.0  0.7132
  C  C114  1  0.069200  0.793700  0.826830  1.0  0.676
  C  C115  1  0.133100  0.803000  0.784200  1.0  0.0743
  C  C116  1  0.133600  0.701100  0.921850  1.0  0.0082
  C  C117  1  0.197100  0.629900  0.923200  1.0  0.018
  C  C118  1  0.112200  0.678400  0.896800  1.0  -0.047
  C  C119  1  0.131600  0.629400  0.883800  1.0  -0.027
  C  C120  1  0.177000  0.676200  0.934350  1.0  -0.0527
  C  C121  1  0.174300  0.607400  0.897300  1.0  0.1438
  C  C122  1  0.113500  0.822000  0.810760  1.0  -0.0454
  C  C123  1  0.431700  0.796000  0.380200  1.0  0.7053
  C  C124  1  0.295500  0.796700  0.460190  1.0  0.7132
  C  C125  1  0.430800  0.706300  0.326830  1.0  0.6771
  C  C126  1  0.366900  0.697000  0.284200  1.0  0.0741
  C  C127  1  0.366400  0.798900  0.421850  1.0  0.0079
  C  C128  1  0.302900  0.870100  0.423200  1.0  0.0189
  C  C129  1  0.387800  0.821600  0.396800  1.0  -0.0467
  C  C130  1  0.368400  0.870600  0.383800  1.0  -0.0259
  C  C131  1  0.323000  0.823800  0.434350  1.0  -0.0522
  C  C132  1  0.325700  0.892600  0.397300  1.0  0.1442
  C  C133  1  0.386500  0.678000  0.310760  1.0  -0.0454
  C  C134  1  0.931700  0.296000  0.880200  1.0  0.7053
  C  C135  1  0.795500  0.296700  0.960190  1.0  0.7132
  C  C136  1  0.930800  0.206300  0.826830  1.0  0.6771
  C  C137  1  0.866900  0.197000  0.784200  1.0  0.0741
  C  C138  1  0.866400  0.298900  0.921850  1.0  0.0079
  C  C139  1  0.802900  0.370100  0.923200  1.0  0.0189
  C  C140  1  0.887800  0.321600  0.896800  1.0  -0.0467
  C  C141  1  0.868400  0.370600  0.883800  1.0  -0.0259
  C  C142  1  0.823000  0.323800  0.934350  1.0  -0.0522
  C  C143  1  0.825700  0.392600  0.897300  1.0  0.1442
  C  C144  1  0.886500  0.178000  0.810760  1.0  -0.0454
  C  C145  1  0.796000  0.431700  0.619800  1.0  0.7085
  C  C146  1  0.796700  0.295500  0.539810  1.0  0.7129
  C  C147  1  0.706300  0.430800  0.673170  1.0  0.6785
  C  C148  1  0.697000  0.366900  0.715800  1.0  0.0737
  C  C149  1  0.798900  0.366400  0.578150  1.0  0.0095
  C  C150  1  0.870100  0.302900  0.576800  1.0  0.0154
  C  C151  1  0.821600  0.387800  0.603200  1.0  -0.0463
  C  C152  1  0.870600  0.368400  0.616200  1.0  -0.0262
  C  C153  1  0.823800  0.323000  0.565650  1.0  -0.0519
  C  C154  1  0.892600  0.325700  0.602700  1.0  0.1427
  C  C155  1  0.678000  0.386500  0.689240  1.0  -0.0459
  C  C156  1  0.296000  0.931700  0.119800  1.0  0.7085
  C  C157  1  0.296700  0.795500  0.039810  1.0  0.7129
  C  C158  1  0.206300  0.930800  0.173170  1.0  0.6785
  C  C159  1  0.197000  0.866900  0.215800  1.0  0.0737
  C  C160  1  0.298900  0.866400  0.078150  1.0  0.0095
  C  C161  1  0.370100  0.802900  0.076800  1.0  0.0154
  C  C162  1  0.321600  0.887800  0.103200  1.0  -0.0463
  C  C163  1  0.370600  0.868400  0.116200  1.0  -0.0262
  C  C164  1  0.323800  0.823000  0.065650  1.0  -0.0519
  C  C165  1  0.392600  0.825700  0.102700  1.0  0.1427
  C  C166  1  0.178000  0.886500  0.189240  1.0  -0.0459
  C  C167  1  0.204000  0.568300  0.619800  1.0  0.7078
  C  C168  1  0.203300  0.704500  0.539810  1.0  0.7133
  C  C169  1  0.293700  0.569200  0.673170  1.0  0.6782
  C  C170  1  0.303000  0.633100  0.715800  1.0  0.0754
  C  C171  1  0.201100  0.633600  0.578150  1.0  0.0082
  C  C172  1  0.129900  0.697100  0.576800  1.0  0.0165
  C  C173  1  0.178400  0.612200  0.603200  1.0  -0.0463
  C  C174  1  0.129400  0.631600  0.616200  1.0  -0.0262
  C  C175  1  0.176200  0.677000  0.565650  1.0  -0.0516
  C  C176  1  0.107400  0.674300  0.602700  1.0  0.1444
  C  C177  1  0.322000  0.613500  0.689240  1.0  -0.046
  C  C178  1  0.704000  0.068300  0.119800  1.0  0.7078
  C  C179  1  0.703300  0.204500  0.039810  1.0  0.7133
  C  C180  1  0.793700  0.069200  0.173170  1.0  0.6782
  C  C181  1  0.803000  0.133100  0.215800  1.0  0.0754
  C  C182  1  0.701100  0.133600  0.078150  1.0  0.0082
  C  C183  1  0.629900  0.197100  0.076800  1.0  0.0165
  C  C184  1  0.678400  0.112200  0.103200  1.0  -0.0463
  C  C185  1  0.629400  0.131600  0.116200  1.0  -0.0262
  C  C186  1  0.676200  0.177000  0.065650  1.0  -0.0516
  C  C187  1  0.607400  0.174300  0.102700  1.0  0.1444
  C  C188  1  0.822000  0.113500  0.189240  1.0  -0.046
  C  C189  1  0.431700  0.204000  0.619800  1.0  0.7061
  C  C190  1  0.295500  0.203300  0.539810  1.0  0.7128
  C  C191  1  0.430800  0.293700  0.673170  1.0  0.6766
  C  C192  1  0.366900  0.303000  0.715800  1.0  0.0738
  C  C193  1  0.366400  0.201100  0.578150  1.0  0.008
  C  C194  1  0.302900  0.129900  0.576800  1.0  0.0164
  C  C195  1  0.387800  0.178400  0.603200  1.0  -0.0466
  C  C196  1  0.368400  0.129400  0.616200  1.0  -0.0273
  C  C197  1  0.323000  0.176200  0.565650  1.0  -0.0524
  C  C198  1  0.325700  0.107400  0.602700  1.0  0.143
  C  C199  1  0.386500  0.322000  0.689240  1.0  -0.0454
  C  C200  1  0.931700  0.704000  0.119800  1.0  0.7061
  C  C201  1  0.795500  0.703300  0.039810  1.0  0.7128
  C  C202  1  0.930800  0.793700  0.173170  1.0  0.6766
  C  C203  1  0.866900  0.803000  0.215800  1.0  0.0738
  C  C204  1  0.866400  0.701100  0.078150  1.0  0.008
  C  C205  1  0.802900  0.629900  0.076800  1.0  0.0164
  C  C206  1  0.887800  0.678400  0.103200  1.0  -0.0466
  C  C207  1  0.868400  0.629400  0.116200  1.0  -0.0273
  C  C208  1  0.823000  0.676200  0.065650  1.0  -0.0524
  C  C209  1  0.825700  0.607400  0.102700  1.0  0.143
  C  C210  1  0.886500  0.822000  0.189240  1.0  -0.0454
  C  C211  1  0.568300  0.796000  0.619800  1.0  0.7058
  C  C212  1  0.704500  0.796700  0.539810  1.0  0.7131
  C  C213  1  0.569200  0.706300  0.673170  1.0  0.6754
  C  C214  1  0.633100  0.697000  0.715800  1.0  0.0747
  C  C215  1  0.633600  0.798900  0.578150  1.0  0.0086
  C  C216  1  0.697100  0.870100  0.576800  1.0  0.0183
  C  C217  1  0.612200  0.821600  0.603200  1.0  -0.0466
  C  C218  1  0.631600  0.870600  0.616200  1.0  -0.0259
  C  C219  1  0.677000  0.823800  0.565650  1.0  -0.0524
  C  C220  1  0.674300  0.892600  0.602700  1.0  0.1445
  C  C221  1  0.613500  0.678000  0.689240  1.0  -0.0454
  C  C222  1  0.068300  0.296000  0.119800  1.0  0.7058
  C  C223  1  0.204500  0.296700  0.039810  1.0  0.7131
  C  C224  1  0.069200  0.206300  0.173170  1.0  0.6754
  C  C225  1  0.133100  0.197000  0.215800  1.0  0.0747
  C  C226  1  0.133600  0.298900  0.078150  1.0  0.0086
  C  C227  1  0.197100  0.370100  0.076800  1.0  0.0183
  C  C228  1  0.112200  0.321600  0.103200  1.0  -0.0466
  C  C229  1  0.131600  0.370600  0.116200  1.0  -0.0259
  C  C230  1  0.177000  0.323800  0.065650  1.0  -0.0524
  C  C231  1  0.174300  0.392600  0.102700  1.0  0.1445
  C  C232  1  0.113500  0.178000  0.189240  1.0  -0.0454
  C  C233  1  0.796000  0.568300  0.619800  1.0  0.7082
  C  C234  1  0.796700  0.704500  0.539810  1.0  0.713
  C  C235  1  0.706300  0.569200  0.673170  1.0  0.6783
  C  C236  1  0.697000  0.633100  0.715800  1.0  0.0738
  C  C237  1  0.798900  0.633600  0.578150  1.0  0.0086
  C  C238  1  0.870100  0.697100  0.576800  1.0  0.0159
  C  C239  1  0.821600  0.612200  0.603200  1.0  -0.0464
  C  C240  1  0.870600  0.631600  0.616200  1.0  -0.0264
  C  C241  1  0.823800  0.677000  0.565650  1.0  -0.052
  C  C242  1  0.892600  0.674300  0.602700  1.0  0.1435
  C  C243  1  0.678000  0.613500  0.689240  1.0  -0.0465
  C  C244  1  0.296000  0.068300  0.119800  1.0  0.7082
  C  C245  1  0.296700  0.204500  0.039810  1.0  0.713
  C  C246  1  0.206300  0.069200  0.173170  1.0  0.6783
  C  C247  1  0.197000  0.133100  0.215800  1.0  0.0738
  C  C248  1  0.298900  0.133600  0.078150  1.0  0.0086
  C  C249  1  0.370100  0.197100  0.076800  1.0  0.0159
  C  C250  1  0.321600  0.112200  0.103200  1.0  -0.0464
  C  C251  1  0.370600  0.131600  0.116200  1.0  -0.0264
  C  C252  1  0.323800  0.177000  0.065650  1.0  -0.052
  C  C253  1  0.392600  0.174300  0.102700  1.0  0.1435
  C  C254  1  0.178000  0.113500  0.189240  1.0  -0.0465
  C  C255  1  0.204000  0.431700  0.619800  1.0  0.7082
  C  C256  1  0.203300  0.295500  0.539810  1.0  0.7136
  C  C257  1  0.293700  0.430800  0.673170  1.0  0.6782
  C  C258  1  0.303000  0.366900  0.715800  1.0  0.076
  C  C259  1  0.201100  0.366400  0.578150  1.0  0.0089
  C  C260  1  0.129900  0.302900  0.576800  1.0  0.0151
  C  C261  1  0.178400  0.387800  0.603200  1.0  -0.0462
  C  C262  1  0.129400  0.368400  0.616200  1.0  -0.026
  C  C263  1  0.176200  0.323000  0.565650  1.0  -0.0515
  C  C264  1  0.107400  0.325700  0.602700  1.0  0.1434
  C  C265  1  0.322000  0.386500  0.689240  1.0  -0.0453
  C  C266  1  0.704000  0.931700  0.119800  1.0  0.7082
  C  C267  1  0.703300  0.795500  0.039810  1.0  0.7136
  C  C268  1  0.793700  0.930800  0.173170  1.0  0.6782
  C  C269  1  0.803000  0.866900  0.215800  1.0  0.076
  C  C270  1  0.701100  0.866400  0.078150  1.0  0.0089
  C  C271  1  0.629900  0.802900  0.076800  1.0  0.0151
  C  C272  1  0.678400  0.887800  0.103200  1.0  -0.0462
  C  C273  1  0.629400  0.868400  0.116200  1.0  -0.026
  C  C274  1  0.676200  0.823000  0.065650  1.0  -0.0515
  C  C275  1  0.607400  0.825700  0.102700  1.0  0.1434
  C  C276  1  0.822000  0.886500  0.189240  1.0  -0.0453
  C  C277  1  0.431700  0.796000  0.619800  1.0  0.7056
  C  C278  1  0.295500  0.796700  0.539810  1.0  0.7127
  C  C279  1  0.430800  0.706300  0.673170  1.0  0.6769
  C  C280  1  0.366900  0.697000  0.715800  1.0  0.0744
  C  C281  1  0.366400  0.798900  0.578150  1.0  0.0078
  C  C282  1  0.302900  0.870100  0.576800  1.0  0.0183
  C  C283  1  0.387800  0.821600  0.603200  1.0  -0.0465
  C  C284  1  0.368400  0.870600  0.616200  1.0  -0.0254
  C  C285  1  0.323000  0.823800  0.565650  1.0  -0.0522
  C  C286  1  0.325700  0.892600  0.602700  1.0  0.1438
  C  C287  1  0.386500  0.678000  0.689240  1.0  -0.0454
  C  C288  1  0.931700  0.296000  0.119800  1.0  0.7056
  C  C289  1  0.795500  0.296700  0.039810  1.0  0.7127
  C  C290  1  0.930800  0.206300  0.173170  1.0  0.6769
  C  C291  1  0.866900  0.197000  0.215800  1.0  0.0744
  C  C292  1  0.866400  0.298900  0.078150  1.0  0.0078
  C  C293  1  0.802900  0.370100  0.076800  1.0  0.0183
  C  C294  1  0.887800  0.321600  0.103200  1.0  -0.0465
  C  C295  1  0.868400  0.370600  0.116200  1.0  -0.0254
  C  C296  1  0.823000  0.323800  0.065650  1.0  -0.0522
  C  C297  1  0.825700  0.392600  0.102700  1.0  0.1438
  C  C298  1  0.886500  0.178000  0.189240  1.0  -0.0454
  C  C299  1  0.568300  0.204000  0.619800  1.0  0.7062
  C  C300  1  0.704500  0.203300  0.539810  1.0  0.7133
  C  C301  1  0.569200  0.293700  0.673170  1.0  0.6754
  C  C302  1  0.633100  0.303000  0.715800  1.0  0.0735
  C  C303  1  0.633600  0.201100  0.578150  1.0  0.0087
  C  C304  1  0.697100  0.129900  0.576800  1.0  0.0169
  C  C305  1  0.612200  0.178400  0.603200  1.0  -0.0468
  C  C306  1  0.631600  0.129400  0.616200  1.0  -0.0276
  C  C307  1  0.677000  0.176200  0.565650  1.0  -0.0527
  C  C308  1  0.674300  0.107400  0.602700  1.0  0.1438
  C  C309  1  0.613500  0.322000  0.689240  1.0  -0.0455
  C  C310  1  0.068300  0.704000  0.119800  1.0  0.7062
  C  C311  1  0.204500  0.703300  0.039810  1.0  0.7133
  C  C312  1  0.069200  0.793700  0.173170  1.0  0.6754
  C  C313  1  0.133100  0.803000  0.215800  1.0  0.0735
  C  C314  1  0.133600  0.701100  0.078150  1.0  0.0087
  C  C315  1  0.197100  0.629900  0.076800  1.0  0.0169
  C  C316  1  0.112200  0.678400  0.103200  1.0  -0.0468
  C  C317  1  0.131600  0.629400  0.116200  1.0  -0.0276
  C  C318  1  0.177000  0.676200  0.065650  1.0  -0.0527
  C  C319  1  0.174300  0.607400  0.102700  1.0  0.1438
  C  C320  1  0.113500  0.822000  0.189240  1.0  -0.0455
  C  C321  1  0.204000  0.568300  0.380200  1.0  0.7074
  C  C322  1  0.203300  0.704500  0.460190  1.0  0.7134
  C  C323  1  0.293700  0.569200  0.326830  1.0  0.6787
  C  C324  1  0.303000  0.633100  0.284200  1.0  0.0759
  C  C325  1  0.201100  0.633600  0.421850  1.0  0.0085
  C  C326  1  0.129900  0.697100  0.423200  1.0  0.0166
  C  C327  1  0.178400  0.612200  0.396800  1.0  -0.0468
  C  C328  1  0.129400  0.631600  0.383800  1.0  -0.0264
  C  C329  1  0.176200  0.677000  0.434350  1.0  -0.0516
  C  C330  1  0.107400  0.674300  0.397300  1.0  0.1449
  C  C331  1  0.322000  0.613500  0.310760  1.0  -0.0461
  C  C332  1  0.704000  0.068300  0.880200  1.0  0.7074
  C  C333  1  0.703300  0.204500  0.960190  1.0  0.7134
  C  C334  1  0.793700  0.069200  0.826830  1.0  0.6787
  C  C335  1  0.803000  0.133100  0.784200  1.0  0.0759
  C  C336  1  0.701100  0.133600  0.921850  1.0  0.0085
  C  C337  1  0.629900  0.197100  0.923200  1.0  0.0166
  C  C338  1  0.678400  0.112200  0.896800  1.0  -0.0468
  C  C339  1  0.629400  0.131600  0.883800  1.0  -0.0264
  C  C340  1  0.676200  0.177000  0.934350  1.0  -0.0516
  C  C341  1  0.607400  0.174300  0.897300  1.0  0.1449
  C  C342  1  0.822000  0.113500  0.810760  1.0  -0.0461
  C  C343  1  0.796000  0.431700  0.380200  1.0  0.7081
  C  C344  1  0.796700  0.295500  0.460190  1.0  0.7134
  C  C345  1  0.706300  0.430800  0.326830  1.0  0.6786
  C  C346  1  0.697000  0.366900  0.284200  1.0  0.0737
  C  C347  1  0.798900  0.366400  0.421850  1.0  0.0099
  C  C348  1  0.870100  0.302900  0.423200  1.0  0.016
  C  C349  1  0.821600  0.387800  0.396800  1.0  -0.0464
  C  C350  1  0.870600  0.368400  0.383800  1.0  -0.026
  C  C351  1  0.823800  0.323000  0.434350  1.0  -0.0519
  C  C352  1  0.892600  0.325700  0.397300  1.0  0.1428
  C  C353  1  0.678000  0.386500  0.310760  1.0  -0.0458
  C  C354  1  0.296000  0.931700  0.880200  1.0  0.7081
  C  C355  1  0.296700  0.795500  0.960190  1.0  0.7134
  C  C356  1  0.206300  0.930800  0.826830  1.0  0.6786
  C  C357  1  0.197000  0.866900  0.784200  1.0  0.0737
  C  C358  1  0.298900  0.866400  0.921850  1.0  0.0099
  C  C359  1  0.370100  0.802900  0.923200  1.0  0.016
  C  C360  1  0.321600  0.887800  0.896800  1.0  -0.0464
  C  C361  1  0.370600  0.868400  0.883800  1.0  -0.026
  C  C362  1  0.323800  0.823000  0.934350  1.0  -0.0519
  C  C363  1  0.392600  0.825700  0.897300  1.0  0.1428
  C  C364  1  0.178000  0.886500  0.810760  1.0  -0.0458
  C  C365  1  0.568300  0.796000  0.380200  1.0  0.7053
  C  C366  1  0.704500  0.796700  0.460190  1.0  0.7131
  C  C367  1  0.569200  0.706300  0.326830  1.0  0.6759
  C  C368  1  0.633100  0.697000  0.284200  1.0  0.0748
  C  C369  1  0.633600  0.798900  0.421850  1.0  0.0077
  C  C370  1  0.697100  0.870100  0.423200  1.0  0.0197
  C  C371  1  0.612200  0.821600  0.396800  1.0  -0.0467
  C  C372  1  0.631600  0.870600  0.383800  1.0  -0.0257
  C  C373  1  0.677000  0.823800  0.434350  1.0  -0.0523
  C  C374  1  0.674300  0.892600  0.397300  1.0  0.1449
  C  C375  1  0.613500  0.678000  0.310760  1.0  -0.0453
  C  C376  1  0.068300  0.296000  0.880200  1.0  0.7053
  C  C377  1  0.204500  0.296700  0.960190  1.0  0.7131
  C  C378  1  0.069200  0.206300  0.826830  1.0  0.6759
  C  C379  1  0.133100  0.197000  0.784200  1.0  0.0748
  C  C380  1  0.133600  0.298900  0.921850  1.0  0.0077
  C  C381  1  0.197100  0.370100  0.923200  1.0  0.0197
  C  C382  1  0.112200  0.321600  0.896800  1.0  -0.0467
  C  C383  1  0.131600  0.370600  0.883800  1.0  -0.0257
  C  C384  1  0.177000  0.323800  0.934350  1.0  -0.0523
  C  C385  1  0.174300  0.392600  0.897300  1.0  0.1449
  C  C386  1  0.113500  0.178000  0.810760  1.0  -0.0453
  C  C387  1  0.431700  0.204000  0.380200  1.0  0.7059
  C  C388  1  0.295500  0.203300  0.460190  1.0  0.7133
  C  C389  1  0.430800  0.293700  0.326830  1.0  0.6768
  C  C390  1  0.366900  0.303000  0.284200  1.0  0.0743
  C  C391  1  0.366400  0.201100  0.421850  1.0  0.0078
  C  C392  1  0.302900  0.129900  0.423200  1.0  0.0165
  C  C393  1  0.387800  0.178400  0.396800  1.0  -0.0468
  C  C394  1  0.368400  0.129400  0.383800  1.0  -0.0272
  C  C395  1  0.323000  0.176200  0.434350  1.0  -0.0524
  C  C396  1  0.325700  0.107400  0.397300  1.0  0.1429
  C  C397  1  0.386500  0.322000  0.310760  1.0  -0.0452
  C  C398  1  0.931700  0.704000  0.880200  1.0  0.7059
  C  C399  1  0.795500  0.703300  0.960190  1.0  0.7133
  C  C400  1  0.930800  0.793700  0.826830  1.0  0.6768
  C  C401  1  0.866900  0.803000  0.784200  1.0  0.0743
  C  C402  1  0.866400  0.701100  0.921850  1.0  0.0078
  C  C403  1  0.802900  0.629900  0.923200  1.0  0.0165
  C  C404  1  0.887800  0.678400  0.896800  1.0  -0.0468
  C  C405  1  0.868400  0.629400  0.883800  1.0  -0.0272
  C  C406  1  0.823000  0.676200  0.934350  1.0  -0.0524
  C  C407  1  0.825700  0.607400  0.897300  1.0  0.1429
  C  C408  1  0.886500  0.822000  0.810760  1.0  -0.0452
  C  C409  1  0.364300  0.364300  0.325000  1.0  -0.002
  C  C410  1  0.326500  0.326500  0.270100  1.0  0.101
  C  C411  1  0.864300  0.864300  0.825000  1.0  -0.002
  C  C412  1  0.826500  0.826500  0.770100  1.0  0.101
  C  C413  1  0.635700  0.635700  0.325000  1.0  -0.0031
  C  C414  1  0.673500  0.673500  0.270100  1.0  0.102
  C  C415  1  0.135700  0.135700  0.825000  1.0  -0.0031
  C  C416  1  0.173500  0.173500  0.770100  1.0  0.102
  C  C417  1  0.635700  0.364300  0.325000  1.0  -0.0023
  C  C418  1  0.673500  0.326500  0.270100  1.0  0.1014
  C  C419  1  0.135700  0.864300  0.825000  1.0  -0.0023
  C  C420  1  0.173500  0.826500  0.770100  1.0  0.1014
  C  C421  1  0.364300  0.635700  0.325000  1.0  -0.0031
  C  C422  1  0.326500  0.673500  0.270100  1.0  0.1017
  C  C423  1  0.864300  0.135700  0.825000  1.0  -0.0031
  C  C424  1  0.826500  0.173500  0.770100  1.0  0.1017
  C  C425  1  0.635700  0.364300  0.675000  1.0  -0.0016
  C  C426  1  0.673500  0.326500  0.729900  1.0  0.0993
  C  C427  1  0.135700  0.864300  0.175000  1.0  -0.0016
  C  C428  1  0.173500  0.826500  0.229900  1.0  0.0993
  C  C429  1  0.364300  0.635700  0.675000  1.0  -0.0038
  C  C430  1  0.326500  0.673500  0.729900  1.0  0.0995
  C  C431  1  0.864300  0.135700  0.175000  1.0  -0.0038
  C  C432  1  0.826500  0.173500  0.229900  1.0  0.0995
  C  C433  1  0.364300  0.364300  0.675000  1.0  -0.0018
  C  C434  1  0.326500  0.326500  0.729900  1.0  0.0993
  C  C435  1  0.864300  0.864300  0.175000  1.0  -0.0018
  C  C436  1  0.826500  0.826500  0.229900  1.0  0.0993
  C  C437  1  0.635700  0.635700  0.675000  1.0  -0.0032
  C  C438  1  0.673500  0.673500  0.729900  1.0  0.0995
  C  C439  1  0.135700  0.135700  0.175000  1.0  -0.0032
  C  C440  1  0.173500  0.173500  0.229900  1.0  0.0995
  N  N441  1  0.060600  0.305100  0.382300  1.0  -0.262
  N  N442  1  0.560600  0.805100  0.882300  1.0  -0.262
  N  N443  1  0.939400  0.694900  0.382300  1.0  -0.2611
  N  N444  1  0.439400  0.194900  0.882300  1.0  -0.2611
  N  N445  1  0.694900  0.060600  0.382300  1.0  -0.2638
  N  N446  1  0.194900  0.560600  0.882300  1.0  -0.2638
  N  N447  1  0.305100  0.939400  0.382300  1.0  -0.2617
  N  N448  1  0.805100  0.439400  0.882300  1.0  -0.2617
  N  N449  1  0.939400  0.305100  0.617700  1.0  -0.2637
  N  N450  1  0.439400  0.805100  0.117700  1.0  -0.2637
  N  N451  1  0.060600  0.694900  0.617700  1.0  -0.2596
  N  N452  1  0.560600  0.194900  0.117700  1.0  -0.2596
  N  N453  1  0.305100  0.060600  0.617700  1.0  -0.2639
  N  N454  1  0.805100  0.560600  0.117700  1.0  -0.2639
  N  N455  1  0.694900  0.939400  0.617700  1.0  -0.2622
  N  N456  1  0.194900  0.439400  0.117700  1.0  -0.2622
  N  N457  1  0.939400  0.694900  0.617700  1.0  -0.261
  N  N458  1  0.439400  0.194900  0.117700  1.0  -0.261
  N  N459  1  0.060600  0.305100  0.617700  1.0  -0.2622
  N  N460  1  0.560600  0.805100  0.117700  1.0  -0.2622
  N  N461  1  0.305100  0.939400  0.617700  1.0  -0.2618
  N  N462  1  0.805100  0.439400  0.117700  1.0  -0.2618
  N  N463  1  0.694900  0.060600  0.617700  1.0  -0.2643
  N  N464  1  0.194900  0.560600  0.117700  1.0  -0.2643
  N  N465  1  0.060600  0.694900  0.382300  1.0  -0.2594
  N  N466  1  0.560600  0.194900  0.882300  1.0  -0.2594
  N  N467  1  0.939400  0.305100  0.382300  1.0  -0.2635
  N  N468  1  0.439400  0.805100  0.882300  1.0  -0.2635
  N  N469  1  0.694900  0.939400  0.382300  1.0  -0.2623
  N  N470  1  0.194900  0.439400  0.882300  1.0  -0.2623
  N  N471  1  0.305100  0.060600  0.382300  1.0  -0.2632
  N  N472  1  0.805100  0.560600  0.882300  1.0  -0.2632
  N  N473  1  0.303300  0.303300  0.243600  1.0  -0.4086
  N  N474  1  0.803300  0.803300  0.743600  1.0  -0.4086
  N  N475  1  0.696700  0.696700  0.243600  1.0  -0.4079
  N  N476  1  0.196700  0.196700  0.743600  1.0  -0.4079
  N  N477  1  0.696700  0.303300  0.243600  1.0  -0.4088
  N  N478  1  0.196700  0.803300  0.743600  1.0  -0.4088
  N  N479  1  0.303300  0.696700  0.243600  1.0  -0.4079
  N  N480  1  0.803300  0.196700  0.743600  1.0  -0.4079
  N  N481  1  0.696700  0.303300  0.756400  1.0  -0.4103
  N  N482  1  0.196700  0.803300  0.256400  1.0  -0.4103
  N  N483  1  0.303300  0.696700  0.756400  1.0  -0.4104
  N  N484  1  0.803300  0.196700  0.256400  1.0  -0.4104
  N  N485  1  0.303300  0.303300  0.756400  1.0  -0.4105
  N  N486  1  0.803300  0.803300  0.256400  1.0  -0.4105
  N  N487  1  0.696700  0.696700  0.756400  1.0  -0.4101
  N  N488  1  0.196700  0.196700  0.256400  1.0  -0.4101
  O  O489  1  0.181800  0.255600  0.469360  1.0  -0.5329
  O  O490  1  0.180900  0.447640  0.357800  1.0  -0.5379
  O  O491  1  0.242500  0.315650  0.469830  1.0  -0.5282
  O  O492  1  0.255500  0.447120  0.313670  1.0  -0.54
  O  O493  1  0.316140  0.446360  0.350100  1.0  -0.5457
  O  O494  1  0.241800  0.447410  0.393030  1.0  -0.5464
  O  O495  1  0.681800  0.755600  0.969360  1.0  -0.5329
  O  O496  1  0.680900  0.947640  0.857800  1.0  -0.5379
  O  O497  1  0.742500  0.815650  0.969830  1.0  -0.5282
  O  O498  1  0.755500  0.947120  0.813670  1.0  -0.54
  O  O499  1  0.816140  0.946360  0.850100  1.0  -0.5457
  O  O500  1  0.741800  0.947410  0.893030  1.0  -0.5464
  O  O501  1  0.818200  0.744400  0.469360  1.0  -0.5348
  O  O502  1  0.819100  0.552360  0.357800  1.0  -0.5385
  O  O503  1  0.757500  0.684350  0.469830  1.0  -0.5276
  O  O504  1  0.744500  0.552880  0.313670  1.0  -0.5415
  O  O505  1  0.683860  0.553640  0.350100  1.0  -0.546
  O  O506  1  0.758200  0.552590  0.393030  1.0  -0.546
  O  O507  1  0.318200  0.244400  0.969360  1.0  -0.5348
  O  O508  1  0.319100  0.052360  0.857800  1.0  -0.5385
  O  O509  1  0.257500  0.184350  0.969830  1.0  -0.5276
  O  O510  1  0.244500  0.052880  0.813670  1.0  -0.5415
  O  O511  1  0.183860  0.053640  0.850100  1.0  -0.546
  O  O512  1  0.258200  0.052590  0.893030  1.0  -0.546
  O  O513  1  0.744400  0.181800  0.469360  1.0  -0.5343
  O  O514  1  0.552360  0.180900  0.357800  1.0  -0.5388
  O  O515  1  0.684350  0.242500  0.469830  1.0  -0.5276
  O  O516  1  0.552880  0.255500  0.313670  1.0  -0.5412
  O  O517  1  0.553640  0.316140  0.350100  1.0  -0.546
  O  O518  1  0.552590  0.241800  0.393030  1.0  -0.5481
  O  O519  1  0.244400  0.681800  0.969360  1.0  -0.5343
  O  O520  1  0.052360  0.680900  0.857800  1.0  -0.5388
  O  O521  1  0.184350  0.742500  0.969830  1.0  -0.5276
  O  O522  1  0.052880  0.755500  0.813670  1.0  -0.5412
  O  O523  1  0.053640  0.816140  0.850100  1.0  -0.546
  O  O524  1  0.052590  0.741800  0.893030  1.0  -0.5481
  O  O525  1  0.255600  0.818200  0.469360  1.0  -0.5351
  O  O526  1  0.447640  0.819100  0.357800  1.0  -0.5391
  O  O527  1  0.315650  0.757500  0.469830  1.0  -0.5272
  O  O528  1  0.447120  0.744500  0.313670  1.0  -0.5417
  O  O529  1  0.446360  0.683860  0.350100  1.0  -0.5465
  O  O530  1  0.447410  0.758200  0.393030  1.0  -0.5472
  O  O531  1  0.755600  0.318200  0.969360  1.0  -0.5351
  O  O532  1  0.947640  0.319100  0.857800  1.0  -0.5391
  O  O533  1  0.815650  0.257500  0.969830  1.0  -0.5272
  O  O534  1  0.947120  0.244500  0.813670  1.0  -0.5417
  O  O535  1  0.946360  0.183860  0.850100  1.0  -0.5465
  O  O536  1  0.947410  0.258200  0.893030  1.0  -0.5472
  O  O537  1  0.818200  0.255600  0.530640  1.0  -0.534
  O  O538  1  0.819100  0.447640  0.642200  1.0  -0.5384
  O  O539  1  0.757500  0.315650  0.530170  1.0  -0.5279
  O  O540  1  0.744500  0.447120  0.686330  1.0  -0.5394
  O  O541  1  0.683860  0.446360  0.649900  1.0  -0.5467
  O  O542  1  0.758200  0.447410  0.606970  1.0  -0.5456
  O  O543  1  0.318200  0.755600  0.030640  1.0  -0.534
  O  O544  1  0.319100  0.947640  0.142200  1.0  -0.5384
  O  O545  1  0.257500  0.815650  0.030170  1.0  -0.5279
  O  O546  1  0.244500  0.947120  0.186330  1.0  -0.5394
  O  O547  1  0.183860  0.946360  0.149900  1.0  -0.5467
  O  O548  1  0.258200  0.947410  0.106970  1.0  -0.5456
  O  O549  1  0.181800  0.744400  0.530640  1.0  -0.5337
  O  O550  1  0.180900  0.552360  0.642200  1.0  -0.5379
  O  O551  1  0.242500  0.684350  0.530170  1.0  -0.5284
  O  O552  1  0.255500  0.552880  0.686330  1.0  -0.5402
  O  O553  1  0.316140  0.553640  0.649900  1.0  -0.5457
  O  O554  1  0.241800  0.552590  0.606970  1.0  -0.5473
  O  O555  1  0.681800  0.244400  0.030640  1.0  -0.5343
  O  O556  1  0.680900  0.052360  0.142200  1.0  -0.5379
  O  O557  1  0.742500  0.184350  0.030170  1.0  -0.5284
  O  O558  1  0.755500  0.052880  0.186330  1.0  -0.5402
  O  O559  1  0.816140  0.053640  0.149900  1.0  -0.5457
  O  O560  1  0.741800  0.052590  0.106970  1.0  -0.5473
  O  O561  1  0.255600  0.181800  0.530640  1.0  -0.5337
  O  O562  1  0.447640  0.180900  0.642200  1.0  -0.5389
  O  O563  1  0.315650  0.242500  0.530170  1.0  -0.528
  O  O564  1  0.447120  0.255500  0.686330  1.0  -0.5402
  O  O565  1  0.446360  0.316140  0.649900  1.0  -0.5472
  O  O566  1  0.447410  0.241800  0.606970  1.0  -0.5477
  O  O567  1  0.755600  0.681800  0.030640  1.0  -0.5337
  O  O568  1  0.947640  0.680900  0.142200  1.0  -0.5389
  O  O569  1  0.815650  0.742500  0.030170  1.0  -0.528
  O  O570  1  0.947120  0.755500  0.186330  1.0  -0.5402
  O  O571  1  0.946360  0.816140  0.149900  1.0  -0.5472
  O  O572  1  0.947410  0.741800  0.106970  1.0  -0.5477
  O  O573  1  0.744400  0.818200  0.530640  1.0  -0.535
  O  O574  1  0.552360  0.819100  0.642200  1.0  -0.5379
  O  O575  1  0.684350  0.757500  0.530170  1.0  -0.5268
  O  O576  1  0.552880  0.744500  0.686330  1.0  -0.5399
  O  O577  1  0.553640  0.683860  0.649900  1.0  -0.5458
  O  O578  1  0.552590  0.758200  0.606970  1.0  -0.5481
  O  O579  1  0.244400  0.318200  0.030640  1.0  -0.535
  O  O580  1  0.052360  0.319100  0.142200  1.0  -0.5379
  O  O581  1  0.184350  0.257500  0.030170  1.0  -0.5268
  O  O582  1  0.052880  0.244500  0.186330  1.0  -0.5399
  O  O583  1  0.053640  0.183860  0.149900  1.0  -0.5458
  O  O584  1  0.052590  0.258200  0.106970  1.0  -0.5481
  O  O585  1  0.818200  0.744400  0.530640  1.0  -0.5361
  O  O586  1  0.819100  0.552360  0.642200  1.0  -0.5382
  O  O587  1  0.757500  0.684350  0.530170  1.0  -0.5274
  O  O588  1  0.744500  0.552880  0.686330  1.0  -0.54
  O  O589  1  0.683860  0.553640  0.649900  1.0  -0.5464
  O  O590  1  0.758200  0.552590  0.606970  1.0  -0.5463
  O  O591  1  0.318200  0.244400  0.030640  1.0  -0.5361
  O  O592  1  0.319100  0.052360  0.142200  1.0  -0.5382
  O  O593  1  0.257500  0.184350  0.030170  1.0  -0.5274
  O  O594  1  0.244500  0.052880  0.186330  1.0  -0.54
  O  O595  1  0.183860  0.053640  0.149900  1.0  -0.5464
  O  O596  1  0.258200  0.052590  0.106970  1.0  -0.5463
  O  O597  1  0.181800  0.255600  0.530640  1.0  -0.534
  O  O598  1  0.180900  0.447640  0.642200  1.0  -0.5375
  O  O599  1  0.242500  0.315650  0.530170  1.0  -0.5286
  O  O600  1  0.255500  0.447120  0.686330  1.0  -0.5394
  O  O601  1  0.316140  0.446360  0.649900  1.0  -0.5456
  O  O602  1  0.241800  0.447410  0.606970  1.0  -0.5465
  O  O603  1  0.681800  0.755600  0.030640  1.0  -0.534
  O  O604  1  0.680900  0.947640  0.142200  1.0  -0.5375
  O  O605  1  0.742500  0.815650  0.030170  1.0  -0.5286
  O  O606  1  0.755500  0.947120  0.186330  1.0  -0.5394
  O  O607  1  0.816140  0.946360  0.149900  1.0  -0.5456
  O  O608  1  0.741800  0.947410  0.106970  1.0  -0.5465
  O  O609  1  0.255600  0.818200  0.530640  1.0  -0.5362
  O  O610  1  0.447640  0.819100  0.642200  1.0  -0.5379
  O  O611  1  0.315650  0.757500  0.530170  1.0  -0.5273
  O  O612  1  0.447120  0.744500  0.686330  1.0  -0.5398
  O  O613  1  0.446360  0.683860  0.649900  1.0  -0.5459
  O  O614  1  0.447410  0.758200  0.606970  1.0  -0.547
  O  O615  1  0.755600  0.318200  0.030640  1.0  -0.5362
  O  O616  1  0.947640  0.319100  0.142200  1.0  -0.5379
  O  O617  1  0.815650  0.257500  0.030170  1.0  -0.5273
  O  O618  1  0.947120  0.244500  0.186330  1.0  -0.5398
  O  O619  1  0.946360  0.183860  0.149900  1.0  -0.5459
  O  O620  1  0.947410  0.258200  0.106970  1.0  -0.547
  O  O621  1  0.744400  0.181800  0.530640  1.0  -0.5359
  O  O622  1  0.552360  0.180900  0.642200  1.0  -0.5385
  O  O623  1  0.684350  0.242500  0.530170  1.0  -0.5283
  O  O624  1  0.552880  0.255500  0.686330  1.0  -0.5401
  O  O625  1  0.553640  0.316140  0.649900  1.0  -0.5473
  O  O626  1  0.552590  0.241800  0.606970  1.0  -0.549
  O  O627  1  0.244400  0.681800  0.030640  1.0  -0.5344
  O  O628  1  0.052360  0.680900  0.142200  1.0  -0.5385
  O  O629  1  0.184350  0.742500  0.030170  1.0  -0.5277
  O  O630  1  0.052880  0.755500  0.186330  1.0  -0.5401
  O  O631  1  0.053640  0.816140  0.149900  1.0  -0.5473
  O  O632  1  0.052590  0.741800  0.106970  1.0  -0.549
  O  O633  1  0.181800  0.744400  0.469360  1.0  -0.5361
  O  O634  1  0.180900  0.552360  0.357800  1.0  -0.5381
  O  O635  1  0.242500  0.684350  0.469830  1.0  -0.5284
  O  O636  1  0.255500  0.552880  0.313670  1.0  -0.5408
  O  O637  1  0.316140  0.553640  0.350100  1.0  -0.5457
  O  O638  1  0.241800  0.552590  0.393030  1.0  -0.5463
  O  O639  1  0.681800  0.244400  0.969360  1.0  -0.5361
  O  O640  1  0.680900  0.052360  0.857800  1.0  -0.5381
  O  O641  1  0.742500  0.184350  0.969830  1.0  -0.5284
  O  O642  1  0.755500  0.052880  0.813670  1.0  -0.5408
  O  O643  1  0.816140  0.053640  0.850100  1.0  -0.5457
  O  O644  1  0.741800  0.052590  0.893030  1.0  -0.5463
  O  O645  1  0.818200  0.255600  0.469360  1.0  -0.5362
  O  O646  1  0.819100  0.447640  0.357800  1.0  -0.538
  O  O647  1  0.757500  0.315650  0.469830  1.0  -0.5274
  O  O648  1  0.744500  0.447120  0.313670  1.0  -0.5408
  O  O649  1  0.683860  0.446360  0.350100  1.0  -0.5463
  O  O650  1  0.758200  0.447410  0.393030  1.0  -0.5455
  O  O651  1  0.318200  0.755600  0.969360  1.0  -0.5362
  O  O652  1  0.319100  0.947640  0.857800  1.0  -0.538
  O  O653  1  0.257500  0.815650  0.969830  1.0  -0.5274
  O  O654  1  0.244500  0.947120  0.813670  1.0  -0.5408
  O  O655  1  0.183860  0.946360  0.850100  1.0  -0.5463
  O  O656  1  0.258200  0.947410  0.893030  1.0  -0.5455
  O  O657  1  0.744400  0.818200  0.469360  1.0  -0.5373
  O  O658  1  0.552360  0.819100  0.357800  1.0  -0.5386
  O  O659  1  0.684350  0.757500  0.469830  1.0  -0.5266
  O  O660  1  0.552880  0.744500  0.313670  1.0  -0.5413
  O  O661  1  0.553640  0.683860  0.350100  1.0  -0.5466
  O  O662  1  0.552590  0.758200  0.393030  1.0  -0.5481
  O  O663  1  0.244400  0.318200  0.969360  1.0  -0.5373
  O  O664  1  0.052360  0.319100  0.857800  1.0  -0.5386
  O  O665  1  0.184350  0.257500  0.969830  1.0  -0.5266
  O  O666  1  0.052880  0.244500  0.813670  1.0  -0.5413
  O  O667  1  0.053640  0.183860  0.850100  1.0  -0.5466
  O  O668  1  0.052590  0.258200  0.893030  1.0  -0.5481
  O  O669  1  0.255600  0.181800  0.469360  1.0  -0.5361
  O  O670  1  0.447640  0.180900  0.357800  1.0  -0.5386
  O  O671  1  0.315650  0.242500  0.469830  1.0  -0.5275
  O  O672  1  0.447120  0.255500  0.313670  1.0  -0.5414
  O  O673  1  0.446360  0.316140  0.350100  1.0  -0.5456
  O  O674  1  0.447410  0.241800  0.393030  1.0  -0.5469
  O  O675  1  0.755600  0.681800  0.969360  1.0  -0.5361
  O  O676  1  0.947640  0.680900  0.857800  1.0  -0.5386
  O  O677  1  0.815650  0.742500  0.969830  1.0  -0.5275
  O  O678  1  0.947120  0.755500  0.813670  1.0  -0.5414
  O  O679  1  0.946360  0.816140  0.850100  1.0  -0.5456
  O  O680  1  0.947410  0.741800  0.893030  1.0  -0.5469
