# generated using pymatgen
data_Cu4C7N5
_symmetry_space_group_name_H-M   'P 1'
_cell_length_a   14.44400000
_cell_length_b   12.52540000
_cell_length_c   13.30740000
_cell_angle_alpha   90.00000000
_cell_angle_beta   90.00000000
_cell_angle_gamma   90.00000000
_symmetry_Int_Tables_number   1
_chemical_formula_structural   Cu4C7N5
_chemical_formula_sum   'Cu16 C28 N20'
_cell_volume   2407.53325697
_cell_formula_units_Z   4
loop_
 _symmetry_equiv_pos_site_id
 _symmetry_equiv_pos_as_xyz
  1  'x, y, z'
loop_
 _atom_site_type_symbol
 _atom_site_label
 _atom_site_symmetry_multiplicity
 _atom_site_fract_x
 _atom_site_fract_y
 _atom_site_fract_z
 _atom_site_occupancy
 _atom_site_charge
  Cu  Cu1  1  0.448430  0.531440  0.068140  1.0  0.4059
  Cu  Cu2  1  0.382020  0.144040  0.021190  1.0  0.4035
  Cu  Cu3  1  0.051570  0.968560  0.568140  1.0  0.4056
  Cu  Cu4  1  0.117980  0.355960  0.521190  1.0  0.4034
  Cu  Cu5  1  0.551570  0.531440  0.431860  1.0  0.4057
  Cu  Cu6  1  0.617980  0.144040  0.478810  1.0  0.4042
  Cu  Cu7  1  0.948430  0.968560  0.931860  1.0  0.4056
  Cu  Cu8  1  0.882020  0.355960  0.978810  1.0  0.4045
  Cu  Cu9  1  0.551570  0.468560  0.931860  1.0  0.4053
  Cu  Cu10  1  0.617980  0.855960  0.978810  1.0  0.4078
  Cu  Cu11  1  0.948430  0.031440  0.431860  1.0  0.4058
  Cu  Cu12  1  0.882020  0.644040  0.478810  1.0  0.4079
  Cu  Cu13  1  0.448430  0.468560  0.568140  1.0  0.4059
  Cu  Cu14  1  0.382020  0.855960  0.521190  1.0  0.4071
  Cu  Cu15  1  0.051570  0.031440  0.068140  1.0  0.4057
  Cu  Cu16  1  0.117980  0.644040  0.021190  1.0  0.4069
  C  C17  1  0.457400  0.373500  0.013500  1.0  0.0285
  C  C18  1  0.246000  0.612100  0.040400  1.0  0.0213
  C  C19  1  0.473400  0.034400  0.003000  1.0  0.0526
  C  C20  1  0.488100  0.534900  0.209700  1.0  0.0626
  C  C21  1  0.042600  0.126500  0.513500  1.0  0.0282
  C  C22  1  0.254000  0.887900  0.540400  1.0  0.0212
  C  C23  1  0.026600  0.465600  0.503000  1.0  0.0531
  C  C24  1  0.011900  0.965100  0.709700  1.0  0.0626
  C  C25  1  0.542600  0.373500  0.486500  1.0  0.0295
  C  C26  1  0.754000  0.612100  0.459600  1.0  0.0205
  C  C27  1  0.526600  0.034400  0.497000  1.0  0.0525
  C  C28  1  0.511900  0.534900  0.290300  1.0  0.0625
  C  C29  1  0.957400  0.126500  0.986500  1.0  0.0279
  C  C30  1  0.746000  0.887900  0.959600  1.0  0.0215
  C  C31  1  0.973400  0.465600  0.997000  1.0  0.0527
  C  C32  1  0.988100  0.965100  0.790300  1.0  0.0621
  C  C33  1  0.542600  0.626500  0.986500  1.0  0.0284
  C  C34  1  0.754000  0.387900  0.959600  1.0  0.0212
  C  C35  1  0.511900  0.465100  0.790300  1.0  0.0625
  C  C36  1  0.957400  0.873500  0.486500  1.0  0.0288
  C  C37  1  0.746000  0.112100  0.459600  1.0  0.0211
  C  C38  1  0.988100  0.034900  0.290300  1.0  0.0622
  C  C39  1  0.457400  0.626500  0.513500  1.0  0.0276
  C  C40  1  0.246000  0.387900  0.540400  1.0  0.0215
  C  C41  1  0.488100  0.465100  0.709700  1.0  0.0627
  C  C42  1  0.042600  0.873500  0.013500  1.0  0.0292
  C  C43  1  0.254000  0.112100  0.040400  1.0  0.0206
  C  C44  1  0.011900  0.034900  0.209700  1.0  0.0625
  N  N45  1  0.429300  0.288100  0.019400  1.0  -0.3884
  N  N46  1  0.322300  0.587400  0.050000  1.0  -0.3401
  N  N47  1  0.026600  0.534400  0.003000  1.0  -0.4423
  N  N48  1  0.070700  0.211900  0.519400  1.0  -0.3904
  N  N49  1  0.177700  0.912600  0.550000  1.0  -0.3399
  N  N50  1  0.473400  0.965600  0.503000  1.0  -0.4408
  N  N51  1  0.570700  0.288100  0.480600  1.0  -0.3886
  N  N52  1  0.677700  0.587400  0.450000  1.0  -0.3394
  N  N53  1  0.973400  0.534400  0.497000  1.0  -0.4419
  N  N54  1  0.929300  0.211900  0.980600  1.0  -0.3891
  N  N55  1  0.822300  0.912600  0.950000  1.0  -0.3406
  N  N56  1  0.526600  0.965600  0.997000  1.0  -0.4409
  N  N57  1  0.570700  0.711900  0.980600  1.0  -0.3897
  N  N58  1  0.677700  0.412600  0.950000  1.0  -0.3399
  N  N59  1  0.929300  0.788100  0.480600  1.0  -0.3881
  N  N60  1  0.822300  0.087400  0.450000  1.0  -0.3402
  N  N61  1  0.429300  0.711900  0.519400  1.0  -0.3895
  N  N62  1  0.322300  0.412600  0.550000  1.0  -0.3404
  N  N63  1  0.070700  0.788100  0.019400  1.0  -0.3892
  N  N64  1  0.177700  0.087400  0.050000  1.0  -0.3395
