# generated using pymatgen
data_FeH68C66S6(N3O2)2
_symmetry_space_group_name_H-M   'P 1'
_cell_length_a   15.92300000
_cell_length_b   26.37000000
_cell_length_c   20.62700000
_cell_angle_alpha   90.00000000
_cell_angle_beta   91.00500000
_cell_angle_gamma   90.00000000
_symmetry_Int_Tables_number   1
_chemical_formula_structural   FeH68C66S6(N3O2)2
_chemical_formula_sum   'Fe4 H272 C264 S24 N24 O16'
_cell_volume   8659.72857739
_cell_formula_units_Z   4
loop_
 _symmetry_equiv_pos_site_id
 _symmetry_equiv_pos_as_xyz
  1  'x, y, z'
loop_
 _atom_site_type_symbol
 _atom_site_label
 _atom_site_symmetry_multiplicity
 _atom_site_fract_x
 _atom_site_fract_y
 _atom_site_fract_z
 _atom_site_occupancy
 _atom_site_charge
  Fe  Fe1  1  0.750000  0.250000  0.500000  1.0  0.6651
  Fe  Fe2  1  0.250000  0.250000  0.000000  1.0  0.6651
  Fe  Fe3  1  0.250000  0.750000  0.500000  1.0  0.6651
  Fe  Fe4  1  0.750000  0.750000  0.000000  1.0  0.6651
  H  H5  1  0.970500  0.098100  0.559600  1.0  0.0931
  H  H6  1  0.195100  0.112900  0.653900  1.0  0.0979
  H  H7  1  0.191000  0.944200  0.602000  1.0  0.1115
  H  H8  1  0.111000  0.944100  0.553500  1.0  0.1056
  H  H9  1  0.214300  0.864500  0.540900  1.0  0.0913
  H  H10  1  0.117600  0.738000  0.606400  1.0  0.0744
  H  H11  1  0.030300  0.781800  0.673900  1.0  0.1237
  H  H12  1  0.032900  0.871600  0.673300  1.0  0.1072
  H  H13  1  0.221200  0.164500  0.568200  1.0  0.0944
  H  H14  1  0.182500  0.212900  0.531600  1.0  0.1058
  H  H15  1  0.171000  0.157500  0.500900  1.0  0.1137
  H  H16  1  0.047400  0.198700  0.665600  1.0  0.1032
  H  H17  1  0.093500  0.241000  0.623400  1.0  0.0914
  H  H18  1  0.147700  0.199700  0.662500  1.0  0.098
  H  H19  1  0.015300  0.164900  0.496400  1.0  0.1038
  H  H20  1  0.024700  0.221800  0.522300  1.0  0.1017
  H  H21  1  0.965500  0.182600  0.559100  1.0  0.1004
  H  H22  1  0.754700  0.912100  0.771200  1.0  0.0956
  H  H23  1  0.874500  0.897700  0.602400  1.0  0.1017
  H  H24  1  0.741400  0.073100  0.681600  1.0  0.0957
  H  H25  1  0.782000  0.063100  0.612000  1.0  0.1053
  H  H26  1  0.747800  0.143100  0.566600  1.0  0.0936
  H  H27  1  0.849200  0.270800  0.631500  1.0  0.0826
  H  H28  1  0.905500  0.229500  0.721400  1.0  0.1055
  H  H29  1  0.885600  0.141800  0.733000  1.0  0.0998
  H  H30  1  0.720800  0.786000  0.734200  1.0  0.0991
  H  H31  1  0.682800  0.841300  0.746700  1.0  0.0958
  H  H32  1  0.772800  0.826300  0.776800  1.0  0.098
  H  H33  1  0.887700  0.804900  0.698700  1.0  0.0997
  H  H34  1  0.873900  0.816300  0.623100  1.0  0.0963
  H  H35  1  0.823500  0.771100  0.656600  1.0  0.0994
  H  H36  1  0.734300  0.855100  0.583300  1.0  0.1099
  H  H37  1  0.661200  0.861200  0.635000  1.0  0.104
  H  H38  1  0.692000  0.805800  0.614200  1.0  0.1073
  H  H39  1  0.470500  0.598100  0.559600  1.0  0.0931
  H  H40  1  0.695100  0.612900  0.653900  1.0  0.0979
  H  H41  1  0.691000  0.444200  0.602000  1.0  0.1115
  H  H42  1  0.611000  0.444100  0.553500  1.0  0.1056
  H  H43  1  0.714300  0.364500  0.540900  1.0  0.0913
  H  H44  1  0.617600  0.238000  0.606400  1.0  0.0744
  H  H45  1  0.530300  0.281800  0.673900  1.0  0.1237
  H  H46  1  0.532900  0.371600  0.673300  1.0  0.1072
  H  H47  1  0.721200  0.664500  0.568200  1.0  0.0944
  H  H48  1  0.682500  0.712900  0.531600  1.0  0.1058
  H  H49  1  0.671000  0.657500  0.500900  1.0  0.1137
  H  H50  1  0.547400  0.698700  0.665600  1.0  0.1032
  H  H51  1  0.593500  0.741000  0.623400  1.0  0.0921
  H  H52  1  0.647700  0.699700  0.662500  1.0  0.098
  H  H53  1  0.515300  0.664900  0.496400  1.0  0.1038
  H  H54  1  0.524700  0.721800  0.522300  1.0  0.1017
  H  H55  1  0.465500  0.682600  0.559100  1.0  0.1004
  H  H56  1  0.254700  0.412100  0.771200  1.0  0.0956
  H  H57  1  0.374500  0.397700  0.602400  1.0  0.1017
  H  H58  1  0.241400  0.573100  0.681600  1.0  0.0957
  H  H59  1  0.282000  0.563100  0.612000  1.0  0.1053
  H  H60  1  0.247800  0.643100  0.566600  1.0  0.0936
  H  H61  1  0.349200  0.770800  0.631500  1.0  0.0826
  H  H62  1  0.405500  0.729500  0.721400  1.0  0.1055
  H  H63  1  0.385600  0.641800  0.733000  1.0  0.0998
  H  H64  1  0.220800  0.286000  0.734200  1.0  0.0991
  H  H65  1  0.182800  0.341300  0.746700  1.0  0.0958
  H  H66  1  0.272800  0.326300  0.776800  1.0  0.098
  H  H67  1  0.387700  0.304900  0.698700  1.0  0.0997
  H  H68  1  0.373900  0.316300  0.623100  1.0  0.0963
  H  H69  1  0.323500  0.271100  0.656600  1.0  0.0994
  H  H70  1  0.234300  0.355100  0.583300  1.0  0.1099
  H  H71  1  0.161200  0.361200  0.635000  1.0  0.104
  H  H72  1  0.192000  0.305800  0.614200  1.0  0.1073
  H  H73  1  0.029500  0.098100  0.940400  1.0  0.0926
  H  H74  1  0.804900  0.112900  0.846100  1.0  0.0978
  H  H75  1  0.809000  0.944200  0.898000  1.0  0.1127
  H  H76  1  0.889000  0.944100  0.946500  1.0  0.1055
  H  H77  1  0.785700  0.864500  0.959100  1.0  0.0914
  H  H78  1  0.882400  0.738000  0.893600  1.0  0.0738
  H  H79  1  0.969700  0.781800  0.826100  1.0  0.1221
  H  H80  1  0.967100  0.871600  0.826700  1.0  0.1072
  H  H81  1  0.778800  0.164500  0.931800  1.0  0.0935
  H  H82  1  0.817500  0.212900  0.968400  1.0  0.1049
  H  H83  1  0.829000  0.157500  0.999100  1.0  0.1149
  H  H84  1  0.952600  0.198700  0.834400  1.0  0.1058
  H  H85  1  0.906500  0.241000  0.876600  1.0  0.0913
  H  H86  1  0.852300  0.199700  0.837500  1.0  0.0965
  H  H87  1  0.984700  0.164900  0.003600  1.0  0.1036
  H  H88  1  0.975300  0.221800  0.977700  1.0  0.101
  H  H89  1  0.034500  0.182600  0.940900  1.0  0.1018
  H  H90  1  0.245300  0.912100  0.728800  1.0  0.0968
  H  H91  1  0.125500  0.897700  0.897600  1.0  0.1008
  H  H92  1  0.258600  0.073100  0.818400  1.0  0.095
  H  H93  1  0.218000  0.063100  0.888000  1.0  0.1045
  H  H94  1  0.252200  0.143100  0.933400  1.0  0.0932
  H  H95  1  0.150800  0.270800  0.868500  1.0  0.0822
  H  H96  1  0.094500  0.229500  0.778600  1.0  0.1046
  H  H97  1  0.114400  0.141800  0.767000  1.0  0.0992
  H  H98  1  0.279200  0.786000  0.765800  1.0  0.0988
  H  H99  1  0.317200  0.841300  0.753300  1.0  0.0975
  H  H100  1  0.227200  0.826300  0.723200  1.0  0.0976
  H  H101  1  0.112300  0.804900  0.801300  1.0  0.0986
  H  H102  1  0.126100  0.816300  0.876900  1.0  0.0968
  H  H103  1  0.176500  0.771100  0.843400  1.0  0.0994
  H  H104  1  0.265700  0.855100  0.916700  1.0  0.1082
  H  H105  1  0.338800  0.861200  0.865000  1.0  0.1036
  H  H106  1  0.308000  0.805800  0.885800  1.0  0.1068
  H  H107  1  0.529500  0.598100  0.940400  1.0  0.0926
  H  H108  1  0.304900  0.612900  0.846100  1.0  0.0978
  H  H109  1  0.309000  0.444200  0.898000  1.0  0.1127
  H  H110  1  0.389000  0.444100  0.946500  1.0  0.1055
  H  H111  1  0.285700  0.364500  0.959100  1.0  0.0914
  H  H112  1  0.382400  0.238000  0.893600  1.0  0.0738
  H  H113  1  0.469700  0.281800  0.826100  1.0  0.1221
  H  H114  1  0.467100  0.371600  0.826700  1.0  0.1072
  H  H115  1  0.278800  0.664500  0.931800  1.0  0.0935
  H  H116  1  0.317500  0.712900  0.968400  1.0  0.1049
  H  H117  1  0.329000  0.657500  0.999100  1.0  0.1149
  H  H118  1  0.452600  0.698700  0.834400  1.0  0.1058
  H  H119  1  0.406500  0.741000  0.876600  1.0  0.0921
  H  H120  1  0.352300  0.699700  0.837500  1.0  0.0965
  H  H121  1  0.484700  0.664900  0.003600  1.0  0.1036
  H  H122  1  0.475300  0.721800  0.977700  1.0  0.101
  H  H123  1  0.534500  0.682600  0.940900  1.0  0.1018
  H  H124  1  0.745300  0.412100  0.728800  1.0  0.0968
  H  H125  1  0.625500  0.397700  0.897600  1.0  0.1008
  H  H126  1  0.758600  0.573100  0.818400  1.0  0.095
  H  H127  1  0.718000  0.563100  0.888000  1.0  0.1045
  H  H128  1  0.752200  0.643100  0.933400  1.0  0.0932
  H  H129  1  0.650800  0.770800  0.868500  1.0  0.0822
  H  H130  1  0.594500  0.729500  0.778600  1.0  0.1046
  H  H131  1  0.614400  0.641800  0.767000  1.0  0.0992
  H  H132  1  0.779200  0.286000  0.765800  1.0  0.0988
  H  H133  1  0.817200  0.341300  0.753300  1.0  0.0975
  H  H134  1  0.727200  0.326300  0.723200  1.0  0.0976
  H  H135  1  0.612300  0.304900  0.801300  1.0  0.0986
  H  H136  1  0.626100  0.316300  0.876900  1.0  0.0968
  H  H137  1  0.676500  0.271100  0.843400  1.0  0.0994
  H  H138  1  0.765700  0.355100  0.916700  1.0  0.1082
  H  H139  1  0.838800  0.361200  0.865000  1.0  0.1036
  H  H140  1  0.808000  0.305800  0.885800  1.0  0.1068
  H  H141  1  0.029500  0.901900  0.440400  1.0  0.0932
  H  H142  1  0.804900  0.887100  0.346100  1.0  0.0979
  H  H143  1  0.809000  0.055800  0.398000  1.0  0.113
  H  H144  1  0.889000  0.055900  0.446500  1.0  0.106
  H  H145  1  0.785700  0.135500  0.459100  1.0  0.0913
  H  H146  1  0.882400  0.262000  0.393600  1.0  0.0739
  H  H147  1  0.969700  0.218200  0.326100  1.0  0.1231
  H  H148  1  0.967100  0.128400  0.326700  1.0  0.107
  H  H149  1  0.778800  0.835500  0.431800  1.0  0.0933
  H  H150  1  0.817500  0.787100  0.468400  1.0  0.1035
  H  H151  1  0.829000  0.842500  0.499100  1.0  0.1128
  H  H152  1  0.952600  0.801300  0.334400  1.0  0.1059
  H  H153  1  0.906500  0.759000  0.376600  1.0  0.0911
  H  H154  1  0.852300  0.800300  0.337500  1.0  0.0967
  H  H155  1  0.984700  0.835100  0.503600  1.0  0.1034
  H  H156  1  0.975300  0.778200  0.477700  1.0  0.1012
  H  H157  1  0.034500  0.817400  0.440900  1.0  0.1019
  H  H158  1  0.245300  0.087900  0.228800  1.0  0.096
  H  H159  1  0.125500  0.102300  0.397600  1.0  0.1009
  H  H160  1  0.258600  0.926900  0.318400  1.0  0.0953
  H  H161  1  0.218000  0.936900  0.388000  1.0  0.1047
  H  H162  1  0.252200  0.856900  0.433400  1.0  0.0931
  H  H163  1  0.150800  0.729200  0.368500  1.0  0.0823
  H  H164  1  0.094500  0.770500  0.278600  1.0  0.1043
  H  H165  1  0.114400  0.858200  0.267000  1.0  0.0994
  H  H166  1  0.279200  0.214000  0.265800  1.0  0.1004
  H  H167  1  0.317200  0.158700  0.253300  1.0  0.097
  H  H168  1  0.227200  0.173700  0.223200  1.0  0.0977
  H  H169  1  0.112300  0.195100  0.301300  1.0  0.0987
  H  H170  1  0.126100  0.183700  0.376900  1.0  0.0971
  H  H171  1  0.176500  0.228900  0.343400  1.0  0.0998
  H  H172  1  0.265700  0.144900  0.416700  1.0  0.1096
  H  H173  1  0.338800  0.138800  0.365000  1.0  0.103
  H  H174  1  0.308000  0.194200  0.385800  1.0  0.1075
  H  H175  1  0.529500  0.401900  0.440400  1.0  0.0932
  H  H176  1  0.304900  0.387100  0.346100  1.0  0.0979
  H  H177  1  0.309000  0.555800  0.398000  1.0  0.113
  H  H178  1  0.389000  0.555900  0.446500  1.0  0.106
  H  H179  1  0.285700  0.635500  0.459100  1.0  0.0913
  H  H180  1  0.382400  0.762000  0.393600  1.0  0.0739
  H  H181  1  0.469700  0.718200  0.326100  1.0  0.1231
  H  H182  1  0.467100  0.628400  0.326700  1.0  0.107
  H  H183  1  0.278800  0.335500  0.431800  1.0  0.0933
  H  H184  1  0.317500  0.287100  0.468400  1.0  0.1035
  H  H185  1  0.329000  0.342500  0.499100  1.0  0.1128
  H  H186  1  0.452600  0.301300  0.334400  1.0  0.1059
  H  H187  1  0.406500  0.259000  0.376600  1.0  0.0916
  H  H188  1  0.352300  0.300300  0.337500  1.0  0.0967
  H  H189  1  0.484700  0.335100  0.503600  1.0  0.1034
  H  H190  1  0.475300  0.278200  0.477700  1.0  0.1012
  H  H191  1  0.534500  0.317400  0.440900  1.0  0.1019
  H  H192  1  0.745300  0.587900  0.228800  1.0  0.096
  H  H193  1  0.625500  0.602300  0.397600  1.0  0.1009
  H  H194  1  0.758600  0.426900  0.318400  1.0  0.0953
  H  H195  1  0.718000  0.436900  0.388000  1.0  0.1047
  H  H196  1  0.752200  0.356900  0.433400  1.0  0.0931
  H  H197  1  0.650800  0.229200  0.368500  1.0  0.0823
  H  H198  1  0.594500  0.270500  0.278600  1.0  0.1043
  H  H199  1  0.614400  0.358200  0.267000  1.0  0.0994
  H  H200  1  0.779200  0.714000  0.265800  1.0  0.1004
  H  H201  1  0.817200  0.658700  0.253300  1.0  0.097
  H  H202  1  0.727200  0.673700  0.223200  1.0  0.0977
  H  H203  1  0.612300  0.695100  0.301300  1.0  0.0987
  H  H204  1  0.626100  0.683700  0.376900  1.0  0.0971
  H  H205  1  0.676500  0.728900  0.343400  1.0  0.0998
  H  H206  1  0.765700  0.644900  0.416700  1.0  0.1096
  H  H207  1  0.838800  0.638800  0.365000  1.0  0.103
  H  H208  1  0.808000  0.694200  0.385800  1.0  0.1075
  H  H209  1  0.970500  0.901900  0.059600  1.0  0.0936
  H  H210  1  0.195100  0.887100  0.153900  1.0  0.0979
  H  H211  1  0.191000  0.055800  0.102000  1.0  0.1107
  H  H212  1  0.111000  0.055900  0.053500  1.0  0.1055
  H  H213  1  0.214300  0.135500  0.040900  1.0  0.091
  H  H214  1  0.117600  0.262000  0.106400  1.0  0.0744
  H  H215  1  0.030300  0.218200  0.173900  1.0  0.1226
  H  H216  1  0.032900  0.128400  0.173300  1.0  0.1071
  H  H217  1  0.221200  0.835500  0.068200  1.0  0.0941
  H  H218  1  0.182500  0.787100  0.031600  1.0  0.1059
  H  H219  1  0.171000  0.842500  0.000900  1.0  0.1119
  H  H220  1  0.047400  0.801300  0.165600  1.0  0.1039
  H  H221  1  0.093500  0.759000  0.123400  1.0  0.0915
  H  H222  1  0.147700  0.800300  0.162500  1.0  0.0976
  H  H223  1  0.015300  0.835100  0.996400  1.0  0.1033
  H  H224  1  0.024700  0.778200  0.022300  1.0  0.1005
  H  H225  1  0.965500  0.817400  0.059100  1.0  0.1006
  H  H226  1  0.754700  0.087900  0.271200  1.0  0.0944
  H  H227  1  0.874500  0.102300  0.102400  1.0  0.1019
  H  H228  1  0.741400  0.926900  0.181600  1.0  0.0956
  H  H229  1  0.782000  0.936900  0.112000  1.0  0.1048
  H  H230  1  0.747800  0.856900  0.066600  1.0  0.0939
  H  H231  1  0.849200  0.729200  0.131500  1.0  0.0828
  H  H232  1  0.905500  0.770500  0.221400  1.0  0.1054
  H  H233  1  0.885600  0.858200  0.233000  1.0  0.0992
  H  H234  1  0.720800  0.214000  0.234200  1.0  0.1005
  H  H235  1  0.682800  0.158700  0.246700  1.0  0.0957
  H  H236  1  0.772800  0.173700  0.276800  1.0  0.098
  H  H237  1  0.887700  0.195100  0.198700  1.0  0.0985
  H  H238  1  0.873900  0.183700  0.123100  1.0  0.097
  H  H239  1  0.823500  0.228900  0.156600  1.0  0.1002
  H  H240  1  0.734300  0.144900  0.083300  1.0  0.1096
  H  H241  1  0.661200  0.138800  0.135000  1.0  0.1036
  H  H242  1  0.692000  0.194200  0.114200  1.0  0.1082
  H  H243  1  0.470500  0.401900  0.059600  1.0  0.0936
  H  H244  1  0.695100  0.387100  0.153900  1.0  0.0979
  H  H245  1  0.691000  0.555800  0.102000  1.0  0.1107
  H  H246  1  0.611000  0.555900  0.053500  1.0  0.1055
  H  H247  1  0.714300  0.635500  0.040900  1.0  0.091
  H  H248  1  0.617600  0.762000  0.106400  1.0  0.0744
  H  H249  1  0.530300  0.718200  0.173900  1.0  0.1226
  H  H250  1  0.532900  0.628400  0.173300  1.0  0.1071
  H  H251  1  0.721200  0.335500  0.068200  1.0  0.0941
  H  H252  1  0.682500  0.287100  0.031600  1.0  0.1059
  H  H253  1  0.671000  0.342500  0.000900  1.0  0.1119
  H  H254  1  0.547400  0.301300  0.165600  1.0  0.1039
  H  H255  1  0.593500  0.259000  0.123400  1.0  0.0922
  H  H256  1  0.647700  0.300300  0.162500  1.0  0.0976
  H  H257  1  0.515300  0.335100  0.996400  1.0  0.1033
  H  H258  1  0.524700  0.278200  0.022300  1.0  0.1005
  H  H259  1  0.465500  0.317400  0.059100  1.0  0.1006
  H  H260  1  0.254700  0.587900  0.271200  1.0  0.0944
  H  H261  1  0.374500  0.602300  0.102400  1.0  0.1019
  H  H262  1  0.241400  0.426900  0.181600  1.0  0.0956
  H  H263  1  0.282000  0.436900  0.112000  1.0  0.1048
  H  H264  1  0.247800  0.356900  0.066600  1.0  0.0939
  H  H265  1  0.349200  0.229200  0.131500  1.0  0.0828
  H  H266  1  0.405500  0.270500  0.221400  1.0  0.1054
  H  H267  1  0.385600  0.358200  0.233000  1.0  0.0992
  H  H268  1  0.220800  0.714000  0.234200  1.0  0.1005
  H  H269  1  0.182800  0.658700  0.246700  1.0  0.0957
  H  H270  1  0.272800  0.673700  0.276800  1.0  0.098
  H  H271  1  0.387700  0.695100  0.198700  1.0  0.0985
  H  H272  1  0.373900  0.683700  0.123100  1.0  0.097
  H  H273  1  0.323500  0.728900  0.156600  1.0  0.1002
  H  H274  1  0.234300  0.644900  0.083300  1.0  0.1096
  H  H275  1  0.161200  0.638800  0.135000  1.0  0.1036
  H  H276  1  0.192000  0.694200  0.114200  1.0  0.1082
  C  C277  1  0.147900  0.041500  0.656600  1.0  -0.0416
  C  C278  1  0.080500  0.011000  0.635600  1.0  0.1944
  C  C279  1  0.013300  0.032700  0.601900  1.0  0.0211
  C  C280  1  0.016100  0.084000  0.583800  1.0  -0.0648
  C  C281  1  0.085500  0.115100  0.600700  1.0  0.0252
  C  C282  1  0.149400  0.092500  0.639300  1.0  -0.088
  C  C283  1  0.131300  0.934000  0.597300  1.0  -0.0585
  C  C284  1  0.123500  0.877500  0.605100  1.0  0.0455
  C  C285  1  0.174900  0.847800  0.567600  1.0  0.139
  C  C286  1  0.119400  0.774000  0.606000  1.0  0.166
  C  C287  1  0.067100  0.799700  0.646200  1.0  -0.1394
  C  C288  1  0.068800  0.852800  0.645900  1.0  -0.0628
  C  C289  1  0.092000  0.170200  0.578300  1.0  0.1547
  C  C290  1  0.174100  0.176900  0.541400  1.0  -0.3714
  C  C291  1  0.095400  0.205700  0.637900  1.0  -0.391
  C  C292  1  0.017700  0.186300  0.535200  1.0  -0.3988
  C  C293  1  0.877800  0.969600  0.639000  1.0  -0.0513
  C  C294  1  0.849900  0.999700  0.688000  1.0  0.1965
  C  C295  1  0.803600  0.978300  0.738300  1.0  -0.0731
  C  C296  1  0.784400  0.926600  0.736200  1.0  -0.1266
  C  C297  1  0.806600  0.896200  0.686100  1.0  0.0321
  C  C298  1  0.855900  0.918200  0.637200  1.0  -0.0648
  C  C299  1  0.792600  0.077600  0.655600  1.0  -0.0226
  C  C300  1  0.813500  0.133000  0.650300  1.0  0.0638
  C  C301  1  0.781100  0.160500  0.598200  1.0  0.0967
  C  C302  1  0.840100  0.235400  0.636200  1.0  0.1644
  C  C303  1  0.874000  0.211000  0.689800  1.0  -0.1134
  C  C304  1  0.861700  0.159300  0.696900  1.0  -0.085
  C  C305  1  0.776500  0.841400  0.678500  1.0  0.1788
  C  C306  1  0.734500  0.822000  0.739500  1.0  -0.3924
  C  C307  1  0.846500  0.805300  0.662900  1.0  -0.3799
  C  C308  1  0.709900  0.840800  0.622600  1.0  -0.3871
  C  C309  1  0.586300  0.178000  0.475800  1.0  0.2811
  C  C310  1  0.647900  0.541500  0.656600  1.0  -0.0416
  C  C311  1  0.580500  0.511000  0.635600  1.0  0.1944
  C  C312  1  0.513300  0.532700  0.601900  1.0  0.0211
  C  C313  1  0.516100  0.584000  0.583800  1.0  -0.0648
  C  C314  1  0.585500  0.615100  0.600700  1.0  0.0252
  C  C315  1  0.649400  0.592500  0.639300  1.0  -0.088
  C  C316  1  0.631300  0.434000  0.597300  1.0  -0.0585
  C  C317  1  0.623500  0.377500  0.605100  1.0  0.0455
  C  C318  1  0.674900  0.347800  0.567600  1.0  0.139
  C  C319  1  0.619400  0.274000  0.606000  1.0  0.166
  C  C320  1  0.567100  0.299700  0.646200  1.0  -0.1394
  C  C321  1  0.568800  0.352800  0.645900  1.0  -0.0628
  C  C322  1  0.592000  0.670200  0.578300  1.0  0.1547
  C  C323  1  0.674100  0.676900  0.541400  1.0  -0.3714
  C  C324  1  0.595400  0.705700  0.637900  1.0  -0.391
  C  C325  1  0.517700  0.686300  0.535200  1.0  -0.3988
  C  C326  1  0.377800  0.469600  0.639000  1.0  -0.0513
  C  C327  1  0.349900  0.499700  0.688000  1.0  0.1965
  C  C328  1  0.303600  0.478300  0.738300  1.0  -0.0731
  C  C329  1  0.284400  0.426600  0.736200  1.0  -0.1266
  C  C330  1  0.306600  0.396200  0.686100  1.0  0.0321
  C  C331  1  0.355900  0.418200  0.637200  1.0  -0.0648
  C  C332  1  0.292600  0.577600  0.655600  1.0  -0.0226
  C  C333  1  0.313500  0.633000  0.650300  1.0  0.0638
  C  C334  1  0.281100  0.660500  0.598200  1.0  0.0967
  C  C335  1  0.340100  0.735400  0.636200  1.0  0.1644
  C  C336  1  0.374000  0.711000  0.689800  1.0  -0.1134
  C  C337  1  0.361700  0.659300  0.696900  1.0  -0.085
  C  C338  1  0.276500  0.341400  0.678500  1.0  0.1788
  C  C339  1  0.234500  0.322000  0.739500  1.0  -0.3924
  C  C340  1  0.346500  0.305300  0.662900  1.0  -0.3799
  C  C341  1  0.209900  0.340800  0.622600  1.0  -0.3871
  C  C342  1  0.086300  0.678000  0.475800  1.0  0.281
  C  C343  1  0.852100  0.041500  0.843400  1.0  -0.0431
  C  C344  1  0.919500  0.011000  0.864400  1.0  0.1936
  C  C345  1  0.986700  0.032700  0.898100  1.0  0.0239
  C  C346  1  0.983900  0.084000  0.916200  1.0  -0.0648
  C  C347  1  0.914500  0.115100  0.899300  1.0  0.0246
  C  C348  1  0.850600  0.092500  0.860700  1.0  -0.0892
  C  C349  1  0.868700  0.934000  0.902700  1.0  -0.0561
  C  C350  1  0.876500  0.877500  0.894900  1.0  0.0456
  C  C351  1  0.825100  0.847800  0.932400  1.0  0.1398
  C  C352  1  0.880600  0.774000  0.894000  1.0  0.1657
  C  C353  1  0.932900  0.799700  0.853800  1.0  -0.1412
  C  C354  1  0.931200  0.852800  0.854100  1.0  -0.0622
  C  C355  1  0.908000  0.170200  0.921700  1.0  0.155
  C  C356  1  0.825900  0.176900  0.958600  1.0  -0.3732
  C  C357  1  0.904600  0.205700  0.862100  1.0  -0.3913
  C  C358  1  0.982300  0.186300  0.964800  1.0  -0.3978
  C  C359  1  0.122200  0.969600  0.861000  1.0  -0.0511
  C  C360  1  0.150100  0.999700  0.812000  1.0  0.1956
  C  C361  1  0.196400  0.978300  0.761700  1.0  -0.0719
  C  C362  1  0.215600  0.926600  0.763800  1.0  -0.1281
  C  C363  1  0.193400  0.896200  0.813900  1.0  0.0333
  C  C364  1  0.144100  0.918200  0.862800  1.0  -0.0646
  C  C365  1  0.207400  0.077600  0.844400  1.0  -0.0229
  C  C366  1  0.186500  0.133000  0.849700  1.0  0.0652
  C  C367  1  0.218900  0.160500  0.901800  1.0  0.0981
  C  C368  1  0.159900  0.235400  0.863800  1.0  0.164
  C  C369  1  0.126000  0.211000  0.810200  1.0  -0.1135
  C  C370  1  0.138300  0.159300  0.803100  1.0  -0.083
  C  C371  1  0.223500  0.841400  0.821500  1.0  0.1788
  C  C372  1  0.265500  0.822000  0.760500  1.0  -0.3929
  C  C373  1  0.153500  0.805300  0.837100  1.0  -0.3796
  C  C374  1  0.290100  0.840800  0.877400  1.0  -0.3856
  C  C375  1  0.413700  0.178000  0.024200  1.0  0.284
  C  C376  1  0.352100  0.541500  0.843400  1.0  -0.0431
  C  C377  1  0.419500  0.511000  0.864400  1.0  0.1936
  C  C378  1  0.486700  0.532700  0.898100  1.0  0.0239
  C  C379  1  0.483900  0.584000  0.916200  1.0  -0.0648
  C  C380  1  0.414500  0.615100  0.899300  1.0  0.0246
  C  C381  1  0.350600  0.592500  0.860700  1.0  -0.0892
  C  C382  1  0.368700  0.434000  0.902700  1.0  -0.0561
  C  C383  1  0.376500  0.377500  0.894900  1.0  0.0456
  C  C384  1  0.325100  0.347800  0.932400  1.0  0.1398
  C  C385  1  0.380600  0.274000  0.894000  1.0  0.1657
  C  C386  1  0.432900  0.299700  0.853800  1.0  -0.1412
  C  C387  1  0.431200  0.352800  0.854100  1.0  -0.0622
  C  C388  1  0.408000  0.670200  0.921700  1.0  0.155
  C  C389  1  0.325900  0.676900  0.958600  1.0  -0.3732
  C  C390  1  0.404600  0.705700  0.862100  1.0  -0.3913
  C  C391  1  0.482300  0.686300  0.964800  1.0  -0.3978
  C  C392  1  0.622200  0.469600  0.861000  1.0  -0.0511
  C  C393  1  0.650100  0.499700  0.812000  1.0  0.1956
  C  C394  1  0.696400  0.478300  0.761700  1.0  -0.0719
  C  C395  1  0.715600  0.426600  0.763800  1.0  -0.1281
  C  C396  1  0.693400  0.396200  0.813900  1.0  0.0333
  C  C397  1  0.644100  0.418200  0.862800  1.0  -0.0646
  C  C398  1  0.707400  0.577600  0.844400  1.0  -0.0229
  C  C399  1  0.686500  0.633000  0.849700  1.0  0.0652
  C  C400  1  0.718900  0.660500  0.901800  1.0  0.0981
  C  C401  1  0.659900  0.735400  0.863800  1.0  0.164
  C  C402  1  0.626000  0.711000  0.810200  1.0  -0.1135
  C  C403  1  0.638300  0.659300  0.803100  1.0  -0.083
  C  C404  1  0.723500  0.341400  0.821500  1.0  0.1788
  C  C405  1  0.765500  0.322000  0.760500  1.0  -0.3929
  C  C406  1  0.653500  0.305300  0.837100  1.0  -0.3796
  C  C407  1  0.790100  0.340800  0.877400  1.0  -0.3856
  C  C408  1  0.913700  0.678000  0.024200  1.0  0.284
  C  C409  1  0.852100  0.958500  0.343400  1.0  -0.0428
  C  C410  1  0.919500  0.989000  0.364400  1.0  0.1937
  C  C411  1  0.986700  0.967300  0.398100  1.0  0.0233
  C  C412  1  0.983900  0.916000  0.416200  1.0  -0.0641
  C  C413  1  0.914500  0.884900  0.399300  1.0  0.0262
  C  C414  1  0.850600  0.907500  0.360700  1.0  -0.0902
  C  C415  1  0.868700  0.066000  0.402700  1.0  -0.057
  C  C416  1  0.876500  0.122500  0.394900  1.0  0.0455
  C  C417  1  0.825100  0.152200  0.432400  1.0  0.1395
  C  C418  1  0.880600  0.226000  0.394000  1.0  0.1652
  C  C419  1  0.932900  0.200300  0.353800  1.0  -0.1391
  C  C420  1  0.931200  0.147200  0.354100  1.0  -0.063
  C  C421  1  0.908000  0.829800  0.421700  1.0  0.1557
  C  C422  1  0.825900  0.823100  0.458600  1.0  -0.3732
  C  C423  1  0.904600  0.794300  0.362100  1.0  -0.3915
  C  C424  1  0.982300  0.813700  0.464800  1.0  -0.3981
  C  C425  1  0.122200  0.030400  0.361000  1.0  -0.0511
  C  C426  1  0.150100  0.000300  0.312000  1.0  0.1956
  C  C427  1  0.196400  0.021700  0.261700  1.0  -0.0726
  C  C428  1  0.215600  0.073400  0.263800  1.0  -0.1298
  C  C429  1  0.193400  0.103800  0.313900  1.0  0.0339
  C  C430  1  0.144100  0.081800  0.362800  1.0  -0.064
  C  C431  1  0.207400  0.922400  0.344400  1.0  -0.0224
  C  C432  1  0.186500  0.867000  0.349700  1.0  0.0648
  C  C433  1  0.218900  0.839500  0.401800  1.0  0.0976
  C  C434  1  0.159900  0.764600  0.363800  1.0  0.1648
  C  C435  1  0.126000  0.789000  0.310200  1.0  -0.1134
  C  C436  1  0.138300  0.840700  0.303100  1.0  -0.0832
  C  C437  1  0.223500  0.158600  0.321500  1.0  0.1789
  C  C438  1  0.265500  0.178000  0.260500  1.0  -0.3928
  C  C439  1  0.153500  0.194700  0.337100  1.0  -0.3802
  C  C440  1  0.290100  0.159200  0.377400  1.0  -0.3858
  C  C441  1  0.413700  0.822000  0.524200  1.0  0.2846
  C  C442  1  0.352100  0.458500  0.343400  1.0  -0.0428
  C  C443  1  0.419500  0.489000  0.364400  1.0  0.1937
  C  C444  1  0.486700  0.467300  0.398100  1.0  0.0233
  C  C445  1  0.483900  0.416000  0.416200  1.0  -0.0641
  C  C446  1  0.414500  0.384900  0.399300  1.0  0.0262
  C  C447  1  0.350600  0.407500  0.360700  1.0  -0.0902
  C  C448  1  0.368700  0.566000  0.402700  1.0  -0.057
  C  C449  1  0.376500  0.622500  0.394900  1.0  0.0455
  C  C450  1  0.325100  0.652200  0.432400  1.0  0.1395
  C  C451  1  0.380600  0.726000  0.394000  1.0  0.1652
  C  C452  1  0.432900  0.700300  0.353800  1.0  -0.1391
  C  C453  1  0.431200  0.647200  0.354100  1.0  -0.063
  C  C454  1  0.408000  0.329800  0.421700  1.0  0.1557
  C  C455  1  0.325900  0.323100  0.458600  1.0  -0.3732
  C  C456  1  0.404600  0.294300  0.362100  1.0  -0.3915
  C  C457  1  0.482300  0.313700  0.464800  1.0  -0.3981
  C  C458  1  0.622200  0.530400  0.361000  1.0  -0.0511
  C  C459  1  0.650100  0.500300  0.312000  1.0  0.1956
  C  C460  1  0.696400  0.521700  0.261700  1.0  -0.0726
  C  C461  1  0.715600  0.573400  0.263800  1.0  -0.1298
  C  C462  1  0.693400  0.603800  0.313900  1.0  0.0339
  C  C463  1  0.644100  0.581800  0.362800  1.0  -0.064
  C  C464  1  0.707400  0.422400  0.344400  1.0  -0.0224
  C  C465  1  0.686500  0.367000  0.349700  1.0  0.0648
  C  C466  1  0.718900  0.339500  0.401800  1.0  0.0976
  C  C467  1  0.659900  0.264600  0.363800  1.0  0.1648
  C  C468  1  0.626000  0.289000  0.310200  1.0  -0.1134
  C  C469  1  0.638300  0.340700  0.303100  1.0  -0.0832
  C  C470  1  0.723500  0.658600  0.321500  1.0  0.1789
  C  C471  1  0.765500  0.678000  0.260500  1.0  -0.3928
  C  C472  1  0.653500  0.694700  0.337100  1.0  -0.3802
  C  C473  1  0.790100  0.659200  0.377400  1.0  -0.3858
  C  C474  1  0.913700  0.322000  0.524200  1.0  0.2846
  C  C475  1  0.147900  0.958500  0.156600  1.0  -0.0413
  C  C476  1  0.080500  0.989000  0.135600  1.0  0.1946
  C  C477  1  0.013300  0.967300  0.101900  1.0  0.0207
  C  C478  1  0.016100  0.916000  0.083800  1.0  -0.0646
  C  C479  1  0.085500  0.884900  0.100700  1.0  0.0265
  C  C480  1  0.149400  0.907500  0.139300  1.0  -0.0895
  C  C481  1  0.131300  0.066000  0.097300  1.0  -0.0588
  C  C482  1  0.123500  0.122500  0.105100  1.0  0.0453
  C  C483  1  0.174900  0.152200  0.067600  1.0  0.1391
  C  C484  1  0.119400  0.226000  0.106000  1.0  0.1657
  C  C485  1  0.067100  0.200300  0.146200  1.0  -0.1393
  C  C486  1  0.068800  0.147200  0.145900  1.0  -0.0631
  C  C487  1  0.092000  0.829800  0.078300  1.0  0.1555
  C  C488  1  0.174100  0.823100  0.041400  1.0  -0.3719
  C  C489  1  0.095400  0.794300  0.137900  1.0  -0.3919
  C  C490  1  0.017700  0.813700  0.035200  1.0  -0.399
  C  C491  1  0.877800  0.030400  0.139000  1.0  -0.0514
  C  C492  1  0.849900  0.000300  0.188000  1.0  0.1968
  C  C493  1  0.803600  0.021700  0.238300  1.0  -0.0731
  C  C494  1  0.784400  0.073400  0.236200  1.0  -0.1274
  C  C495  1  0.806600  0.103800  0.186100  1.0  0.0332
  C  C496  1  0.855900  0.081800  0.137200  1.0  -0.0653
  C  C497  1  0.792600  0.922400  0.155600  1.0  -0.0219
  C  C498  1  0.813500  0.867000  0.150300  1.0  0.0635
  C  C499  1  0.781100  0.839500  0.098200  1.0  0.097
  C  C500  1  0.840100  0.764600  0.136200  1.0  0.1652
  C  C501  1  0.874000  0.789000  0.189800  1.0  -0.1127
  C  C502  1  0.861700  0.840700  0.196900  1.0  -0.0848
  C  C503  1  0.776500  0.158600  0.178500  1.0  0.1789
  C  C504  1  0.734500  0.178000  0.239500  1.0  -0.3924
  C  C505  1  0.846500  0.194700  0.162900  1.0  -0.3801
  C  C506  1  0.709900  0.159200  0.122600  1.0  -0.3877
  C  C507  1  0.586300  0.822000  0.975800  1.0  0.2833
  C  C508  1  0.647900  0.458500  0.156600  1.0  -0.0413
  C  C509  1  0.580500  0.489000  0.135600  1.0  0.1946
  C  C510  1  0.513300  0.467300  0.101900  1.0  0.0207
  C  C511  1  0.516100  0.416000  0.083800  1.0  -0.0646
  C  C512  1  0.585500  0.384900  0.100700  1.0  0.0265
  C  C513  1  0.649400  0.407500  0.139300  1.0  -0.0895
  C  C514  1  0.631300  0.566000  0.097300  1.0  -0.0588
  C  C515  1  0.623500  0.622500  0.105100  1.0  0.0453
  C  C516  1  0.674900  0.652200  0.067600  1.0  0.1391
  C  C517  1  0.619400  0.726000  0.106000  1.0  0.1657
  C  C518  1  0.567100  0.700300  0.146200  1.0  -0.1393
  C  C519  1  0.568800  0.647200  0.145900  1.0  -0.0631
  C  C520  1  0.592000  0.329800  0.078300  1.0  0.1555
  C  C521  1  0.674100  0.323100  0.041400  1.0  -0.3719
  C  C522  1  0.595400  0.294300  0.137900  1.0  -0.3919
  C  C523  1  0.517700  0.313700  0.035200  1.0  -0.399
  C  C524  1  0.377800  0.530400  0.139000  1.0  -0.0514
  C  C525  1  0.349900  0.500300  0.188000  1.0  0.1968
  C  C526  1  0.303600  0.521700  0.238300  1.0  -0.0731
  C  C527  1  0.284400  0.573400  0.236200  1.0  -0.1274
  C  C528  1  0.306600  0.603800  0.186100  1.0  0.0332
  C  C529  1  0.355900  0.581800  0.137200  1.0  -0.0653
  C  C530  1  0.292600  0.422400  0.155600  1.0  -0.0219
  C  C531  1  0.313500  0.367000  0.150300  1.0  0.0635
  C  C532  1  0.281100  0.339500  0.098200  1.0  0.097
  C  C533  1  0.340100  0.264600  0.136200  1.0  0.1652
  C  C534  1  0.374000  0.289000  0.189800  1.0  -0.1127
  C  C535  1  0.361700  0.340700  0.196900  1.0  -0.0848
  C  C536  1  0.276500  0.658600  0.178500  1.0  0.1789
  C  C537  1  0.234500  0.678000  0.239500  1.0  -0.3924
  C  C538  1  0.346500  0.694700  0.162900  1.0  -0.3801
  C  C539  1  0.209900  0.659200  0.122600  1.0  -0.3877
  C  C540  1  0.086300  0.322000  0.975800  1.0  0.2833
  S  S541  1  0.237390  0.016390  0.698620  1.0  -0.0227
  S  S542  1  0.928280  0.994890  0.569650  1.0  -0.0301
  S  S543  1  0.496900  0.154390  0.456600  1.0  -0.313
  S  S544  1  0.737390  0.516390  0.698620  1.0  -0.0227
  S  S545  1  0.428280  0.494890  0.569650  1.0  -0.0301
  S  S546  1  0.996900  0.654390  0.456600  1.0  -0.3157
  S  S547  1  0.762610  0.016390  0.801380  1.0  -0.0211
  S  S548  1  0.071720  0.994890  0.930350  1.0  -0.0315
  S  S549  1  0.503100  0.154390  0.043400  1.0  -0.3118
  S  S550  1  0.262610  0.516390  0.801380  1.0  -0.0211
  S  S551  1  0.571720  0.494890  0.930350  1.0  -0.0315
  S  S552  1  0.003100  0.654390  0.043400  1.0  -0.3144
  S  S553  1  0.762610  0.983610  0.301380  1.0  -0.0207
  S  S554  1  0.071720  0.005110  0.430350  1.0  -0.0316
  S  S555  1  0.503100  0.845610  0.543400  1.0  -0.3105
  S  S556  1  0.262610  0.483610  0.301380  1.0  -0.0207
  S  S557  1  0.571720  0.505110  0.430350  1.0  -0.0316
  S  S558  1  0.003100  0.345610  0.543400  1.0  -0.3131
  S  S559  1  0.237390  0.983610  0.198620  1.0  -0.0231
  S  S560  1  0.928280  0.005110  0.069650  1.0  -0.0301
  S  S561  1  0.496900  0.845610  0.956600  1.0  -0.3117
  S  S562  1  0.737390  0.483610  0.198620  1.0  -0.0231
  S  S563  1  0.428280  0.505110  0.069650  1.0  -0.0301
  S  S564  1  0.996900  0.345610  0.956600  1.0  -0.3142
  N  N565  1  0.172600  0.796400  0.566500  1.0  -0.3488
  N  N566  1  0.794400  0.210700  0.590000  1.0  -0.3462
  N  N567  1  0.651600  0.196300  0.489400  1.0  -0.4708
  N  N568  1  0.672600  0.296400  0.566500  1.0  -0.3488
  N  N569  1  0.294400  0.710700  0.590000  1.0  -0.3462
  N  N570  1  0.151600  0.696300  0.489400  1.0  -0.4708
  N  N571  1  0.827400  0.796400  0.933500  1.0  -0.3491
  N  N572  1  0.205600  0.210700  0.910000  1.0  -0.3468
  N  N573  1  0.348400  0.196300  0.010600  1.0  -0.4714
  N  N574  1  0.327400  0.296400  0.933500  1.0  -0.3491
  N  N575  1  0.705600  0.710700  0.910000  1.0  -0.3468
  N  N576  1  0.848400  0.696300  0.010600  1.0  -0.4714
  N  N577  1  0.827400  0.203600  0.433500  1.0  -0.3493
  N  N578  1  0.205600  0.789300  0.410000  1.0  -0.3466
  N  N579  1  0.348400  0.803700  0.510600  1.0  -0.4693
  N  N580  1  0.327400  0.703600  0.433500  1.0  -0.3493
  N  N581  1  0.705600  0.289300  0.410000  1.0  -0.3466
  N  N582  1  0.848400  0.303700  0.510600  1.0  -0.4693
  N  N583  1  0.172600  0.203600  0.066500  1.0  -0.3483
  N  N584  1  0.794400  0.789300  0.090000  1.0  -0.3475
  N  N585  1  0.651600  0.803700  0.989400  1.0  -0.4699
  N  N586  1  0.672600  0.703600  0.066500  1.0  -0.3483
  N  N587  1  0.294400  0.289300  0.090000  1.0  -0.3475
  N  N588  1  0.151600  0.303700  0.989400  1.0  -0.4699
  O  O589  1  0.081400  0.959060  0.646700  1.0  -0.3287
  O  O590  1  0.864300  0.052000  0.687200  1.0  -0.3287
  O  O591  1  0.581400  0.459060  0.646700  1.0  -0.3287
  O  O592  1  0.364300  0.552000  0.687200  1.0  -0.3287
  O  O593  1  0.918600  0.959060  0.853300  1.0  -0.3279
  O  O594  1  0.135700  0.052000  0.812800  1.0  -0.3235
  O  O595  1  0.418600  0.459060  0.853300  1.0  -0.3279
  O  O596  1  0.635700  0.552000  0.812800  1.0  -0.3235
  O  O597  1  0.918600  0.040940  0.353300  1.0  -0.3283
  O  O598  1  0.135700  0.948000  0.312800  1.0  -0.3236
  O  O599  1  0.418600  0.540940  0.353300  1.0  -0.3283
  O  O600  1  0.635700  0.448000  0.312800  1.0  -0.3236
  O  O601  1  0.081400  0.040940  0.146700  1.0  -0.3296
  O  O602  1  0.864300  0.948000  0.187200  1.0  -0.3288
  O  O603  1  0.581400  0.540940  0.146700  1.0  -0.3296
  O  O604  1  0.364300  0.448000  0.187200  1.0  -0.3288
