# generated using pymatgen
data_NiH9C8(N2F)2
_symmetry_space_group_name_H-M   'P 1'
_cell_length_a   9.91970000
_cell_length_b   9.91970000
_cell_length_c   6.34340000
_cell_angle_alpha   90.00000000
_cell_angle_beta   90.00000000
_cell_angle_gamma   90.00000000
_symmetry_Int_Tables_number   1
_chemical_formula_structural   NiH9C8(N2F)2
_chemical_formula_sum   'Ni2 H18 C16 N8 F4'
_cell_volume   624.19340241
_cell_formula_units_Z   2
loop_
 _symmetry_equiv_pos_site_id
 _symmetry_equiv_pos_as_xyz
  1  'x, y, z'
loop_
 _atom_site_type_symbol
 _atom_site_label
 _atom_site_symmetry_multiplicity
 _atom_site_fract_x
 _atom_site_fract_y
 _atom_site_fract_z
 _atom_site_occupancy
 _atom_site_charge
  Ni  Ni1  1  0.000000  0.000000  0.000000  1.0  0.624
  Ni  Ni2  1  0.500000  0.500000  0.000000  1.0  0.624
  H  H3  1  0.201530  0.122500  0.290240  1.0  0.0465
  H  H4  1  0.798470  0.877500  0.290240  1.0  0.0456
  H  H5  1  0.377500  0.701530  0.290240  1.0  0.0473
  H  H6  1  0.622500  0.298470  0.290240  1.0  0.0476
  H  H7  1  0.298470  0.622500  0.709760  1.0  0.045
  H  H8  1  0.701530  0.377500  0.709760  1.0  0.0458
  H  H9  1  0.122500  0.201530  0.709760  1.0  0.0468
  H  H10  1  0.877500  0.798470  0.709760  1.0  0.0468
  H  H11  1  0.298470  0.377500  0.709760  1.0  0.0453
  H  H12  1  0.701530  0.622500  0.709760  1.0  0.0456
  H  H13  1  0.122500  0.798470  0.709760  1.0  0.0468
  H  H14  1  0.877500  0.201530  0.709760  1.0  0.0469
  H  H15  1  0.201530  0.877500  0.290240  1.0  0.0462
  H  H16  1  0.798470  0.122500  0.290240  1.0  0.0463
  H  H17  1  0.377500  0.298470  0.290240  1.0  0.048
  H  H18  1  0.622500  0.701530  0.290240  1.0  0.0472
  H  H19  1  0.000000  0.000000  0.500000  1.0  0.3558
  H  H20  1  0.500000  0.500000  0.500000  1.0  0.3558
  C  C21  1  0.222680  0.175200  0.167350  1.0  0.0902
  C  C22  1  0.777320  0.824800  0.167350  1.0  0.0904
  C  C23  1  0.324800  0.722680  0.167350  1.0  0.0905
  C  C24  1  0.675200  0.277320  0.167350  1.0  0.0902
  C  C25  1  0.277320  0.675200  0.832650  1.0  0.0909
  C  C26  1  0.722680  0.324800  0.832650  1.0  0.0909
  C  C27  1  0.175200  0.222680  0.832650  1.0  0.0914
  C  C28  1  0.824800  0.777320  0.832650  1.0  0.0911
  C  C29  1  0.277320  0.324800  0.832650  1.0  0.091
  C  C30  1  0.722680  0.675200  0.832650  1.0  0.0912
  C  C31  1  0.175200  0.777320  0.832650  1.0  0.091
  C  C32  1  0.824800  0.222680  0.832650  1.0  0.0917
  C  C33  1  0.222680  0.824800  0.167350  1.0  0.0903
  C  C34  1  0.777320  0.175200  0.167350  1.0  0.09
  C  C35  1  0.324800  0.277320  0.167350  1.0  0.09
  C  C36  1  0.675200  0.722680  0.167350  1.0  0.0904
  N  N37  1  0.150470  0.150470  0.000000  1.0  -0.353
  N  N38  1  0.849530  0.849530  0.000000  1.0  -0.3537
  N  N39  1  0.349530  0.650470  0.000000  1.0  -0.3536
  N  N40  1  0.650470  0.349530  0.000000  1.0  -0.3537
  N  N41  1  0.349530  0.349530  0.000000  1.0  -0.3529
  N  N42  1  0.650470  0.650470  0.000000  1.0  -0.3525
  N  N43  1  0.150470  0.849530  0.000000  1.0  -0.3532
  N  N44  1  0.849530  0.150470  0.000000  1.0  -0.3527
  F  F45  1  0.000000  0.000000  0.325780  1.0  -0.3328
  F  F46  1  0.500000  0.500000  0.325780  1.0  -0.3328
  F  F47  1  0.500000  0.500000  0.674220  1.0  -0.3316
  F  F48  1  0.000000  0.000000  0.674220  1.0  -0.3316
