# generated using pymatgen
data_HoH6(CO)6
_symmetry_space_group_name_H-M   'P 1'
_cell_length_a   7.61120000
_cell_length_b   11.92700000
_cell_length_c   12.13000000
_cell_angle_alpha   67.60200000
_cell_angle_beta   89.92000000
_cell_angle_gamma   80.49800000
_symmetry_Int_Tables_number   1
_chemical_formula_structural   HoH6(CO)6
_chemical_formula_sum   'Ho4 H24 C24 O24'
_cell_volume   1001.82051353
_cell_formula_units_Z   4
loop_
 _symmetry_equiv_pos_site_id
 _symmetry_equiv_pos_as_xyz
  1  'x, y, z'
loop_
 _atom_site_type_symbol
 _atom_site_label
 _atom_site_symmetry_multiplicity
 _atom_site_fract_x
 _atom_site_fract_y
 _atom_site_fract_z
 _atom_site_occupancy
 _atom_site_charge
  Ho  Ho1  1  0.992470  0.854830  0.354810  1.0  2.209
  Ho  Ho2  1  0.492540  0.855070  0.253800  1.0  2.2113
  Ho  Ho3  1  0.007530  0.145170  0.645190  1.0  2.21
  Ho  Ho4  1  0.507460  0.144930  0.746200  1.0  2.2118
  H  H5  1  0.362600  0.747600  0.969500  1.0  0.1415
  H  H6  1  0.244500  0.783000  0.851900  1.0  0.1227
  H  H7  1  0.018900  0.893500  0.923300  1.0  0.1296
  H  H8  1  0.057400  0.752400  0.003100  1.0  0.1414
  H  H9  1  0.134500  0.252900  0.280700  1.0  0.1286
  H  H10  1  0.253400  0.220400  0.187700  1.0  0.1174
  H  H11  1  0.482000  0.104400  0.344400  1.0  0.118
  H  H12  1  0.446600  0.244700  0.321900  1.0  0.1353
  H  H13  1  0.286300  0.509200  0.534900  1.0  0.1029
  H  H14  1  0.417900  0.415500  0.498100  1.0  0.0999
  H  H15  1  0.264800  0.483100  0.311300  1.0  0.1055
  H  H16  1  0.106400  0.561000  0.349300  1.0  0.089
  H  H17  1  0.637400  0.252400  0.030500  1.0  0.1414
  H  H18  1  0.755500  0.217000  0.148100  1.0  0.1222
  H  H19  1  0.981100  0.106500  0.076700  1.0  0.1297
  H  H20  1  0.942600  0.247600  0.996900  1.0  0.14
  H  H21  1  0.865500  0.747100  0.719300  1.0  0.1292
  H  H22  1  0.746600  0.779600  0.812300  1.0  0.1171
  H  H23  1  0.518000  0.895600  0.655600  1.0  0.1176
  H  H24  1  0.553400  0.755300  0.678100  1.0  0.1376
  H  H25  1  0.713700  0.490800  0.465100  1.0  0.1039
  H  H26  1  0.582100  0.584500  0.501900  1.0  0.1009
  H  H27  1  0.735200  0.516900  0.688700  1.0  0.1044
  H  H28  1  0.893600  0.439000  0.650700  1.0  0.0926
  C  C29  1  0.360000  0.927300  0.853600  1.0  0.6769
  C  C30  1  0.274000  0.811800  0.913100  1.0  -0.3176
  C  C31  1  0.107000  0.828000  0.978600  1.0  -0.3758
  C  C32  1  0.365000  0.139300  0.479600  1.0  0.7313
  C  C33  1  0.224000  0.190400  0.270700  1.0  -0.2751
  C  C34  1  0.395000  0.170000  0.351600  1.0  -0.3305
  C  C35  1  0.148000  0.074000  0.299400  1.0  0.6527
  C  C36  1  0.331000  0.636000  0.323100  1.0  0.6866
  C  C37  1  0.137000  0.857200  0.090500  1.0  0.7232
  C  C38  1  0.178000  0.356200  0.548800  1.0  0.6927
  C  C39  1  0.294000  0.455000  0.491700  1.0  -0.3538
  C  C40  1  0.234000  0.531900  0.359100  1.0  -0.2043
  C  C41  1  0.640000  0.072700  0.146400  1.0  0.6766
  C  C42  1  0.726000  0.188200  0.086900  1.0  -0.3171
  C  C43  1  0.893000  0.172000  0.021400  1.0  -0.3751
  C  C44  1  0.635000  0.860700  0.520400  1.0  0.7322
  C  C45  1  0.776000  0.809600  0.729300  1.0  -0.2759
  C  C46  1  0.605000  0.830000  0.648400  1.0  -0.3315
  C  C47  1  0.852000  0.926000  0.700600  1.0  0.6518
  C  C48  1  0.669000  0.364000  0.676900  1.0  0.6871
  C  C49  1  0.863000  0.142800  0.909500  1.0  0.7232
  C  C50  1  0.822000  0.643800  0.451200  1.0  0.6948
  C  C51  1  0.706000  0.545000  0.508300  1.0  -0.3532
  C  C52  1  0.766000  0.468100  0.640900  1.0  -0.2061
  O  O53  1  0.461000  0.645300  0.262100  1.0  -0.6274
  O  O54  1  0.273500  0.725000  0.359100  1.0  -0.7596
  O  O55  1  0.282700  0.888600  0.100100  1.0  -0.6593
  O  O56  1  0.218800  0.106500  0.516000  1.0  -0.6898
  O  O57  1  0.485600  0.148300  0.539800  1.0  -0.5776
  O  O58  1  0.236400  0.976900  0.288000  1.0  -0.7814
  O  O59  1  0.989200  0.065900  0.328800  1.0  -0.6483
  O  O60  1  0.037500  0.349700  0.494500  1.0  -0.6464
  O  O61  1  0.231100  0.273000  0.650900  1.0  -0.7727
  O  O62  1  0.260200  0.023500  0.773200  1.0  -0.7364
  O  O63  1  0.515300  0.929800  0.884000  1.0  -0.6456
  O  O64  1  0.020000  0.845200  0.160800  1.0  -0.6156
  O  O65  1  0.539000  0.354700  0.737900  1.0  -0.6264
  O  O66  1  0.726500  0.275000  0.640900  1.0  -0.7606
  O  O67  1  0.717300  0.111400  0.899900  1.0  -0.6595
  O  O68  1  0.781200  0.893500  0.484000  1.0  -0.688
  O  O69  1  0.514400  0.851700  0.460200  1.0  -0.5798
  O  O70  1  0.763600  0.023100  0.712000  1.0  -0.7824
  O  O71  1  0.010800  0.934100  0.671200  1.0  -0.6482
  O  O72  1  0.962500  0.650300  0.505500  1.0  -0.6475
  O  O73  1  0.768900  0.727000  0.349100  1.0  -0.7733
  O  O74  1  0.739800  0.976500  0.226800  1.0  -0.7365
  O  O75  1  0.484700  0.070200  0.116000  1.0  -0.6442
  O  O76  1  0.980000  0.154800  0.839200  1.0  -0.6174
