# generated using pymatgen
data_NiH9C8(N2F)2
_symmetry_space_group_name_H-M   'P 1'
_cell_length_a   9.93590000
_cell_length_b   9.93590000
_cell_length_c   6.44710000
_cell_angle_alpha   90.00000000
_cell_angle_beta   90.00000000
_cell_angle_gamma   90.00000000
_symmetry_Int_Tables_number   1
_chemical_formula_structural   NiH9C8(N2F)2
_chemical_formula_sum   'Ni2 H18 C16 N8 F4'
_cell_volume   636.47130771
_cell_formula_units_Z   2
loop_
 _symmetry_equiv_pos_site_id
 _symmetry_equiv_pos_as_xyz
  1  'x, y, z'
loop_
 _atom_site_type_symbol
 _atom_site_label
 _atom_site_symmetry_multiplicity
 _atom_site_fract_x
 _atom_site_fract_y
 _atom_site_fract_z
 _atom_site_occupancy
 _atom_site_charge
  Ni  Ni1  1  0.000000  0.000000  0.000000  1.0  0.5902
  Ni  Ni2  1  0.500000  0.500000  0.000000  1.0  0.5902
  H  H3  1  0.201530  0.122500  0.290240  1.0  0.0459
  H  H4  1  0.798470  0.877500  0.290240  1.0  0.045
  H  H5  1  0.377500  0.701530  0.290240  1.0  0.047
  H  H6  1  0.622500  0.298470  0.290240  1.0  0.0466
  H  H7  1  0.298470  0.622500  0.709760  1.0  0.0448
  H  H8  1  0.701530  0.377500  0.709760  1.0  0.0446
  H  H9  1  0.122500  0.201530  0.709760  1.0  0.046
  H  H10  1  0.877500  0.798470  0.709760  1.0  0.0459
  H  H11  1  0.298470  0.377500  0.709760  1.0  0.0445
  H  H12  1  0.701530  0.622500  0.709760  1.0  0.0451
  H  H13  1  0.122500  0.798470  0.709760  1.0  0.0453
  H  H14  1  0.877500  0.201530  0.709760  1.0  0.046
  H  H15  1  0.201530  0.877500  0.290240  1.0  0.0453
  H  H16  1  0.798470  0.122500  0.290240  1.0  0.046
  H  H17  1  0.377500  0.298470  0.290240  1.0  0.0467
  H  H18  1  0.622500  0.701530  0.290240  1.0  0.0464
  H  H19  1  0.000000  0.000000  0.500000  1.0  0.3727
  H  H20  1  0.500000  0.500000  0.500000  1.0  0.3727
  C  C21  1  0.224000  0.176100  0.168800  1.0  0.0967
  C  C22  1  0.776000  0.823900  0.168800  1.0  0.0978
  C  C23  1  0.323900  0.724000  0.168800  1.0  0.0987
  C  C24  1  0.676100  0.276000  0.168800  1.0  0.0975
  C  C25  1  0.276000  0.676100  0.831200  1.0  0.0988
  C  C26  1  0.724000  0.323900  0.831200  1.0  0.0978
  C  C27  1  0.176100  0.224000  0.831200  1.0  0.0986
  C  C28  1  0.823900  0.776000  0.831200  1.0  0.0998
  C  C29  1  0.276000  0.323900  0.831200  1.0  0.0988
  C  C30  1  0.724000  0.676100  0.831200  1.0  0.0979
  C  C31  1  0.176100  0.776000  0.831200  1.0  0.0984
  C  C32  1  0.823900  0.224000  0.831200  1.0  0.1
  C  C33  1  0.224000  0.823900  0.168800  1.0  0.0967
  C  C34  1  0.776000  0.176100  0.168800  1.0  0.0976
  C  C35  1  0.323900  0.276000  0.168800  1.0  0.0987
  C  C36  1  0.676100  0.724000  0.168800  1.0  0.0973
  N  N37  1  0.151100  0.151100  0.000000  1.0  -0.3505
  N  N38  1  0.848900  0.848900  0.000000  1.0  -0.349
  N  N39  1  0.348900  0.651100  0.000000  1.0  -0.3495
  N  N40  1  0.651100  0.348900  0.000000  1.0  -0.3499
  N  N41  1  0.348900  0.348900  0.000000  1.0  -0.3506
  N  N42  1  0.651100  0.651100  0.000000  1.0  -0.3523
  N  N43  1  0.151100  0.848900  0.000000  1.0  -0.3517
  N  N44  1  0.848900  0.151100  0.000000  1.0  -0.351
  F  F45  1  0.000000  0.000000  0.325500  1.0  -0.3565
  F  F46  1  0.500000  0.500000  0.325500  1.0  -0.3565
  F  F47  1  0.500000  0.500000  0.674500  1.0  -0.3552
  F  F48  1  0.000000  0.000000  0.674500  1.0  -0.3552
