# generated using pymatgen
data_CuH7C13NO4
_symmetry_space_group_name_H-M   'P 1'
_cell_length_a   14.20700000
_cell_length_b   14.56400000
_cell_length_c   26.22000000
_cell_angle_alpha   90.00000000
_cell_angle_beta   90.00000000
_cell_angle_gamma   107.08000000
_symmetry_Int_Tables_number   1
_chemical_formula_structural   CuH7C13NO4
_chemical_formula_sum   'Cu8 H56 C104 N8 O32'
_cell_volume   5185.92460826
_cell_formula_units_Z   8
loop_
 _symmetry_equiv_pos_site_id
 _symmetry_equiv_pos_as_xyz
  1  'x, y, z'
loop_
 _atom_site_type_symbol
 _atom_site_label
 _atom_site_symmetry_multiplicity
 _atom_site_fract_x
 _atom_site_fract_y
 _atom_site_fract_z
 _atom_site_occupancy
 _atom_site_charge
  Cu  Cu1  1  0.563760  0.435490  0.797260  1.0  0.7971
  Cu  Cu2  1  0.410980  0.972730  0.479750  1.0  0.887
  Cu  Cu3  1  0.936240  0.564510  0.297260  1.0  0.7959
  Cu  Cu4  1  0.089020  0.027270  0.979750  1.0  0.8893
  Cu  Cu5  1  0.436240  0.564510  0.202740  1.0  0.7982
  Cu  Cu6  1  0.589020  0.027270  0.520250  1.0  0.8909
  Cu  Cu7  1  0.063760  0.435490  0.702740  1.0  0.8005
  Cu  Cu8  1  0.910980  0.972730  0.020250  1.0  0.8883
  H  H9  1  0.740600  0.535200  0.738600  1.0  0.1028
  H  H10  1  0.785500  0.641700  0.667200  1.0  0.1325
  H  H11  1  0.661200  0.682800  0.623300  1.0  0.1134
  H  H12  1  0.468700  0.552900  0.731000  1.0  0.0893
  H  H13  1  0.566800  0.779400  0.614200  1.0  0.1188
  H  H14  1  0.280900  0.742300  0.582400  1.0  0.1179
  H  H15  1  0.355400  0.551200  0.674200  1.0  0.0899
  H  H16  1  0.424700  0.260900  0.852500  1.0  0.1117
  H  H17  1  0.438700  0.118400  0.887100  1.0  0.1269
  H  H18  1  0.590900  0.095500  0.896100  1.0  0.1077
  H  H19  1  0.710600  0.356600  0.831400  1.0  0.0795
  H  H20  1  0.765400  0.126100  0.924300  1.0  0.0977
  H  H21  1  0.036500  0.201900  0.858600  1.0  0.1246
  H  H22  1  0.816700  0.291400  0.797600  1.0  0.098
  H  H23  1  0.759400  0.464800  0.238600  1.0  0.102
  H  H24  1  0.714500  0.358300  0.167200  1.0  0.1313
  H  H25  1  0.838800  0.317200  0.123300  1.0  0.1137
  H  H26  1  0.031300  0.447100  0.231000  1.0  0.0894
  H  H27  1  0.933200  0.220600  0.114200  1.0  0.1191
  H  H28  1  0.219100  0.257700  0.082400  1.0  0.1174
  H  H29  1  0.144600  0.448800  0.174200  1.0  0.0892
  H  H30  1  0.075300  0.739100  0.352500  1.0  0.1106
  H  H31  1  0.061300  0.881600  0.387100  1.0  0.1259
  H  H32  1  0.909100  0.904500  0.396100  1.0  0.1079
  H  H33  1  0.789400  0.643400  0.331400  1.0  0.0809
  H  H34  1  0.734600  0.873900  0.424300  1.0  0.0976
  H  H35  1  0.463500  0.798100  0.358600  1.0  0.1242
  H  H36  1  0.683300  0.708600  0.297600  1.0  0.0981
  H  H37  1  0.259400  0.464800  0.261400  1.0  0.1024
  H  H38  1  0.214500  0.358300  0.332800  1.0  0.1306
  H  H39  1  0.338800  0.317200  0.376700  1.0  0.1137
  H  H40  1  0.531300  0.447100  0.269000  1.0  0.0894
  H  H41  1  0.433200  0.220600  0.385800  1.0  0.1191
  H  H42  1  0.719100  0.257700  0.417600  1.0  0.1175
  H  H43  1  0.644600  0.448800  0.325800  1.0  0.0889
  H  H44  1  0.575300  0.739100  0.147500  1.0  0.111
  H  H45  1  0.561300  0.881600  0.112900  1.0  0.1262
  H  H46  1  0.409100  0.904500  0.103900  1.0  0.1078
  H  H47  1  0.289400  0.643400  0.168600  1.0  0.0807
  H  H48  1  0.234600  0.873900  0.075700  1.0  0.0982
  H  H49  1  0.963500  0.798100  0.141400  1.0  0.124
  H  H50  1  0.183300  0.708600  0.202400  1.0  0.0983
  H  H51  1  0.240600  0.535200  0.761400  1.0  0.1027
  H  H52  1  0.285500  0.641700  0.832800  1.0  0.132
  H  H53  1  0.161200  0.682800  0.876700  1.0  0.1132
  H  H54  1  0.968700  0.552900  0.769000  1.0  0.0895
  H  H55  1  0.066800  0.779400  0.885800  1.0  0.1186
  H  H56  1  0.780900  0.742300  0.917600  1.0  0.1182
  H  H57  1  0.855400  0.551200  0.825800  1.0  0.0892
  H  H58  1  0.924700  0.260900  0.647500  1.0  0.111
  H  H59  1  0.938700  0.118400  0.612900  1.0  0.1267
  H  H60  1  0.090900  0.095500  0.603900  1.0  0.1077
  H  H61  1  0.210600  0.356600  0.668600  1.0  0.0795
  H  H62  1  0.265400  0.126100  0.575700  1.0  0.0984
  H  H63  1  0.536500  0.201900  0.641400  1.0  0.1244
  H  H64  1  0.316700  0.291400  0.702400  1.0  0.0983
  C  C65  1  0.692900  0.558800  0.722100  1.0  0.1485
  C  C66  1  0.719300  0.620300  0.678800  1.0  -0.1625
  C  C67  1  0.646500  0.647700  0.654300  1.0  -0.0414
  C  C68  1  0.551900  0.625000  0.673900  1.0  -0.0083
  C  C69  1  0.532900  0.568700  0.716600  1.0  0.1174
  C  C70  1  0.471600  0.654600  0.649000  1.0  -0.001
  C  C71  1  0.499800  0.742400  0.617400  1.0  -0.0801
  C  C72  1  0.426200  0.769300  0.592500  1.0  -0.1085
  C  C73  1  0.330200  0.720700  0.598700  1.0  -0.0144
  C  C74  1  0.302500  0.634700  0.630500  1.0  -0.0854
  C  C75  1  0.373900  0.607200  0.653500  1.0  -0.0705
  C  C76  1  0.194800  0.583200  0.638000  1.0  0.6068
  C  C77  1  0.451900  0.856300  0.557900  1.0  0.6682
  C  C78  1  0.487200  0.250200  0.855500  1.0  0.1313
  C  C79  1  0.495800  0.166600  0.875900  1.0  -0.1553
  C  C80  1  0.585900  0.152600  0.880300  1.0  -0.0577
  C  C81  1  0.673800  0.221300  0.861700  1.0  -0.0149
  C  C82  1  0.655800  0.305800  0.842600  1.0  0.1526
  C  C83  1  0.771200  0.212200  0.862200  1.0  0.0198
  C  C84  1  0.808100  0.159400  0.898000  1.0  -0.0548
  C  C85  1  0.900700  0.153800  0.896800  1.0  -0.1318
  C  C86  1  0.970000  0.203100  0.859100  1.0  -0.0207
  C  C87  1  0.931100  0.254100  0.822400  1.0  -0.1175
  C  C88  1  0.838500  0.257300  0.823700  1.0  -0.0751
  C  C89  1  0.942500  0.095600  0.935000  1.0  0.6688
  C  C90  1  0.008700  0.311400  0.781900  1.0  0.6295
  C  C91  1  0.807100  0.441200  0.222100  1.0  0.1492
  C  C92  1  0.780700  0.379700  0.178800  1.0  -0.1622
  C  C93  1  0.853500  0.352300  0.154300  1.0  -0.0408
  C  C94  1  0.948100  0.375000  0.173900  1.0  -0.0085
  C  C95  1  0.967100  0.431300  0.216600  1.0  0.1186
  C  C96  1  0.028400  0.345400  0.149000  1.0  -0.0022
  C  C97  1  0.000200  0.257600  0.117400  1.0  -0.0795
  C  C98  1  0.073800  0.230700  0.092500  1.0  -0.1088
  C  C99  1  0.169800  0.279300  0.098700  1.0  -0.0142
  C  C100  1  0.197500  0.365300  0.130500  1.0  -0.0858
  C  C101  1  0.126100  0.392800  0.153500  1.0  -0.0705
  C  C102  1  0.305200  0.416800  0.138000  1.0  0.6047
  C  C103  1  0.048100  0.143700  0.057900  1.0  0.6685
  C  C104  1  0.012800  0.749800  0.355500  1.0  0.1309
  C  C105  1  0.004200  0.833400  0.375900  1.0  -0.1535
  C  C106  1  0.914100  0.847400  0.380300  1.0  -0.0593
  C  C107  1  0.826200  0.778700  0.361700  1.0  -0.0138
  C  C108  1  0.844200  0.694200  0.342600  1.0  0.1525
  C  C109  1  0.728800  0.787800  0.362200  1.0  0.02
  C  C110  1  0.691900  0.840600  0.398000  1.0  -0.0539
  C  C111  1  0.599300  0.846200  0.396800  1.0  -0.1324
  C  C112  1  0.530000  0.796900  0.359100  1.0  -0.023
  C  C113  1  0.568900  0.745900  0.322400  1.0  -0.1155
  C  C114  1  0.661500  0.742700  0.323700  1.0  -0.0758
  C  C115  1  0.557500  0.904400  0.435000  1.0  0.6684
  C  C116  1  0.491300  0.688600  0.281900  1.0  0.6293
  C  C117  1  0.307100  0.441200  0.277900  1.0  0.1478
  C  C118  1  0.280700  0.379700  0.321200  1.0  -0.1611
  C  C119  1  0.353500  0.352300  0.345700  1.0  -0.0417
  C  C120  1  0.448100  0.375000  0.326100  1.0  -0.0089
  C  C121  1  0.467100  0.431300  0.283400  1.0  0.1191
  C  C122  1  0.528400  0.345400  0.351000  1.0  -0.0024
  C  C123  1  0.500200  0.257600  0.382600  1.0  -0.0796
  C  C124  1  0.573800  0.230700  0.407500  1.0  -0.1088
  C  C125  1  0.669800  0.279300  0.401300  1.0  -0.0141
  C  C126  1  0.697500  0.365300  0.369500  1.0  -0.0872
  C  C127  1  0.626100  0.392800  0.346500  1.0  -0.0704
  C  C128  1  0.805200  0.416800  0.362000  1.0  0.6052
  C  C129  1  0.548100  0.143700  0.442100  1.0  0.6687
  C  C130  1  0.512800  0.749800  0.144500  1.0  0.1308
  C  C131  1  0.504200  0.833400  0.124100  1.0  -0.1532
  C  C132  1  0.414100  0.847400  0.119700  1.0  -0.059
  C  C133  1  0.326200  0.778700  0.138300  1.0  -0.0122
  C  C134  1  0.344200  0.694200  0.157400  1.0  0.1528
  C  C135  1  0.228800  0.787800  0.137800  1.0  0.0202
  C  C136  1  0.191900  0.840600  0.102000  1.0  -0.0536
  C  C137  1  0.099300  0.846200  0.103200  1.0  -0.1327
  C  C138  1  0.030000  0.796900  0.140900  1.0  -0.0232
  C  C139  1  0.068900  0.745900  0.177600  1.0  -0.1155
  C  C140  1  0.161500  0.742700  0.176300  1.0  -0.0759
  C  C141  1  0.057500  0.904400  0.065000  1.0  0.6682
  C  C142  1  0.991300  0.688600  0.218100  1.0  0.6296
  C  C143  1  0.192900  0.558800  0.777900  1.0  0.1477
  C  C144  1  0.219300  0.620300  0.821200  1.0  -0.1617
  C  C145  1  0.146500  0.647700  0.845700  1.0  -0.043
  C  C146  1  0.051900  0.625000  0.826100  1.0  -0.0082
  C  C147  1  0.032900  0.568700  0.783400  1.0  0.1184
  C  C148  1  0.971600  0.654600  0.851000  1.0  -0.0012
  C  C149  1  0.999800  0.742400  0.882600  1.0  -0.0803
  C  C150  1  0.926200  0.769300  0.907500  1.0  -0.1086
  C  C151  1  0.830200  0.720700  0.901300  1.0  -0.0142
  C  C152  1  0.802500  0.634700  0.869500  1.0  -0.0861
  C  C153  1  0.873900  0.607200  0.846500  1.0  -0.0707
  C  C154  1  0.694800  0.583200  0.862000  1.0  0.6054
  C  C155  1  0.951900  0.856300  0.942100  1.0  0.6683
  C  C156  1  0.987200  0.250200  0.644500  1.0  0.1308
  C  C157  1  0.995800  0.166600  0.624100  1.0  -0.1549
  C  C158  1  0.085900  0.152600  0.619700  1.0  -0.0566
  C  C159  1  0.173800  0.221300  0.638300  1.0  -0.0135
  C  C160  1  0.155800  0.305800  0.657400  1.0  0.153
  C  C161  1  0.271200  0.212200  0.637800  1.0  0.0201
  C  C162  1  0.308100  0.159400  0.602000  1.0  -0.0535
  C  C163  1  0.400700  0.153800  0.603200  1.0  -0.1314
  C  C164  1  0.470000  0.203100  0.640900  1.0  -0.0207
  C  C165  1  0.431100  0.254100  0.677600  1.0  -0.118
  C  C166  1  0.338500  0.257300  0.676300  1.0  -0.0749
  C  C167  1  0.442500  0.095600  0.565000  1.0  0.6687
  C  C168  1  0.508700  0.311400  0.718100  1.0  0.6299
  N  N169  1  0.600600  0.535000  0.739000  1.0  -0.2918
  N  N170  1  0.569700  0.317400  0.839600  1.0  -0.2868
  N  N171  1  0.899400  0.465000  0.239000  1.0  -0.2915
  N  N172  1  0.930300  0.682600  0.339600  1.0  -0.2873
  N  N173  1  0.399400  0.465000  0.261000  1.0  -0.2912
  N  N174  1  0.430300  0.682600  0.160400  1.0  -0.2868
  N  N175  1  0.100600  0.535000  0.761000  1.0  -0.2922
  N  N176  1  0.069700  0.317400  0.660400  1.0  -0.2868
  O  O177  1  0.125800  0.586800  0.606500  1.0  -0.5757
  O  O178  1  0.179900  0.509300  0.666950  1.0  -0.599
  O  O179  1  0.386900  0.866300  0.527730  1.0  -0.5567
  O  O180  1  0.538800  0.911300  0.561760  1.0  -0.5654
  O  O181  1  0.876000  0.050700  0.967110  1.0  -0.5753
  O  O182  1  0.028000  0.096800  0.933080  1.0  -0.5365
  O  O183  1  0.096700  0.315400  0.782590  1.0  -0.5609
  O  O184  1  0.967100  0.352700  0.748410  1.0  -0.5938
  O  O185  1  0.374200  0.413200  0.106500  1.0  -0.5742
  O  O186  1  0.320100  0.490700  0.166950  1.0  -0.5982
  O  O187  1  0.113100  0.133700  0.027730  1.0  -0.5566
  O  O188  1  0.961200  0.088700  0.061760  1.0  -0.5649
  O  O189  1  0.624000  0.949300  0.467110  1.0  -0.5755
  O  O190  1  0.472000  0.903200  0.433080  1.0  -0.5362
  O  O191  1  0.403300  0.684600  0.282590  1.0  -0.5613
  O  O192  1  0.532900  0.647300  0.248410  1.0  -0.5932
  O  O193  1  0.874200  0.413200  0.393500  1.0  -0.5747
  O  O194  1  0.820100  0.490700  0.333050  1.0  -0.5983
  O  O195  1  0.613100  0.133700  0.472270  1.0  -0.5566
  O  O196  1  0.461200  0.088700  0.438240  1.0  -0.5653
  O  O197  1  0.124000  0.949300  0.032890  1.0  -0.5748
  O  O198  1  0.972000  0.903200  0.066920  1.0  -0.5357
  O  O199  1  0.903300  0.684600  0.217410  1.0  -0.5614
  O  O200  1  0.032900  0.647300  0.251590  1.0  -0.5927
  O  O201  1  0.625800  0.586800  0.893500  1.0  -0.5723
  O  O202  1  0.679900  0.509300  0.833050  1.0  -0.5992
  O  O203  1  0.886900  0.866300  0.972270  1.0  -0.5562
  O  O204  1  0.038800  0.911300  0.938240  1.0  -0.5652
  O  O205  1  0.376000  0.050700  0.532890  1.0  -0.5754
  O  O206  1  0.528000  0.096800  0.566920  1.0  -0.5367
  O  O207  1  0.596700  0.315400  0.717410  1.0  -0.5605
  O  O208  1  0.467100  0.352700  0.751590  1.0  -0.5933
