# generated using pymatgen
data_FePO4
_symmetry_space_group_name_H-M   'P 1'
_cell_length_a   10.29200000
_cell_length_b   10.29200000
_cell_length_c   9.62900000
_cell_angle_alpha   90.00000000
_cell_angle_beta   90.00000000
_cell_angle_gamma   90.00000000
_symmetry_Int_Tables_number   1
_chemical_formula_structural   FePO4
_chemical_formula_sum   'Fe8 P8 O32'
_cell_volume   1019.95436706
_cell_formula_units_Z   8
loop_
 _symmetry_equiv_pos_site_id
 _symmetry_equiv_pos_as_xyz
  1  'x, y, z'
loop_
 _atom_site_type_symbol
 _atom_site_label
 _atom_site_symmetry_multiplicity
 _atom_site_fract_x
 _atom_site_fract_y
 _atom_site_fract_z
 _atom_site_occupancy
 _atom_site_charge
  Fe  Fe1  1  0.634420  0.634420  0.365200  1.0  1.049
  Fe  Fe2  1  0.134420  0.134420  0.865200  1.0  1.049
  Fe  Fe3  1  0.365580  0.365580  0.365200  1.0  1.0496
  Fe  Fe4  1  0.865580  0.865580  0.865200  1.0  1.0496
  Fe  Fe5  1  0.634420  0.365580  0.634800  1.0  1.0498
  Fe  Fe6  1  0.134420  0.865580  0.134800  1.0  1.0498
  Fe  Fe7  1  0.365580  0.634420  0.634800  1.0  1.0493
  Fe  Fe8  1  0.865580  0.134420  0.134800  1.0  1.0493
  P  P9  1  0.663100  0.663100  0.691500  1.0  1.8337
  P  P10  1  0.163100  0.163100  0.191500  1.0  1.8338
  P  P11  1  0.336900  0.336900  0.691500  1.0  1.7722
  P  P12  1  0.836900  0.836900  0.191500  1.0  1.7722
  P  P13  1  0.663100  0.336900  0.308500  1.0  1.8337
  P  P14  1  0.163100  0.836900  0.808500  1.0  1.8337
  P  P15  1  0.336900  0.663100  0.308500  1.0  1.7872
  P  P16  1  0.836900  0.163100  0.808500  1.0  1.7872
  O  O17  1  0.523500  0.695100  0.722900  1.0  -0.688
  O  O18  1  0.023500  0.195100  0.222900  1.0  -0.688
  O  O19  1  0.476500  0.304900  0.722900  1.0  -0.6879
  O  O20  1  0.976500  0.804900  0.222900  1.0  -0.6879
  O  O21  1  0.695100  0.476500  0.277100  1.0  -0.6881
  O  O22  1  0.195100  0.976500  0.777100  1.0  -0.6881
  O  O23  1  0.304900  0.523500  0.277100  1.0  -0.6897
  O  O24  1  0.804900  0.023500  0.777100  1.0  -0.6907
  O  O25  1  0.476500  0.695100  0.277100  1.0  -0.6872
  O  O26  1  0.976500  0.195100  0.777100  1.0  -0.6872
  O  O27  1  0.523500  0.304900  0.277100  1.0  -0.6897
  O  O28  1  0.023500  0.804900  0.777100  1.0  -0.6905
  O  O29  1  0.304900  0.476500  0.722900  1.0  -0.6881
  O  O30  1  0.804900  0.976500  0.222900  1.0  -0.6881
  O  O31  1  0.695100  0.523500  0.722900  1.0  -0.6883
  O  O32  1  0.195100  0.023500  0.222900  1.0  -0.6883
  O  O33  1  0.702600  0.702600  0.545900  1.0  -0.6994
  O  O34  1  0.738200  0.738200  0.795000  1.0  -0.7797
  O  O35  1  0.202600  0.202600  0.045900  1.0  -0.7001
  O  O36  1  0.238200  0.238200  0.295000  1.0  -0.7797
  O  O37  1  0.297400  0.297400  0.545900  1.0  -0.6993
  O  O38  1  0.261800  0.261800  0.795000  1.0  -0.7819
  O  O39  1  0.797400  0.797400  0.045900  1.0  -0.6993
  O  O40  1  0.761800  0.761800  0.295000  1.0  -0.7819
  O  O41  1  0.702600  0.297400  0.454100  1.0  -0.6987
  O  O42  1  0.738200  0.261800  0.205000  1.0  -0.7788
  O  O43  1  0.202600  0.797400  0.954100  1.0  -0.6987
  O  O44  1  0.238200  0.761800  0.705000  1.0  -0.779
  O  O45  1  0.297400  0.702600  0.454100  1.0  -0.6979
  O  O46  1  0.261800  0.738200  0.205000  1.0  -0.7805
  O  O47  1  0.797400  0.202600  0.954100  1.0  -0.6985
  O  O48  1  0.761800  0.238200  0.705000  1.0  -0.7799
