# generated using pymatgen
data_FePO4
_symmetry_space_group_name_H-M   'P 1'
_cell_length_a   10.29410000
_cell_length_b   10.29410000
_cell_length_c   9.64840000
_cell_angle_alpha   90.00000000
_cell_angle_beta   90.00000000
_cell_angle_gamma   90.00000000
_symmetry_Int_Tables_number   1
_chemical_formula_structural   FePO4
_chemical_formula_sum   'Fe8 P8 O32'
_cell_volume   1022.42642532
_cell_formula_units_Z   8
loop_
 _symmetry_equiv_pos_site_id
 _symmetry_equiv_pos_as_xyz
  1  'x, y, z'
loop_
 _atom_site_type_symbol
 _atom_site_label
 _atom_site_symmetry_multiplicity
 _atom_site_fract_x
 _atom_site_fract_y
 _atom_site_fract_z
 _atom_site_occupancy
 _atom_site_charge
  Fe  Fe1  1  0.366870  0.633130  0.632220  1.0  1.1646
  Fe  Fe2  1  0.866870  0.133130  0.132220  1.0  1.1646
  Fe  Fe3  1  0.633130  0.366870  0.632220  1.0  1.1702
  Fe  Fe4  1  0.133130  0.866870  0.132220  1.0  1.1702
  Fe  Fe5  1  0.633130  0.633130  0.367780  1.0  1.1694
  Fe  Fe6  1  0.133130  0.133130  0.867780  1.0  1.1694
  Fe  Fe7  1  0.366870  0.366870  0.367780  1.0  1.1693
  Fe  Fe8  1  0.866870  0.866870  0.867780  1.0  1.1693
  P  P9  1  0.336310  0.336310  0.692900  1.0  1.7791
  P  P10  1  0.836310  0.836310  0.192900  1.0  1.7791
  P  P11  1  0.663690  0.663690  0.692900  1.0  1.7738
  P  P12  1  0.163690  0.163690  0.192900  1.0  1.7738
  P  P13  1  0.336310  0.663690  0.307100  1.0  1.7802
  P  P14  1  0.836310  0.163690  0.807100  1.0  1.7802
  P  P15  1  0.663690  0.336310  0.307100  1.0  1.7908
  P  P16  1  0.163690  0.836310  0.807100  1.0  1.7908
  O  O17  1  0.304600  0.477000  0.719800  1.0  -0.7305
  O  O18  1  0.804600  0.977000  0.219800  1.0  -0.7305
  O  O19  1  0.695400  0.523000  0.719800  1.0  -0.7313
  O  O20  1  0.195400  0.023000  0.219800  1.0  -0.7316
  O  O21  1  0.477000  0.695400  0.280200  1.0  -0.7274
  O  O22  1  0.977000  0.195400  0.780200  1.0  -0.7275
  O  O23  1  0.523000  0.304600  0.280200  1.0  -0.7296
  O  O24  1  0.023000  0.804600  0.780200  1.0  -0.7296
  O  O25  1  0.695400  0.477000  0.280200  1.0  -0.7298
  O  O26  1  0.195400  0.977000  0.780200  1.0  -0.7297
  O  O27  1  0.304600  0.523000  0.280200  1.0  -0.7296
  O  O28  1  0.804600  0.023000  0.780200  1.0  -0.7296
  O  O29  1  0.523000  0.695400  0.719800  1.0  -0.7298
  O  O30  1  0.023000  0.195400  0.219800  1.0  -0.7298
  O  O31  1  0.477000  0.304600  0.719800  1.0  -0.7303
  O  O32  1  0.977000  0.804600  0.219800  1.0  -0.7303
  O  O33  1  0.299200  0.299200  0.548400  1.0  -0.7275
  O  O34  1  0.256200  0.256200  0.790200  1.0  -0.7617
  O  O35  1  0.799200  0.799200  0.048400  1.0  -0.7275
  O  O36  1  0.756200  0.756200  0.290200  1.0  -0.7617
  O  O37  1  0.700800  0.700800  0.548400  1.0  -0.7277
  O  O38  1  0.743800  0.743800  0.790200  1.0  -0.7615
  O  O39  1  0.200800  0.200800  0.048400  1.0  -0.7277
  O  O40  1  0.243800  0.243800  0.290200  1.0  -0.7615
  O  O41  1  0.299200  0.700800  0.451600  1.0  -0.7274
  O  O42  1  0.256200  0.743800  0.209800  1.0  -0.763
  O  O43  1  0.799200  0.200800  0.951600  1.0  -0.7274
  O  O44  1  0.756200  0.243800  0.709800  1.0  -0.763
  O  O45  1  0.700800  0.299200  0.451600  1.0  -0.727
  O  O46  1  0.743800  0.256200  0.209800  1.0  -0.7635
  O  O47  1  0.200800  0.799200  0.951600  1.0  -0.727
  O  O48  1  0.243800  0.756200  0.709800  1.0  -0.7635
