# generated using pymatgen
data_FePO4
_symmetry_space_group_name_H-M   'P 1'
_cell_length_a   10.26600000
_cell_length_b   10.26600000
_cell_length_c   9.63110000
_cell_angle_alpha   90.00000000
_cell_angle_beta   90.00000000
_cell_angle_gamma   90.00000000
_symmetry_Int_Tables_number   1
_chemical_formula_structural   FePO4
_chemical_formula_sum   'Fe8 P8 O32'
_cell_volume   1015.02891011
_cell_formula_units_Z   8
loop_
 _symmetry_equiv_pos_site_id
 _symmetry_equiv_pos_as_xyz
  1  'x, y, z'
loop_
 _atom_site_type_symbol
 _atom_site_label
 _atom_site_symmetry_multiplicity
 _atom_site_fract_x
 _atom_site_fract_y
 _atom_site_fract_z
 _atom_site_occupancy
 _atom_site_charge
  Fe  Fe1  1  0.367250  0.367250  0.131210  1.0  1.2178
  Fe  Fe2  1  0.867250  0.867250  0.631210  1.0  1.2178
  Fe  Fe3  1  0.632750  0.632750  0.131210  1.0  1.2172
  Fe  Fe4  1  0.132750  0.132750  0.631210  1.0  1.2172
  Fe  Fe5  1  0.367250  0.632750  0.868790  1.0  1.214
  Fe  Fe6  1  0.867250  0.132750  0.368790  1.0  1.214
  Fe  Fe7  1  0.632750  0.367250  0.868790  1.0  1.2159
  Fe  Fe8  1  0.132750  0.867250  0.368790  1.0  1.2159
  P  P9  1  0.335840  0.335840  0.806300  1.0  1.8177
  P  P10  1  0.835840  0.835840  0.306300  1.0  1.8177
  P  P11  1  0.664160  0.664160  0.806300  1.0  1.8296
  P  P12  1  0.164160  0.164160  0.306300  1.0  1.8296
  P  P13  1  0.335840  0.664160  0.193700  1.0  1.8121
  P  P14  1  0.835840  0.164160  0.693700  1.0  1.8121
  P  P15  1  0.664160  0.335840  0.193700  1.0  1.8171
  P  P16  1  0.164160  0.835840  0.693700  1.0  1.8171
  O  O17  1  0.304400  0.477900  0.778800  1.0  -0.7389
  O  O18  1  0.804400  0.977900  0.278800  1.0  -0.7389
  O  O19  1  0.695600  0.522100  0.778800  1.0  -0.7381
  O  O20  1  0.195600  0.022100  0.278800  1.0  -0.739
  O  O21  1  0.477900  0.695600  0.221200  1.0  -0.7391
  O  O22  1  0.977900  0.195600  0.721200  1.0  -0.7391
  O  O23  1  0.522100  0.304400  0.221200  1.0  -0.7399
  O  O24  1  0.022100  0.804400  0.721200  1.0  -0.7399
  O  O25  1  0.695600  0.477900  0.221200  1.0  -0.739
  O  O26  1  0.195600  0.977900  0.721200  1.0  -0.739
  O  O27  1  0.304400  0.522100  0.221200  1.0  -0.74
  O  O28  1  0.804400  0.022100  0.721200  1.0  -0.74
  O  O29  1  0.522100  0.695600  0.778800  1.0  -0.7395
  O  O30  1  0.022100  0.195600  0.278800  1.0  -0.7395
  O  O31  1  0.477900  0.304400  0.778800  1.0  -0.7387
  O  O32  1  0.977900  0.804400  0.278800  1.0  -0.7387
  O  O33  1  0.300400  0.300400  0.954800  1.0  -0.7222
  O  O34  1  0.256400  0.256400  0.707400  1.0  -0.8349
  O  O35  1  0.800400  0.800400  0.454800  1.0  -0.7222
  O  O36  1  0.756400  0.756400  0.207400  1.0  -0.8349
  O  O37  1  0.699600  0.699600  0.954800  1.0  -0.7217
  O  O38  1  0.743600  0.743600  0.707400  1.0  -0.8339
  O  O39  1  0.199600  0.199600  0.454800  1.0  -0.7217
  O  O40  1  0.243600  0.243600  0.207400  1.0  -0.8339
  O  O41  1  0.300400  0.699600  0.045200  1.0  -0.723
  O  O42  1  0.256400  0.743600  0.292600  1.0  -0.8353
  O  O43  1  0.800400  0.199600  0.545200  1.0  -0.723
  O  O44  1  0.756400  0.243600  0.792600  1.0  -0.8353
  O  O45  1  0.699600  0.300400  0.045200  1.0  -0.7226
  O  O46  1  0.743600  0.256400  0.292600  1.0  -0.8341
  O  O47  1  0.199600  0.800400  0.545200  1.0  -0.7226
  O  O48  1  0.243600  0.756400  0.792600  1.0  -0.8341
