# generated using pymatgen
data_KLa(CO2)5
_symmetry_space_group_name_H-M   'P 1'
_cell_length_a   18.81680000
_cell_length_b   11.35110000
_cell_length_c   16.92840000
_cell_angle_alpha   90.00000000
_cell_angle_beta   102.05100000
_cell_angle_gamma   90.00000000
_symmetry_Int_Tables_number   1
_chemical_formula_structural   KLa(CO2)5
_chemical_formula_sum   'K8 La8 C40 O80'
_cell_volume   3536.07669890
_cell_formula_units_Z   8
loop_
 _symmetry_equiv_pos_site_id
 _symmetry_equiv_pos_as_xyz
  1  'x, y, z'
loop_
 _atom_site_type_symbol
 _atom_site_label
 _atom_site_symmetry_multiplicity
 _atom_site_fract_x
 _atom_site_fract_y
 _atom_site_fract_z
 _atom_site_occupancy
 _atom_site_charge
  K  K1  1  0.654390  0.099500  0.524680  1.0  0.9317
  K  K2  1  0.154390  0.599500  0.524680  1.0  0.9317
  K  K3  1  0.345610  0.099500  0.975320  1.0  0.9322
  K  K4  1  0.845610  0.599500  0.975320  1.0  0.9322
  K  K5  1  0.345610  0.900500  0.475320  1.0  0.9333
  K  K6  1  0.845610  0.400500  0.475320  1.0  0.9333
  K  K7  1  0.654390  0.900500  0.024680  1.0  0.9322
  K  K8  1  0.154390  0.400500  0.024680  1.0  0.9322
  La  La9  1  0.310000  0.209920  0.335980  1.0  2.1184
  La  La10  1  0.810000  0.709920  0.335980  1.0  2.1184
  La  La11  1  0.690000  0.209920  0.164020  1.0  2.1183
  La  La12  1  0.190000  0.709920  0.164020  1.0  2.1183
  La  La13  1  0.690000  0.790080  0.664020  1.0  2.1185
  La  La14  1  0.190000  0.290080  0.664020  1.0  2.1185
  La  La15  1  0.310000  0.790080  0.835980  1.0  2.1184
  La  La16  1  0.810000  0.290080  0.835980  1.0  2.1184
  C  C17  1  0.460400  0.152400  0.479000  1.0  0.6941
  C  C18  1  0.490200  0.188800  0.403500  1.0  0.6584
  C  C19  1  0.290400  0.484700  0.261400  1.0  0.619
  C  C20  1  0.232300  0.187500  0.495000  1.0  0.5834
  C  C21  1  0.214500  0.431100  0.231700  1.0  0.6364
  C  C22  1  0.960400  0.652400  0.479000  1.0  0.6941
  C  C23  1  0.990200  0.688800  0.403500  1.0  0.6584
  C  C24  1  0.790400  0.984700  0.261400  1.0  0.619
  C  C25  1  0.732300  0.687500  0.495000  1.0  0.5834
  C  C26  1  0.714500  0.931100  0.231700  1.0  0.6364
  C  C27  1  0.539600  0.152400  0.021000  1.0  0.6954
  C  C28  1  0.509800  0.188800  0.096500  1.0  0.6564
  C  C29  1  0.709600  0.484700  0.238600  1.0  0.6194
  C  C30  1  0.767700  0.187500  0.005000  1.0  0.5822
  C  C31  1  0.785500  0.431100  0.268300  1.0  0.6372
  C  C32  1  0.039600  0.652400  0.021000  1.0  0.6954
  C  C33  1  0.009800  0.688800  0.096500  1.0  0.6564
  C  C34  1  0.209600  0.984700  0.238600  1.0  0.6194
  C  C35  1  0.267700  0.687500  0.005000  1.0  0.5822
  C  C36  1  0.285500  0.931100  0.268300  1.0  0.6372
  C  C37  1  0.539600  0.847600  0.521000  1.0  0.6947
  C  C38  1  0.509800  0.811200  0.596500  1.0  0.6564
  C  C39  1  0.709600  0.515300  0.738600  1.0  0.6192
  C  C40  1  0.767700  0.812500  0.505000  1.0  0.5809
  C  C41  1  0.785500  0.568900  0.768300  1.0  0.6371
  C  C42  1  0.039600  0.347600  0.521000  1.0  0.6947
  C  C43  1  0.009800  0.311200  0.596500  1.0  0.6564
  C  C44  1  0.209600  0.015300  0.738600  1.0  0.6192
  C  C45  1  0.267700  0.312500  0.505000  1.0  0.5809
  C  C46  1  0.285500  0.068900  0.768300  1.0  0.6371
  C  C47  1  0.460400  0.847600  0.979000  1.0  0.6946
  C  C48  1  0.490200  0.811200  0.903500  1.0  0.6575
  C  C49  1  0.290400  0.515300  0.761400  1.0  0.6187
  C  C50  1  0.232300  0.812500  0.995000  1.0  0.5822
  C  C51  1  0.214500  0.568900  0.731700  1.0  0.6364
  C  C52  1  0.960400  0.347600  0.979000  1.0  0.6946
  C  C53  1  0.990200  0.311200  0.903500  1.0  0.6575
  C  C54  1  0.790400  0.015300  0.761400  1.0  0.6187
  C  C55  1  0.732300  0.312500  0.995000  1.0  0.5822
  C  C56  1  0.714500  0.068900  0.731700  1.0  0.6364
  O  O57  1  0.392900  0.147600  0.468600  1.0  -0.7003
  O  O58  1  0.504400  0.132600  0.542900  1.0  -0.6101
  O  O59  1  0.442600  0.216700  0.342800  1.0  -0.6658
  O  O60  1  0.555500  0.190500  0.406700  1.0  -0.5953
  O  O61  1  0.338400  0.418800  0.297500  1.0  -0.5753
  O  O62  1  0.227800  0.139500  0.427600  1.0  -0.6366
  O  O63  1  0.170700  0.488700  0.180400  1.0  -0.649
  O  O64  1  0.210100  0.147200  0.553600  1.0  -0.5624
  O  O65  1  0.202200  0.334300  0.259400  1.0  -0.5886
  O  O66  1  0.297500  0.591500  0.246300  1.0  -0.6551
  O  O67  1  0.892900  0.647600  0.468600  1.0  -0.7003
  O  O68  1  0.004400  0.632600  0.542900  1.0  -0.6101
  O  O69  1  0.942600  0.716700  0.342800  1.0  -0.6658
  O  O70  1  0.055500  0.690500  0.406700  1.0  -0.5953
  O  O71  1  0.838400  0.918800  0.297500  1.0  -0.5753
  O  O72  1  0.727800  0.639500  0.427600  1.0  -0.6366
  O  O73  1  0.670700  0.988700  0.180400  1.0  -0.649
  O  O74  1  0.710100  0.647200  0.553600  1.0  -0.5624
  O  O75  1  0.702200  0.834300  0.259400  1.0  -0.5886
  O  O76  1  0.797500  0.091500  0.246300  1.0  -0.6551
  O  O77  1  0.607100  0.147600  0.031400  1.0  -0.7006
  O  O78  1  0.495600  0.132600  0.957100  1.0  -0.6077
  O  O79  1  0.557400  0.216700  0.157200  1.0  -0.6656
  O  O80  1  0.444500  0.190500  0.093300  1.0  -0.5971
  O  O81  1  0.661600  0.418800  0.202500  1.0  -0.5752
  O  O82  1  0.772200  0.139500  0.072400  1.0  -0.637
  O  O83  1  0.829300  0.488700  0.319600  1.0  -0.6505
  O  O84  1  0.789900  0.147200  0.946400  1.0  -0.5639
  O  O85  1  0.797800  0.334300  0.240600  1.0  -0.5883
  O  O86  1  0.702500  0.591500  0.253700  1.0  -0.6567
  O  O87  1  0.107100  0.647600  0.031400  1.0  -0.7006
  O  O88  1  0.995600  0.632600  0.957100  1.0  -0.6077
  O  O89  1  0.057400  0.716700  0.157200  1.0  -0.6656
  O  O90  1  0.944500  0.690500  0.093300  1.0  -0.5971
  O  O91  1  0.161600  0.918800  0.202500  1.0  -0.5752
  O  O92  1  0.272200  0.639500  0.072400  1.0  -0.637
  O  O93  1  0.329300  0.988700  0.319600  1.0  -0.6505
  O  O94  1  0.289900  0.647200  0.946400  1.0  -0.5639
  O  O95  1  0.297800  0.834300  0.240600  1.0  -0.5883
  O  O96  1  0.202500  0.091500  0.253700  1.0  -0.6567
  O  O97  1  0.607100  0.852400  0.531400  1.0  -0.7005
  O  O98  1  0.495600  0.867400  0.457100  1.0  -0.608
  O  O99  1  0.557400  0.783300  0.657200  1.0  -0.665
  O  O100  1  0.444500  0.809500  0.593300  1.0  -0.5963
  O  O101  1  0.661600  0.581200  0.702500  1.0  -0.5743
  O  O102  1  0.772200  0.860500  0.572400  1.0  -0.6383
  O  O103  1  0.829300  0.511300  0.819600  1.0  -0.6517
  O  O104  1  0.789900  0.852800  0.446400  1.0  -0.5634
  O  O105  1  0.797800  0.665700  0.740600  1.0  -0.5846
  O  O106  1  0.702500  0.408500  0.753700  1.0  -0.6559
  O  O107  1  0.107100  0.352400  0.531400  1.0  -0.7005
  O  O108  1  0.995600  0.367400  0.457100  1.0  -0.608
  O  O109  1  0.057400  0.283300  0.657200  1.0  -0.665
  O  O110  1  0.944500  0.309500  0.593300  1.0  -0.5963
  O  O111  1  0.161600  0.081200  0.702500  1.0  -0.5743
  O  O112  1  0.272200  0.360500  0.572400  1.0  -0.6383
  O  O113  1  0.329300  0.011300  0.819600  1.0  -0.6517
  O  O114  1  0.289900  0.352800  0.446400  1.0  -0.5634
  O  O115  1  0.297800  0.165700  0.740600  1.0  -0.5846
  O  O116  1  0.202500  0.908500  0.753700  1.0  -0.6559
  O  O117  1  0.392900  0.852400  0.968600  1.0  -0.7002
  O  O118  1  0.504400  0.867400  0.042900  1.0  -0.6099
  O  O119  1  0.442600  0.783300  0.842800  1.0  -0.6658
  O  O120  1  0.555500  0.809500  0.906700  1.0  -0.5957
  O  O121  1  0.338400  0.581200  0.797500  1.0  -0.5749
  O  O122  1  0.227800  0.860500  0.927600  1.0  -0.6391
  O  O123  1  0.170700  0.511300  0.680400  1.0  -0.6503
  O  O124  1  0.210100  0.852800  0.053600  1.0  -0.5631
  O  O125  1  0.202200  0.665700  0.759400  1.0  -0.5885
  O  O126  1  0.297500  0.408500  0.746300  1.0  -0.6556
  O  O127  1  0.892900  0.352400  0.968600  1.0  -0.7002
  O  O128  1  0.004400  0.367400  0.042900  1.0  -0.6099
  O  O129  1  0.942600  0.283300  0.842800  1.0  -0.6658
  O  O130  1  0.055500  0.309500  0.906700  1.0  -0.5957
  O  O131  1  0.838400  0.081200  0.797500  1.0  -0.5749
  O  O132  1  0.727800  0.360500  0.927600  1.0  -0.6391
  O  O133  1  0.670700  0.011300  0.680400  1.0  -0.6503
  O  O134  1  0.710100  0.352800  0.053600  1.0  -0.5631
  O  O135  1  0.702200  0.165700  0.759400  1.0  -0.5885
  O  O136  1  0.797500  0.908500  0.746300  1.0  -0.6556
