# generated using pymatgen
data_CoH28(C10N3)4
_symmetry_space_group_name_H-M   'P 1'
_cell_length_a   8.27400000
_cell_length_b   20.56300000
_cell_length_c   54.36700000
_cell_angle_alpha   90.00000000
_cell_angle_beta   90.00000000
_cell_angle_gamma   90.00000000
_symmetry_Int_Tables_number   1
_chemical_formula_structural   CoH28(C10N3)4
_chemical_formula_sum   'Co8 H224 C320 N96'
_cell_volume   9249.90689015
_cell_formula_units_Z   8
loop_
 _symmetry_equiv_pos_site_id
 _symmetry_equiv_pos_as_xyz
  1  'x, y, z'
loop_
 _atom_site_type_symbol
 _atom_site_label
 _atom_site_symmetry_multiplicity
 _atom_site_fract_x
 _atom_site_fract_y
 _atom_site_fract_z
 _atom_site_occupancy
 _atom_site_charge
  Co  Co1  1  0.125000  0.125000  0.625000  1.0  0.576
  Co  Co2  1  0.625000  0.625000  0.625000  1.0  0.576
  Co  Co3  1  0.625000  0.125000  0.125000  1.0  0.576
  Co  Co4  1  0.125000  0.625000  0.125000  1.0  0.576
  Co  Co5  1  0.875000  0.875000  0.375000  1.0  0.576
  Co  Co6  1  0.375000  0.375000  0.375000  1.0  0.576
  Co  Co7  1  0.375000  0.875000  0.875000  1.0  0.576
  Co  Co8  1  0.875000  0.375000  0.875000  1.0  0.576
  H  H9  1  0.200400  0.354900  0.480000  1.0  0.075
  H  H10  1  0.968700  0.230200  0.543600  1.0  0.103
  H  H11  1  0.071400  0.490000  0.524900  1.0  0.0628
  H  H12  1  0.074700  0.418500  0.557900  1.0  0.1159
  H  H13  1  0.964500  0.156600  0.575300  1.0  0.0611
  H  H14  1  0.283600  0.335300  0.581900  1.0  0.0803
  H  H15  1  0.272300  0.259600  0.612400  1.0  0.0682
  H  H16  1  0.200400  0.854900  0.980000  1.0  0.075
  H  H17  1  0.968700  0.730200  0.043600  1.0  0.103
  H  H18  1  0.071400  0.990000  0.024900  1.0  0.0628
  H  H19  1  0.074700  0.918500  0.057900  1.0  0.1159
  H  H20  1  0.964500  0.656600  0.075300  1.0  0.0611
  H  H21  1  0.283600  0.835300  0.081900  1.0  0.0803
  H  H22  1  0.272300  0.759600  0.112400  1.0  0.0682
  H  H23  1  0.700400  0.354900  0.980000  1.0  0.075
  H  H24  1  0.468700  0.230200  0.043600  1.0  0.103
  H  H25  1  0.571400  0.490000  0.024900  1.0  0.0628
  H  H26  1  0.574700  0.418500  0.057900  1.0  0.1159
  H  H27  1  0.464500  0.156600  0.075300  1.0  0.0611
  H  H28  1  0.783600  0.335300  0.081900  1.0  0.0803
  H  H29  1  0.772300  0.259600  0.112400  1.0  0.0682
  H  H30  1  0.700400  0.854900  0.480000  1.0  0.075
  H  H31  1  0.468700  0.730200  0.543600  1.0  0.103
  H  H32  1  0.571400  0.990000  0.524900  1.0  0.0628
  H  H33  1  0.574700  0.918500  0.557900  1.0  0.1159
  H  H34  1  0.464500  0.656600  0.575300  1.0  0.0611
  H  H35  1  0.783600  0.835300  0.581900  1.0  0.0803
  H  H36  1  0.772300  0.759600  0.612400  1.0  0.0682
  H  H37  1  0.549600  0.395100  0.480000  1.0  0.0744
  H  H38  1  0.781300  0.519800  0.543600  1.0  0.1028
  H  H39  1  0.678600  0.260000  0.524900  1.0  0.0633
  H  H40  1  0.675300  0.331500  0.557900  1.0  0.1162
  H  H41  1  0.785500  0.593400  0.575300  1.0  0.0616
  H  H42  1  0.466400  0.414700  0.581900  1.0  0.0803
  H  H43  1  0.477700  0.490400  0.612400  1.0  0.0686
  H  H44  1  0.549600  0.895100  0.980000  1.0  0.0744
  H  H45  1  0.781300  0.019800  0.043600  1.0  0.1028
  H  H46  1  0.678600  0.760000  0.024900  1.0  0.0633
  H  H47  1  0.675300  0.831500  0.057900  1.0  0.1162
  H  H48  1  0.785500  0.093400  0.075300  1.0  0.0616
  H  H49  1  0.466400  0.914700  0.081900  1.0  0.0803
  H  H50  1  0.477700  0.990400  0.112400  1.0  0.0686
  H  H51  1  0.049600  0.395100  0.980000  1.0  0.0744
  H  H52  1  0.281300  0.519800  0.043600  1.0  0.1028
  H  H53  1  0.178600  0.260000  0.024900  1.0  0.0633
  H  H54  1  0.175300  0.331500  0.057900  1.0  0.1162
  H  H55  1  0.285500  0.593400  0.075300  1.0  0.0616
  H  H56  1  0.966400  0.414700  0.081900  1.0  0.0803
  H  H57  1  0.977700  0.490400  0.112400  1.0  0.0686
  H  H58  1  0.049600  0.895100  0.480000  1.0  0.0744
  H  H59  1  0.281300  0.019800  0.543600  1.0  0.1028
  H  H60  1  0.178600  0.760000  0.524900  1.0  0.0633
  H  H61  1  0.175300  0.831500  0.557900  1.0  0.1162
  H  H62  1  0.285500  0.093400  0.575300  1.0  0.0616
  H  H63  1  0.966400  0.914700  0.581900  1.0  0.0803
  H  H64  1  0.977700  0.990400  0.612400  1.0  0.0686
  H  H65  1  0.549600  0.354900  0.270000  1.0  0.0741
  H  H66  1  0.781300  0.230200  0.206400  1.0  0.1032
  H  H67  1  0.678600  0.490000  0.225100  1.0  0.0628
  H  H68  1  0.675300  0.418500  0.192100  1.0  0.1158
  H  H69  1  0.785500  0.156600  0.174700  1.0  0.0613
  H  H70  1  0.466400  0.335300  0.168100  1.0  0.0799
  H  H71  1  0.477700  0.259600  0.137600  1.0  0.0685
  H  H72  1  0.549600  0.854900  0.770000  1.0  0.0741
  H  H73  1  0.781300  0.730200  0.706400  1.0  0.1032
  H  H74  1  0.678600  0.990000  0.725100  1.0  0.0628
  H  H75  1  0.675300  0.918500  0.692100  1.0  0.1158
  H  H76  1  0.785500  0.656600  0.674700  1.0  0.0613
  H  H77  1  0.466400  0.835300  0.668100  1.0  0.0799
  H  H78  1  0.477700  0.759600  0.637600  1.0  0.0685
  H  H79  1  0.049600  0.354900  0.770000  1.0  0.0741
  H  H80  1  0.281300  0.230200  0.706400  1.0  0.1032
  H  H81  1  0.178600  0.490000  0.725100  1.0  0.0628
  H  H82  1  0.175300  0.418500  0.692100  1.0  0.1158
  H  H83  1  0.285500  0.156600  0.674700  1.0  0.0613
  H  H84  1  0.966400  0.335300  0.668100  1.0  0.0799
  H  H85  1  0.977700  0.259600  0.637600  1.0  0.0685
  H  H86  1  0.049600  0.854900  0.270000  1.0  0.0741
  H  H87  1  0.281300  0.730200  0.206400  1.0  0.1032
  H  H88  1  0.178600  0.990000  0.225100  1.0  0.0628
  H  H89  1  0.175300  0.918500  0.192100  1.0  0.1158
  H  H90  1  0.285500  0.656600  0.174700  1.0  0.0613
  H  H91  1  0.966400  0.835300  0.168100  1.0  0.0799
  H  H92  1  0.977700  0.759600  0.137600  1.0  0.0685
  H  H93  1  0.200400  0.395100  0.270000  1.0  0.0747
  H  H94  1  0.968700  0.519800  0.206400  1.0  0.103
  H  H95  1  0.071400  0.260000  0.225100  1.0  0.063
  H  H96  1  0.074700  0.331500  0.192100  1.0  0.1154
  H  H97  1  0.964500  0.593400  0.174700  1.0  0.0614
  H  H98  1  0.283600  0.414700  0.168100  1.0  0.0799
  H  H99  1  0.272300  0.490400  0.137600  1.0  0.069
  H  H100  1  0.200400  0.895100  0.770000  1.0  0.0747
  H  H101  1  0.968700  0.019800  0.706400  1.0  0.103
  H  H102  1  0.071400  0.760000  0.725100  1.0  0.063
  H  H103  1  0.074700  0.831500  0.692100  1.0  0.1154
  H  H104  1  0.964500  0.093400  0.674700  1.0  0.0614
  H  H105  1  0.283600  0.914700  0.668100  1.0  0.0799
  H  H106  1  0.272300  0.990400  0.637600  1.0  0.069
  H  H107  1  0.700400  0.395100  0.770000  1.0  0.0747
  H  H108  1  0.468700  0.519800  0.706400  1.0  0.103
  H  H109  1  0.571400  0.260000  0.725100  1.0  0.063
  H  H110  1  0.574700  0.331500  0.692100  1.0  0.1154
  H  H111  1  0.464500  0.593400  0.674700  1.0  0.0614
  H  H112  1  0.783600  0.414700  0.668100  1.0  0.0799
  H  H113  1  0.772300  0.490400  0.637600  1.0  0.069
  H  H114  1  0.700400  0.895100  0.270000  1.0  0.0747
  H  H115  1  0.468700  0.019800  0.206400  1.0  0.103
  H  H116  1  0.571400  0.760000  0.225100  1.0  0.063
  H  H117  1  0.574700  0.831500  0.192100  1.0  0.1154
  H  H118  1  0.464500  0.093400  0.174700  1.0  0.0614
  H  H119  1  0.783600  0.914700  0.168100  1.0  0.0799
  H  H120  1  0.772300  0.990400  0.137600  1.0  0.069
  H  H121  1  0.799600  0.645100  0.520000  1.0  0.0751
  H  H122  1  0.031300  0.769800  0.456400  1.0  0.103
  H  H123  1  0.928600  0.510000  0.475100  1.0  0.063
  H  H124  1  0.925300  0.581500  0.442100  1.0  0.1157
  H  H125  1  0.035500  0.843400  0.424700  1.0  0.0616
  H  H126  1  0.716400  0.664700  0.418100  1.0  0.0795
  H  H127  1  0.727700  0.740400  0.387600  1.0  0.0685
  H  H128  1  0.799600  0.145100  0.020000  1.0  0.0751
  H  H129  1  0.031300  0.269800  0.956400  1.0  0.103
  H  H130  1  0.928600  0.010000  0.975100  1.0  0.063
  H  H131  1  0.925300  0.081500  0.942100  1.0  0.1157
  H  H132  1  0.035500  0.343400  0.924700  1.0  0.0616
  H  H133  1  0.716400  0.164700  0.918100  1.0  0.0795
  H  H134  1  0.727700  0.240400  0.887600  1.0  0.0685
  H  H135  1  0.299600  0.645100  0.020000  1.0  0.0751
  H  H136  1  0.531300  0.769800  0.956400  1.0  0.103
  H  H137  1  0.428600  0.510000  0.975100  1.0  0.063
  H  H138  1  0.425300  0.581500  0.942100  1.0  0.1157
  H  H139  1  0.535500  0.843400  0.924700  1.0  0.0616
  H  H140  1  0.216400  0.664700  0.918100  1.0  0.0795
  H  H141  1  0.227700  0.740400  0.887600  1.0  0.0685
  H  H142  1  0.299600  0.145100  0.520000  1.0  0.0751
  H  H143  1  0.531300  0.269800  0.456400  1.0  0.103
  H  H144  1  0.428600  0.010000  0.475100  1.0  0.063
  H  H145  1  0.425300  0.081500  0.442100  1.0  0.1157
  H  H146  1  0.535500  0.343400  0.424700  1.0  0.0616
  H  H147  1  0.216400  0.164700  0.418100  1.0  0.0795
  H  H148  1  0.227700  0.240400  0.387600  1.0  0.0685
  H  H149  1  0.450400  0.604900  0.520000  1.0  0.0755
  H  H150  1  0.218700  0.480200  0.456400  1.0  0.1031
  H  H151  1  0.321400  0.740000  0.475100  1.0  0.0629
  H  H152  1  0.324700  0.668500  0.442100  1.0  0.1156
  H  H153  1  0.214500  0.406600  0.424700  1.0  0.0611
  H  H154  1  0.533600  0.585300  0.418100  1.0  0.08
  H  H155  1  0.522300  0.509600  0.387600  1.0  0.0688
  H  H156  1  0.450400  0.104900  0.020000  1.0  0.0755
  H  H157  1  0.218700  0.980200  0.956400  1.0  0.1031
  H  H158  1  0.321400  0.240000  0.975100  1.0  0.0629
  H  H159  1  0.324700  0.168500  0.942100  1.0  0.1156
  H  H160  1  0.214500  0.906600  0.924700  1.0  0.0611
  H  H161  1  0.533600  0.085300  0.918100  1.0  0.08
  H  H162  1  0.522300  0.009600  0.887600  1.0  0.0688
  H  H163  1  0.950400  0.604900  0.020000  1.0  0.0755
  H  H164  1  0.718700  0.480200  0.956400  1.0  0.1031
  H  H165  1  0.821400  0.740000  0.975100  1.0  0.0629
  H  H166  1  0.824700  0.668500  0.942100  1.0  0.1156
  H  H167  1  0.714500  0.406600  0.924700  1.0  0.0611
  H  H168  1  0.033600  0.585300  0.918100  1.0  0.08
  H  H169  1  0.022300  0.509600  0.887600  1.0  0.0688
  H  H170  1  0.950400  0.104900  0.520000  1.0  0.0755
  H  H171  1  0.718700  0.980200  0.456400  1.0  0.1031
  H  H172  1  0.821400  0.240000  0.475100  1.0  0.0629
  H  H173  1  0.824700  0.168500  0.442100  1.0  0.1156
  H  H174  1  0.714500  0.906600  0.424700  1.0  0.0611
  H  H175  1  0.033600  0.085300  0.418100  1.0  0.08
  H  H176  1  0.022300  0.009600  0.387600  1.0  0.0688
  H  H177  1  0.450400  0.645100  0.730000  1.0  0.0759
  H  H178  1  0.218700  0.769800  0.793600  1.0  0.1032
  H  H179  1  0.321400  0.510000  0.774900  1.0  0.0633
  H  H180  1  0.324700  0.581500  0.807900  1.0  0.1161
  H  H181  1  0.214500  0.843400  0.825300  1.0  0.0614
  H  H182  1  0.533600  0.664700  0.831900  1.0  0.0805
  H  H183  1  0.522300  0.740400  0.862400  1.0  0.0683
  H  H184  1  0.450400  0.145100  0.230000  1.0  0.0759
  H  H185  1  0.218700  0.269800  0.293600  1.0  0.1032
  H  H186  1  0.321400  0.010000  0.274900  1.0  0.0633
  H  H187  1  0.324700  0.081500  0.307900  1.0  0.1161
  H  H188  1  0.214500  0.343400  0.325300  1.0  0.0614
  H  H189  1  0.533600  0.164700  0.331900  1.0  0.0805
  H  H190  1  0.522300  0.240400  0.362400  1.0  0.0683
  H  H191  1  0.950400  0.645100  0.230000  1.0  0.0759
  H  H192  1  0.718700  0.769800  0.293600  1.0  0.1032
  H  H193  1  0.821400  0.510000  0.274900  1.0  0.0633
  H  H194  1  0.824700  0.581500  0.307900  1.0  0.1161
  H  H195  1  0.714500  0.843400  0.325300  1.0  0.0614
  H  H196  1  0.033600  0.664700  0.331900  1.0  0.0805
  H  H197  1  0.022300  0.740400  0.362400  1.0  0.0683
  H  H198  1  0.950400  0.145100  0.730000  1.0  0.0759
  H  H199  1  0.718700  0.269800  0.793600  1.0  0.1032
  H  H200  1  0.821400  0.010000  0.774900  1.0  0.0633
  H  H201  1  0.824700  0.081500  0.807900  1.0  0.1161
  H  H202  1  0.714500  0.343400  0.825300  1.0  0.0614
  H  H203  1  0.033600  0.164700  0.831900  1.0  0.0805
  H  H204  1  0.022300  0.240400  0.862400  1.0  0.0683
  H  H205  1  0.799600  0.604900  0.730000  1.0  0.0754
  H  H206  1  0.031300  0.480200  0.793600  1.0  0.1028
  H  H207  1  0.928600  0.740000  0.774900  1.0  0.0628
  H  H208  1  0.925300  0.668500  0.807900  1.0  0.1161
  H  H209  1  0.035500  0.406600  0.825300  1.0  0.0614
  H  H210  1  0.716400  0.585300  0.831900  1.0  0.0806
  H  H211  1  0.727700  0.509600  0.862400  1.0  0.0684
  H  H212  1  0.799600  0.104900  0.230000  1.0  0.0754
  H  H213  1  0.031300  0.980200  0.293600  1.0  0.1028
  H  H214  1  0.928600  0.240000  0.274900  1.0  0.0628
  H  H215  1  0.925300  0.168500  0.307900  1.0  0.1161
  H  H216  1  0.035500  0.906600  0.325300  1.0  0.0614
  H  H217  1  0.716400  0.085300  0.331900  1.0  0.0806
  H  H218  1  0.727700  0.009600  0.362400  1.0  0.0684
  H  H219  1  0.299600  0.604900  0.230000  1.0  0.0754
  H  H220  1  0.531300  0.480200  0.293600  1.0  0.1028
  H  H221  1  0.428600  0.740000  0.274900  1.0  0.0628
  H  H222  1  0.425300  0.668500  0.307900  1.0  0.1161
  H  H223  1  0.535500  0.406600  0.325300  1.0  0.0614
  H  H224  1  0.216400  0.585300  0.331900  1.0  0.0806
  H  H225  1  0.227700  0.509600  0.362400  1.0  0.0684
  H  H226  1  0.299600  0.104900  0.730000  1.0  0.0754
  H  H227  1  0.531300  0.980200  0.793600  1.0  0.1028
  H  H228  1  0.428600  0.240000  0.774900  1.0  0.0628
  H  H229  1  0.425300  0.168500  0.807900  1.0  0.1161
  H  H230  1  0.535500  0.906600  0.825300  1.0  0.0614
  H  H231  1  0.216400  0.085300  0.831900  1.0  0.0806
  H  H232  1  0.227700  0.009600  0.862400  1.0  0.0684
  C  C233  1  0.135500  0.291500  0.558830  1.0  0.0851
  C  C234  1  0.138300  0.338900  0.538290  1.0  0.0058
  C  C235  1  0.173300  0.367600  0.495890  1.0  0.1789
  C  C236  1  0.179300  0.321500  0.514530  1.0  0.1873
  C  C237  1  0.033600  0.236700  0.557330  1.0  -0.2137
  C  C238  1  0.097600  0.446700  0.522020  1.0  0.1723
  C  C239  1  0.099400  0.403700  0.542150  1.0  -0.2034
  C  C240  1  0.031800  0.192700  0.576550  1.0  0.1566
  C  C241  1  0.219100  0.298700  0.579750  1.0  -0.2019
  C  C242  1  0.211500  0.252900  0.598250  1.0  0.1368
  C  C243  1  0.135500  0.791500  0.058830  1.0  0.0851
  C  C244  1  0.138300  0.838900  0.038290  1.0  0.0058
  C  C245  1  0.173300  0.867600  0.995890  1.0  0.1789
  C  C246  1  0.179300  0.821500  0.014530  1.0  0.1873
  C  C247  1  0.033600  0.736700  0.057330  1.0  -0.2137
  C  C248  1  0.097600  0.946700  0.022020  1.0  0.1723
  C  C249  1  0.099400  0.903700  0.042150  1.0  -0.2034
  C  C250  1  0.031800  0.692700  0.076550  1.0  0.1566
  C  C251  1  0.219100  0.798700  0.079750  1.0  -0.2019
  C  C252  1  0.211500  0.752900  0.098250  1.0  0.1368
  C  C253  1  0.635500  0.291500  0.058830  1.0  0.0851
  C  C254  1  0.638300  0.338900  0.038290  1.0  0.0058
  C  C255  1  0.673300  0.367600  0.995890  1.0  0.1789
  C  C256  1  0.679300  0.321500  0.014530  1.0  0.1873
  C  C257  1  0.533600  0.236700  0.057330  1.0  -0.2137
  C  C258  1  0.597600  0.446700  0.022020  1.0  0.1723
  C  C259  1  0.599400  0.403700  0.042150  1.0  -0.2034
  C  C260  1  0.531800  0.192700  0.076550  1.0  0.1566
  C  C261  1  0.719100  0.298700  0.079750  1.0  -0.2019
  C  C262  1  0.711500  0.252900  0.098250  1.0  0.1368
  C  C263  1  0.635500  0.791500  0.558830  1.0  0.0851
  C  C264  1  0.638300  0.838900  0.538290  1.0  0.0058
  C  C265  1  0.673300  0.867600  0.495890  1.0  0.1789
  C  C266  1  0.679300  0.821500  0.514530  1.0  0.1873
  C  C267  1  0.533600  0.736700  0.557330  1.0  -0.2137
  C  C268  1  0.597600  0.946700  0.522020  1.0  0.1723
  C  C269  1  0.599400  0.903700  0.542150  1.0  -0.2034
  C  C270  1  0.531800  0.692700  0.576550  1.0  0.1566
  C  C271  1  0.719100  0.798700  0.579750  1.0  -0.2019
  C  C272  1  0.711500  0.752900  0.598250  1.0  0.1368
  C  C273  1  0.614500  0.458500  0.558830  1.0  0.085
  C  C274  1  0.611700  0.411100  0.538290  1.0  0.0056
  C  C275  1  0.576700  0.382400  0.495890  1.0  0.177
  C  C276  1  0.570700  0.428500  0.514530  1.0  0.187
  C  C277  1  0.716400  0.513300  0.557330  1.0  -0.2134
  C  C278  1  0.652400  0.303300  0.522020  1.0  0.1737
  C  C279  1  0.650600  0.346300  0.542150  1.0  -0.2025
  C  C280  1  0.718200  0.557300  0.576550  1.0  0.1576
  C  C281  1  0.530900  0.451300  0.579750  1.0  -0.2017
  C  C282  1  0.538500  0.497100  0.598250  1.0  0.1374
  C  C283  1  0.614500  0.958500  0.058830  1.0  0.085
  C  C284  1  0.611700  0.911100  0.038290  1.0  0.0056
  C  C285  1  0.576700  0.882400  0.995890  1.0  0.177
  C  C286  1  0.570700  0.928500  0.014530  1.0  0.187
  C  C287  1  0.716400  0.013300  0.057330  1.0  -0.2134
  C  C288  1  0.652400  0.803300  0.022020  1.0  0.1737
  C  C289  1  0.650600  0.846300  0.042150  1.0  -0.2025
  C  C290  1  0.718200  0.057300  0.076550  1.0  0.1576
  C  C291  1  0.530900  0.951300  0.079750  1.0  -0.2017
  C  C292  1  0.538500  0.997100  0.098250  1.0  0.1374
  C  C293  1  0.114500  0.458500  0.058830  1.0  0.085
  C  C294  1  0.111700  0.411100  0.038290  1.0  0.0056
  C  C295  1  0.076700  0.382400  0.995890  1.0  0.177
  C  C296  1  0.070700  0.428500  0.014530  1.0  0.187
  C  C297  1  0.216400  0.513300  0.057330  1.0  -0.2134
  C  C298  1  0.152400  0.303300  0.022020  1.0  0.1737
  C  C299  1  0.150600  0.346300  0.042150  1.0  -0.2025
  C  C300  1  0.218200  0.557300  0.076550  1.0  0.1576
  C  C301  1  0.030900  0.451300  0.079750  1.0  -0.2017
  C  C302  1  0.038500  0.497100  0.098250  1.0  0.1374
  C  C303  1  0.114500  0.958500  0.558830  1.0  0.085
  C  C304  1  0.111700  0.911100  0.538290  1.0  0.0056
  C  C305  1  0.076700  0.882400  0.495890  1.0  0.177
  C  C306  1  0.070700  0.928500  0.514530  1.0  0.187
  C  C307  1  0.216400  0.013300  0.557330  1.0  -0.2134
  C  C308  1  0.152400  0.803300  0.522020  1.0  0.1737
  C  C309  1  0.150600  0.846300  0.542150  1.0  -0.2025
  C  C310  1  0.218200  0.057300  0.576550  1.0  0.1576
  C  C311  1  0.030900  0.951300  0.579750  1.0  -0.2017
  C  C312  1  0.038500  0.997100  0.598250  1.0  0.1374
  C  C313  1  0.614500  0.291500  0.191170  1.0  0.085
  C  C314  1  0.611700  0.338900  0.211710  1.0  0.0049
  C  C315  1  0.576700  0.367600  0.254110  1.0  0.177
  C  C316  1  0.570700  0.321500  0.235470  1.0  0.1871
  C  C317  1  0.716400  0.236700  0.192670  1.0  -0.2137
  C  C318  1  0.652400  0.446700  0.227980  1.0  0.173
  C  C319  1  0.650600  0.403700  0.207850  1.0  -0.2033
  C  C320  1  0.718200  0.192700  0.173450  1.0  0.1569
  C  C321  1  0.530900  0.298700  0.170250  1.0  -0.2028
  C  C322  1  0.538500  0.252900  0.151750  1.0  0.1372
  C  C323  1  0.614500  0.791500  0.691170  1.0  0.085
  C  C324  1  0.611700  0.838900  0.711710  1.0  0.0049
  C  C325  1  0.576700  0.867600  0.754110  1.0  0.177
  C  C326  1  0.570700  0.821500  0.735470  1.0  0.1871
  C  C327  1  0.716400  0.736700  0.692670  1.0  -0.2137
  C  C328  1  0.652400  0.946700  0.727980  1.0  0.173
  C  C329  1  0.650600  0.903700  0.707850  1.0  -0.2033
  C  C330  1  0.718200  0.692700  0.673450  1.0  0.1569
  C  C331  1  0.530900  0.798700  0.670250  1.0  -0.2028
  C  C332  1  0.538500  0.752900  0.651750  1.0  0.1372
  C  C333  1  0.114500  0.291500  0.691170  1.0  0.085
  C  C334  1  0.111700  0.338900  0.711710  1.0  0.0049
  C  C335  1  0.076700  0.367600  0.754110  1.0  0.177
  C  C336  1  0.070700  0.321500  0.735470  1.0  0.1871
  C  C337  1  0.216400  0.236700  0.692670  1.0  -0.2137
  C  C338  1  0.152400  0.446700  0.727980  1.0  0.173
  C  C339  1  0.150600  0.403700  0.707850  1.0  -0.2033
  C  C340  1  0.218200  0.192700  0.673450  1.0  0.1569
  C  C341  1  0.030900  0.298700  0.670250  1.0  -0.2028
  C  C342  1  0.038500  0.252900  0.651750  1.0  0.1372
  C  C343  1  0.114500  0.791500  0.191170  1.0  0.085
  C  C344  1  0.111700  0.838900  0.211710  1.0  0.0049
  C  C345  1  0.076700  0.867600  0.254110  1.0  0.177
  C  C346  1  0.070700  0.821500  0.235470  1.0  0.1871
  C  C347  1  0.216400  0.736700  0.192670  1.0  -0.2137
  C  C348  1  0.152400  0.946700  0.227980  1.0  0.173
  C  C349  1  0.150600  0.903700  0.207850  1.0  -0.2033
  C  C350  1  0.218200  0.692700  0.173450  1.0  0.1569
  C  C351  1  0.030900  0.798700  0.170250  1.0  -0.2028
  C  C352  1  0.038500  0.752900  0.151750  1.0  0.1372
  C  C353  1  0.135500  0.458500  0.191170  1.0  0.0851
  C  C354  1  0.138300  0.411100  0.211710  1.0  0.0048
  C  C355  1  0.173300  0.382400  0.254110  1.0  0.1788
  C  C356  1  0.179300  0.428500  0.235470  1.0  0.1874
  C  C357  1  0.033600  0.513300  0.192670  1.0  -0.2129
  C  C358  1  0.097600  0.303300  0.227980  1.0  0.1726
  C  C359  1  0.099400  0.346300  0.207850  1.0  -0.2044
  C  C360  1  0.031800  0.557300  0.173450  1.0  0.1567
  C  C361  1  0.219100  0.451300  0.170250  1.0  -0.2024
  C  C362  1  0.211500  0.497100  0.151750  1.0  0.1375
  C  C363  1  0.135500  0.958500  0.691170  1.0  0.0851
  C  C364  1  0.138300  0.911100  0.711710  1.0  0.0048
  C  C365  1  0.173300  0.882400  0.754110  1.0  0.1788
  C  C366  1  0.179300  0.928500  0.735470  1.0  0.1874
  C  C367  1  0.033600  0.013300  0.692670  1.0  -0.2129
  C  C368  1  0.097600  0.803300  0.727980  1.0  0.1726
  C  C369  1  0.099400  0.846300  0.707850  1.0  -0.2044
  C  C370  1  0.031800  0.057300  0.673450  1.0  0.1567
  C  C371  1  0.219100  0.951300  0.670250  1.0  -0.2024
  C  C372  1  0.211500  0.997100  0.651750  1.0  0.1375
  C  C373  1  0.635500  0.458500  0.691170  1.0  0.0851
  C  C374  1  0.638300  0.411100  0.711710  1.0  0.0048
  C  C375  1  0.673300  0.382400  0.754110  1.0  0.1788
  C  C376  1  0.679300  0.428500  0.735470  1.0  0.1874
  C  C377  1  0.533600  0.513300  0.692670  1.0  -0.2129
  C  C378  1  0.597600  0.303300  0.727980  1.0  0.1726
  C  C379  1  0.599400  0.346300  0.707850  1.0  -0.2044
  C  C380  1  0.531800  0.557300  0.673450  1.0  0.1567
  C  C381  1  0.719100  0.451300  0.670250  1.0  -0.2024
  C  C382  1  0.711500  0.497100  0.651750  1.0  0.1375
  C  C383  1  0.635500  0.958500  0.191170  1.0  0.0851
  C  C384  1  0.638300  0.911100  0.211710  1.0  0.0048
  C  C385  1  0.673300  0.882400  0.254110  1.0  0.1788
  C  C386  1  0.679300  0.928500  0.235470  1.0  0.1874
  C  C387  1  0.533600  0.013300  0.192670  1.0  -0.2129
  C  C388  1  0.597600  0.803300  0.227980  1.0  0.1726
  C  C389  1  0.599400  0.846300  0.207850  1.0  -0.2044
  C  C390  1  0.531800  0.057300  0.173450  1.0  0.1567
  C  C391  1  0.719100  0.951300  0.170250  1.0  -0.2024
  C  C392  1  0.711500  0.997100  0.151750  1.0  0.1375
  C  C393  1  0.864500  0.708500  0.441170  1.0  0.085
  C  C394  1  0.861700  0.661100  0.461710  1.0  0.0048
  C  C395  1  0.826700  0.632400  0.504110  1.0  0.1756
  C  C396  1  0.820700  0.678500  0.485470  1.0  0.1864
  C  C397  1  0.966400  0.763300  0.442670  1.0  -0.2135
  C  C398  1  0.902400  0.553300  0.477980  1.0  0.1732
  C  C399  1  0.900600  0.596300  0.457850  1.0  -0.2043
  C  C400  1  0.968200  0.807300  0.423450  1.0  0.1575
  C  C401  1  0.780900  0.701300  0.420250  1.0  -0.2026
  C  C402  1  0.788500  0.747100  0.401750  1.0  0.1372
  C  C403  1  0.864500  0.208500  0.941170  1.0  0.085
  C  C404  1  0.861700  0.161100  0.961710  1.0  0.0048
  C  C405  1  0.826700  0.132400  0.004110  1.0  0.1756
  C  C406  1  0.820700  0.178500  0.985470  1.0  0.1864
  C  C407  1  0.966400  0.263300  0.942670  1.0  -0.2135
  C  C408  1  0.902400  0.053300  0.977980  1.0  0.1732
  C  C409  1  0.900600  0.096300  0.957850  1.0  -0.2043
  C  C410  1  0.968200  0.307300  0.923450  1.0  0.1575
  C  C411  1  0.780900  0.201300  0.920250  1.0  -0.2026
  C  C412  1  0.788500  0.247100  0.901750  1.0  0.1372
  C  C413  1  0.364500  0.708500  0.941170  1.0  0.085
  C  C414  1  0.361700  0.661100  0.961710  1.0  0.0048
  C  C415  1  0.326700  0.632400  0.004110  1.0  0.1756
  C  C416  1  0.320700  0.678500  0.985470  1.0  0.1864
  C  C417  1  0.466400  0.763300  0.942670  1.0  -0.2135
  C  C418  1  0.402400  0.553300  0.977980  1.0  0.1732
  C  C419  1  0.400600  0.596300  0.957850  1.0  -0.2043
  C  C420  1  0.468200  0.807300  0.923450  1.0  0.1575
  C  C421  1  0.280900  0.701300  0.920250  1.0  -0.2026
  C  C422  1  0.288500  0.747100  0.901750  1.0  0.1372
  C  C423  1  0.364500  0.208500  0.441170  1.0  0.085
  C  C424  1  0.361700  0.161100  0.461710  1.0  0.0048
  C  C425  1  0.326700  0.132400  0.504110  1.0  0.1756
  C  C426  1  0.320700  0.178500  0.485470  1.0  0.1864
  C  C427  1  0.466400  0.263300  0.442670  1.0  -0.2135
  C  C428  1  0.402400  0.053300  0.477980  1.0  0.1732
  C  C429  1  0.400600  0.096300  0.457850  1.0  -0.2043
  C  C430  1  0.468200  0.307300  0.423450  1.0  0.1575
  C  C431  1  0.280900  0.201300  0.420250  1.0  -0.2026
  C  C432  1  0.288500  0.247100  0.401750  1.0  0.1372
  C  C433  1  0.385500  0.541500  0.441170  1.0  0.0851
  C  C434  1  0.388300  0.588900  0.461710  1.0  0.0049
  C  C435  1  0.423300  0.617600  0.504110  1.0  0.1769
  C  C436  1  0.429300  0.571500  0.485470  1.0  0.1863
  C  C437  1  0.283600  0.486700  0.442670  1.0  -0.2134
  C  C438  1  0.347600  0.696700  0.477980  1.0  0.172
  C  C439  1  0.349400  0.653700  0.457850  1.0  -0.2034
  C  C440  1  0.281800  0.442700  0.423450  1.0  0.1564
  C  C441  1  0.469100  0.548700  0.420250  1.0  -0.2028
  C  C442  1  0.461500  0.502900  0.401750  1.0  0.1372
  C  C443  1  0.385500  0.041500  0.941170  1.0  0.0851
  C  C444  1  0.388300  0.088900  0.961710  1.0  0.0049
  C  C445  1  0.423300  0.117600  0.004110  1.0  0.1769
  C  C446  1  0.429300  0.071500  0.985470  1.0  0.1863
  C  C447  1  0.283600  0.986700  0.942670  1.0  -0.2134
  C  C448  1  0.347600  0.196700  0.977980  1.0  0.172
  C  C449  1  0.349400  0.153700  0.957850  1.0  -0.2034
  C  C450  1  0.281800  0.942700  0.923450  1.0  0.1564
  C  C451  1  0.469100  0.048700  0.920250  1.0  -0.2028
  C  C452  1  0.461500  0.002900  0.901750  1.0  0.1372
  C  C453  1  0.885500  0.541500  0.941170  1.0  0.0851
  C  C454  1  0.888300  0.588900  0.961710  1.0  0.0049
  C  C455  1  0.923300  0.617600  0.004110  1.0  0.1769
  C  C456  1  0.929300  0.571500  0.985470  1.0  0.1863
  C  C457  1  0.783600  0.486700  0.942670  1.0  -0.2134
  C  C458  1  0.847600  0.696700  0.977980  1.0  0.172
  C  C459  1  0.849400  0.653700  0.957850  1.0  -0.2034
  C  C460  1  0.781800  0.442700  0.923450  1.0  0.1564
  C  C461  1  0.969100  0.548700  0.920250  1.0  -0.2028
  C  C462  1  0.961500  0.502900  0.901750  1.0  0.1372
  C  C463  1  0.885500  0.041500  0.441170  1.0  0.0851
  C  C464  1  0.888300  0.088900  0.461710  1.0  0.0049
  C  C465  1  0.923300  0.117600  0.504110  1.0  0.1769
  C  C466  1  0.929300  0.071500  0.485470  1.0  0.1863
  C  C467  1  0.783600  0.986700  0.442670  1.0  -0.2134
  C  C468  1  0.847600  0.196700  0.477980  1.0  0.172
  C  C469  1  0.849400  0.153700  0.457850  1.0  -0.2034
  C  C470  1  0.781800  0.942700  0.423450  1.0  0.1564
  C  C471  1  0.969100  0.048700  0.420250  1.0  -0.2028
  C  C472  1  0.961500  0.002900  0.401750  1.0  0.1372
  C  C473  1  0.385500  0.708500  0.808830  1.0  0.0853
  C  C474  1  0.388300  0.661100  0.788290  1.0  0.0056
  C  C475  1  0.423300  0.632400  0.745890  1.0  0.1772
  C  C476  1  0.429300  0.678500  0.764530  1.0  0.1863
  C  C477  1  0.283600  0.763300  0.807330  1.0  -0.2133
  C  C478  1  0.347600  0.553300  0.772020  1.0  0.173
  C  C479  1  0.349400  0.596300  0.792150  1.0  -0.2035
  C  C480  1  0.281800  0.807300  0.826550  1.0  0.1571
  C  C481  1  0.469100  0.701300  0.829750  1.0  -0.2016
  C  C482  1  0.461500  0.747100  0.848250  1.0  0.1375
  C  C483  1  0.385500  0.208500  0.308830  1.0  0.0853
  C  C484  1  0.388300  0.161100  0.288290  1.0  0.0056
  C  C485  1  0.423300  0.132400  0.245890  1.0  0.1772
  C  C486  1  0.429300  0.178500  0.264530  1.0  0.1863
  C  C487  1  0.283600  0.263300  0.307330  1.0  -0.2133
  C  C488  1  0.347600  0.053300  0.272020  1.0  0.173
  C  C489  1  0.349400  0.096300  0.292150  1.0  -0.2035
  C  C490  1  0.281800  0.307300  0.326550  1.0  0.1571
  C  C491  1  0.469100  0.201300  0.329750  1.0  -0.2016
  C  C492  1  0.461500  0.247100  0.348250  1.0  0.1375
  C  C493  1  0.885500  0.708500  0.308830  1.0  0.0853
  C  C494  1  0.888300  0.661100  0.288290  1.0  0.0056
  C  C495  1  0.923300  0.632400  0.245890  1.0  0.1772
  C  C496  1  0.929300  0.678500  0.264530  1.0  0.1863
  C  C497  1  0.783600  0.763300  0.307330  1.0  -0.2133
  C  C498  1  0.847600  0.553300  0.272020  1.0  0.173
  C  C499  1  0.849400  0.596300  0.292150  1.0  -0.2035
  C  C500  1  0.781800  0.807300  0.326550  1.0  0.1571
  C  C501  1  0.969100  0.701300  0.329750  1.0  -0.2016
  C  C502  1  0.961500  0.747100  0.348250  1.0  0.1375
  C  C503  1  0.885500  0.208500  0.808830  1.0  0.0853
  C  C504  1  0.888300  0.161100  0.788290  1.0  0.0056
  C  C505  1  0.923300  0.132400  0.745890  1.0  0.1772
  C  C506  1  0.929300  0.178500  0.764530  1.0  0.1863
  C  C507  1  0.783600  0.263300  0.807330  1.0  -0.2133
  C  C508  1  0.847600  0.053300  0.772020  1.0  0.173
  C  C509  1  0.849400  0.096300  0.792150  1.0  -0.2035
  C  C510  1  0.781800  0.307300  0.826550  1.0  0.1571
  C  C511  1  0.969100  0.201300  0.829750  1.0  -0.2016
  C  C512  1  0.961500  0.247100  0.848250  1.0  0.1375
  C  C513  1  0.864500  0.541500  0.808830  1.0  0.0848
  C  C514  1  0.861700  0.588900  0.788290  1.0  0.0058
  C  C515  1  0.826700  0.617600  0.745890  1.0  0.1759
  C  C516  1  0.820700  0.571500  0.764530  1.0  0.1864
  C  C517  1  0.966400  0.486700  0.807330  1.0  -0.2135
  C  C518  1  0.902400  0.696700  0.772020  1.0  0.1733
  C  C519  1  0.900600  0.653700  0.792150  1.0  -0.2019
  C  C520  1  0.968200  0.442700  0.826550  1.0  0.1568
  C  C521  1  0.780900  0.548700  0.829750  1.0  -0.202
  C  C522  1  0.788500  0.502900  0.848250  1.0  0.1371
  C  C523  1  0.864500  0.041500  0.308830  1.0  0.0848
  C  C524  1  0.861700  0.088900  0.288290  1.0  0.0058
  C  C525  1  0.826700  0.117600  0.245890  1.0  0.1759
  C  C526  1  0.820700  0.071500  0.264530  1.0  0.1864
  C  C527  1  0.966400  0.986700  0.307330  1.0  -0.2135
  C  C528  1  0.902400  0.196700  0.272020  1.0  0.1733
  C  C529  1  0.900600  0.153700  0.292150  1.0  -0.2019
  C  C530  1  0.968200  0.942700  0.326550  1.0  0.1568
  C  C531  1  0.780900  0.048700  0.329750  1.0  -0.202
  C  C532  1  0.788500  0.002900  0.348250  1.0  0.1371
  C  C533  1  0.364500  0.541500  0.308830  1.0  0.0848
  C  C534  1  0.361700  0.588900  0.288290  1.0  0.0058
  C  C535  1  0.326700  0.617600  0.245890  1.0  0.1759
  C  C536  1  0.320700  0.571500  0.264530  1.0  0.1864
  C  C537  1  0.466400  0.486700  0.307330  1.0  -0.2135
  C  C538  1  0.402400  0.696700  0.272020  1.0  0.1733
  C  C539  1  0.400600  0.653700  0.292150  1.0  -0.2019
  C  C540  1  0.468200  0.442700  0.326550  1.0  0.1568
  C  C541  1  0.280900  0.548700  0.329750  1.0  -0.202
  C  C542  1  0.288500  0.502900  0.348250  1.0  0.1371
  C  C543  1  0.364500  0.041500  0.808830  1.0  0.0848
  C  C544  1  0.361700  0.088900  0.788290  1.0  0.0058
  C  C545  1  0.326700  0.117600  0.745890  1.0  0.1759
  C  C546  1  0.320700  0.071500  0.764530  1.0  0.1864
  C  C547  1  0.466400  0.986700  0.807330  1.0  -0.2135
  C  C548  1  0.402400  0.196700  0.772020  1.0  0.1733
  C  C549  1  0.400600  0.153700  0.792150  1.0  -0.2019
  C  C550  1  0.468200  0.942700  0.826550  1.0  0.1568
  C  C551  1  0.280900  0.048700  0.829750  1.0  -0.202
  C  C552  1  0.288500  0.002900  0.848250  1.0  0.1371
  N  N553  1  0.120700  0.199250  0.596710  1.0  -0.3545
  N  N554  1  0.233000  0.256540  0.510780  1.0  -0.235
  N  N555  1  0.130400  0.429400  0.499700  1.0  -0.422
  N  N556  1  0.120700  0.699250  0.096710  1.0  -0.3545
  N  N557  1  0.233000  0.756540  0.010780  1.0  -0.235
  N  N558  1  0.130400  0.929400  0.999700  1.0  -0.422
  N  N559  1  0.620700  0.199250  0.096710  1.0  -0.3545
  N  N560  1  0.733000  0.256540  0.010780  1.0  -0.235
  N  N561  1  0.630400  0.429400  0.999700  1.0  -0.422
  N  N562  1  0.620700  0.699250  0.596710  1.0  -0.3545
  N  N563  1  0.733000  0.756540  0.510780  1.0  -0.235
  N  N564  1  0.630400  0.929400  0.499700  1.0  -0.422
  N  N565  1  0.629300  0.550750  0.596710  1.0  -0.3565
  N  N566  1  0.517000  0.493460  0.510780  1.0  -0.2352
  N  N567  1  0.619600  0.320600  0.499700  1.0  -0.4191
  N  N568  1  0.629300  0.050750  0.096710  1.0  -0.3565
  N  N569  1  0.517000  0.993460  0.010780  1.0  -0.2352
  N  N570  1  0.619600  0.820600  0.999700  1.0  -0.4191
  N  N571  1  0.129300  0.550750  0.096710  1.0  -0.3565
  N  N572  1  0.017000  0.493460  0.010780  1.0  -0.2352
  N  N573  1  0.119600  0.320600  0.999700  1.0  -0.4191
  N  N574  1  0.129300  0.050750  0.596710  1.0  -0.3565
  N  N575  1  0.017000  0.993460  0.510780  1.0  -0.2352
  N  N576  1  0.119600  0.820600  0.499700  1.0  -0.4191
  N  N577  1  0.629300  0.199250  0.153290  1.0  -0.3565
  N  N578  1  0.517000  0.256540  0.239220  1.0  -0.2366
  N  N579  1  0.619600  0.429400  0.250300  1.0  -0.4214
  N  N580  1  0.629300  0.699250  0.653290  1.0  -0.3565
  N  N581  1  0.517000  0.756540  0.739220  1.0  -0.2366
  N  N582  1  0.619600  0.929400  0.750300  1.0  -0.4214
  N  N583  1  0.129300  0.199250  0.653290  1.0  -0.3565
  N  N584  1  0.017000  0.256540  0.739220  1.0  -0.2366
  N  N585  1  0.119600  0.429400  0.750300  1.0  -0.4214
  N  N586  1  0.129300  0.699250  0.153290  1.0  -0.3565
  N  N587  1  0.017000  0.756540  0.239220  1.0  -0.2366
  N  N588  1  0.119600  0.929400  0.250300  1.0  -0.4214
  N  N589  1  0.120700  0.550750  0.153290  1.0  -0.3583
  N  N590  1  0.233000  0.493460  0.239220  1.0  -0.2365
  N  N591  1  0.130400  0.320600  0.250300  1.0  -0.4202
  N  N592  1  0.120700  0.050750  0.653290  1.0  -0.3583
  N  N593  1  0.233000  0.993460  0.739220  1.0  -0.2365
  N  N594  1  0.130400  0.820600  0.750300  1.0  -0.4202
  N  N595  1  0.620700  0.550750  0.653290  1.0  -0.3583
  N  N596  1  0.733000  0.493460  0.739220  1.0  -0.2365
  N  N597  1  0.630400  0.320600  0.750300  1.0  -0.4202
  N  N598  1  0.620700  0.050750  0.153290  1.0  -0.3583
  N  N599  1  0.733000  0.993460  0.239220  1.0  -0.2365
  N  N600  1  0.630400  0.820600  0.250300  1.0  -0.4202
  N  N601  1  0.879300  0.800750  0.403290  1.0  -0.3575
  N  N602  1  0.767000  0.743460  0.489220  1.0  -0.236
  N  N603  1  0.869600  0.570600  0.500300  1.0  -0.4207
  N  N604  1  0.879300  0.300750  0.903290  1.0  -0.3575
  N  N605  1  0.767000  0.243460  0.989220  1.0  -0.236
  N  N606  1  0.869600  0.070600  0.000300  1.0  -0.4207
  N  N607  1  0.379300  0.800750  0.903290  1.0  -0.3575
  N  N608  1  0.267000  0.743460  0.989220  1.0  -0.236
  N  N609  1  0.369600  0.570600  0.000300  1.0  -0.4207
  N  N610  1  0.379300  0.300750  0.403290  1.0  -0.3575
  N  N611  1  0.267000  0.243460  0.489220  1.0  -0.236
  N  N612  1  0.369600  0.070600  0.500300  1.0  -0.4207
  N  N613  1  0.370700  0.449250  0.403290  1.0  -0.3572
  N  N614  1  0.483000  0.506540  0.489220  1.0  -0.2367
  N  N615  1  0.380400  0.679400  0.500300  1.0  -0.4225
  N  N616  1  0.370700  0.949250  0.903290  1.0  -0.3572
  N  N617  1  0.483000  0.006540  0.989220  1.0  -0.2367
  N  N618  1  0.380400  0.179400  0.000300  1.0  -0.4225
  N  N619  1  0.870700  0.449250  0.903290  1.0  -0.3572
  N  N620  1  0.983000  0.506540  0.989220  1.0  -0.2367
  N  N621  1  0.880400  0.679400  0.000300  1.0  -0.4225
  N  N622  1  0.870700  0.949250  0.403290  1.0  -0.3572
  N  N623  1  0.983000  0.006540  0.489220  1.0  -0.2367
  N  N624  1  0.880400  0.179400  0.500300  1.0  -0.4225
  N  N625  1  0.370700  0.800750  0.846710  1.0  -0.3569
  N  N626  1  0.483000  0.743460  0.760780  1.0  -0.2352
  N  N627  1  0.380400  0.570600  0.749700  1.0  -0.4221
  N  N628  1  0.370700  0.300750  0.346710  1.0  -0.3569
  N  N629  1  0.483000  0.243460  0.260780  1.0  -0.2352
  N  N630  1  0.380400  0.070600  0.249700  1.0  -0.4221
  N  N631  1  0.870700  0.800750  0.346710  1.0  -0.3569
  N  N632  1  0.983000  0.743460  0.260780  1.0  -0.2352
  N  N633  1  0.880400  0.570600  0.249700  1.0  -0.4221
  N  N634  1  0.870700  0.300750  0.846710  1.0  -0.3569
  N  N635  1  0.983000  0.243460  0.760780  1.0  -0.2352
  N  N636  1  0.880400  0.070600  0.749700  1.0  -0.4221
  N  N637  1  0.879300  0.449250  0.846710  1.0  -0.3542
  N  N638  1  0.767000  0.506540  0.760780  1.0  -0.2346
  N  N639  1  0.869600  0.679400  0.749700  1.0  -0.4204
  N  N640  1  0.879300  0.949250  0.346710  1.0  -0.3542
  N  N641  1  0.767000  0.006540  0.260780  1.0  -0.2346
  N  N642  1  0.869600  0.179400  0.249700  1.0  -0.4204
  N  N643  1  0.379300  0.449250  0.346710  1.0  -0.3542
  N  N644  1  0.267000  0.506540  0.260780  1.0  -0.2346
  N  N645  1  0.369600  0.679400  0.249700  1.0  -0.4204
  N  N646  1  0.379300  0.949250  0.846710  1.0  -0.3542
  N  N647  1  0.267000  0.006540  0.760780  1.0  -0.2346
  N  N648  1  0.369600  0.179400  0.749700  1.0  -0.4204
