# generated using pymatgen
data_Al5Co(PO4)6
_symmetry_space_group_name_H-M   'P 1'
_cell_length_a   18.68420000
_cell_length_b   18.68420000
_cell_length_c   9.40800000
_cell_angle_alpha   90.00000000
_cell_angle_beta   90.00000000
_cell_angle_gamma   90.00000000
_symmetry_Int_Tables_number   1
_chemical_formula_structural   Al5Co(PO4)6
_chemical_formula_sum   'Al20 Co4 P24 O96'
_cell_volume   3284.32649325
_cell_formula_units_Z   4
loop_
 _symmetry_equiv_pos_site_id
 _symmetry_equiv_pos_as_xyz
  1  'x, y, z'
loop_
 _atom_site_type_symbol
 _atom_site_label
 _atom_site_symmetry_multiplicity
 _atom_site_fract_x
 _atom_site_fract_y
 _atom_site_fract_z
 _atom_site_occupancy
 _atom_site_charge
  Al  Al1  1  0.164530  0.044240  0.156710  1.0  1.9709
  Al  Al2  1  0.065420  0.834140  0.080600  1.0  2.0296
  Al  Al3  1  0.050630  0.933610  0.664530  1.0  2.0356
  Al  Al4  1  0.335470  0.455760  0.156710  1.0  1.9712
  Al  Al5  1  0.434580  0.665860  0.080600  1.0  2.0295
  Al  Al6  1  0.449370  0.566390  0.664530  1.0  2.0363
  Al  Al7  1  0.455760  0.164530  0.156710  1.0  1.971
  Al  Al8  1  0.665860  0.065420  0.080600  1.0  2.0282
  Al  Al9  1  0.566390  0.050630  0.664530  1.0  2.0363
  Al  Al10  1  0.044240  0.335470  0.156710  1.0  1.972
  Al  Al11  1  0.834140  0.434580  0.080600  1.0  2.0283
  Al  Al12  1  0.933610  0.449370  0.664530  1.0  2.0367
  Al  Al13  1  0.835470  0.955760  0.843290  1.0  1.9711
  Al  Al14  1  0.949370  0.066390  0.335470  1.0  2.0365
  Al  Al15  1  0.664530  0.544240  0.843290  1.0  1.9708
  Al  Al16  1  0.550630  0.433610  0.335470  1.0  2.0356
  Al  Al17  1  0.544240  0.835470  0.843290  1.0  1.9718
  Al  Al18  1  0.433610  0.949370  0.335470  1.0  2.0367
  Al  Al19  1  0.955760  0.664530  0.843290  1.0  1.9709
  Al  Al20  1  0.066390  0.550630  0.335470  1.0  2.0363
  Co  Co21  1  0.934580  0.165860  0.919400  1.0  0.8994
  Co  Co22  1  0.565420  0.334140  0.919400  1.0  0.9026
  Co  Co23  1  0.334140  0.934580  0.919400  1.0  0.9019
  Co  Co24  1  0.165860  0.565420  0.919400  1.0  0.902
  P  P25  1  0.064210  0.943400  0.334850  1.0  2.1508
  P  P26  1  0.333333  0.050570  0.160260  1.0  2.1662
  P  P27  1  0.166520  0.932220  0.904260  1.0  2.1453
  P  P28  1  0.435790  0.556600  0.334850  1.0  2.1508
  P  P29  1  0.166690  0.449430  0.160260  1.0  2.1695
  P  P30  1  0.333480  0.567780  0.904260  1.0  2.142
  P  P31  1  0.556600  0.064210  0.334850  1.0  2.1502
  P  P32  1  0.449430  0.333333  0.160260  1.0  2.1611
  P  P33  1  0.567780  0.166520  0.904260  1.0  2.1457
  P  P34  1  0.943400  0.435790  0.334850  1.0  2.1501
  P  P35  1  0.050570  0.166690  0.160260  1.0  2.1676
  P  P36  1  0.932220  0.333480  0.904260  1.0  2.1462
  P  P37  1  0.935790  0.056600  0.665150  1.0  2.1514
  P  P38  1  0.666667  0.949430  0.839740  1.0  2.1441
  P  P39  1  0.833480  0.067780  0.095740  1.0  2.1428
  P  P40  1  0.564210  0.443400  0.665150  1.0  2.1519
  P  P41  1  0.833310  0.550570  0.839740  1.0  2.1384
  P  P42  1  0.666520  0.432220  0.095740  1.0  2.1463
  P  P43  1  0.443400  0.935790  0.665150  1.0  2.1508
  P  P44  1  0.550570  0.666667  0.839740  1.0  2.1503
  P  P45  1  0.432220  0.833480  0.095740  1.0  2.1469
  P  P46  1  0.056600  0.564210  0.665150  1.0  2.1512
  P  P47  1  0.949430  0.833310  0.839740  1.0  2.1417
  P  P48  1  0.067780  0.666520  0.095740  1.0  2.1465
  O  O49  1  0.073400  0.918800  0.487100  1.0  -0.981
  O  O50  1  0.058400  0.876800  0.242300  1.0  -0.9599
  O  O51  1  0.128600  0.988800  0.293300  1.0  -0.9904
  O  O52  1  0.995100  0.984900  0.321700  1.0  -1.0595
  O  O53  1  0.155300  0.999300  0.988600  1.0  -1.0338
  O  O54  1  0.256000  0.062900  0.191700  1.0  -0.9638
  O  O55  1  0.373300  0.121700  0.155500  1.0  -0.9827
  O  O56  1  0.342200  0.014000  0.017300  1.0  -1.0271
  O  O57  1  0.363800  0.004800  0.278100  1.0  -1.0149
  O  O58  1  0.137600  0.866500  0.982700  1.0  -0.9844
  O  O59  1  0.244600  0.919400  0.877200  1.0  -0.931
  O  O60  1  0.129700  0.939900  0.760500  1.0  -0.9758
  O  O61  1  0.426600  0.581200  0.487100  1.0  -0.9832
  O  O62  1  0.441600  0.623200  0.242300  1.0  -0.9617
  O  O63  1  0.371400  0.511200  0.293300  1.0  -0.9894
  O  O64  1  0.504900  0.515100  0.321700  1.0  -1.0588
  O  O65  1  0.344700  0.500700  0.988600  1.0  -1.0326
  O  O66  1  0.244000  0.437100  0.191700  1.0  -0.9623
  O  O67  1  0.126700  0.378300  0.155500  1.0  -0.981
  O  O68  1  0.157800  0.486000  0.017300  1.0  -1.0278
  O  O69  1  0.136200  0.495200  0.278100  1.0  -1.0144
  O  O70  1  0.362400  0.633500  0.982700  1.0  -0.9854
  O  O71  1  0.255400  0.580600  0.877200  1.0  -0.9305
  O  O72  1  0.370300  0.560100  0.760500  1.0  -0.9766
  O  O73  1  0.581200  0.073400  0.487100  1.0  -0.9812
  O  O74  1  0.623200  0.058400  0.242300  1.0  -0.9598
  O  O75  1  0.511200  0.128600  0.293300  1.0  -0.9912
  O  O76  1  0.515100  0.995100  0.321700  1.0  -1.0597
  O  O77  1  0.500700  0.155300  0.988600  1.0  -1.0299
  O  O78  1  0.437100  0.256000  0.191700  1.0  -0.9645
  O  O79  1  0.378300  0.373300  0.155500  1.0  -0.9782
  O  O80  1  0.486000  0.342200  0.017300  1.0  -1.026
  O  O81  1  0.495200  0.363800  0.278100  1.0  -1.0164
  O  O82  1  0.633500  0.137600  0.982700  1.0  -0.9845
  O  O83  1  0.580600  0.244600  0.877200  1.0  -0.9302
  O  O84  1  0.560100  0.129700  0.760500  1.0  -0.9766
  O  O85  1  0.918800  0.426600  0.487100  1.0  -0.9817
  O  O86  1  0.876800  0.441600  0.242300  1.0  -0.9589
  O  O87  1  0.988800  0.371400  0.293300  1.0  -0.9908
  O  O88  1  0.984900  0.504900  0.321700  1.0  -1.0632
  O  O89  1  0.999300  0.344700  0.988600  1.0  -1.03
  O  O90  1  0.062900  0.244000  0.191700  1.0  -0.9624
  O  O91  1  0.121700  0.126700  0.155500  1.0  -0.9794
  O  O92  1  0.014000  0.157800  0.017300  1.0  -1.0256
  O  O93  1  0.004800  0.136200  0.278100  1.0  -1.0167
  O  O94  1  0.866500  0.362400  0.982700  1.0  -0.9851
  O  O95  1  0.919400  0.255400  0.877200  1.0  -0.9308
  O  O96  1  0.939900  0.370300  0.760500  1.0  -0.9762
  O  O97  1  0.926600  0.081200  0.512900  1.0  -0.9824
  O  O98  1  0.941600  0.123200  0.757700  1.0  -0.9654
  O  O99  1  0.871400  0.011200  0.706700  1.0  -0.9897
  O  O100  1  0.004900  0.015100  0.678300  1.0  -1.0589
  O  O101  1  0.844700  0.000700  0.011400  1.0  -1.0326
  O  O102  1  0.744000  0.937100  0.808300  1.0  -0.962
  O  O103  1  0.626700  0.878300  0.844500  1.0  -0.9812
  O  O104  1  0.657800  0.986000  0.982700  1.0  -1.0471
  O  O105  1  0.636200  0.995200  0.721900  1.0  -1.0133
  O  O106  1  0.862400  0.133500  0.017300  1.0  -0.9896
  O  O107  1  0.755400  0.080600  0.122800  1.0  -0.9509
  O  O108  1  0.870300  0.060100  0.239500  1.0  -0.9768
  O  O109  1  0.573400  0.418800  0.512900  1.0  -0.9798
  O  O110  1  0.558400  0.376800  0.757700  1.0  -0.9632
  O  O111  1  0.628600  0.488800  0.706700  1.0  -0.9902
  O  O112  1  0.495100  0.484900  0.678300  1.0  -1.0595
  O  O113  1  0.655300  0.499300  0.011400  1.0  -1.0337
  O  O114  1  0.756000  0.562900  0.808300  1.0  -0.9619
  O  O115  1  0.873300  0.621700  0.844500  1.0  -0.9827
  O  O116  1  0.842200  0.514000  0.982700  1.0  -1.0468
  O  O117  1  0.863800  0.504800  0.721900  1.0  -1.0135
  O  O118  1  0.637600  0.366500  0.017300  1.0  -0.9882
  O  O119  1  0.744600  0.419400  0.122800  1.0  -0.9509
  O  O120  1  0.629700  0.439900  0.239500  1.0  -0.9758
  O  O121  1  0.418800  0.926600  0.512900  1.0  -0.9805
  O  O122  1  0.376800  0.941600  0.757700  1.0  -0.9626
  O  O123  1  0.488800  0.871400  0.706700  1.0  -0.9907
  O  O124  1  0.484900  0.004900  0.678300  1.0  -1.0633
  O  O125  1  0.499300  0.844700  0.011400  1.0  -1.0301
  O  O126  1  0.562900  0.744000  0.808300  1.0  -0.9617
  O  O127  1  0.621700  0.626700  0.844500  1.0  -0.9794
  O  O128  1  0.514000  0.657800  0.982700  1.0  -1.045
  O  O129  1  0.504800  0.636200  0.721900  1.0  -1.0147
  O  O130  1  0.366500  0.862400  0.017300  1.0  -0.9893
  O  O131  1  0.419400  0.755400  0.122800  1.0  -0.9511
  O  O132  1  0.439900  0.870300  0.239500  1.0  -0.9767
  O  O133  1  0.081200  0.573400  0.512900  1.0  -0.98
  O  O134  1  0.123200  0.558400  0.757700  1.0  -0.963
  O  O135  1  0.011200  0.628600  0.706700  1.0  -0.9915
  O  O136  1  0.015100  0.495100  0.678300  1.0  -1.0598
  O  O137  1  0.000700  0.655300  0.011400  1.0  -1.0299
  O  O138  1  0.937100  0.756000  0.808300  1.0  -0.9628
  O  O139  1  0.878300  0.873300  0.844500  1.0  -0.9786
  O  O140  1  0.986000  0.842200  0.982700  1.0  -1.0452
  O  O141  1  0.995200  0.863800  0.721900  1.0  -1.0145
  O  O142  1  0.133500  0.637600  0.017300  1.0  -0.9882
  O  O143  1  0.080600  0.744600  0.122800  1.0  -0.9505
  O  O144  1  0.060100  0.629700  0.239500  1.0  -0.9766
