# generated using pymatgen
data_Yb3H96C122S2N24(O5F)6
_symmetry_space_group_name_H-M   'P 1'
_cell_length_a   24.04600000
_cell_length_b   24.15730000
_cell_length_c   24.38340000
_cell_angle_alpha   83.86100000
_cell_angle_beta   61.83700000
_cell_angle_gamma   61.70100000
_symmetry_Int_Tables_number   1
_chemical_formula_structural   Yb3H96C122S2N24(O5F)6
_chemical_formula_sum   'Yb6 H192 C244 S4 N48 O60 F12'
_cell_volume   10869.49910244
_cell_formula_units_Z   2
loop_
 _symmetry_equiv_pos_site_id
 _symmetry_equiv_pos_as_xyz
  1  'x, y, z'
loop_
 _atom_site_type_symbol
 _atom_site_label
 _atom_site_symmetry_multiplicity
 _atom_site_fract_x
 _atom_site_fract_y
 _atom_site_fract_z
 _atom_site_occupancy
 _atom_site_charge
  Yb  Yb1  1  0.341380  0.219920  0.363470  1.0  1.0814
  Yb  Yb2  1  0.246600  0.779690  0.230440  1.0  1.1305
  Yb  Yb3  1  0.852500  0.352680  0.208920  1.0  1.1193
  Yb  Yb4  1  0.658620  0.780080  0.636530  1.0  1.0826
  Yb  Yb5  1  0.753400  0.220310  0.769560  1.0  1.1315
  Yb  Yb6  1  0.147500  0.647320  0.791080  1.0  1.1212
  H  H7  1  0.202800  0.408300  0.423500  1.0  0.1202
  H  H8  1  0.173700  0.501600  0.376800  1.0  0.133
  H  H9  1  0.166000  0.595100  0.360100  1.0  0.1002
  H  H10  1  0.410000  0.343200  0.308100  1.0  0.1214
  H  H11  1  0.387300  0.432800  0.260000  1.0  0.1212
  H  H12  1  0.350900  0.500600  0.197400  1.0  0.1235
  H  H13  1  0.142300  0.688200  0.318500  1.0  0.1201
  H  H14  1  0.327000  0.594600  0.156900  1.0  0.138
  H  H15  1  0.088400  0.560600  0.730900  1.0  0.102
  H  H16  1  0.110200  0.470300  0.683700  1.0  0.1379
  H  H17  1  0.283100  0.536000  0.606800  1.0  0.1217
  H  H18  1  0.313300  0.440700  0.560200  1.0  0.1255
  H  H19  1  0.329400  0.326100  0.576000  1.0  0.1288
  H  H20  1  0.134800  0.424400  0.582200  1.0  0.1155
  H  H21  1  0.162700  0.338900  0.521800  1.0  0.113
  H  H22  1  0.351700  0.240500  0.516800  1.0  0.1149
  H  H23  1  0.097800  0.811400  0.605300  1.0  0.1213
  H  H24  1  0.099800  0.792000  0.698800  1.0  0.1203
  H  H25  1  0.293500  0.657400  0.515900  1.0  0.1357
  H  H26  1  0.293300  0.641900  0.610900  1.0  0.1289
  H  H27  1  0.261900  0.655100  0.444700  1.0  0.1197
  H  H28  1  0.252900  0.672300  0.354100  1.0  0.1134
  H  H29  1  0.111500  0.854800  0.421800  1.0  0.1314
  H  H30  1  0.116300  0.841000  0.513300  1.0  0.1099
  H  H31  1  0.250100  0.587200  0.882700  1.0  0.1134
  H  H32  1  0.274300  0.620800  0.949800  1.0  0.1262
  H  H33  1  0.064300  0.749700  0.050100  1.0  0.1293
  H  H34  1  0.041100  0.712200  0.982700  1.0  0.1218
  H  H35  1  0.037100  0.339600  0.061800  1.0  0.1111
  H  H36  1  0.068700  0.393700  0.978300  1.0  0.1494
  H  H37  1  0.907800  0.557400  0.090900  1.0  0.1493
  H  H38  1  0.877000  0.501200  0.176500  1.0  0.1331
  H  H39  1  0.637700  0.409800  0.314600  1.0  0.1096
  H  H40  1  0.562600  0.366000  0.359700  1.0  0.1526
  H  H41  1  0.700600  0.224900  0.207700  1.0  0.1294
  H  H42  1  0.770000  0.273600  0.167400  1.0  0.1115
  H  H43  1  0.768800  0.504300  0.135100  1.0  0.1189
  H  H44  1  0.658500  0.564100  0.132600  1.0  0.1338
  H  H45  1  0.554200  0.566800  0.322000  1.0  0.1334
  H  H46  1  0.665800  0.506700  0.317600  1.0  0.1116
  H  H47  1  0.071400  0.257800  0.138000  1.0  0.1167
  H  H48  1  0.157300  0.262100  0.154000  1.0  0.133
  H  H49  1  0.010600  0.320900  0.341300  1.0  0.1244
  H  H50  1  0.931900  0.305400  0.321600  1.0  0.1148
  H  H51  1  0.858000  0.185600  0.220000  1.0  0.1345
  H  H52  1  0.938600  0.086600  0.230300  1.0  0.1259
  H  H53  1  0.104000  0.102700  0.088400  1.0  0.1305
  H  H54  1  0.025100  0.199900  0.080900  1.0  0.1256
  H  H55  1  0.958400  0.092500  0.647500  1.0  0.1227
  H  H56  1  0.057600  0.097700  0.566800  1.0  0.1208
  H  H57  1  0.010400  0.246100  0.670900  1.0  0.1193
  H  H58  1  0.915000  0.236200  0.752500  1.0  0.1229
  H  H59  1  0.239900  0.904300  0.107800  1.0  0.1239
  H  H60  1  0.160900  0.991300  0.085800  1.0  0.1288
  H  H61  1  0.022600  0.046900  0.271700  1.0  0.121
  H  H62  1  0.108600  0.962900  0.291400  1.0  0.1159
  H  H63  1  0.192500  0.917800  0.354600  1.0  0.1198
  H  H64  1  0.216900  0.000100  0.353900  1.0  0.1376
  H  H65  1  0.422400  0.885900  0.224000  1.0  0.1324
  H  H66  1  0.392000  0.806900  0.227800  1.0  0.1126
  H  H67  1  0.136500  0.840300  0.134900  1.0  0.1266
  H  H68  1  0.101100  0.802600  0.082100  1.0  0.123
  H  H69  1  0.290600  0.638400  0.017600  1.0  0.1291
  H  H70  1  0.324300  0.679300  0.069000  1.0  0.1059
  H  H71  1  0.357300  0.714200  0.315300  1.0  0.1181
  H  H72  1  0.469400  0.666100  0.308800  1.0  0.1233
  H  H73  1  0.551700  0.553700  0.150500  1.0  0.1264
  H  H74  1  0.439000  0.600800  0.159600  1.0  0.1246
  H  H75  1  0.640300  0.141300  0.880500  1.0  0.1195
  H  H76  1  0.582500  0.132500  0.987000  1.0  0.1292
  H  H77  1  0.509700  0.321500  0.030300  1.0  0.1303
  H  H78  1  0.566600  0.325700  0.923600  1.0  0.1287
  H  H79  1  0.116900  0.300300  0.474400  1.0  0.0999
  H  H80  1  0.034500  0.286300  0.565000  1.0  0.1334
  H  H81  1  0.171600  0.095600  0.518200  1.0  0.1436
  H  H82  1  0.252900  0.115400  0.433400  1.0  0.0895
  H  H83  1  0.257000  0.162100  0.299500  1.0  0.1214
  H  H84  1  0.237200  0.075200  0.305900  1.0  0.1067
  H  H85  1  0.446100  0.955400  0.254100  1.0  0.1322
  H  H86  1  0.462400  0.042900  0.253100  1.0  0.1241
  H  H87  1  0.415200  0.291100  0.429800  1.0  0.1154
  H  H88  1  0.493900  0.331200  0.389400  1.0  0.1497
  H  H89  1  0.638200  0.178300  0.255000  1.0  0.118
  H  H90  1  0.559700  0.138000  0.295800  1.0  0.1357
  H  H91  1  0.151900  0.357800  0.371700  1.0  0.1336
  H  H92  1  0.070300  0.359500  0.345300  1.0  0.128
  H  H93  1  0.237300  0.237300  0.184800  1.0  0.1306
  H  H94  1  0.317900  0.236200  0.214400  1.0  0.1292
  H  H95  1  0.322000  0.126500  0.505100  1.0  0.1297
  H  H96  1  0.498900  0.039200  0.342300  1.0  0.1245
  H  H97  1  0.562700  0.983100  0.396900  1.0  0.1437
  H  H98  1  0.385600  0.073600  0.558900  1.0  0.1251
  H  H99  1  0.382200  0.312500  0.222200  1.0  0.1158
  H  H100  1  0.423700  0.311000  0.116600  1.0  0.1259
  H  H101  1  0.579000  0.133000  0.086100  1.0  0.1159
  H  H102  1  0.532400  0.133100  0.194400  1.0  0.1202
  H  H103  1  0.797200  0.591700  0.576500  1.0  0.1205
  H  H104  1  0.826300  0.498400  0.623200  1.0  0.1327
  H  H105  1  0.834000  0.404900  0.639900  1.0  0.1006
  H  H106  1  0.590000  0.656800  0.691900  1.0  0.1208
  H  H107  1  0.612700  0.567200  0.740000  1.0  0.1216
  H  H108  1  0.649100  0.499400  0.802600  1.0  0.1239
  H  H109  1  0.857700  0.311800  0.681500  1.0  0.12
  H  H110  1  0.673000  0.405400  0.843100  1.0  0.1378
  H  H111  1  0.911600  0.439400  0.269100  1.0  0.1025
  H  H112  1  0.889800  0.529700  0.316300  1.0  0.1372
  H  H113  1  0.716900  0.464000  0.393200  1.0  0.1209
  H  H114  1  0.686700  0.559300  0.439800  1.0  0.1253
  H  H115  1  0.670600  0.673900  0.424000  1.0  0.1281
  H  H116  1  0.865200  0.575600  0.417800  1.0  0.1153
  H  H117  1  0.837300  0.661100  0.478200  1.0  0.1126
  H  H118  1  0.648300  0.759500  0.483200  1.0  0.1153
  H  H119  1  0.902200  0.188600  0.394700  1.0  0.1203
  H  H120  1  0.900200  0.208000  0.301200  1.0  0.1201
  H  H121  1  0.706500  0.342600  0.484100  1.0  0.1362
  H  H122  1  0.706700  0.358100  0.389100  1.0  0.1293
  H  H123  1  0.738100  0.344900  0.555300  1.0  0.12
  H  H124  1  0.747100  0.327700  0.645900  1.0  0.1138
  H  H125  1  0.888500  0.145200  0.578200  1.0  0.1315
  H  H126  1  0.883700  0.159000  0.486700  1.0  0.1092
  H  H127  1  0.749900  0.412800  0.117300  1.0  0.1137
  H  H128  1  0.725700  0.379200  0.050200  1.0  0.1254
  H  H129  1  0.935700  0.250300  0.949900  1.0  0.1289
  H  H130  1  0.958900  0.287800  0.017300  1.0  0.1217
  H  H131  1  0.962900  0.660400  0.938200  1.0  0.1119
  H  H132  1  0.931300  0.606300  0.021700  1.0  0.1503
  H  H133  1  0.092200  0.442600  0.909100  1.0  0.15
  H  H134  1  0.123000  0.498800  0.823500  1.0  0.1333
  H  H135  1  0.362300  0.590200  0.685400  1.0  0.1091
  H  H136  1  0.437400  0.634000  0.640300  1.0  0.1529
  H  H137  1  0.299400  0.775100  0.792300  1.0  0.1292
  H  H138  1  0.230000  0.726400  0.832600  1.0  0.1125
  H  H139  1  0.231200  0.495700  0.864900  1.0  0.1193
  H  H140  1  0.341500  0.435900  0.867400  1.0  0.1344
  H  H141  1  0.445800  0.433200  0.678000  1.0  0.1334
  H  H142  1  0.334200  0.493300  0.682400  1.0  0.1122
  H  H143  1  0.928600  0.742200  0.862000  1.0  0.1169
  H  H144  1  0.842700  0.737900  0.846000  1.0  0.1337
  H  H145  1  0.989400  0.679100  0.658700  1.0  0.1245
  H  H146  1  0.068100  0.694600  0.678400  1.0  0.1149
  H  H147  1  0.142000  0.814400  0.780000  1.0  0.1344
  H  H148  1  0.061400  0.913400  0.769700  1.0  0.1242
  H  H149  1  0.896000  0.897300  0.911600  1.0  0.1293
  H  H150  1  0.974900  0.800100  0.919100  1.0  0.1249
  H  H151  1  0.041600  0.907500  0.352500  1.0  0.1231
  H  H152  1  0.942400  0.902300  0.433200  1.0  0.1219
  H  H153  1  0.989600  0.753900  0.329100  1.0  0.1194
  H  H154  1  0.085000  0.763800  0.247500  1.0  0.1221
  H  H155  1  0.760100  0.095700  0.892200  1.0  0.1242
  H  H156  1  0.839100  0.008700  0.914200  1.0  0.1293
  H  H157  1  0.977400  0.953100  0.728300  1.0  0.1207
  H  H158  1  0.891400  0.037100  0.708600  1.0  0.1163
  H  H159  1  0.807500  0.082200  0.645400  1.0  0.1198
  H  H160  1  0.783100  0.999900  0.646100  1.0  0.1368
  H  H161  1  0.577600  0.114100  0.776000  1.0  0.132
  H  H162  1  0.608000  0.193100  0.772200  1.0  0.113
  H  H163  1  0.863500  0.159700  0.865100  1.0  0.1259
  H  H164  1  0.898900  0.197400  0.917900  1.0  0.123
  H  H165  1  0.709400  0.361600  0.982400  1.0  0.1284
  H  H166  1  0.675700  0.320700  0.931000  1.0  0.1053
  H  H167  1  0.642700  0.285800  0.684700  1.0  0.1179
  H  H168  1  0.530600  0.333900  0.691200  1.0  0.123
  H  H169  1  0.448300  0.446300  0.849500  1.0  0.1269
  H  H170  1  0.561000  0.399200  0.840400  1.0  0.1244
  H  H171  1  0.359700  0.858700  0.119500  1.0  0.1195
  H  H172  1  0.417500  0.867500  0.013000  1.0  0.1295
  H  H173  1  0.490300  0.678500  0.969700  1.0  0.1304
  H  H174  1  0.433400  0.674300  0.076400  1.0  0.1273
  H  H175  1  0.883100  0.699700  0.525600  1.0  0.0991
  H  H176  1  0.965500  0.713700  0.435000  1.0  0.1333
  H  H177  1  0.828400  0.904400  0.481800  1.0  0.1454
  H  H178  1  0.747100  0.884600  0.566600  1.0  0.0894
  H  H179  1  0.743000  0.837900  0.700500  1.0  0.1219
  H  H180  1  0.762800  0.924800  0.694100  1.0  0.1069
  H  H181  1  0.553900  0.044600  0.745900  1.0  0.1329
  H  H182  1  0.537600  0.957100  0.746900  1.0  0.124
  H  H183  1  0.584800  0.708900  0.570200  1.0  0.1148
  H  H184  1  0.506100  0.668800  0.610600  1.0  0.1485
  H  H185  1  0.361800  0.821700  0.745000  1.0  0.1174
  H  H186  1  0.440300  0.862000  0.704200  1.0  0.1359
  H  H187  1  0.848100  0.642200  0.628300  1.0  0.1326
  H  H188  1  0.929700  0.640500  0.654700  1.0  0.1287
  H  H189  1  0.762700  0.762700  0.815200  1.0  0.1302
  H  H190  1  0.682100  0.763800  0.785600  1.0  0.1295
  H  H191  1  0.678000  0.873500  0.494900  1.0  0.129
  H  H192  1  0.501100  0.960800  0.657700  1.0  0.1246
  H  H193  1  0.437300  0.016900  0.603100  1.0  0.1444
  H  H194  1  0.614400  0.926400  0.441100  1.0  0.1244
  H  H195  1  0.617800  0.687500  0.777800  1.0  0.116
  H  H196  1  0.576300  0.689000  0.883400  1.0  0.1263
  H  H197  1  0.421000  0.867000  0.913900  1.0  0.1162
  H  H198  1  0.467600  0.866900  0.805600  1.0  0.1207
  C  C199  1  0.240000  0.414000  0.389500  1.0  -0.0061
  C  C200  1  0.222500  0.469800  0.362200  1.0  -0.1625
  C  C201  1  0.277600  0.477400  0.313800  1.0  0.0947
  C  C202  1  0.199200  0.594700  0.318400  1.0  -0.0842
  C  C203  1  0.361800  0.375900  0.321800  1.0  0.0268
  C  C204  1  0.348300  0.428700  0.293700  1.0  -0.1115
  C  C205  1  0.261000  0.536900  0.284100  1.0  0.0851
  C  C206  1  0.308500  0.538700  0.222600  1.0  -0.1505
  C  C207  1  0.185100  0.649800  0.294500  1.0  -0.008
  C  C208  1  0.294700  0.593900  0.198700  1.0  0.0221
  C  C209  1  0.133500  0.536300  0.694800  1.0  0.0184
  C  C210  1  0.146600  0.482500  0.667800  1.0  -0.1886
  C  C211  1  0.248600  0.521500  0.622400  1.0  0.035
  C  C212  1  0.266300  0.465500  0.594200  1.0  -0.1738
  C  C213  1  0.215400  0.444100  0.615300  1.0  0.0866
  C  C214  1  0.232300  0.386600  0.582500  1.0  0.0773
  C  C215  1  0.295000  0.330500  0.564500  1.0  -0.1567
  C  C216  1  0.180800  0.387700  0.567300  1.0  -0.1224
  C  C217  1  0.197000  0.337300  0.532000  1.0  0.0242
  C  C218  1  0.308300  0.279500  0.528800  1.0  0.0005
  C  C219  1  0.138000  0.775600  0.605900  1.0  -0.1392
  C  C220  1  0.139400  0.764100  0.661100  1.0  0.0494
  C  C221  1  0.253100  0.685300  0.553200  1.0  -0.1723
  C  C222  1  0.252500  0.676000  0.609500  1.0  0.0349
  C  C223  1  0.191300  0.745600  0.490600  1.0  0.0968
  C  C224  1  0.194200  0.735800  0.551100  1.0  0.0627
  C  C225  1  0.230500  0.696400  0.441100  1.0  -0.1238
  C  C226  1  0.224900  0.706300  0.387800  1.0  -0.0036
  C  C227  1  0.141300  0.813900  0.427500  1.0  0.0341
  C  C228  1  0.145200  0.805700  0.480800  1.0  -0.1237
  C  C229  1  0.212000  0.619900  0.917300  1.0  0.003
  C  C230  1  0.226400  0.641200  0.956100  1.0  -0.1485
  C  C231  1  0.174000  0.691100  0.003800  1.0  0.0663
  C  C232  1  0.102700  0.716900  0.015600  1.0  -0.1479
  C  C233  1  0.088900  0.693900  0.976100  1.0  0.0039
  C  C234  1  0.010100  0.384700  0.068100  1.0  0.0296
  C  C235  1  0.029000  0.416700  0.018200  1.0  -0.2099
  C  C236  1  0.990000  0.483100  0.026100  1.0  0.0333
  C  C237  1  0.935100  0.512300  0.084100  1.0  -0.111
  C  C238  1  0.915800  0.479200  0.136000  1.0  0.0356
  C  C239  1  0.649400  0.372200  0.293100  1.0  0.0436
  C  C240  1  0.605100  0.346000  0.320400  1.0  -0.1622
  C  C241  1  0.623100  0.287800  0.289400  1.0  0.0423
  C  C242  1  0.686400  0.262800  0.230700  1.0  -0.1388
  C  C243  1  0.727100  0.291800  0.206700  1.0  0.0328
  C  C244  1  0.724400  0.516800  0.172700  1.0  0.0121
  C  C245  1  0.658800  0.552100  0.170900  1.0  -0.1546
  C  C246  1  0.593600  0.569200  0.227400  1.0  0.0819
  C  C247  1  0.597100  0.553500  0.282800  1.0  -0.1999
  C  C248  1  0.663400  0.518600  0.280000  1.0  0.0199
  C  C249  1  0.060500  0.268600  0.179400  1.0  0.0245
  C  C250  1  0.111200  0.272200  0.188500  1.0  -0.1591
  C  C251  1  0.093300  0.291200  0.250300  1.0  0.0387
  C  C252  1  0.024700  0.305900  0.300000  1.0  -0.1511
  C  C253  1  0.977400  0.298200  0.287900  1.0  0.0208
  C  C254  1  0.908500  0.169300  0.194600  1.0  0.0253
  C  C255  1  0.956500  0.110800  0.200800  1.0  -0.1137
  C  C256  1  0.029300  0.087700  0.164800  1.0  0.0917
  C  C257  1  0.054000  0.120500  0.117300  1.0  -0.1245
  C  C258  1  0.007600  0.176800  0.112400  1.0  0.0384
  C  C259  1  0.969400  0.124000  0.652200  1.0  -0.0166
  C  C260  1  0.026700  0.128500  0.603700  1.0  -0.1564
  C  C261  1  0.039800  0.177900  0.608000  1.0  0.1203
  C  C262  1  0.999700  0.214900  0.664500  1.0  -0.1533
  C  C263  1  0.943200  0.208500  0.713700  1.0  0.059
  C  C264  1  0.195800  0.934800  0.141200  1.0  0.0309
  C  C265  1  0.148800  0.985100  0.128300  1.0  -0.1428
  C  C266  1  0.082300  0.028400  0.177100  1.0  0.0809
  C  C267  1  0.067700  0.018700  0.237600  1.0  -0.1494
  C  C268  1  0.118300  0.968400  0.249300  1.0  -0.0019
  C  C269  1  0.239800  0.911700  0.327900  1.0  0.0341
  C  C270  1  0.253900  0.961000  0.327000  1.0  -0.1503
  C  C271  1  0.321300  0.953300  0.287100  1.0  0.1177
  C  C272  1  0.374300  0.893900  0.250700  1.0  -0.1459
  C  C273  1  0.356600  0.846900  0.253800  1.0  -0.0135
  C  C274  1  0.168200  0.799600  0.109600  1.0  0.0091
  C  C275  1  0.147300  0.777200  0.079100  1.0  -0.0785
  C  C276  1  0.194400  0.714700  0.041700  1.0  0.0473
  C  C277  1  0.258900  0.680300  0.040400  1.0  -0.2021
  C  C278  1  0.278600  0.704700  0.071100  1.0  0.0757
  C  C279  1  0.396900  0.680300  0.282300  1.0  0.0248
  C  C280  1  0.463200  0.652300  0.278000  1.0  -0.1437
  C  C281  1  0.523300  0.602900  0.228200  1.0  0.1065
  C  C282  1  0.512200  0.585800  0.185200  1.0  -0.1745
  C  C283  1  0.445400  0.613700  0.190600  1.0  0.0015
  C  C284  1  0.612800  0.177500  0.911800  1.0  0.0019
  C  C285  1  0.580000  0.171900  0.974900  1.0  -0.1158
  C  C286  1  0.542400  0.225800  0.021400  1.0  0.0945
  C  C287  1  0.536400  0.284100  0.000600  1.0  -0.1709
  C  C288  1  0.569300  0.286700  0.937500  1.0  0.0246
  C  C289  1  0.127800  0.258500  0.484500  1.0  0.0335
  C  C290  1  0.079000  0.250700  0.537900  1.0  -0.1883
  C  C291  1  0.095400  0.188800  0.552800  1.0  0.075
  C  C292  1  0.160400  0.138100  0.510900  1.0  -0.218
  C  C293  1  0.207000  0.150000  0.459900  1.0  0.0344
  C  C294  1  0.294800  0.119900  0.291900  1.0  -0.0066
  C  C295  1  0.284000  0.067800  0.294600  1.0  -0.121
  C  C296  1  0.337700  0.006600  0.281800  1.0  0.042
  C  C297  1  0.406600  0.997200  0.264800  1.0  -0.1831
  C  C298  1  0.416100  0.049200  0.263900  1.0  0.0427
  C  C299  1  0.460900  0.267800  0.393900  1.0  0.0457
  C  C300  1  0.507700  0.291600  0.369700  1.0  -0.1251
  C  C301  1  0.575700  0.259400  0.316300  1.0  0.0759
  C  C302  1  0.592500  0.202000  0.290800  1.0  -0.1186
  C  C303  1  0.546400  0.177800  0.314700  1.0  -0.0259
  C  C304  1  0.168700  0.332700  0.334200  1.0  -0.002
  C  C305  1  0.120500  0.333400  0.318700  1.0  -0.1409
  C  C306  1  0.219200  0.260900  0.223600  1.0  -0.0922
  C  C307  1  0.144700  0.295700  0.263200  1.0  0.0685
  C  C308  1  0.267300  0.260700  0.240800  1.0  0.0158
  C  C309  1  0.372000  0.097000  0.482500  1.0  -0.0091
  C  C310  1  0.475100  0.045800  0.387000  1.0  0.0279
  C  C311  1  0.512500  0.011800  0.419800  1.0  -0.1534
  C  C312  1  0.479200  0.019000  0.482600  1.0  0.0065
  C  C313  1  0.409000  0.064400  0.514400  1.0  -0.1596
  C  C314  1  0.423300  0.275400  0.194000  1.0  0.0346
  C  C315  1  0.448500  0.274900  0.131800  1.0  -0.2067
  C  C316  1  0.509800  0.222800  0.089600  1.0  0.0976
  C  C317  1  0.538700  0.170700  0.113900  1.0  -0.1601
  C  C318  1  0.511500  0.170500  0.178300  1.0  0.0344
  C  C319  1  0.760000  0.586000  0.610500  1.0  -0.0069
  C  C320  1  0.777500  0.530200  0.637800  1.0  -0.1616
  C  C321  1  0.722400  0.522600  0.686200  1.0  0.0946
  C  C322  1  0.800800  0.405300  0.681600  1.0  -0.0854
  C  C323  1  0.638200  0.624100  0.678200  1.0  0.0256
  C  C324  1  0.651700  0.571300  0.706300  1.0  -0.112
  C  C325  1  0.739000  0.463100  0.715900  1.0  0.0841
  C  C326  1  0.691500  0.461300  0.777400  1.0  -0.1491
  C  C327  1  0.814900  0.350200  0.705500  1.0  -0.0099
  C  C328  1  0.705300  0.406100  0.801300  1.0  0.0213
  C  C329  1  0.866500  0.463700  0.305200  1.0  0.0171
  C  C330  1  0.853400  0.517500  0.332200  1.0  -0.1905
  C  C331  1  0.751400  0.478500  0.377600  1.0  0.0347
  C  C332  1  0.733700  0.534500  0.405800  1.0  -0.1727
  C  C333  1  0.784600  0.555900  0.384700  1.0  0.0873
  C  C334  1  0.767700  0.613400  0.417500  1.0  0.0769
  C  C335  1  0.705000  0.669500  0.435500  1.0  -0.1557
  C  C336  1  0.819200  0.612300  0.432700  1.0  -0.1192
  C  C337  1  0.803000  0.662700  0.468000  1.0  0.0266
  C  C338  1  0.691700  0.720500  0.471200  1.0  -0.0015
  C  C339  1  0.862000  0.224400  0.394100  1.0  -0.1403
  C  C340  1  0.860600  0.235900  0.338900  1.0  0.0498
  C  C341  1  0.746900  0.314700  0.446800  1.0  -0.1715
  C  C342  1  0.747500  0.324000  0.390500  1.0  0.0323
  C  C343  1  0.808700  0.254400  0.509400  1.0  0.0971
  C  C344  1  0.805800  0.264200  0.448900  1.0  0.0632
  C  C345  1  0.769500  0.303600  0.558900  1.0  -0.1237
  C  C346  1  0.775100  0.293700  0.612200  1.0  -0.004
  C  C347  1  0.858700  0.186100  0.572500  1.0  0.0337
  C  C348  1  0.854800  0.194300  0.519200  1.0  -0.1234
  C  C349  1  0.788000  0.380100  0.082700  1.0  0.0051
  C  C350  1  0.773600  0.358800  0.043900  1.0  -0.1478
  C  C351  1  0.826000  0.308900  0.996200  1.0  0.0661
  C  C352  1  0.897300  0.283100  0.984400  1.0  -0.1475
  C  C353  1  0.911100  0.306100  0.023900  1.0  0.0035
  C  C354  1  0.989900  0.615300  0.931900  1.0  0.0327
  C  C355  1  0.971000  0.583300  0.981800  1.0  -0.2082
  C  C356  1  0.010000  0.516900  0.973900  1.0  0.0331
  C  C357  1  0.064900  0.487700  0.915900  1.0  -0.1064
  C  C358  1  0.084200  0.520800  0.864000  1.0  0.0359
  C  C359  1  0.350600  0.627800  0.706900  1.0  0.0447
  C  C360  1  0.394900  0.654000  0.679600  1.0  -0.1619
  C  C361  1  0.376900  0.712200  0.710600  1.0  0.0409
  C  C362  1  0.313600  0.737200  0.769300  1.0  -0.1391
  C  C363  1  0.272900  0.708200  0.793300  1.0  0.0336
  C  C364  1  0.275600  0.483200  0.827300  1.0  0.0134
  C  C365  1  0.341200  0.447900  0.829100  1.0  -0.1522
  C  C366  1  0.406400  0.430800  0.772600  1.0  0.0805
  C  C367  1  0.402900  0.446500  0.717200  1.0  -0.1983
  C  C368  1  0.336600  0.481400  0.720000  1.0  0.0194
  C  C369  1  0.939500  0.731400  0.820600  1.0  0.0265
  C  C370  1  0.888800  0.727800  0.811500  1.0  -0.1581
  C  C371  1  0.906700  0.708800  0.749700  1.0  0.04
  C  C372  1  0.975300  0.694100  0.700000  1.0  -0.1504
  C  C373  1  0.022600  0.701800  0.712100  1.0  0.0183
  C  C374  1  0.091500  0.830700  0.805400  1.0  0.0244
  C  C375  1  0.043500  0.889200  0.799200  1.0  -0.1141
  C  C376  1  0.970700  0.912300  0.835200  1.0  0.0911
  C  C377  1  0.946000  0.879500  0.882700  1.0  -0.1257
  C  C378  1  0.992400  0.823200  0.887600  1.0  0.0379
  C  C379  1  0.030600  0.876000  0.347800  1.0  -0.0184
  C  C380  1  0.973300  0.871500  0.396300  1.0  -0.1558
  C  C381  1  0.960200  0.822100  0.392000  1.0  0.119
  C  C382  1  0.000300  0.785100  0.335500  1.0  -0.1543
  C  C383  1  0.056800  0.791500  0.286300  1.0  0.0568
  C  C384  1  0.804200  0.065200  0.858800  1.0  0.0304
  C  C385  1  0.851200  0.014900  0.871700  1.0  -0.1452
  C  C386  1  0.917700  0.971600  0.822900  1.0  0.081
  C  C387  1  0.932300  0.981300  0.762400  1.0  -0.1522
  C  C388  1  0.881700  0.031600  0.750700  1.0  -0.0032
  C  C389  1  0.760200  0.088300  0.672100  1.0  0.0348
  C  C390  1  0.746100  0.039000  0.673000  1.0  -0.1494
  C  C391  1  0.678700  0.046700  0.712900  1.0  0.1179
  C  C392  1  0.625700  0.106100  0.749300  1.0  -0.1454
  C  C393  1  0.643400  0.153100  0.746200  1.0  -0.0151
  C  C394  1  0.831800  0.200400  0.890400  1.0  0.0079
  C  C395  1  0.852700  0.222800  0.920900  1.0  -0.0788
  C  C396  1  0.805600  0.285300  0.958300  1.0  0.0488
  C  C397  1  0.741100  0.319700  0.959600  1.0  -0.2015
  C  C398  1  0.721400  0.295300  0.928900  1.0  0.0746
  C  C399  1  0.603100  0.319700  0.717700  1.0  0.022
  C  C400  1  0.536800  0.347700  0.722000  1.0  -0.1457
  C  C401  1  0.476700  0.397100  0.771800  1.0  0.1051
  C  C402  1  0.487800  0.414200  0.814800  1.0  -0.1738
  C  C403  1  0.554600  0.386300  0.809400  1.0  0.003
  C  C404  1  0.387200  0.822500  0.088200  1.0  0.0029
  C  C405  1  0.420000  0.828100  0.025100  1.0  -0.1165
  C  C406  1  0.457600  0.774200  0.978600  1.0  0.0944
  C  C407  1  0.463600  0.715900  0.999400  1.0  -0.17
  C  C408  1  0.430700  0.713300  0.062500  1.0  0.0213
  C  C409  1  0.872200  0.741500  0.515500  1.0  0.0308
  C  C410  1  0.921000  0.749300  0.462100  1.0  -0.1873
  C  C411  1  0.904600  0.811200  0.447200  1.0  0.0761
  C  C412  1  0.839600  0.861900  0.489100  1.0  -0.2187
  C  C413  1  0.793000  0.850000  0.540100  1.0  0.035
  C  C414  1  0.705200  0.880100  0.708100  1.0  -0.0075
  C  C415  1  0.716000  0.932200  0.705400  1.0  -0.1182
  C  C416  1  0.662300  0.993400  0.718200  1.0  0.0417
  C  C417  1  0.593400  0.002800  0.735200  1.0  -0.1852
  C  C418  1  0.583900  0.950800  0.736100  1.0  0.0375
  C  C419  1  0.539100  0.732200  0.606100  1.0  0.046
  C  C420  1  0.492300  0.708400  0.630300  1.0  -0.1262
  C  C421  1  0.424300  0.740600  0.683700  1.0  0.0767
  C  C422  1  0.407500  0.798000  0.709200  1.0  -0.1164
  C  C423  1  0.453600  0.822200  0.685300  1.0  -0.0276
  C  C424  1  0.831300  0.667300  0.665800  1.0  -0.0058
  C  C425  1  0.879500  0.666667  0.681300  1.0  -0.1412
  C  C426  1  0.780800  0.739100  0.776400  1.0  -0.092
  C  C427  1  0.855300  0.704300  0.736800  1.0  0.0713
  C  C428  1  0.732700  0.739300  0.759200  1.0  0.013
  C  C429  1  0.628000  0.903000  0.517500  1.0  -0.008
  C  C430  1  0.524900  0.954200  0.613000  1.0  0.0279
  C  C431  1  0.487500  0.988200  0.580200  1.0  -0.1527
  C  C432  1  0.520800  0.981000  0.517400  1.0  0.0066
  C  C433  1  0.591000  0.935600  0.485600  1.0  -0.1596
  C  C434  1  0.576700  0.724600  0.806000  1.0  0.0351
  C  C435  1  0.551500  0.725100  0.868200  1.0  -0.2058
  C  C436  1  0.490200  0.777200  0.910400  1.0  0.0975
  C  C437  1  0.461300  0.829300  0.886100  1.0  -0.1599
  C  C438  1  0.488500  0.829500  0.821700  1.0  0.0333
  C  C439  1  0.945300  0.823900  0.599500  1.0  0.2443
  C  C440  1  0.873500  0.417600  0.476700  1.0  0.3054
  C  C441  1  0.054700  0.176100  0.400500  1.0  0.2454
  C  C442  1  0.126500  0.582400  0.523300  1.0  0.308
  S  S443  1  0.939900  0.877000  0.653500  1.0  1.209
  S  S444  1  0.938000  0.356400  0.501300  1.0  0.8727
  S  S445  1  0.060100  0.123000  0.346500  1.0  1.2089
  S  S446  1  0.062000  0.643600  0.498700  1.0  0.8732
  N  N447  1  0.406300  0.087100  0.419500  1.0  0.2905
  N  N448  1  0.478900  0.212200  0.367600  1.0  0.168
  N  N449  1  0.456200  0.223300  0.217000  1.0  0.3271
  N  N450  1  0.361900  0.108000  0.277800  1.0  0.2326
  N  N451  1  0.307500  0.369600  0.368400  1.0  0.2847
  N  N452  1  0.240600  0.296000  0.295700  1.0  0.225
  N  N453  1  0.191700  0.208900  0.444700  1.0  0.3087
  N  N454  1  0.262100  0.284500  0.511400  1.0  0.2785
  N  N455  1  0.233900  0.649000  0.234900  1.0  0.1768
  N  N456  1  0.179300  0.764600  0.382400  1.0  0.328
  N  N457  1  0.387600  0.659800  0.239500  1.0  0.313
  N  N458  1  0.290500  0.856800  0.292700  1.0  0.2663
  N  N459  1  0.605800  0.234100  0.894800  1.0  0.2754
  N  N460  1  0.180900  0.927100  0.201800  1.0  0.2714
  N  N461  1  0.236400  0.763200  0.104300  1.0  0.1876
  N  N462  1  0.928400  0.164900  0.707200  1.0  0.2802
  N  N463  1  0.724300  0.501200  0.225800  1.0  0.3216
  N  N464  1  0.143300  0.645500  0.928100  1.0  0.2484
  N  N465  1  0.707800  0.347100  0.237800  1.0  0.2949
  N  N466  1  0.934800  0.202300  0.152000  1.0  0.2815
  N  N467  1  0.195300  0.714400  0.663100  1.0  0.2844
  N  N468  1  0.996600  0.280100  0.227600  1.0  0.2844
  N  N469  1  0.183300  0.556700  0.671700  1.0  0.3381
  N  N470  1  0.955300  0.415000  0.124700  1.0  0.2972
  N  N471  1  0.593700  0.912900  0.580500  1.0  0.2889
  N  N472  1  0.521100  0.787800  0.632400  1.0  0.1675
  N  N473  1  0.543800  0.776700  0.783000  1.0  0.326
  N  N474  1  0.638100  0.892000  0.722200  1.0  0.2317
  N  N475  1  0.692500  0.630400  0.631600  1.0  0.2848
  N  N476  1  0.759400  0.704000  0.704300  1.0  0.225
  N  N477  1  0.808300  0.791100  0.555300  1.0  0.3074
  N  N478  1  0.737900  0.715500  0.488600  1.0  0.2794
  N  N479  1  0.766100  0.351000  0.765100  1.0  0.1769
  N  N480  1  0.820700  0.235400  0.617600  1.0  0.3271
  N  N481  1  0.612400  0.340200  0.760500  1.0  0.3122
  N  N482  1  0.709500  0.143200  0.707300  1.0  0.2682
  N  N483  1  0.394200  0.765900  0.105200  1.0  0.2762
  N  N484  1  0.819100  0.072900  0.798200  1.0  0.2724
  N  N485  1  0.763600  0.236800  0.895700  1.0  0.1872
  N  N486  1  0.071600  0.835100  0.292800  1.0  0.2814
  N  N487  1  0.275700  0.498800  0.774200  1.0  0.3241
  N  N488  1  0.856700  0.354500  0.071900  1.0  0.2483
  N  N489  1  0.292200  0.652900  0.762200  1.0  0.2941
  N  N490  1  0.065200  0.797700  0.848000  1.0  0.2811
  N  N491  1  0.804700  0.285600  0.336900  1.0  0.2883
  N  N492  1  0.003400  0.719900  0.772400  1.0  0.2838
  N  N493  1  0.816700  0.443300  0.328300  1.0  0.3362
  N  N494  1  0.044700  0.585000  0.875300  1.0  0.2986
  O  O495  1  0.369800  0.119100  0.387900  1.0  -0.6102
  O  O496  1  0.433100  0.190000  0.389000  1.0  -0.6183
  O  O497  1  0.434600  0.225900  0.279100  1.0  -0.6099
  O  O498  1  0.373000  0.158500  0.276600  1.0  -0.6084
  O  O499  1  0.320700  0.316800  0.396700  1.0  -0.6028
  O  O500  1  0.286000  0.295200  0.312200  1.0  -0.6154
  O  O501  1  0.235800  0.219800  0.391900  1.0  -0.6146
  O  O502  1  0.278500  0.236500  0.474100  1.0  -0.6051
  O  O503  1  0.221400  0.703700  0.211300  1.0  -0.617
  O  O504  1  0.171200  0.773000  0.331000  1.0  -0.6176
  O  O505  1  0.322500  0.683000  0.246700  1.0  -0.61
  O  O506  1  0.275500  0.809200  0.296700  1.0  -0.5952
  O  O507  1  0.635900  0.239600  0.834300  1.0  -0.6112
  O  O508  1  0.231000  0.880300  0.214300  1.0  -0.6166
  O  O509  1  0.258300  0.786700  0.131600  1.0  -0.5993
  O  O510  1  0.872700  0.159600  0.752500  1.0  -0.6164
  O  O511  1  0.787800  0.464600  0.225100  1.0  -0.6122
  O  O512  1  0.129400  0.622700  0.891400  1.0  -0.6141
  O  O513  1  0.747500  0.376000  0.212800  1.0  -0.5959
  O  O514  1  0.890600  0.260600  0.147600  1.0  -0.6102
  O  O515  1  0.196600  0.702900  0.717400  1.0  -0.6102
  O  O516  1  0.949800  0.273000  0.217700  1.0  -0.6169
  O  O517  1  0.167200  0.611700  0.696400  1.0  -0.6089
  O  O518  1  0.938700  0.383500  0.172500  1.0  -0.6113
  O  O519  1  0.630200  0.880900  0.612100  1.0  -0.6112
  O  O520  1  0.566900  0.810000  0.611000  1.0  -0.6178
  O  O521  1  0.565400  0.774100  0.720900  1.0  -0.61
  O  O522  1  0.627000  0.841500  0.723400  1.0  -0.6102
  O  O523  1  0.679300  0.683200  0.603300  1.0  -0.6037
  O  O524  1  0.714000  0.704800  0.687800  1.0  -0.6137
  O  O525  1  0.764200  0.780200  0.608100  1.0  -0.6142
  O  O526  1  0.721500  0.763500  0.525900  1.0  -0.6041
  O  O527  1  0.778600  0.296300  0.788700  1.0  -0.6168
  O  O528  1  0.828800  0.227000  0.669000  1.0  -0.6171
  O  O529  1  0.677500  0.317000  0.753300  1.0  -0.6107
  O  O530  1  0.724500  0.190800  0.703300  1.0  -0.5952
  O  O531  1  0.364100  0.760400  0.165700  1.0  -0.6097
  O  O532  1  0.769000  0.119700  0.785700  1.0  -0.6168
  O  O533  1  0.741700  0.213300  0.868400  1.0  -0.5998
  O  O534  1  0.127300  0.840400  0.247500  1.0  -0.6177
  O  O535  1  0.212200  0.535400  0.774900  1.0  -0.6118
  O  O536  1  0.870600  0.377300  0.108600  1.0  -0.6133
  O  O537  1  0.252500  0.624000  0.787200  1.0  -0.5947
  O  O538  1  0.109400  0.739400  0.852400  1.0  -0.6124
  O  O539  1  0.803400  0.297100  0.282600  1.0  -0.6119
  O  O540  1  0.050200  0.727000  0.782300  1.0  -0.618
  O  O541  1  0.832800  0.388300  0.303600  1.0  -0.6109
  O  O542  1  0.061300  0.616500  0.827500  1.0  -0.612
  O  O543  1  0.962300  0.836700  0.696900  1.0  -0.6415
  O  O544  1  0.990900  0.898300  0.608800  1.0  -0.6888
  O  O545  1  0.862900  0.926900  0.682800  1.0  -0.6552
  O  O546  1  0.003700  0.327500  0.439300  1.0  -0.5834
  O  O547  1  0.915000  0.311100  0.538900  1.0  -0.6368
  O  O548  1  0.936400  0.402700  0.538400  1.0  -0.693
  O  O549  1  0.037700  0.163300  0.303100  1.0  -0.6397
  O  O550  1  0.009100  0.101700  0.391200  1.0  -0.689
  O  O551  1  0.137100  0.073100  0.317200  1.0  -0.6536
  O  O552  1  0.996300  0.672500  0.560700  1.0  -0.5825
  O  O553  1  0.085000  0.688900  0.461100  1.0  -0.6371
  O  O554  1  0.063600  0.597300  0.461600  1.0  -0.6909
  F  F555  1  0.894000  0.803200  0.632900  1.0  -0.1937
  F  F556  1  0.016000  0.772200  0.573200  1.0  -0.1964
  F  F557  1  0.931400  0.857800  0.552800  1.0  -0.2
  F  F558  1  0.873000  0.378100  0.439300  1.0  -0.2417
  F  F559  1  0.821500  0.425600  0.539000  1.0  -0.2752
  F  F560  1  0.930300  0.429100  0.463300  1.0  -0.3625
  F  F561  1  0.106000  0.196800  0.367100  1.0  -0.1963
  F  F562  1  0.984000  0.227800  0.426800  1.0  -0.196
  F  F563  1  0.068600  0.142200  0.447200  1.0  -0.1987
  F  F564  1  0.127000  0.621900  0.560700  1.0  -0.2396
  F  F565  1  0.178500  0.574400  0.461000  1.0  -0.2762
  F  F566  1  0.069700  0.570900  0.536700  1.0  -0.3621
