# generated using pymatgen
data_LaH32C40N8Cl3O20
_symmetry_space_group_name_H-M   'P 1'
_cell_length_a   13.15690000
_cell_length_b   13.15690000
_cell_length_c   23.68800000
_cell_angle_alpha   97.10210000
_cell_angle_beta   97.10210000
_cell_angle_gamma   118.16600000
_symmetry_Int_Tables_number   1
_chemical_formula_structural   LaH32C40N8Cl3O20
_chemical_formula_sum   'La2 H64 C80 N16 Cl6 O40'
_cell_volume   3508.70031575
_cell_formula_units_Z   2
loop_
 _symmetry_equiv_pos_site_id
 _symmetry_equiv_pos_as_xyz
  1  'x, y, z'
loop_
 _atom_site_type_symbol
 _atom_site_label
 _atom_site_symmetry_multiplicity
 _atom_site_fract_x
 _atom_site_fract_y
 _atom_site_fract_z
 _atom_site_occupancy
 _atom_site_charge
  La  La1  1  0.868850  0.563090  0.754470  1.0  2.1645
  La  La2  1  0.563090  0.868850  0.254470  1.0  2.1623
  H  H3  1  0.558800  0.444000  0.719400  1.0  0.1145
  H  H4  1  0.361000  0.389600  0.705100  1.0  0.1387
  H  H5  1  0.454500  0.731100  0.714200  1.0  0.1229
  H  H6  1  0.650600  0.779800  0.732000  1.0  0.1256
  H  H7  1  0.873600  0.847800  0.684800  1.0  0.1243
  H  H8  1  0.810700  0.906700  0.606000  1.0  0.127
  H  H9  1  0.835900  0.661300  0.498400  1.0  0.1354
  H  H10  1  0.893700  0.602900  0.578300  1.0  0.1277
  H  H11  1  0.642500  0.181700  0.667200  1.0  0.117
  H  H12  1  0.573700  0.065100  0.574300  1.0  0.1406
  H  H13  1  0.623100  0.349300  0.510200  1.0  0.1268
  H  H14  1  0.674900  0.457500  0.603200  1.0  0.1379
  H  H15  1  0.074500  0.857100  0.759400  1.0  0.1314
  H  H16  1  0.227800  0.045600  0.769300  1.0  0.1239
  H  H17  1  0.459200  0.930800  0.803000  1.0  0.1358
  H  H18  1  0.302200  0.742600  0.790600  1.0  0.112
  H  H19  1  0.597800  0.150200  0.341400  1.0  0.1272
  H  H20  1  0.659500  0.259500  0.435600  1.0  0.1344
  H  H21  1  0.435500  0.968700  0.488300  1.0  0.1332
  H  H22  1  0.378000  0.863000  0.393700  1.0  0.1344
  H  H23  1  0.723100  0.030300  0.454500  1.0  0.1184
  H  H24  1  0.780200  0.975000  0.536000  1.0  0.1366
  H  H25  1  0.764200  0.700600  0.431200  1.0  0.1293
  H  H26  1  0.712300  0.764300  0.351400  1.0  0.1319
  H  H27  1  0.522600  0.407400  0.832000  1.0  0.1257
  H  H28  1  0.368300  0.217100  0.819500  1.0  0.1377
  H  H29  1  0.585500  0.095100  0.777900  1.0  0.1214
  H  H30  1  0.735200  0.286200  0.790400  1.0  0.1275
  H  H31  1  0.005000  0.334800  0.724400  1.0  0.1399
  H  H32  1  0.201100  0.379900  0.736000  1.0  0.1322
  H  H33  1  0.270900  0.653700  0.657100  1.0  0.1421
  H  H34  1  0.075200  0.603200  0.645300  1.0  0.1119
  H  H35  1  0.444000  0.558800  0.219400  1.0  0.115
  H  H36  1  0.389600  0.361000  0.205100  1.0  0.1382
  H  H37  1  0.731100  0.454500  0.214200  1.0  0.1232
  H  H38  1  0.779800  0.650600  0.232000  1.0  0.1243
  H  H39  1  0.847800  0.873600  0.184800  1.0  0.1237
  H  H40  1  0.906700  0.810700  0.106000  1.0  0.1251
  H  H41  1  0.661300  0.835900  0.998400  1.0  0.1363
  H  H42  1  0.602900  0.893700  0.078300  1.0  0.1281
  H  H43  1  0.181700  0.642500  0.167200  1.0  0.1172
  H  H44  1  0.065100  0.573700  0.074300  1.0  0.1407
  H  H45  1  0.349300  0.623100  0.010200  1.0  0.1265
  H  H46  1  0.457500  0.674900  0.103200  1.0  0.1392
  H  H47  1  0.857100  0.074500  0.259400  1.0  0.1307
  H  H48  1  0.045600  0.227800  0.269300  1.0  0.1238
  H  H49  1  0.930800  0.459200  0.303000  1.0  0.1363
  H  H50  1  0.742600  0.302200  0.290600  1.0  0.1117
  H  H51  1  0.150200  0.597800  0.841400  1.0  0.1274
  H  H52  1  0.259500  0.659500  0.935600  1.0  0.1343
  H  H53  1  0.968700  0.435500  0.988300  1.0  0.1339
  H  H54  1  0.863000  0.378000  0.893700  1.0  0.1355
  H  H55  1  0.030300  0.723100  0.954500  1.0  0.1204
  H  H56  1  0.975000  0.780200  0.036000  1.0  0.136
  H  H57  1  0.700600  0.764200  0.931200  1.0  0.1274
  H  H58  1  0.764300  0.712300  0.851400  1.0  0.1316
  H  H59  1  0.407400  0.522600  0.332000  1.0  0.1266
  H  H60  1  0.217100  0.368300  0.319500  1.0  0.1388
  H  H61  1  0.095100  0.585500  0.277900  1.0  0.1211
  H  H62  1  0.286200  0.735200  0.290400  1.0  0.127
  H  H63  1  0.334800  0.005000  0.224400  1.0  0.1398
  H  H64  1  0.379900  0.201100  0.236000  1.0  0.1332
  H  H65  1  0.653700  0.270900  0.157100  1.0  0.1421
  H  H66  1  0.603200  0.075200  0.145300  1.0  0.1119
  C  C67  1  0.536400  0.503000  0.719500  1.0  0.0261
  C  C68  1  0.418900  0.470300  0.710200  1.0  -0.152
  C  C69  1  0.384200  0.555400  0.708400  1.0  0.1205
  C  C70  1  0.474100  0.670500  0.716100  1.0  -0.1267
  C  C71  1  0.590600  0.699800  0.726400  1.0  0.0226
  C  C72  1  0.865300  0.809500  0.646400  1.0  0.047
  C  C73  1  0.828700  0.844900  0.599700  1.0  -0.1223
  C  C74  1  0.817900  0.792100  0.543600  1.0  0.0458
  C  C75  1  0.842900  0.700300  0.536400  1.0  -0.1402
  C  C76  1  0.877600  0.666200  0.583800  1.0  0.0061
  C  C77  1  0.634600  0.215000  0.634600  1.0  0.0417
  C  C78  1  0.596500  0.146300  0.579500  1.0  -0.1524
  C  C79  1  0.591300  0.195100  0.532100  1.0  0.1135
  C  C80  1  0.623400  0.312600  0.542300  1.0  -0.1562
  C  C81  1  0.655800  0.377200  0.597200  1.0  0.0621
  C  C82  1  0.153500  0.872900  0.768600  1.0  0.0006
  C  C83  1  0.244800  0.984200  0.774300  1.0  -0.1275
  C  C84  1  0.361200  0.011000  0.787300  1.0  0.1012
  C  C85  1  0.380900  0.917300  0.793900  1.0  -0.1678
  C  C86  1  0.287400  0.806000  0.787300  1.0  0.0345
  C  C87  1  0.564800  0.113800  0.371800  1.0  0.0045
  C  C88  1  0.601200  0.178400  0.427500  1.0  -0.1475
  C  C89  1  0.553500  0.126300  0.472200  1.0  0.0827
  C  C90  1  0.469300  0.006900  0.458500  1.0  -0.1251
  C  C91  1  0.435000  0.944400  0.402600  1.0  0.0332
  C  C92  1  0.734900  0.964100  0.450000  1.0  0.0511
  C  C93  1  0.766800  0.930600  0.498400  1.0  -0.1594
  C  C94  1  0.779700  0.829500  0.492200  1.0  0.0468
  C  C95  1  0.758200  0.770200  0.437100  1.0  -0.1182
  C  C96  1  0.727900  0.808100  0.389500  1.0  0.0506
  C  C97  1  0.534200  0.342600  0.820200  1.0  0.0507
  C  C98  1  0.442800  0.230000  0.812900  1.0  -0.1445
  C  C99  1  0.458800  0.133000  0.795600  1.0  0.1051
  C  C100  1  0.570500  0.158100  0.788300  1.0  -0.1351
  C  C101  1  0.659300  0.270900  0.795800  1.0  -0.0037
  C  C102  1  0.060200  0.400400  0.711200  1.0  0.0144
  C  C103  1  0.176500  0.427300  0.717900  1.0  -0.1255
  C  C104  1  0.257500  0.522100  0.698800  1.0  0.0777
  C  C105  1  0.217700  0.588300  0.671300  1.0  -0.1687
  C  C106  1  0.101800  0.558600  0.664900  1.0  0.0535
  C  C107  1  0.503000  0.536400  0.219500  1.0  0.028
  C  C108  1  0.470300  0.418900  0.210200  1.0  -0.1483
  C  C109  1  0.555400  0.384200  0.208400  1.0  0.1185
  C  C110  1  0.670500  0.474100  0.216100  1.0  -0.1288
  C  C111  1  0.699800  0.590600  0.226400  1.0  0.0242
  C  C112  1  0.809500  0.865300  0.146400  1.0  0.0462
  C  C113  1  0.844900  0.828700  0.099700  1.0  -0.1267
  C  C114  1  0.792100  0.817900  0.043600  1.0  0.0442
  C  C115  1  0.700300  0.842900  0.036400  1.0  -0.1376
  C  C116  1  0.666200  0.877600  0.083800  1.0  0.0041
  C  C117  1  0.215000  0.634600  0.134600  1.0  0.0429
  C  C118  1  0.146300  0.596500  0.079500  1.0  -0.1503
  C  C119  1  0.195100  0.591300  0.032100  1.0  0.1137
  C  C120  1  0.312600  0.623400  0.042300  1.0  -0.1577
  C  C121  1  0.377200  0.655800  0.097200  1.0  0.0642
  C  C122  1  0.872900  0.153500  0.268600  1.0  0.0021
  C  C123  1  0.984200  0.244800  0.274300  1.0  -0.1242
  C  C124  1  0.011000  0.361200  0.287300  1.0  0.1012
  C  C125  1  0.917300  0.380900  0.293900  1.0  -0.1716
  C  C126  1  0.806000  0.287400  0.287300  1.0  0.035
  C  C127  1  0.113800  0.564800  0.871800  1.0  0.0041
  C  C128  1  0.178400  0.601200  0.927500  1.0  -0.1451
  C  C129  1  0.126300  0.553500  0.972200  1.0  0.0826
  C  C130  1  0.006900  0.469300  0.958500  1.0  -0.1291
  C  C131  1  0.944400  0.435000  0.902600  1.0  0.0317
  C  C132  1  0.964100  0.734900  0.950000  1.0  0.0554
  C  C133  1  0.930600  0.766800  0.998400  1.0  -0.1584
  C  C134  1  0.829500  0.779700  0.992200  1.0  0.0468
  C  C135  1  0.770200  0.758200  0.937100  1.0  -0.1131
  C  C136  1  0.808100  0.727900  0.889500  1.0  0.051
  C  C137  1  0.342600  0.534200  0.320200  1.0  0.0541
  C  C138  1  0.230000  0.442800  0.312900  1.0  -0.1482
  C  C139  1  0.133000  0.458800  0.295600  1.0  0.1072
  C  C140  1  0.158100  0.570500  0.288300  1.0  -0.1362
  C  C141  1  0.270900  0.659300  0.295800  1.0  -0.0027
  C  C142  1  0.400400  0.060200  0.211200  1.0  0.0171
  C  C143  1  0.427300  0.176500  0.217900  1.0  -0.1228
  C  C144  1  0.522100  0.257500  0.198800  1.0  0.0797
  C  C145  1  0.588300  0.217700  0.171300  1.0  -0.1672
  C  C146  1  0.558600  0.101800  0.164900  1.0  0.0537
  N  N147  1  0.619200  0.615000  0.728500  1.0  0.3307
  N  N148  1  0.889500  0.720900  0.638300  1.0  0.3435
  N  N149  1  0.660900  0.327700  0.643200  1.0  0.3374
  N  N150  1  0.176700  0.784300  0.776300  1.0  0.3
  N  N151  1  0.481700  0.997900  0.360000  1.0  0.3358
  N  N152  1  0.720200  0.906600  0.396600  1.0  0.3243
  N  N153  1  0.639100  0.362100  0.811100  1.0  0.3527
  N  N154  1  0.025300  0.469500  0.685200  1.0  0.326
  N  N155  1  0.615000  0.619200  0.228500  1.0  0.3329
  N  N156  1  0.720900  0.889500  0.138300  1.0  0.3447
  N  N157  1  0.327700  0.660900  0.143200  1.0  0.338
  N  N158  1  0.784300  0.176700  0.276300  1.0  0.3016
  N  N159  1  0.997900  0.481700  0.860000  1.0  0.3367
  N  N160  1  0.906600  0.720200  0.896600  1.0  0.3261
  N  N161  1  0.362100  0.639100  0.311100  1.0  0.3525
  N  N162  1  0.469500  0.025300  0.185200  1.0  0.3262
  Cl  Cl163  1  0.746280  0.040460  0.699400  1.0  1.2793
  Cl  Cl164  1  0.658340  0.461100  0.368900  1.0  1.5444
  Cl  Cl165  1  0.187300  0.782100  0.555200  1.0  1.2079
  Cl  Cl166  1  0.040460  0.746280  0.199400  1.0  1.2783
  Cl  Cl167  1  0.461100  0.658340  0.868900  1.0  1.5443
  Cl  Cl168  1  0.782100  0.187300  0.055200  1.0  1.2076
  O  O169  1  0.732600  0.645200  0.737100  1.0  -0.6171
  O  O170  1  0.928900  0.689100  0.682600  1.0  -0.6242
  O  O171  1  0.690900  0.389700  0.696600  1.0  -0.5732
  O  O172  1  0.089600  0.676600  0.771300  1.0  -0.5604
  O  O173  1  0.446700  0.939100  0.305400  1.0  -0.5968
  O  O174  1  0.696900  0.946700  0.350700  1.0  -0.641
  O  O175  1  0.726000  0.471600  0.818600  1.0  -0.6183
  O  O176  1  0.914900  0.446100  0.681100  1.0  -0.6202
  O  O177  1  0.645200  0.732600  0.237100  1.0  -0.618
  O  O178  1  0.689100  0.928900  0.182600  1.0  -0.6244
  O  O179  1  0.389700  0.690900  0.196600  1.0  -0.5716
  O  O180  1  0.676600  0.089600  0.271300  1.0  -0.561
  O  O181  1  0.939100  0.446700  0.805400  1.0  -0.5973
  O  O182  1  0.946700  0.696900  0.850700  1.0  -0.6408
  O  O183  1  0.471600  0.726000  0.318600  1.0  -0.6181
  O  O184  1  0.446100  0.914900  0.181100  1.0  -0.623
  O  O185  1  0.801400  0.150600  0.739900  1.0  -0.562
  O  O186  1  0.789800  0.966200  0.718400  1.0  -0.5635
  O  O187  1  0.767900  0.056500  0.642100  1.0  -0.6292
  O  O188  1  0.621200  0.985600  0.696200  1.0  -0.5909
  O  O189  1  0.606400  0.342600  0.338300  1.0  -0.5669
  O  O190  1  0.593600  0.515000  0.349900  1.0  -0.5394
  O  O191  1  0.773900  0.527100  0.356500  1.0  -0.6481
  O  O192  1  0.669400  0.465600  0.429700  1.0  -0.5618
  O  O193  1  0.168900  0.826100  0.611100  1.0  -0.6298
  O  O194  1  0.232200  0.702200  0.563400  1.0  -0.6151
  O  O195  1  0.069700  0.709700  0.514700  1.0  -0.6178
  O  O196  1  0.257800  0.872600  0.528600  1.0  -0.5289
  O  O197  1  0.150600  0.801400  0.239900  1.0  -0.5621
  O  O198  1  0.966200  0.789800  0.218400  1.0  -0.564
  O  O199  1  0.056500  0.767900  0.142100  1.0  -0.6294
  O  O200  1  0.985600  0.621200  0.196200  1.0  -0.592
  O  O201  1  0.342600  0.606400  0.838300  1.0  -0.5672
  O  O202  1  0.515000  0.593600  0.849900  1.0  -0.5393
  O  O203  1  0.527100  0.773900  0.856500  1.0  -0.6502
  O  O204  1  0.465600  0.669400  0.929700  1.0  -0.5606
  O  O205  1  0.826100  0.168900  0.111100  1.0  -0.6263
  O  O206  1  0.702200  0.232200  0.063400  1.0  -0.6124
  O  O207  1  0.709700  0.069700  0.014700  1.0  -0.619
  O  O208  1  0.872600  0.257800  0.028600  1.0  -0.5275
