# generated using pymatgen
data_Eu3H96C127S7N24Cl10(O15F7)3
_symmetry_space_group_name_H-M   'P 1'
_cell_length_a   24.14120000
_cell_length_b   24.30310000
_cell_length_c   24.47060000
_cell_angle_alpha   84.43400000
_cell_angle_beta   61.74200000
_cell_angle_gamma   61.49400000
_symmetry_Int_Tables_number   1
_chemical_formula_structural   Eu3H96C127S7N24Cl10(O15F7)3
_chemical_formula_sum   'Eu6 H192 C254 S14 N48 Cl20 O90 F42'
_cell_volume   10957.60908457
_cell_formula_units_Z   2
loop_
 _symmetry_equiv_pos_site_id
 _symmetry_equiv_pos_as_xyz
  1  'x, y, z'
loop_
 _atom_site_type_symbol
 _atom_site_label
 _atom_site_symmetry_multiplicity
 _atom_site_fract_x
 _atom_site_fract_y
 _atom_site_fract_z
 _atom_site_occupancy
 _atom_site_charge
  Eu  Eu1  1  0.856880  0.849330  0.704150  1.0  2.0671
  Eu  Eu2  1  0.752730  0.718320  0.266450  1.0  2.0657
  Eu  Eu3  1  0.341140  0.721430  0.863520  1.0  2.0706
  Eu  Eu4  1  0.143120  0.150670  0.295850  1.0  2.0673
  Eu  Eu5  1  0.247270  0.281680  0.733550  1.0  2.0646
  Eu  Eu6  1  0.658860  0.278570  0.136480  1.0  2.0694
  H  H7  1  0.769600  0.005500  0.634700  1.0  0.1329
  H  H8  1  0.439300  0.100300  0.663300  1.0  0.1232
  H  H9  1  0.559400  0.827500  0.422600  1.0  0.1185
  H  H10  1  0.244000  0.402500  0.607600  1.0  0.1303
  H  H11  1  0.555200  0.053700  0.650700  1.0  0.1273
  H  H12  1  0.860300  0.660000  0.363800  1.0  0.1279
  H  H13  1  0.109300  0.468600  0.790200  1.0  0.132
  H  H14  1  0.471800  0.167900  0.810200  1.0  0.1227
  H  H15  1  0.632400  0.644200  0.381200  1.0  0.1307
  H  H16  1  0.358700  0.212500  0.819300  1.0  0.1212
  H  H17  1  0.751200  0.827200  0.139500  1.0  0.1296
  H  H18  1  0.859800  0.808200  0.178700  1.0  0.1302
  H  H19  1  0.755900  0.915300  0.610400  1.0  0.1173
  H  H20  1  0.938300  0.795000  0.816900  1.0  0.1208
  H  H21  1  0.635400  0.913500  0.809300  1.0  0.1143
  H  H22  1  0.660500  0.061900  0.634500  1.0  0.1345
  H  H23  1  0.899500  0.704400  0.795500  1.0  0.127
  H  H24  1  0.029700  0.695100  0.573000  1.0  0.1318
  H  H25  1  0.110200  0.598300  0.583300  1.0  0.1369
  H  H26  1  0.041100  0.837000  0.554300  1.0  0.1265
  H  H27  1  0.668100  0.009600  0.818700  1.0  0.122
  H  H28  1  0.706100  0.839500  0.980900  1.0  0.1347
  H  H29  1  0.705900  0.856100  0.886600  1.0  0.1206
  H  H30  1  0.556800  0.067200  0.823100  1.0  0.1301
  H  H31  1  0.647500  0.254600  0.985600  1.0  0.1334
  H  H32  1  0.536200  0.637600  0.691800  1.0  0.1267
  H  H33  1  0.013400  0.738200  0.168100  1.0  0.1309
  H  H34  1  0.638700  0.679700  0.753600  1.0  0.1269
  H  H35  1  0.919200  0.725800  0.250600  1.0  0.1306
  H  H36  1  0.117600  0.795500  0.977700  1.0  0.1214
  H  H37  1  0.737700  0.338000  0.208600  1.0  0.129
  H  H38  1  0.584500  0.636000  0.486100  1.0  0.1192
  H  H39  1  0.807500  0.575100  0.143000  1.0  0.1344
  H  H40  1  0.699100  0.726900  0.705400  1.0  0.1361
  H  H41  1  0.758500  0.424100  0.203300  1.0  0.1389
  H  H42  1  0.581900  0.635300  0.583700  1.0  0.1241
  H  H43  1  0.015200  0.807800  0.839000  1.0  0.1332
  H  H44  1  0.533200  0.456800  0.250500  1.0  0.1393
  H  H45  1  0.158700  0.762400  0.653600  1.0  0.134
  H  H46  1  0.831100  0.992100  0.114200  1.0  0.1332
  H  H47  1  0.604100  0.695400  0.266000  1.0  0.1208
  H  H48  1  0.315300  0.746400  0.712200  1.0  0.1261
  H  H49  1  0.163800  0.485300  0.583100  1.0  0.1359
  H  H50  1  0.147300  0.855100  0.874800  1.0  0.1379
  H  H51  1  0.495300  0.833100  0.888900  1.0  0.1268
  H  H52  1  0.067800  0.850100  0.848500  1.0  0.1383
  H  H53  1  0.691200  0.056400  0.940000  1.0  0.1176
  H  H54  1  0.804000  0.083700  0.071700  1.0  0.1255
  H  H55  1  0.726400  0.880800  0.549000  1.0  0.1386
  H  H56  1  0.675300  0.167300  0.924500  1.0  0.1174
  H  H57  1  0.056600  0.594600  0.057600  1.0  0.1494
  H  H58  1  0.887000  0.998100  0.676100  1.0  0.1338
  H  H59  1  0.238200  0.741000  0.682800  1.0  0.1363
  H  H60  1  0.558900  0.641000  0.795500  1.0  0.1302
  H  H61  1  0.023800  0.550600  0.767500  1.0  0.1254
  H  H62  1  0.892900  0.024500  0.815900  1.0  0.121
  H  H63  1  0.935200  0.747100  0.447700  1.0  0.1296
  H  H64  1  0.562000  0.868400  0.856600  1.0  0.1678
  H  H65  1  0.841000  0.899400  0.135000  1.0  0.1264
  H  H66  1  0.652400  0.997100  0.296900  1.0  0.1332
  H  H67  1  0.841900  0.159000  0.973100  1.0  0.1209
  H  H68  1  0.708000  0.862400  0.481800  1.0  0.1528
  H  H69  1  0.673200  0.820100  0.431200  1.0  0.1058
  H  H70  1  0.594200  0.152300  0.188600  1.0  0.1364
  H  H71  1  0.898600  0.698000  0.414000  1.0  0.1353
  H  H72  1  0.415600  0.794100  0.930100  1.0  0.1241
  H  H73  1  0.912200  0.055600  0.594800  1.0  0.1305
  H  H74  1  0.676300  0.903000  0.338300  1.0  0.1274
  H  H75  1  0.941100  0.585900  0.724600  1.0  0.1221
  H  H76  1  0.740800  0.841700  0.048900  1.0  0.1216
  H  H77  1  0.862700  0.681200  0.710700  1.0  0.1477
  H  H78  1  0.720500  0.960900  0.894400  1.0  0.1267
  H  H79  1  0.901700  0.684100  0.889800  1.0  0.1366
  H  H80  1  0.962400  0.785100  0.507900  1.0  0.1387
  H  H81  1  0.918100  0.931600  0.768600  1.0  0.1386
  H  H82  1  0.077600  0.753000  0.633900  1.0  0.125
  H  H83  1  0.769600  0.775500  0.662200  1.0  0.1345
  H  H84  1  0.869900  0.072100  0.913000  1.0  0.1333
  H  H85  1  0.507500  0.823300  0.528600  1.0  0.1304
  H  H86  1  0.617800  0.063500  0.237000  1.0  0.13
  H  H87  1  0.379300  0.815300  0.723500  1.0  0.1222
  H  H88  1  0.421700  0.814700  0.616700  1.0  0.1297
  H  H89  1  0.322800  0.626100  0.003100  1.0  0.1368
  H  H90  1  0.565500  0.483700  0.894200  1.0  0.1363
  H  H91  1  0.780900  0.494500  0.149000  1.0  0.129
  H  H92  1  0.886600  0.643300  0.073300  1.0  0.1187
  H  H93  1  0.552500  0.543100  0.243700  1.0  0.1329
  H  H94  1  0.573700  0.614200  0.277100  1.0  0.1367
  H  H95  1  0.963100  0.585200  0.142100  1.0  0.1105
  H  H96  1  0.254700  0.609000  0.923500  1.0  0.1315
  H  H97  1  0.175600  0.589100  0.011300  1.0  0.1232
  H  H98  1  0.503500  0.538300  0.841800  1.0  0.1222
  H  H99  1  0.383400  0.571100  0.058000  1.0  0.1317
  H  H100  1  0.871700  0.653600  0.983900  1.0  0.1437
  H  H101  1  0.066300  0.894800  0.473400  1.0  0.1279
  H  H102  1  0.039000  0.777600  0.068800  1.0  0.1208
  H  H103  1  0.230400  0.994500  0.365300  1.0  0.1325
  H  H104  1  0.560700  0.899700  0.336700  1.0  0.1238
  H  H105  1  0.440600  0.172500  0.577400  1.0  0.1196
  H  H106  1  0.756000  0.597500  0.392400  1.0  0.1293
  H  H107  1  0.444800  0.946300  0.349300  1.0  0.1275
  H  H108  1  0.139700  0.340000  0.636200  1.0  0.1277
  H  H109  1  0.890700  0.531400  0.209800  1.0  0.1325
  H  H110  1  0.528200  0.832100  0.189800  1.0  0.1226
  H  H111  1  0.367600  0.355800  0.618800  1.0  0.1301
  H  H112  1  0.641300  0.787500  0.180700  1.0  0.1222
  H  H113  1  0.248800  0.172800  0.860500  1.0  0.1291
  H  H114  1  0.140200  0.191800  0.821300  1.0  0.1299
  H  H115  1  0.244100  0.084700  0.389600  1.0  0.1162
  H  H116  1  0.061700  0.205000  0.183100  1.0  0.1212
  H  H117  1  0.364600  0.086500  0.190700  1.0  0.1138
  H  H118  1  0.339500  0.938100  0.365500  1.0  0.1352
  H  H119  1  0.100500  0.295600  0.204500  1.0  0.1278
  H  H120  1  0.970300  0.304900  0.427000  1.0  0.1333
  H  H121  1  0.889800  0.401700  0.416700  1.0  0.137
  H  H122  1  0.958900  0.163000  0.445700  1.0  0.1261
  H  H123  1  0.331900  0.990400  0.181300  1.0  0.1227
  H  H124  1  0.293900  0.160500  0.019100  1.0  0.134
  H  H125  1  0.294100  0.143900  0.113400  1.0  0.119
  H  H126  1  0.443200  0.932800  0.176900  1.0  0.1311
  H  H127  1  0.352500  0.745400  0.014400  1.0  0.1332
  H  H128  1  0.463800  0.362400  0.308200  1.0  0.127
  H  H129  1  0.986600  0.261800  0.831900  1.0  0.13
  H  H130  1  0.361300  0.320300  0.246400  1.0  0.1244
  H  H131  1  0.080800  0.274200  0.749400  1.0  0.1318
  H  H132  1  0.882400  0.204500  0.022300  1.0  0.1213
  H  H133  1  0.262300  0.662000  0.791400  1.0  0.1294
  H  H134  1  0.415500  0.364000  0.513900  1.0  0.1192
  H  H135  1  0.192500  0.424900  0.857000  1.0  0.1355
  H  H136  1  0.300900  0.273100  0.294600  1.0  0.1359
  H  H137  1  0.241500  0.575900  0.796700  1.0  0.1387
  H  H138  1  0.418100  0.364700  0.416300  1.0  0.1244
  H  H139  1  0.984800  0.192200  0.161000  1.0  0.1321
  H  H140  1  0.466800  0.543200  0.749500  1.0  0.1391
  H  H141  1  0.841300  0.237600  0.346400  1.0  0.134
  H  H142  1  0.168900  0.007900  0.885800  1.0  0.1344
  H  H143  1  0.395900  0.304600  0.734000  1.0  0.1205
  H  H144  1  0.684700  0.253600  0.287800  1.0  0.126
  H  H145  1  0.836200  0.514700  0.416900  1.0  0.136
  H  H146  1  0.852700  0.144900  0.125200  1.0  0.1371
  H  H147  1  0.504700  0.166900  0.111100  1.0  0.1244
  H  H148  1  0.932200  0.149900  0.151500  1.0  0.14
  H  H149  1  0.308800  0.943600  0.060000  1.0  0.1174
  H  H150  1  0.196000  0.916300  0.928300  1.0  0.1233
  H  H151  1  0.273600  0.119200  0.451000  1.0  0.1385
  H  H152  1  0.324700  0.832700  0.075500  1.0  0.1152
  H  H153  1  0.943400  0.405400  0.942400  1.0  0.1503
  H  H154  1  0.113000  0.001900  0.323900  1.0  0.1336
  H  H155  1  0.761800  0.259000  0.317200  1.0  0.137
  H  H156  1  0.441100  0.359000  0.204500  1.0  0.1293
  H  H157  1  0.976200  0.449400  0.232500  1.0  0.1252
  H  H158  1  0.107100  0.975500  0.184100  1.0  0.1203
  H  H159  1  0.064800  0.252900  0.552300  1.0  0.1295
  H  H160  1  0.438000  0.131600  0.143400  1.0  0.1666
  H  H161  1  0.159000  0.100600  0.865000  1.0  0.1262
  H  H162  1  0.347600  0.002900  0.703100  1.0  0.1333
  H  H163  1  0.158100  0.841000  0.026900  1.0  0.1195
  H  H164  1  0.292000  0.137600  0.518200  1.0  0.153
  H  H165  1  0.326800  0.179900  0.568800  1.0  0.1055
  H  H166  1  0.405800  0.847700  0.811400  1.0  0.1363
  H  H167  1  0.101400  0.302000  0.586000  1.0  0.1355
  H  H168  1  0.584400  0.205900  0.069900  1.0  0.1248
  H  H169  1  0.087800  0.944400  0.405200  1.0  0.1314
  H  H170  1  0.323700  0.097000  0.661700  1.0  0.1274
  H  H171  1  0.058900  0.414100  0.275400  1.0  0.1214
  H  H172  1  0.259200  0.158300  0.951100  1.0  0.1212
  H  H173  1  0.137300  0.318800  0.289300  1.0  0.1481
  H  H174  1  0.279500  0.039100  0.105600  1.0  0.1271
  H  H175  1  0.098300  0.315900  0.110200  1.0  0.1365
  H  H176  1  0.037600  0.214900  0.492100  1.0  0.1382
  H  H177  1  0.081900  0.068400  0.231400  1.0  0.1381
  H  H178  1  0.922400  0.247000  0.366100  1.0  0.1248
  H  H179  1  0.230400  0.224500  0.337800  1.0  0.1341
  H  H180  1  0.130100  0.927900  0.087000  1.0  0.134
  H  H181  1  0.492500  0.176700  0.471400  1.0  0.1299
  H  H182  1  0.382200  0.936500  0.763000  1.0  0.1299
  H  H183  1  0.620700  0.184700  0.276500  1.0  0.1229
  H  H184  1  0.578300  0.185300  0.383300  1.0  0.1302
  H  H185  1  0.677200  0.373900  0.996900  1.0  0.1368
  H  H186  1  0.434500  0.516300  0.105800  1.0  0.1366
  H  H187  1  0.219100  0.505500  0.851000  1.0  0.1292
  H  H188  1  0.113400  0.356700  0.926700  1.0  0.1173
  H  H189  1  0.447500  0.456900  0.756300  1.0  0.1328
  H  H190  1  0.426300  0.385800  0.722900  1.0  0.1368
  H  H191  1  0.036900  0.414800  0.857900  1.0  0.1095
  H  H192  1  0.745300  0.391000  0.076500  1.0  0.1316
  H  H193  1  0.824400  0.410900  0.988700  1.0  0.1231
  H  H194  1  0.496500  0.461700  0.158200  1.0  0.1214
  H  H195  1  0.616600  0.428900  0.942000  1.0  0.1318
  H  H196  1  0.128300  0.346400  0.016100  1.0  0.1441
  H  H197  1  0.933700  0.105200  0.526600  1.0  0.1282
  H  H198  1  0.961000  0.222400  0.931200  1.0  0.1202
  C  C199  1  0.725800  0.017400  0.672900  1.0  0.0356
  C  C200  1  0.446500  0.113400  0.693700  1.0  0.0199
  C  C201  1  0.564100  0.788300  0.436100  1.0  0.027
  C  C202  1  0.199300  0.433900  0.640300  1.0  0.0039
  C  C203  1  0.525700  0.103000  0.731100  1.0  0.1109
  C  C204  1  0.515300  0.085100  0.686300  1.0  -0.152
  C  C205  1  0.828900  0.701000  0.389000  1.0  0.0452
  C  C206  1  0.120100  0.472100  0.747700  1.0  0.011
  C  C207  1  0.465800  0.152600  0.780200  1.0  -0.118
  C  C208  1  0.607200  0.680700  0.411900  1.0  0.0157
  C  C209  1  0.399000  0.179300  0.785400  1.0  0.0232
  C  C210  1  0.777100  0.792300  0.106800  1.0  0.0205
  C  C211  1  0.817300  0.847200  0.202300  1.0  0.0267
  C  C212  1  0.792500  0.880800  0.576600  1.0  0.0004
  C  C213  1  0.803800  0.761000  0.945600  1.0  0.0747
  C  C214  1  0.983600  0.788700  0.783600  1.0  0.0029
  C  C215  1  0.648000  0.875100  0.788500  1.0  0.0433
  C  C216  1  0.661200  0.051200  0.672700  1.0  -0.1817
  C  C217  1  0.860100  0.732100  0.833800  1.0  0.0142
  C  C218  1  0.012100  0.672700  0.604700  1.0  0.0336
  C  C219  1  0.059800  0.615900  0.611200  1.0  -0.1399
  C  C220  1  0.014400  0.882100  0.562800  1.0  0.0439
  C  C221  1  0.665900  0.020100  0.781100  1.0  -0.0347
  C  C222  1  0.746500  0.811300  0.943300  1.0  -0.1429
  C  C223  1  0.034200  0.583300  0.659200  1.0  0.1157
  C  C224  1  0.746600  0.821300  0.887400  1.0  0.0279
  C  C225  1  0.599800  0.054200  0.783900  1.0  -0.1602
  C  C226  1  0.693000  0.217000  0.971100  1.0  0.0431
  C  C227  1  0.514300  0.674300  0.676000  1.0  0.0503
  C  C228  1  0.003000  0.707200  0.161100  1.0  -0.1375
  C  C229  1  0.592600  0.704100  0.789200  1.0  -0.1337
  C  C230  1  0.042100  0.671200  0.104300  1.0  0.0978
  C  C231  1  0.946800  0.699800  0.210600  1.0  -0.0066
  C  C232  1  0.129600  0.753200  0.985200  1.0  0.0054
  C  C233  1  0.700300  0.380100  0.214800  1.0  0.0119
  C  C234  1  0.658300  0.492400  0.220700  1.0  0.0397
  C  C235  1  0.578400  0.676000  0.474000  1.0  -0.1317
  C  C236  1  0.759600  0.582800  0.169800  1.0  0.0025
  C  C237  1  0.684800  0.765300  0.727700  1.0  -0.1301
  C  C238  1  0.712700  0.431400  0.211600  1.0  -0.1418
  C  C239  1  0.541100  0.673000  0.611700  1.0  -0.1093
  C  C240  1  0.029200  0.796200  0.796700  1.0  -0.128
  C  C241  1  0.579700  0.450000  0.239300  1.0  0.0039
  C  C242  1  0.113300  0.769900  0.687600  1.0  -0.1459
  C  C243  1  0.782200  0.024700  0.130600  1.0  -0.1533
  C  C244  1  0.640000  0.654000  0.242500  1.0  0.0161
  C  C245  1  0.264700  0.767000  0.740000  1.0  0.0428
  C  C246  1  0.151400  0.482400  0.625900  1.0  -0.158
  C  C247  1  0.165400  0.831000  0.836100  1.0  0.0724
  C  C248  1  0.508600  0.794100  0.868500  1.0  -0.1228
  C  C249  1  0.118300  0.828200  0.820200  1.0  -0.1506
  C  C250  1  0.738200  0.030900  0.905800  1.0  -0.1353
  C  C251  1  0.727300  0.016800  0.180700  1.0  0.0777
  C  C252  1  0.765900  0.078900  0.105200  1.0  0.0725
  C  C253  1  0.775000  0.860000  0.540700  1.0  -0.1341
  C  C254  1  0.709400  0.164300  0.935500  1.0  -0.1343
  C  C255  1  0.028300  0.622700  0.096500  1.0  -0.2029
  C  C256  1  0.923700  0.976600  0.634500  1.0  0.0399
  C  C257  1  0.218900  0.763800  0.722600  1.0  -0.111
  C  C258  1  0.545900  0.680700  0.814400  1.0  0.0356
  C  C259  1  0.069500  0.521200  0.734100  1.0  -0.1412
  C  C260  1  0.856800  0.012200  0.832200  1.0  -0.1066
  C  C261  1  0.897600  0.781800  0.481100  1.0  -0.1257
  C  C262  1  0.604000  0.848500  0.816700  1.0  -0.1706
  C  C263  1  0.095400  0.786900  0.748400  1.0  0.0637
  C  C264  1  0.805900  0.901100  0.176200  1.0  -0.1211
  C  C265  1  0.694900  0.958500  0.271900  1.0  -0.1332
  C  C266  1  0.807100  0.160700  0.963800  1.0  0.0341
  C  C267  1  0.739500  0.820500  0.458700  1.0  -0.1948
  C  C268  1  0.719300  0.794900  0.428400  1.0  0.0609
  C  C269  1  0.642600  0.119500  0.174400  1.0  0.0234
  C  C270  1  0.851700  0.723700  0.418500  1.0  -0.1345
  C  C271  1  0.461400  0.770700  0.893700  1.0  0.0187
  C  C272  1  0.789300  0.051500  0.884200  1.0  0.0858
  C  C273  1  0.939200  0.010500  0.586000  1.0  -0.11
  C  C274  1  0.709000  0.902700  0.296500  1.0  0.0273
  C  C275  1  0.960000  0.608500  0.694200  1.0  -0.0916
  C  C276  1  0.770900  0.800400  0.053100  1.0  -0.1107
  C  C277  1  0.913400  0.664900  0.686300  1.0  0.0144
  C  C278  1  0.755200  0.974800  0.878300  1.0  0.0116
  C  C279  1  0.861500  0.720100  0.889600  1.0  -0.1293
  C  C280  1  0.772900  0.109000  0.916300  1.0  0.118
  C  C281  1  0.913700  0.804100  0.516600  1.0  0.0793
  C  C282  1  0.596400  0.069700  0.729300  1.0  0.0846
  C  C283  1  0.872300  0.956800  0.804200  1.0  -0.0021
  C  C284  1  0.574300  0.763200  0.814700  1.0  0.1068
  C  C285  1  0.144600  0.794200  0.763900  1.0  0.0024
  C  C286  1  0.065500  0.763500  0.675900  1.0  0.0136
  C  C287  1  0.726900  0.794100  0.701900  1.0  0.0374
  C  C288  1  0.509700  0.725600  0.587800  1.0  0.1189
  C  C289  1  0.823400  0.108700  0.928800  1.0  -0.1379
  C  C290  1  0.533500  0.785800  0.498900  1.0  -0.1376
  C  C291  1  0.656600  0.066500  0.202400  1.0  -0.1189
  C  C292  1  0.421800  0.779000  0.694400  1.0  -0.0087
  C  C293  1  0.621800  0.791400  0.786000  1.0  0.0743
  C  C294  1  0.807100  0.783900  0.455100  1.0  0.0743
  C  C295  1  0.447000  0.778600  0.631300  1.0  -0.1565
  C  C296  1  0.743700  0.958300  0.209400  1.0  0.0808
  C  C297  1  0.539900  0.729000  0.520000  1.0  0.1126
  C  C298  1  0.992000  0.981100  0.525800  1.0  0.0326
  C  C299  1  0.827400  0.808400  0.492100  1.0  0.0788
  C  C300  1  0.372900  0.595900  0.980900  1.0  0.0465
  C  C301  1  0.514900  0.511900  0.917700  1.0  -0.1296
  C  C302  1  0.743800  0.535100  0.173900  1.0  -0.1526
  C  C303  1  0.855900  0.683900  0.068300  1.0  0.0442
  C  C304  1  0.591200  0.501300  0.235700  1.0  -0.1274
  C  C305  1  0.621700  0.605600  0.249000  1.0  -0.1228
  C  C306  1  0.972700  0.617600  0.146700  1.0  0.0424
  C  C307  1  0.210000  0.643400  0.953100  1.0  0.0274
  C  C308  1  0.163200  0.631800  0.005300  1.0  -0.1569
  C  C309  1  0.478500  0.544700  0.886500  1.0  0.0778
  C  C310  1  0.408900  0.562800  0.013300  1.0  -0.1287
  C  C311  1  0.848700  0.689900  0.014100  1.0  -0.2048
  C  C312  1  0.029300  0.916600  0.514800  1.0  -0.1405
  C  C313  1  0.082400  0.742500  0.039100  1.0  -0.1415
  C  C314  1  0.085300  0.527300  0.672600  1.0  0.1145
  C  C315  1  0.806600  0.750900  0.005500  1.0  0.0566
  C  C316  1  0.480800  0.518100  0.982600  1.0  0.1051
  C  C317  1  0.097300  0.681200  0.050600  1.0  0.1025
  C  C318  1  0.675100  0.544600  0.213600  1.0  0.0809
  C  C319  1  0.274200  0.982600  0.327100  1.0  0.0363
  C  C320  1  0.553500  0.886600  0.306300  1.0  0.0209
  C  C321  1  0.435900  0.211700  0.563900  1.0  0.0246
  C  C322  1  0.800700  0.566100  0.359700  1.0  0.0041
  C  C323  1  0.474300  0.897000  0.268900  1.0  0.1106
  C  C324  1  0.484700  0.914900  0.313700  1.0  -0.1506
  C  C325  1  0.171100  0.299000  0.611000  1.0  0.0446
  C  C326  1  0.879900  0.527900  0.252300  1.0  0.0105
  C  C327  1  0.534200  0.847400  0.219800  1.0  -0.1175
  C  C328  1  0.392800  0.319300  0.588100  1.0  0.0198
  C  C329  1  0.601000  0.820700  0.214600  1.0  0.0234
  C  C330  1  0.222900  0.207700  0.893200  1.0  0.0222
  C  C331  1  0.182700  0.152800  0.797700  1.0  0.0249
  C  C332  1  0.207500  0.119200  0.423400  1.0  -0.0013
  C  C333  1  0.196200  0.239000  0.054400  1.0  0.0757
  C  C334  1  0.016400  0.211300  0.216400  1.0  0.0019
  C  C335  1  0.352000  0.124900  0.211500  1.0  0.0409
  C  C336  1  0.338800  0.948800  0.327300  1.0  -0.1811
  C  C337  1  0.139900  0.267900  0.166200  1.0  0.0171
  C  C338  1  0.987900  0.327300  0.395300  1.0  0.0293
  C  C339  1  0.940200  0.384100  0.388800  1.0  -0.1421
  C  C340  1  0.985600  0.117900  0.437200  1.0  0.0466
  C  C341  1  0.334100  0.979900  0.218900  1.0  -0.0334
  C  C342  1  0.253500  0.188700  0.056700  1.0  -0.1432
  C  C343  1  0.965800  0.416700  0.340800  1.0  0.1157
  C  C344  1  0.253400  0.178700  0.112600  1.0  0.0261
  C  C345  1  0.400200  0.945800  0.216100  1.0  -0.1535
  C  C346  1  0.307000  0.783000  0.028900  1.0  0.0418
  C  C347  1  0.485700  0.325700  0.324000  1.0  0.0506
  C  C348  1  0.997000  0.292800  0.838900  1.0  -0.1362
  C  C349  1  0.407400  0.295900  0.210800  1.0  -0.1336
  C  C350  1  0.957900  0.328800  0.895700  1.0  0.0974
  C  C351  1  0.053200  0.300200  0.789400  1.0  -0.0094
  C  C352  1  0.870400  0.246800  0.014800  1.0  0.0043
  C  C353  1  0.299700  0.619900  0.785200  1.0  0.0121
  C  C354  1  0.341700  0.507600  0.779300  1.0  0.0394
  C  C355  1  0.421600  0.324000  0.526000  1.0  -0.1314
  C  C356  1  0.240400  0.417200  0.830200  1.0  0.0007
  C  C357  1  0.315200  0.234700  0.272300  1.0  -0.1309
  C  C358  1  0.287300  0.568600  0.788400  1.0  -0.142
  C  C359  1  0.458900  0.327000  0.388300  1.0  -0.1081
  C  C360  1  0.970800  0.203800  0.203300  1.0  -0.1291
  C  C361  1  0.420300  0.550000  0.760700  1.0  0.0024
  C  C362  1  0.886700  0.230100  0.312400  1.0  -0.1479
  C  C363  1  0.217800  0.975300  0.869400  1.0  -0.151
  C  C364  1  0.360000  0.346000  0.757500  1.0  0.0129
  C  C365  1  0.735300  0.233000  0.260000  1.0  0.0411
  C  C366  1  0.848600  0.517600  0.374100  1.0  -0.1582
  C  C367  1  0.834600  0.169000  0.163900  1.0  0.0661
  C  C368  1  0.491400  0.205900  0.131500  1.0  -0.1225
  C  C369  1  0.881700  0.171800  0.179800  1.0  -0.1497
  C  C370  1  0.261800  0.969100  0.094200  1.0  -0.1418
  C  C371  1  0.272700  0.983200  0.819300  1.0  0.0772
  C  C372  1  0.234100  0.921100  0.894800  1.0  0.0731
  C  C373  1  0.225000  0.140000  0.459300  1.0  -0.1355
  C  C374  1  0.290600  0.835700  0.064500  1.0  -0.1346
  C  C375  1  0.971700  0.377300  0.903500  1.0  -0.2028
  C  C376  1  0.076300  0.023400  0.365500  1.0  0.039
  C  C377  1  0.781100  0.236200  0.277400  1.0  -0.111
  C  C378  1  0.454100  0.319300  0.185600  1.0  0.0343
  C  C379  1  0.930500  0.478800  0.265900  1.0  -0.1376
  C  C380  1  0.143200  0.987800  0.167800  1.0  -0.1065
  C  C381  1  0.102400  0.218200  0.518900  1.0  -0.127
  C  C382  1  0.396000  0.151500  0.183300  1.0  -0.1717
  C  C383  1  0.904600  0.213100  0.251600  1.0  0.063
  C  C384  1  0.194100  0.098900  0.823800  1.0  -0.12
  C  C385  1  0.305100  0.041500  0.728100  1.0  -0.1326
  C  C386  1  0.192900  0.839300  0.036200  1.0  0.0341
  C  C387  1  0.260500  0.179500  0.541300  1.0  -0.1946
  C  C388  1  0.280700  0.205100  0.571600  1.0  0.06
  C  C389  1  0.357400  0.880500  0.825600  1.0  0.028
  C  C390  1  0.148300  0.276300  0.581500  1.0  -0.1328
  C  C391  1  0.538600  0.229300  0.106300  1.0  0.0173
  C  C392  1  0.210700  0.948500  0.115800  1.0  0.0848
  C  C393  1  0.060800  0.989500  0.414000  1.0  -0.1127
  C  C394  1  0.291000  0.097300  0.703500  1.0  0.0264
  C  C395  1  0.040000  0.391500  0.305800  1.0  -0.0918
  C  C396  1  0.229100  0.199600  0.946900  1.0  -0.1105
  C  C397  1  0.086600  0.335100  0.313700  1.0  0.017
  C  C398  1  0.244800  0.025200  0.121700  1.0  0.0124
  C  C399  1  0.138500  0.279900  0.110400  1.0  -0.1276
  C  C400  1  0.227100  0.891000  0.083700  1.0  0.1169
  C  C401  1  0.086300  0.195900  0.483400  1.0  0.078
  C  C402  1  0.403600  0.930300  0.270700  1.0  0.0844
  C  C403  1  0.127700  0.043200  0.195800  1.0  -0.003
  C  C404  1  0.425700  0.236800  0.185300  1.0  0.1067
  C  C405  1  0.855400  0.205800  0.236100  1.0  0.0025
  C  C406  1  0.934500  0.236500  0.324100  1.0  0.0189
  C  C407  1  0.273100  0.205900  0.298100  1.0  0.0379
  C  C408  1  0.490300  0.274400  0.412200  1.0  0.1188
  C  C409  1  0.176600  0.891300  0.071200  1.0  -0.1409
  C  C410  1  0.466500  0.214200  0.501100  1.0  -0.1368
  C  C411  1  0.343400  0.933500  0.797600  1.0  -0.1203
  C  C412  1  0.578200  0.221000  0.305600  1.0  -0.0056
  C  C413  1  0.378200  0.208600  0.214000  1.0  0.0738
  C  C414  1  0.192900  0.216100  0.544900  1.0  0.0747
  C  C415  1  0.553000  0.221400  0.368700  1.0  -0.156
  C  C416  1  0.256300  0.041700  0.790600  1.0  0.0807
  C  C417  1  0.460100  0.271000  0.480000  1.0  0.1124
  C  C418  1  0.008000  0.018900  0.474200  1.0  0.0317
  C  C419  1  0.172600  0.191600  0.507900  1.0  0.0784
  C  C420  1  0.627100  0.404100  0.019100  1.0  0.0459
  C  C421  1  0.485100  0.488100  0.082300  1.0  -0.1276
  C  C422  1  0.256200  0.464900  0.826100  1.0  -0.1522
  C  C423  1  0.144100  0.316100  0.931700  1.0  0.0452
  C  C424  1  0.408800  0.498700  0.764300  1.0  -0.1287
  C  C425  1  0.378300  0.394400  0.751000  1.0  -0.1244
  C  C426  1  0.027300  0.382400  0.853300  1.0  0.0379
  C  C427  1  0.790000  0.356600  0.046900  1.0  0.0253
  C  C428  1  0.836800  0.368200  0.994700  1.0  -0.1564
  C  C429  1  0.521500  0.455300  0.113500  1.0  0.08
  C  C430  1  0.591100  0.437200  0.986700  1.0  -0.1273
  C  C431  1  0.151300  0.310100  0.985900  1.0  -0.2058
  C  C432  1  0.970700  0.083400  0.485200  1.0  -0.1377
  C  C433  1  0.917600  0.257500  0.960900  1.0  -0.1366
  C  C434  1  0.914700  0.472700  0.327400  1.0  0.1143
  C  C435  1  0.193400  0.249100  0.994500  1.0  0.0563
  C  C436  1  0.519200  0.481900  0.017400  1.0  0.1058
  C  C437  1  0.902700  0.318800  0.949400  1.0  0.1032
  C  C438  1  0.324900  0.455400  0.786400  1.0  0.0811
  C  C439  1  0.877700  0.892200  0.973100  1.0  0.5041
  C  C440  1  0.597500  0.979600  0.132600  1.0  0.5142
  C  C441  1  0.565800  0.877600  0.650300  1.0  0.4729
  C  C442  1  0.304600  0.520100  0.258000  1.0  0.5098
  C  C443  1  0.427200  0.605700  0.574300  1.0  0.5102
  C  C444  1  0.452700  0.164100  0.985900  1.0  0.5128
  C  C445  1  0.671800  0.077000  0.482000  1.0  0.5374
  C  C446  1  0.122300  0.107800  0.026900  1.0  0.5003
  C  C447  1  0.402500  0.020400  0.867400  1.0  0.5091
  C  C448  1  0.434200  0.122400  0.349700  1.0  0.4711
  C  C449  1  0.695400  0.479900  0.742000  1.0  0.5121
  C  C450  1  0.572800  0.394300  0.425700  1.0  0.5133
  C  C451  1  0.547300  0.835900  0.014100  1.0  0.5105
  C  C452  1  0.328200  0.923000  0.518000  1.0  0.538
  S  S453  1  0.940800  0.844100  0.997900  1.0  1.3322
  S  S454  1  0.618300  0.008400  0.060900  1.0  1.3231
  S  S455  1  0.514000  0.916000  0.612700  1.0  1.2888
  S  S456  1  0.343800  0.482300  0.305300  1.0  1.3688
  S  S457  1  0.377900  0.676300  0.553400  1.0  1.34
  S  S458  1  0.528700  0.171900  0.934900  1.0  1.3221
  S  S459  1  0.639300  0.024400  0.488700  1.0  1.3421
  S  S460  1  0.059200  0.155900  0.002100  1.0  1.3311
  S  S461  1  0.381700  0.991600  0.939100  1.0  1.3241
  S  S462  1  0.486000  0.084000  0.387300  1.0  1.2888
  S  S463  1  0.656200  0.517700  0.694700  1.0  1.3699
  S  S464  1  0.622100  0.323700  0.446600  1.0  1.3374
  S  S465  1  0.471300  0.828100  0.065100  1.0  1.3199
  S  S466  1  0.360700  0.975600  0.511300  1.0  1.3418
  N  N467  1  0.707400  0.848500  0.732900  1.0  0.3438
  N  N468  1  0.821800  0.938400  0.827800  1.0  0.3345
  N  N469  1  0.002700  0.772300  0.723600  1.0  0.3486
  N  N470  1  0.940600  0.697200  0.642800  1.0  0.2668
  N  N471  1  0.961500  0.912600  0.621800  1.0  0.3532
  N  N472  1  0.728000  0.001000  0.726000  1.0  0.3235
  N  N473  1  0.803500  0.782700  0.833500  1.0  0.298
  N  N474  1  0.861500  0.853000  0.564500  1.0  0.327
  N  N475  1  0.705700  0.642000  0.204600  1.0  0.2669
  N  N476  1  0.634800  0.390600  0.226800  1.0  0.3544
  N  N477  1  0.192500  0.704600  0.943100  1.0  0.3126
  N  N478  1  0.390000  0.158600  0.742700  1.0  0.3544
  N  N479  1  0.932200  0.656300  0.201200  1.0  0.3115
  N  N480  1  0.821300  0.732800  0.112100  1.0  0.2912
  N  N481  1  0.457000  0.727700  0.715700  1.0  0.344
  N  N482  1  0.698300  0.125300  0.126000  1.0  0.3155
  N  N483  1  0.600600  0.736500  0.393400  1.0  0.3328
  N  N484  1  0.742600  0.213800  0.984800  1.0  0.268
  N  N485  1  0.768900  0.848300  0.261300  1.0  0.3044
  N  N486  1  0.480700  0.714300  0.866400  1.0  0.2749
  N  N487  1  0.183600  0.430100  0.700900  1.0  0.3349
  N  N488  1  0.761600  0.736500  0.395300  1.0  0.3309
  N  N489  1  0.237100  0.799200  0.795800  1.0  0.3359
  N  N490  1  0.409000  0.585300  0.917600  1.0  0.366
  N  N491  1  0.292600  0.151500  0.267100  1.0  0.3431
  N  N492  1  0.178200  0.061600  0.172200  1.0  0.3247
  N  N493  1  0.997300  0.227700  0.276400  1.0  0.3376
  N  N494  1  0.059400  0.302800  0.357200  1.0  0.2652
  N  N495  1  0.038500  0.087400  0.378200  1.0  0.3415
  N  N496  1  0.272000  0.999000  0.274000  1.0  0.34
  N  N497  1  0.196500  0.217300  0.166500  1.0  0.2952
  N  N498  1  0.138500  0.147000  0.435500  1.0  0.3487
  N  N499  1  0.294300  0.358000  0.795400  1.0  0.2767
  N  N500  1  0.365200  0.609400  0.773200  1.0  0.3484
  N  N501  1  0.807500  0.295400  0.056900  1.0  0.3162
  N  N502  1  0.610000  0.841400  0.257300  1.0  0.3442
  N  N503  1  0.067800  0.343700  0.798800  1.0  0.3143
  N  N504  1  0.178700  0.267200  0.887900  1.0  0.2951
  N  N505  1  0.543000  0.272300  0.284300  1.0  0.3339
  N  N506  1  0.301700  0.874700  0.874000  1.0  0.3148
  N  N507  1  0.399400  0.263500  0.606600  1.0  0.3434
  N  N508  1  0.257400  0.786200  0.015200  1.0  0.2678
  N  N509  1  0.231100  0.151700  0.738700  1.0  0.3052
  N  N510  1  0.519300  0.285700  0.133600  1.0  0.2745
  N  N511  1  0.816400  0.569900  0.299100  1.0  0.3479
  N  N512  1  0.238400  0.263500  0.604700  1.0  0.33
  N  N513  1  0.762900  0.200800  0.204200  1.0  0.3475
  N  N514  1  0.591000  0.414700  0.082400  1.0  0.366
  Cl  Cl515  1  0.202100  0.588400  0.676800  1.0  -0.5105
  Cl  Cl516  1  0.293700  0.520900  0.544200  1.0  -0.5255
  Cl  Cl517  1  0.343400  0.482700  0.627800  1.0  -0.4997
  Cl  Cl518  1  0.949700  0.354000  0.694700  1.0  -0.4849
  Cl  Cl519  1  0.991900  0.433300  0.712700  1.0  -0.4979
  Cl  Cl520  1  0.429200  0.079300  0.569300  1.0  -0.471
  Cl  Cl521  1  0.607700  0.964200  0.916800  1.0  -0.4999
  Cl  Cl522  1  0.064100  0.621800  0.842500  1.0  -0.4981
  Cl  Cl523  1  0.067000  0.477400  0.898800  1.0  -0.4804
  Cl  Cl524  1  0.127700  0.725500  0.522200  1.0  -0.4209
  Cl  Cl525  1  0.797900  0.411600  0.323200  1.0  -0.5102
  Cl  Cl526  1  0.706300  0.479100  0.455800  1.0  -0.5257
  Cl  Cl527  1  0.656600  0.517300  0.372200  1.0  -0.5013
  Cl  Cl528  1  0.050300  0.646000  0.305300  1.0  -0.4915
  Cl  Cl529  1  0.008100  0.566700  0.287300  1.0  -0.4977
  Cl  Cl530  1  0.570800  0.920700  0.430700  1.0  -0.4705
  Cl  Cl531  1  0.392300  0.035800  0.083200  1.0  -0.5004
  Cl  Cl532  1  0.935900  0.378200  0.157500  1.0  -0.4996
  Cl  Cl533  1  0.933000  0.522600  0.101200  1.0  -0.4814
  Cl  Cl534  1  0.872300  0.274500  0.477800  1.0  -0.418
  O  O535  1  0.876600  0.874300  0.600900  1.0  -0.6143
  O  O536  1  0.747200  0.877000  0.707900  1.0  -0.61
  O  O537  1  0.683600  0.177100  0.099500  1.0  -0.611
  O  O538  1  0.738500  0.713900  0.369000  1.0  -0.6031
  O  O539  1  0.802700  0.794300  0.779400  1.0  -0.6133
  O  O540  1  0.780000  0.795600  0.285500  1.0  -0.6149
  O  O541  1  0.435400  0.730900  0.777300  1.0  -0.6261
  O  O542  1  0.957700  0.765800  0.711800  1.0  -0.6114
  O  O543  1  0.232200  0.384800  0.714800  1.0  -0.6103
  O  O544  1  0.435200  0.691400  0.889900  1.0  -0.6199
  O  O545  1  0.630400  0.740700  0.332800  1.0  -0.614
  O  O546  1  0.281400  0.800500  0.813100  1.0  -0.616
  O  O547  1  0.790900  0.963900  0.724400  1.0  -0.6073
  O  O548  1  0.324500  0.181600  0.750000  1.0  -0.6047
  O  O549  1  0.895100  0.755200  0.639500  1.0  -0.6189
  O  O550  1  0.947500  0.879100  0.667200  1.0  -0.6154
  O  O551  1  0.373000  0.616800  0.886300  1.0  -0.6088
  O  O552  1  0.837700  0.882900  0.803100  1.0  -0.6173
  O  O553  1  0.624800  0.341500  0.228000  1.0  -0.6268
  O  O554  1  0.875700  0.652800  0.247400  1.0  -0.6053
  O  O555  1  0.236700  0.715800  0.890300  1.0  -0.6113
  O  O556  1  0.725800  0.261700  0.021800  1.0  -0.6117
  O  O557  1  0.830700  0.724400  0.162500  1.0  -0.5978
  O  O558  1  0.722700  0.687900  0.198800  1.0  -0.5982
  O  O559  1  0.123400  0.125700  0.399100  1.0  -0.6146
  O  O560  1  0.252800  0.123000  0.292100  1.0  -0.6098
  O  O561  1  0.316400  0.822900  0.900500  1.0  -0.6114
  O  O562  1  0.261500  0.286100  0.631000  1.0  -0.6042
  O  O563  1  0.197300  0.205700  0.220600  1.0  -0.6131
  O  O564  1  0.220000  0.204400  0.714500  1.0  -0.6152
  O  O565  1  0.564600  0.269100  0.222700  1.0  -0.6252
  O  O566  1  0.042300  0.234200  0.288200  1.0  -0.6121
  O  O567  1  0.767800  0.615200  0.285200  1.0  -0.6094
  O  O568  1  0.564800  0.308600  0.110100  1.0  -0.6221
  O  O569  1  0.369600  0.259300  0.667200  1.0  -0.6133
  O  O570  1  0.718600  0.199500  0.186900  1.0  -0.6139
  O  O571  1  0.209100  0.036100  0.275600  1.0  -0.6057
  O  O572  1  0.675500  0.818400  0.250000  1.0  -0.6049
  O  O573  1  0.104900  0.244800  0.360500  1.0  -0.6203
  O  O574  1  0.052500  0.120900  0.332800  1.0  -0.6167
  O  O575  1  0.627000  0.383200  0.113700  1.0  -0.6092
  O  O576  1  0.162300  0.117100  0.196900  1.0  -0.6165
  O  O577  1  0.375200  0.658500  0.772000  1.0  -0.6254
  O  O578  1  0.124300  0.347200  0.752600  1.0  -0.607
  O  O579  1  0.763300  0.284200  0.109700  1.0  -0.61
  O  O580  1  0.274200  0.738300  0.978200  1.0  -0.612
  O  O581  1  0.169300  0.275600  0.837500  1.0  -0.5971
  O  O582  1  0.277300  0.312100  0.801200  1.0  -0.5964
  O  O583  1  0.005800  0.813000  0.939500  1.0  -0.5886
  O  O584  1  0.916900  0.801700  0.034700  1.0  -0.6459
  O  O585  1  0.941000  0.889700  0.031300  1.0  -0.6357
  O  O586  1  0.633900  0.054600  0.071500  1.0  -0.5536
  O  O587  1  0.553500  0.037800  0.054700  1.0  -0.6335
  O  O588  1  0.679900  0.952900  0.016000  1.0  -0.5827
  O  O589  1  0.465500  0.891300  0.636000  1.0  -0.5551
  O  O590  1  0.564600  0.893300  0.545900  1.0  -0.6224
  O  O591  1  0.478100  0.982300  0.636600  1.0  -0.595
  O  O592  1  0.306100  0.531400  0.357000  1.0  -0.5118
  O  O593  1  0.327700  0.430500  0.323700  1.0  -0.6008
  O  O594  1  0.418800  0.463700  0.266000  1.0  -0.562
  O  O595  1  0.372300  0.723100  0.589400  1.0  -0.5411
  O  O596  1  0.421000  0.671700  0.486000  1.0  -0.6349
  O  O597  1  0.309900  0.678700  0.574800  1.0  -0.6108
  O  O598  1  0.507100  0.207500  0.892100  1.0  -0.5518
  O  O599  1  0.538000  0.206100  0.972200  1.0  -0.6229
  O  O600  1  0.585000  0.107300  0.906200  1.0  -0.6235
  O  O601  1  0.563500  0.066600  0.518000  1.0  -0.5458
  O  O602  1  0.670000  0.994000  0.425300  1.0  -0.6114
  O  O603  1  0.660000  0.984300  0.530000  1.0  -0.5738
  O  O604  1  0.994200  0.187000  0.060500  1.0  -0.5892
  O  O605  1  0.083100  0.198300  0.965300  1.0  -0.6448
  O  O606  1  0.059000  0.110300  0.968700  1.0  -0.634
  O  O607  1  0.366100  0.945400  0.928500  1.0  -0.5523
  O  O608  1  0.446500  0.962200  0.945300  1.0  -0.634
  O  O609  1  0.320100  0.047100  0.984000  1.0  -0.582
  O  O610  1  0.534500  0.108700  0.364000  1.0  -0.5561
  O  O611  1  0.435400  0.106700  0.454100  1.0  -0.6232
  O  O612  1  0.521900  0.017700  0.363400  1.0  -0.5966
  O  O613  1  0.693900  0.468600  0.643000  1.0  -0.5084
  O  O614  1  0.672300  0.569500  0.676300  1.0  -0.6002
  O  O615  1  0.581200  0.536300  0.734000  1.0  -0.5618
  O  O616  1  0.627700  0.276900  0.410600  1.0  -0.5402
  O  O617  1  0.579000  0.328300  0.514000  1.0  -0.6314
  O  O618  1  0.690100  0.321300  0.425200  1.0  -0.601
  O  O619  1  0.492900  0.792500  0.107900  1.0  -0.5539
  O  O620  1  0.462000  0.793900  0.027800  1.0  -0.6215
  O  O621  1  0.415000  0.892700  0.093800  1.0  -0.6222
  O  O622  1  0.436500  0.933400  0.482000  1.0  -0.5459
  O  O623  1  0.330000  0.006000  0.574700  1.0  -0.6129
  O  O624  1  0.340000  0.015700  0.470000  1.0  -0.5748
  F  F625  1  0.891100  0.933100  0.942000  1.0  -0.1933
  F  F626  1  0.867300  0.863500  0.941500  1.0  -0.2078
  F  F627  1  0.812000  0.927100  0.022500  1.0  -0.2094
  F  F628  1  0.546400  0.020200  0.181000  1.0  -0.1964
  F  F629  1  0.651300  0.949400  0.141500  1.0  -0.2007
  F  F630  1  0.578000  0.936100  0.133300  1.0  -0.2189
  F  F631  1  0.531100  0.885400  0.709600  1.0  -0.2038
  F  F632  1  0.610200  0.819200  0.628300  1.0  -0.2038
  F  F633  1  0.610600  0.899900  0.640000  1.0  -0.2085
  F  F634  1  0.315300  0.565500  0.236400  1.0  -0.1525
  F  F635  1  0.238000  0.538500  0.282800  1.0  -0.1471
  F  F636  1  0.334300  0.479700  0.206100  1.0  -0.168
  F  F637  1  0.441600  0.555500  0.546500  1.0  -0.1532
  F  F638  1  0.399500  0.604500  0.632700  1.0  -0.1723
  F  F639  1  0.492800  0.596400  0.558300  1.0  -0.1848
  F  F640  1  0.430700  0.144800  0.958200  1.0  -0.1756
  F  F641  1  0.458100  0.130900  0.028000  1.0  -0.1929
  F  F642  1  0.395800  0.220700  0.019200  1.0  -0.1824
  F  F643  1  0.655000  0.120200  0.450000  1.0  -0.1382
  F  F644  1  0.656000  0.102200  0.534000  1.0  -0.1974
  F  F645  1  0.744200  0.046200  0.451000  1.0  -0.1599
  F  F646  1  0.108900  0.066900  0.058000  1.0  -0.192
  F  F647  1  0.132700  0.136500  0.058500  1.0  -0.2044
  F  F648  1  0.188000  0.072900  0.977500  1.0  -0.209
  F  F649  1  0.453600  0.979800  0.819000  1.0  -0.1977
  F  F650  1  0.348700  0.050600  0.858500  1.0  -0.2001
  F  F651  1  0.422000  0.063900  0.866700  1.0  -0.2203
  F  F652  1  0.468900  0.114600  0.290400  1.0  -0.205
  F  F653  1  0.389800  0.180800  0.371700  1.0  -0.2047
  F  F654  1  0.389400  0.100100  0.360000  1.0  -0.2088
  F  F655  1  0.684700  0.434500  0.763600  1.0  -0.1518
  F  F656  1  0.762000  0.461500  0.717200  1.0  -0.1456
  F  F657  1  0.665700  0.520300  0.793900  1.0  -0.1699
  F  F658  1  0.558400  0.444500  0.453500  1.0  -0.1513
  F  F659  1  0.600500  0.395500  0.367300  1.0  -0.1751
  F  F660  1  0.507200  0.403600  0.441700  1.0  -0.1869
  F  F661  1  0.569300  0.855200  0.041800  1.0  -0.1767
  F  F662  1  0.541900  0.869100  0.972000  1.0  -0.195
  F  F663  1  0.604200  0.779300  0.980800  1.0  -0.1799
  F  F664  1  0.345000  0.879800  0.550000  1.0  -0.1414
  F  F665  1  0.344000  0.897800  0.466000  1.0  -0.1968
  F  F666  1  0.255800  0.953800  0.549000  1.0  -0.162
