# generated using pymatgen
data_Co8Mo8P12H32C25N5O56
_symmetry_space_group_name_H-M   'P 1'
_cell_length_a   15.68250000
_cell_length_b   39.50300000
_cell_length_c   17.27630000
_cell_angle_alpha   90.00000000
_cell_angle_beta   93.79100000
_cell_angle_gamma   90.00000000
_symmetry_Int_Tables_number   1
_chemical_formula_structural   Co8Mo8P12H32C25N5O56
_chemical_formula_sum   'Co32 Mo32 P48 H128 C100 N20 O224'
_cell_volume   10679.34892158
_cell_formula_units_Z   4
loop_
 _symmetry_equiv_pos_site_id
 _symmetry_equiv_pos_as_xyz
  1  'x, y, z'
loop_
 _atom_site_type_symbol
 _atom_site_label
 _atom_site_symmetry_multiplicity
 _atom_site_fract_x
 _atom_site_fract_y
 _atom_site_fract_z
 _atom_site_occupancy
 _atom_site_charge
  Co  Co1  1  0.640950  0.657300  0.971300  1.0  0.9151
  Co  Co2  1  0.880270  0.545850  0.164090  1.0  0.9141
  Co  Co3  1  0.483350  0.656620  0.846500  1.0  0.9159
  Co  Co4  1  0.504600  0.658290  0.118200  1.0  0.8768
  Co  Co5  1  0.877950  0.465830  0.170130  1.0  0.901
  Co  Co6  1  0.749700  0.546540  0.309200  1.0  0.8922
  Co  Co7  1  0.347860  0.658160  0.992000  1.0  0.9183
  Co  Co8  1  0.252700  0.533460  0.682830  1.0  0.9729
  Co  Co9  1  0.859050  0.157300  0.528700  1.0  0.9165
  Co  Co10  1  0.619730  0.045850  0.335910  1.0  0.9175
  Co  Co11  1  0.016650  0.156620  0.653500  1.0  0.9148
  Co  Co12  1  0.995400  0.158290  0.381800  1.0  0.8758
  Co  Co13  1  0.622050  0.965830  0.329870  1.0  0.9043
  Co  Co14  1  0.750300  0.046540  0.190800  1.0  0.8881
  Co  Co15  1  0.152140  0.158160  0.508000  1.0  0.9178
  Co  Co16  1  0.247300  0.033460  0.817170  1.0  0.9733
  Co  Co17  1  0.359050  0.342700  0.028700  1.0  0.9179
  Co  Co18  1  0.119730  0.454150  0.835910  1.0  0.9177
  Co  Co19  1  0.516650  0.343380  0.153500  1.0  0.9147
  Co  Co20  1  0.495400  0.341710  0.881800  1.0  0.8753
  Co  Co21  1  0.122050  0.534170  0.829870  1.0  0.9044
  Co  Co22  1  0.250300  0.453460  0.690800  1.0  0.8872
  Co  Co23  1  0.652140  0.341840  0.008000  1.0  0.918
  Co  Co24  1  0.747300  0.466540  0.317170  1.0  0.9735
  Co  Co25  1  0.140950  0.842700  0.471300  1.0  0.9168
  Co  Co26  1  0.380270  0.954150  0.664090  1.0  0.9132
  Co  Co27  1  0.983350  0.843380  0.346500  1.0  0.9156
  Co  Co28  1  0.004600  0.841710  0.618200  1.0  0.8768
  Co  Co29  1  0.377950  0.034170  0.670130  1.0  0.9009
  Co  Co30  1  0.249700  0.953460  0.809200  1.0  0.8929
  Co  Co31  1  0.847860  0.841840  0.492000  1.0  0.9185
  Co  Co32  1  0.752700  0.966540  0.182830  1.0  0.9729
  Mo  Mo33  1  0.792500  0.584290  0.979510  1.0  1.1941
  Mo  Mo34  1  0.832290  0.629910  0.085170  1.0  1.2228
  Mo  Mo35  1  0.658770  0.630320  0.273940  1.0  1.2249
  Mo  Mo36  1  0.536000  0.586210  0.256480  1.0  1.1893
  Mo  Mo37  1  0.463230  0.578300  0.725730  1.0  1.2351
  Mo  Mo38  1  0.792350  0.418690  0.997320  1.0  1.203
  Mo  Mo39  1  0.335020  0.619740  0.700520  1.0  1.2012
  Mo  Mo40  1  0.836850  0.377530  0.111240  1.0  1.1956
  Mo  Mo41  1  0.707500  0.084290  0.520490  1.0  1.1932
  Mo  Mo42  1  0.667710  0.129910  0.414830  1.0  1.2233
  Mo  Mo43  1  0.841230  0.130320  0.226060  1.0  1.2267
  Mo  Mo44  1  0.964000  0.086210  0.243520  1.0  1.1889
  Mo  Mo45  1  0.036770  0.078300  0.774270  1.0  1.2384
  Mo  Mo46  1  0.707650  0.918690  0.502680  1.0  1.2024
  Mo  Mo47  1  0.164980  0.119740  0.799480  1.0  1.2014
  Mo  Mo48  1  0.663150  0.877530  0.388760  1.0  1.1976
  Mo  Mo49  1  0.207500  0.415710  0.020490  1.0  1.1935
  Mo  Mo50  1  0.167710  0.370090  0.914830  1.0  1.2232
  Mo  Mo51  1  0.341230  0.369680  0.726060  1.0  1.2264
  Mo  Mo52  1  0.464000  0.413790  0.743520  1.0  1.1889
  Mo  Mo53  1  0.536770  0.421700  0.274270  1.0  1.2383
  Mo  Mo54  1  0.207650  0.581310  0.002680  1.0  1.2021
  Mo  Mo55  1  0.664980  0.380260  0.299480  1.0  1.2022
  Mo  Mo56  1  0.163150  0.622470  0.888760  1.0  1.1977
  Mo  Mo57  1  0.292500  0.915710  0.479510  1.0  1.1943
  Mo  Mo58  1  0.332290  0.870090  0.585170  1.0  1.2222
  Mo  Mo59  1  0.158770  0.869680  0.773940  1.0  1.2236
  Mo  Mo60  1  0.036000  0.913790  0.756480  1.0  1.1898
  Mo  Mo61  1  0.963230  0.921700  0.225730  1.0  1.2349
  Mo  Mo62  1  0.292350  0.081310  0.497320  1.0  1.2031
  Mo  Mo63  1  0.835020  0.880260  0.200520  1.0  1.2021
  Mo  Mo64  1  0.336850  0.122470  0.611240  1.0  1.1962
  P  P65  1  0.644000  0.600420  0.832200  1.0  1.7849
  P  P66  1  0.850900  0.501140  0.999300  1.0  1.85
  P  P67  1  0.686100  0.571710  0.135000  1.0  1.7804
  P  P68  1  0.869300  0.614280  0.274300  1.0  1.8148
  P  P69  1  0.693800  0.687360  0.139400  1.0  1.6408
  P  P70  1  0.496300  0.712580  0.983400  1.0  1.5743
  P  P71  1  0.927600  0.505370  0.323200  1.0  1.7004
  P  P72  1  0.561900  0.504660  0.315100  1.0  1.7681
  P  P73  1  0.354600  0.603230  0.145600  1.0  1.8138
  P  P74  1  0.364500  0.591430  0.882400  1.0  1.6499
  P  P75  1  0.283800  0.683860  0.814600  1.0  1.7518
  P  P76  1  0.869000  0.403190  0.293500  1.0  1.7755
  P  P77  1  0.856000  0.100420  0.667800  1.0  1.7828
  P  P78  1  0.649100  0.001140  0.500700  1.0  1.8549
  P  P79  1  0.813900  0.071710  0.365000  1.0  1.7841
  P  P80  1  0.630700  0.114280  0.225700  1.0  1.8128
  P  P81  1  0.806200  0.187360  0.360600  1.0  1.6376
  P  P82  1  0.003700  0.212580  0.516600  1.0  1.5744
  P  P83  1  0.572400  0.005370  0.176800  1.0  1.698
  P  P84  1  0.938100  0.004660  0.184900  1.0  1.7697
  P  P85  1  0.145400  0.103230  0.354400  1.0  1.8129
  P  P86  1  0.135500  0.091430  0.617600  1.0  1.647
  P  P87  1  0.216200  0.183860  0.685400  1.0  1.7579
  P  P88  1  0.631000  0.903190  0.206500  1.0  1.7714
  P  P89  1  0.356000  0.399580  0.167800  1.0  1.783
  P  P90  1  0.149100  0.498860  0.000700  1.0  1.8547
  P  P91  1  0.313900  0.428290  0.865000  1.0  1.7832
  P  P92  1  0.130700  0.385720  0.725700  1.0  1.8117
  P  P93  1  0.306200  0.312640  0.860600  1.0  1.6371
  P  P94  1  0.503700  0.287420  0.016600  1.0  1.5748
  P  P95  1  0.072400  0.494630  0.676800  1.0  1.6989
  P  P96  1  0.438100  0.495340  0.684900  1.0  1.7774
  P  P97  1  0.645400  0.396770  0.854400  1.0  1.8129
  P  P98  1  0.635500  0.408570  0.117600  1.0  1.6487
  P  P99  1  0.716200  0.316140  0.185400  1.0  1.7543
  P  P100  1  0.131000  0.596810  0.706500  1.0  1.7678
  P  P101  1  0.144000  0.899580  0.332200  1.0  1.7847
  P  P102  1  0.350900  0.998860  0.499300  1.0  1.85
  P  P103  1  0.186100  0.928290  0.635000  1.0  1.7799
  P  P104  1  0.369300  0.885720  0.774300  1.0  1.8138
  P  P105  1  0.193800  0.812640  0.639400  1.0  1.6401
  P  P106  1  0.996300  0.787420  0.483400  1.0  1.5749
  P  P107  1  0.427600  0.994630  0.823200  1.0  1.7018
  P  P108  1  0.061900  0.995340  0.815100  1.0  1.7758
  P  P109  1  0.854600  0.896770  0.645600  1.0  1.8136
  P  P110  1  0.864500  0.908570  0.382400  1.0  1.6519
  P  P111  1  0.783800  0.816140  0.314600  1.0  1.7484
  P  P112  1  0.369000  0.096810  0.793500  1.0  1.7707
  H  H113  1  0.727900  0.598400  0.750000  1.0  0.4782
  H  H114  1  0.948000  0.643000  0.335800  1.0  0.4577
  H  H115  1  0.649800  0.733100  0.105900  1.0  0.3688
  H  H116  1  0.401400  0.723400  0.905000  1.0  0.4163
  H  H117  1  0.589500  0.726500  0.057400  1.0  0.331
  H  H118  1  0.957700  0.458600  0.346900  1.0  0.3206
  H  H119  1  0.950400  0.554500  0.336900  1.0  0.3741
  H  H120  1  0.570100  0.657600  0.691600  1.0  0.0825
  H  H121  1  0.507800  0.733700  0.816500  1.0  0.0945
  H  H122  1  0.416100  0.661200  0.274900  1.0  0.0689
  H  H123  1  0.490100  0.735200  0.147000  1.0  0.0836
  H  H124  1  0.551700  0.519000  0.424500  1.0  0.4404
  H  H125  1  0.264900  0.629200  0.193300  1.0  0.4378
  H  H126  1  0.306900  0.730000  0.780400  1.0  0.4874
  H  H127  1  0.655700  0.691300  0.626000  1.0  0.1209
  H  H128  1  0.574600  0.768600  0.740700  1.0  0.1197
  H  H129  1  0.350000  0.695800  0.348400  1.0  0.1174
  H  H130  1  0.417000  0.774400  0.218700  1.0  0.1331
  H  H131  1  0.961500  0.422200  0.361700  1.0  0.3462
  H  H132  1  0.369000  0.552600  0.555900  1.0  0.1012
  H  H133  1  0.122900  0.533000  0.541800  1.0  0.0802
  H  H134  1  0.373000  0.543600  0.423900  1.0  0.0855
  H  H135  1  0.125400  0.521400  0.411100  1.0  0.104
  H  H136  1  0.631100  0.803100  0.678100  1.0  0.1322
  H  H137  1  0.734700  0.724800  0.568000  1.0  0.1308
  H  H138  1  0.373900  0.806000  0.301100  1.0  0.1306
  H  H139  1  0.253100  0.727900  0.390100  1.0  0.1185
  H  H140  1  0.699400  0.839200  0.592900  1.0  0.0847
  H  H141  1  0.797400  0.764700  0.485600  1.0  0.0978
  H  H142  1  0.298400  0.841100  0.379400  1.0  0.0817
  H  H143  1  0.176800  0.765700  0.460200  1.0  0.0817
  H  H144  1  0.975200  0.499100  0.989600  1.0  0.3299
  H  H145  1  0.772100  0.098400  0.750000  1.0  0.4767
  H  H146  1  0.552000  0.143000  0.164200  1.0  0.458
  H  H147  1  0.850200  0.233100  0.394100  1.0  0.3682
  H  H148  1  0.098600  0.223400  0.595000  1.0  0.4125
  H  H149  1  0.910500  0.226500  0.442600  1.0  0.3294
  H  H150  1  0.542300  0.958600  0.153100  1.0  0.3233
  H  H151  1  0.549600  0.054500  0.163100  1.0  0.3739
  H  H152  1  0.929900  0.157600  0.808400  1.0  0.0829
  H  H153  1  0.992200  0.233700  0.683500  1.0  0.0946
  H  H154  1  0.083900  0.161200  0.225100  1.0  0.0691
  H  H155  1  0.009900  0.235200  0.353000  1.0  0.0833
  H  H156  1  0.948300  0.019000  0.075500  1.0  0.4412
  H  H157  1  0.235100  0.129200  0.306700  1.0  0.4362
  H  H158  1  0.193100  0.230000  0.719600  1.0  0.4904
  H  H159  1  0.844300  0.191300  0.874000  1.0  0.1216
  H  H160  1  0.925400  0.268600  0.759300  1.0  0.1186
  H  H161  1  0.150000  0.195800  0.151600  1.0  0.1171
  H  H162  1  0.083000  0.274400  0.281300  1.0  0.1329
  H  H163  1  0.538500  0.922200  0.138300  1.0  0.3477
  H  H164  1  0.131000  0.052600  0.944100  1.0  0.1015
  H  H165  1  0.377100  0.033000  0.958200  1.0  0.0801
  H  H166  1  0.127000  0.043600  0.076100  1.0  0.086
  H  H167  1  0.374600  0.021400  0.088900  1.0  0.1042
  H  H168  1  0.868900  0.303100  0.821900  1.0  0.1333
  H  H169  1  0.765300  0.224800  0.932000  1.0  0.1305
  H  H170  1  0.126100  0.306000  0.198900  1.0  0.1297
  H  H171  1  0.246900  0.227900  0.109900  1.0  0.119
  H  H172  1  0.800600  0.339200  0.907100  1.0  0.0833
  H  H173  1  0.702600  0.264700  0.014400  1.0  0.0978
  H  H174  1  0.201600  0.341100  0.120600  1.0  0.0817
  H  H175  1  0.323200  0.265700  0.039800  1.0  0.082
  H  H176  1  0.524800  0.999100  0.510400  1.0  0.3297
  H  H177  1  0.272100  0.401600  0.250000  1.0  0.4766
  H  H178  1  0.052000  0.357000  0.664200  1.0  0.4642
  H  H179  1  0.350200  0.266900  0.894100  1.0  0.3684
  H  H180  1  0.598600  0.276600  0.095000  1.0  0.4127
  H  H181  1  0.410500  0.273500  0.942600  1.0  0.3304
  H  H182  1  0.042300  0.541400  0.653100  1.0  0.3231
  H  H183  1  0.049600  0.445500  0.663100  1.0  0.3733
  H  H184  1  0.429900  0.342400  0.308400  1.0  0.0829
  H  H185  1  0.492200  0.266300  0.183500  1.0  0.0953
  H  H186  1  0.583900  0.338800  0.725100  1.0  0.0693
  H  H187  1  0.509900  0.264800  0.853000  1.0  0.0836
  H  H188  1  0.448300  0.481000  0.575500  1.0  0.4395
  H  H189  1  0.735100  0.370800  0.806700  1.0  0.4353
  H  H190  1  0.693100  0.270000  0.219600  1.0  0.4904
  H  H191  1  0.344300  0.308700  0.374000  1.0  0.1216
  H  H192  1  0.425400  0.231400  0.259300  1.0  0.1187
  H  H193  1  0.650000  0.304200  0.651600  1.0  0.1175
  H  H194  1  0.583000  0.225600  0.781300  1.0  0.1318
  H  H195  1  0.038500  0.577800  0.638300  1.0  0.3471
  H  H196  1  0.631000  0.447400  0.444100  1.0  0.1017
  H  H197  1  0.877100  0.467000  0.458200  1.0  0.08
  H  H198  1  0.627000  0.456400  0.576100  1.0  0.0859
  H  H199  1  0.874600  0.478600  0.588900  1.0  0.104
  H  H200  1  0.368900  0.196900  0.321900  1.0  0.1329
  H  H201  1  0.265300  0.275200  0.432000  1.0  0.1305
  H  H202  1  0.626100  0.194000  0.698900  1.0  0.1293
  H  H203  1  0.746900  0.272100  0.609900  1.0  0.1195
  H  H204  1  0.300600  0.160800  0.407100  1.0  0.0835
  H  H205  1  0.202600  0.235300  0.514400  1.0  0.0971
  H  H206  1  0.701600  0.158900  0.620600  1.0  0.082
  H  H207  1  0.823200  0.234300  0.539800  1.0  0.082
  H  H208  1  0.024800  0.500900  0.010400  1.0  0.33
  H  H209  1  0.227900  0.901600  0.250000  1.0  0.4784
  H  H210  1  0.448000  0.857000  0.835800  1.0  0.4628
  H  H211  1  0.149800  0.766900  0.605900  1.0  0.3666
  H  H212  1  0.901400  0.776600  0.405000  1.0  0.4151
  H  H213  1  0.089500  0.773500  0.557400  1.0  0.3333
  H  H214  1  0.457700  0.041400  0.846900  1.0  0.3226
  H  H215  1  0.450400  0.945500  0.836900  1.0  0.3725
  H  H216  1  0.070100  0.842400  0.191600  1.0  0.0826
  H  H217  1  0.007800  0.766300  0.316500  1.0  0.095
  H  H218  1  0.916100  0.838800  0.774900  1.0  0.0695
  H  H219  1  0.990100  0.764800  0.647000  1.0  0.0838
  H  H220  1  0.051700  0.981000  0.924500  1.0  0.4398
  H  H221  1  0.764900  0.870800  0.693300  1.0  0.438
  H  H222  1  0.806900  0.770000  0.280400  1.0  0.489
  H  H223  1  0.155700  0.808700  0.126000  1.0  0.1208
  H  H224  1  0.074600  0.731400  0.240700  1.0  0.1191
  H  H225  1  0.850000  0.804200  0.848400  1.0  0.1177
  H  H226  1  0.917000  0.725600  0.718700  1.0  0.1326
  H  H227  1  0.461500  0.077800  0.861700  1.0  0.3422
  H  H228  1  0.869000  0.947400  0.055900  1.0  0.1012
  H  H229  1  0.622900  0.967000  0.041800  1.0  0.08
  H  H230  1  0.873000  0.956400  0.923900  1.0  0.085
  H  H231  1  0.625400  0.978600  0.911100  1.0  0.1043
  H  H232  1  0.131100  0.696900  0.178100  1.0  0.1324
  H  H233  1  0.234700  0.775200  0.068000  1.0  0.1301
  H  H234  1  0.873900  0.694000  0.801100  1.0  0.1305
  H  H235  1  0.753100  0.772100  0.890100  1.0  0.1195
  H  H236  1  0.199400  0.660800  0.092900  1.0  0.0848
  H  H237  1  0.297400  0.735300  0.985600  1.0  0.0969
  H  H238  1  0.798400  0.658900  0.879400  1.0  0.0822
  H  H239  1  0.676800  0.734300  0.960200  1.0  0.0819
  H  H240  1  0.475200  0.000900  0.489600  1.0  0.3302
  C  C241  1  0.573900  0.680400  0.705600  1.0  0.163
  C  C242  1  0.536000  0.724500  0.776000  1.0  0.1307
  C  C243  1  0.416800  0.684100  0.262600  1.0  0.2023
  C  C244  1  0.459000  0.727300  0.188000  1.0  0.169
  C  C245  1  0.623000  0.701000  0.663500  1.0  -0.1818
  C  C246  1  0.579000  0.745500  0.731600  1.0  -0.157
  C  C247  1  0.376300  0.704400  0.306000  1.0  -0.1708
  C  C248  1  0.415900  0.751400  0.230200  1.0  -0.2143
  C  C249  1  0.627100  0.735100  0.674500  1.0  0.0662
  C  C250  1  0.371400  0.738600  0.290700  1.0  0.0291
  C  C251  1  0.319300  0.546300  0.527100  1.0  0.1375
  C  C252  1  0.174600  0.534500  0.518500  1.0  0.1621
  C  C253  1  0.673000  0.759600  0.628100  1.0  -0.0554
  C  C254  1  0.325200  0.762100  0.338800  1.0  0.079
  C  C255  1  0.322000  0.540000  0.447100  1.0  -0.0379
  C  C256  1  0.175700  0.527300  0.439500  1.0  -0.0883
  C  C257  1  0.664000  0.794400  0.639900  1.0  -0.1924
  C  C258  1  0.726000  0.747900  0.574000  1.0  -0.1581
  C  C259  1  0.335600  0.796800  0.334000  1.0  -0.2224
  C  C260  1  0.263700  0.751000  0.386000  1.0  -0.184
  C  C261  1  0.253700  0.528900  0.402600  1.0  -0.0159
  C  C262  1  0.709000  0.816000  0.589600  1.0  0.1594
  C  C263  1  0.767100  0.772500  0.526000  1.0  0.1625
  C  C264  1  0.287400  0.818000  0.379900  1.0  0.1832
  C  C265  1  0.216900  0.774100  0.428000  1.0  0.176
  C  C266  1  0.926100  0.180400  0.794400  1.0  0.1635
  C  C267  1  0.964000  0.224500  0.724000  1.0  0.1298
  C  C268  1  0.083200  0.184100  0.237400  1.0  0.1998
  C  C269  1  0.041000  0.227300  0.312000  1.0  0.169
  C  C270  1  0.877000  0.201000  0.836500  1.0  -0.1814
  C  C271  1  0.921000  0.245500  0.768400  1.0  -0.157
  C  C272  1  0.123700  0.204400  0.194000  1.0  -0.1703
  C  C273  1  0.084100  0.251400  0.269800  1.0  -0.2144
  C  C274  1  0.872900  0.235100  0.825500  1.0  0.0684
  C  C275  1  0.128600  0.238600  0.209300  1.0  0.0275
  C  C276  1  0.180700  0.046300  0.972900  1.0  0.1374
  C  C277  1  0.325400  0.034500  0.981500  1.0  0.1612
  C  C278  1  0.827000  0.259600  0.871900  1.0  -0.0552
  C  C279  1  0.174800  0.262100  0.161200  1.0  0.0786
  C  C280  1  0.178000  0.040000  0.052900  1.0  -0.039
  C  C281  1  0.324300  0.027300  0.060500  1.0  -0.0887
  C  C282  1  0.836000  0.294400  0.860100  1.0  -0.1902
  C  C283  1  0.774000  0.247900  0.926000  1.0  -0.1581
  C  C284  1  0.164400  0.296800  0.166000  1.0  -0.2218
  C  C285  1  0.236300  0.251000  0.114000  1.0  -0.185
  C  C286  1  0.246300  0.028900  0.097400  1.0  -0.0229
  C  C287  1  0.791000  0.316000  0.910400  1.0  0.1593
  C  C288  1  0.732900  0.272500  0.974000  1.0  0.1646
  C  C289  1  0.212600  0.318000  0.120100  1.0  0.1826
  C  C290  1  0.283100  0.274100  0.072000  1.0  0.1746
  C  C291  1  0.426100  0.319600  0.294400  1.0  0.1625
  C  C292  1  0.464000  0.275500  0.224000  1.0  0.1301
  C  C293  1  0.583200  0.315900  0.737400  1.0  0.2001
  C  C294  1  0.541000  0.272700  0.812000  1.0  0.169
  C  C295  1  0.377000  0.299000  0.336500  1.0  -0.1834
  C  C296  1  0.421000  0.254500  0.268400  1.0  -0.1555
  C  C297  1  0.623700  0.295600  0.694000  1.0  -0.171
  C  C298  1  0.584100  0.248600  0.769800  1.0  -0.2144
  C  C299  1  0.372900  0.264900  0.325500  1.0  0.069
  C  C300  1  0.628600  0.261400  0.709300  1.0  0.0265
  C  C301  1  0.680700  0.453700  0.472900  1.0  0.137
  C  C302  1  0.825400  0.465500  0.481500  1.0  0.1613
  C  C303  1  0.327000  0.240400  0.371900  1.0  -0.0558
  C  C304  1  0.674800  0.237900  0.661200  1.0  0.0788
  C  C305  1  0.678000  0.460000  0.552900  1.0  -0.0386
  C  C306  1  0.824300  0.472700  0.560500  1.0  -0.0888
  C  C307  1  0.336000  0.205600  0.360100  1.0  -0.1902
  C  C308  1  0.274000  0.252100  0.426000  1.0  -0.1589
  C  C309  1  0.664400  0.203200  0.666000  1.0  -0.221
  C  C310  1  0.736300  0.249000  0.614000  1.0  -0.1855
  C  C311  1  0.746300  0.471100  0.597400  1.0  -0.0235
  C  C312  1  0.291000  0.184000  0.410400  1.0  0.1607
  C  C313  1  0.232900  0.227500  0.474000  1.0  0.1638
  C  C314  1  0.712600  0.182000  0.620100  1.0  0.1836
  C  C315  1  0.783100  0.225900  0.572000  1.0  0.1756
  C  C316  1  0.073900  0.819600  0.205600  1.0  0.1639
  C  C317  1  0.036000  0.775500  0.276000  1.0  0.131
  C  C318  1  0.916800  0.815900  0.762600  1.0  0.2012
  C  C319  1  0.959000  0.772700  0.688000  1.0  0.1698
  C  C320  1  0.123000  0.799000  0.163500  1.0  -0.1829
  C  C321  1  0.079000  0.754500  0.231600  1.0  -0.1558
  C  C322  1  0.876300  0.795600  0.806000  1.0  -0.1718
  C  C323  1  0.915900  0.748600  0.730200  1.0  -0.2136
  C  C324  1  0.127100  0.764900  0.174500  1.0  0.0661
  C  C325  1  0.871400  0.761400  0.790700  1.0  0.0299
  C  C326  1  0.819300  0.953700  0.027100  1.0  0.1366
  C  C327  1  0.674600  0.965500  0.018500  1.0  0.1622
  C  C328  1  0.173000  0.740400  0.128100  1.0  -0.0555
  C  C329  1  0.825200  0.737900  0.838800  1.0  0.0789
  C  C330  1  0.822000  0.960000  0.947100  1.0  -0.0375
  C  C331  1  0.675700  0.972700  0.939500  1.0  -0.0887
  C  C332  1  0.164000  0.705600  0.139900  1.0  -0.1913
  C  C333  1  0.226000  0.752100  0.074000  1.0  -0.1595
  C  C334  1  0.835600  0.703200  0.834000  1.0  -0.2212
  C  C335  1  0.763700  0.749000  0.886000  1.0  -0.1858
  C  C336  1  0.753700  0.971100  0.902600  1.0  -0.0157
  C  C337  1  0.209000  0.684000  0.089600  1.0  0.1613
  C  C338  1  0.267100  0.727500  0.026000  1.0  0.1625
  C  C339  1  0.787400  0.682000  0.879900  1.0  0.1839
  C  C340  1  0.716900  0.725900  0.928000  1.0  0.1756
  N  N341  1  0.227000  0.806700  0.423800  1.0  -0.3166
  N  N342  1  0.531400  0.690300  0.763900  1.0  -0.344
  N  N343  1  0.459900  0.693400  0.201000  1.0  -0.3435
  N  N344  1  0.763300  0.805900  0.539000  1.0  -0.3207
  N  N345  1  0.245000  0.543400  0.562500  1.0  -0.3441
  N  N346  1  0.273000  0.306700  0.076200  1.0  -0.3154
  N  N347  1  0.968600  0.190300  0.736100  1.0  -0.343
  N  N348  1  0.040100  0.193400  0.299000  1.0  -0.3448
  N  N349  1  0.736700  0.305900  0.961000  1.0  -0.3203
  N  N350  1  0.255000  0.043400  0.937500  1.0  -0.3428
  N  N351  1  0.773000  0.193300  0.576200  1.0  -0.3156
  N  N352  1  0.468600  0.309700  0.236100  1.0  -0.3434
  N  N353  1  0.540100  0.306600  0.799000  1.0  -0.3444
  N  N354  1  0.236700  0.194100  0.461000  1.0  -0.3196
  N  N355  1  0.755000  0.456600  0.437500  1.0  -0.3425
  N  N356  1  0.727000  0.693300  0.923800  1.0  -0.3165
  N  N357  1  0.031400  0.809700  0.263900  1.0  -0.3446
  N  N358  1  0.959900  0.806600  0.701000  1.0  -0.3441
  N  N359  1  0.263300  0.694100  0.039000  1.0  -0.3212
  N  N360  1  0.745000  0.956600  0.062500  1.0  -0.3435
  O  O361  1  0.744400  0.628800  0.001400  1.0  -0.7458
  O  O362  1  0.696100  0.579600  0.891700  1.0  -0.8231
  O  O363  1  0.854100  0.581500  0.080500  1.0  -0.7886
  O  O364  1  0.803100  0.532000  0.966900  1.0  -0.842
  O  O365  1  0.686200  0.567900  0.047200  1.0  -0.7919
  O  O366  1  0.713600  0.609100  0.157100  1.0  -0.8915
  O  O367  1  0.884800  0.629300  0.194600  1.0  -0.8179
  O  O368  1  0.782000  0.676000  0.115000  1.0  -0.774
  O  O369  1  0.604300  0.631600  0.869700  1.0  -0.8705
  O  O370  1  0.623300  0.674400  0.084700  1.0  -0.7848
  O  O371  1  0.543100  0.688100  0.929400  1.0  -0.816
  O  O372  1  0.579400  0.578100  0.790200  1.0  -0.8273
  O  O373  1  0.705500  0.614300  0.771300  1.0  -0.6744
  O  O374  1  0.874300  0.504700  0.087800  1.0  -0.8789
  O  O375  1  0.744000  0.543200  0.178000  1.0  -0.8543
  O  O376  1  0.929100  0.505200  0.233300  1.0  -0.9088
  O  O377  1  0.861200  0.575100  0.267700  1.0  -0.8007
  O  O378  1  0.793300  0.471200  0.982200  1.0  -0.823
  O  O379  1  0.934100  0.496100  0.958400  1.0  -0.6182
  O  O380  1  0.591800  0.567200  0.151400  1.0  -0.777
  O  O381  1  0.786600  0.628500  0.305300  1.0  -0.7887
  O  O382  1  0.654500  0.582800  0.298800  1.0  -0.7928
  O  O383  1  0.554200  0.630600  0.209300  1.0  -0.7905
  O  O384  1  0.685800  0.676500  0.224400  1.0  -0.7725
  O  O385  1  0.942900  0.622400  0.331700  1.0  -0.626
  O  O386  1  0.688900  0.727200  0.136800  1.0  -0.5869
  O  O387  1  0.523400  0.534900  0.270400  1.0  -0.8373
  O  O388  1  0.427900  0.581400  0.182900  1.0  -0.824
  O  O389  1  0.444000  0.625000  0.759300  1.0  -0.7491
  O  O390  1  0.419000  0.621500  0.925000  1.0  -0.864
  O  O391  1  0.359600  0.680900  0.873400  1.0  -0.7574
  O  O392  1  0.387900  0.633700  0.101500  1.0  -0.8547
  O  O393  1  0.445800  0.689700  0.033400  1.0  -0.7598
  O  O394  1  0.434600  0.735400  0.931400  1.0  -0.6449
  O  O395  1  0.554600  0.737100  0.029600  1.0  -0.5839
  O  O396  1  0.473700  0.526400  0.724400  1.0  -0.8311
  O  O397  1  0.420100  0.568000  0.838300  1.0  -0.7679
  O  O398  1  0.342800  0.570500  0.693200  1.0  -0.7255
  O  O399  1  0.850000  0.425900  0.098100  1.0  -0.7749
  O  O400  1  0.844400  0.439400  0.268900  1.0  -0.8161
  O  O401  1  0.832600  0.506700  0.341600  1.0  -0.8409
  O  O402  1  0.659000  0.505400  0.320200  1.0  -0.8695
  O  O403  1  0.979100  0.476800  0.360700  1.0  -0.6038
  O  O404  1  0.973900  0.537600  0.356000  1.0  -0.6874
  O  O405  1  0.754000  0.372600  0.024200  1.0  -0.7548
  O  O406  1  0.704900  0.419400  0.905900  1.0  -0.8201
  O  O407  1  0.677400  0.431700  0.056900  1.0  -0.7577
  O  O408  1  0.302800  0.666400  0.738000  1.0  -0.7953
  O  O409  1  0.290600  0.606200  0.826500  1.0  -0.9015
  O  O410  1  0.204800  0.614900  0.669000  1.0  -0.7582
  O  O411  1  0.794300  0.331900  0.149500  1.0  -0.833
  O  O412  1  0.893500  0.383300  0.221600  1.0  -0.7589
  O  O413  1  0.529200  0.503700  0.398500  1.0  -0.682
  O  O414  1  0.304500  0.617500  0.211600  1.0  -0.6757
  O  O415  1  0.265700  0.721300  0.799400  1.0  -0.6529
  O  O416  1  0.944600  0.402800  0.353700  1.0  -0.5354
  O  O417  1  0.755600  0.128800  0.498600  1.0  -0.7461
  O  O418  1  0.803900  0.079600  0.608300  1.0  -0.8233
  O  O419  1  0.645900  0.081500  0.419500  1.0  -0.7894
  O  O420  1  0.696900  0.032000  0.533100  1.0  -0.8418
  O  O421  1  0.813800  0.067900  0.452800  1.0  -0.7917
  O  O422  1  0.786400  0.109100  0.342900  1.0  -0.891
  O  O423  1  0.615200  0.129300  0.305400  1.0  -0.8189
  O  O424  1  0.718000  0.176000  0.385000  1.0  -0.7753
  O  O425  1  0.895700  0.131600  0.630300  1.0  -0.8709
  O  O426  1  0.876700  0.174400  0.415300  1.0  -0.7866
  O  O427  1  0.956900  0.188100  0.570600  1.0  -0.8162
  O  O428  1  0.920600  0.078100  0.709800  1.0  -0.8277
  O  O429  1  0.794500  0.114300  0.728700  1.0  -0.6764
  O  O430  1  0.625700  0.004700  0.412200  1.0  -0.8762
  O  O431  1  0.756000  0.043200  0.322000  1.0  -0.8545
  O  O432  1  0.570900  0.005200  0.266700  1.0  -0.9084
  O  O433  1  0.638800  0.075100  0.232300  1.0  -0.8014
  O  O434  1  0.706700  0.971200  0.517800  1.0  -0.8227
  O  O435  1  0.565900  0.996100  0.541600  1.0  -0.6168
  O  O436  1  0.908200  0.067200  0.348600  1.0  -0.7762
  O  O437  1  0.713400  0.128500  0.194700  1.0  -0.7967
  O  O438  1  0.845500  0.082800  0.201200  1.0  -0.7941
  O  O439  1  0.945800  0.130600  0.290700  1.0  -0.7897
  O  O440  1  0.814200  0.176500  0.275600  1.0  -0.7735
  O  O441  1  0.557100  0.122400  0.168300  1.0  -0.6277
  O  O442  1  0.811100  0.227200  0.363200  1.0  -0.5897
  O  O443  1  0.976600  0.034900  0.229600  1.0  -0.8385
  O  O444  1  0.072100  0.081400  0.317100  1.0  -0.8245
  O  O445  1  0.056000  0.125000  0.740700  1.0  -0.7491
  O  O446  1  0.081000  0.121500  0.575000  1.0  -0.8615
  O  O447  1  0.140400  0.180900  0.626600  1.0  -0.7573
  O  O448  1  0.112100  0.133700  0.398500  1.0  -0.8532
  O  O449  1  0.054200  0.189700  0.466600  1.0  -0.7607
  O  O450  1  0.065400  0.235400  0.568600  1.0  -0.6439
  O  O451  1  0.945400  0.237100  0.470400  1.0  -0.5847
  O  O452  1  0.026300  0.026400  0.775600  1.0  -0.831
  O  O453  1  0.079900  0.068000  0.661700  1.0  -0.7682
  O  O454  1  0.157200  0.070500  0.806800  1.0  -0.7282
  O  O455  1  0.650000  0.925900  0.401900  1.0  -0.7745
  O  O456  1  0.655600  0.939400  0.231100  1.0  -0.818
  O  O457  1  0.667400  0.006700  0.158400  1.0  -0.841
  O  O458  1  0.841000  0.005400  0.179800  1.0  -0.8674
  O  O459  1  0.520900  0.976800  0.139300  1.0  -0.6027
  O  O460  1  0.526100  0.037600  0.144000  1.0  -0.6866
  O  O461  1  0.746000  0.872600  0.475800  1.0  -0.7549
  O  O462  1  0.795100  0.919400  0.594100  1.0  -0.8204
  O  O463  1  0.822600  0.931700  0.443100  1.0  -0.7589
  O  O464  1  0.197200  0.166400  0.762000  1.0  -0.7889
  O  O465  1  0.209400  0.106200  0.673500  1.0  -0.9025
  O  O466  1  0.295200  0.114900  0.831000  1.0  -0.7559
  O  O467  1  0.705700  0.831900  0.350500  1.0  -0.8377
  O  O468  1  0.606500  0.883300  0.278400  1.0  -0.76
  O  O469  1  0.970800  0.003700  0.101500  1.0  -0.6806
  O  O470  1  0.195500  0.117500  0.288400  1.0  -0.6765
  O  O471  1  0.234300  0.221300  0.700600  1.0  -0.649
  O  O472  1  0.555400  0.902800  0.146300  1.0  -0.534
  O  O473  1  0.255600  0.371200  0.998600  1.0  -0.7458
  O  O474  1  0.303900  0.420400  0.108300  1.0  -0.823
  O  O475  1  0.145900  0.418500  0.919500  1.0  -0.7894
  O  O476  1  0.196900  0.468000  0.033100  1.0  -0.8416
  O  O477  1  0.313800  0.432100  0.952800  1.0  -0.7912
  O  O478  1  0.286400  0.390900  0.842900  1.0  -0.8917
  O  O479  1  0.115200  0.370700  0.805400  1.0  -0.8183
  O  O480  1  0.218000  0.324000  0.885000  1.0  -0.7762
  O  O481  1  0.395700  0.368400  0.130300  1.0  -0.8727
  O  O482  1  0.376700  0.325600  0.915300  1.0  -0.7868
  O  O483  1  0.456900  0.311900  0.070600  1.0  -0.8161
  O  O484  1  0.420600  0.421900  0.209800  1.0  -0.828
  O  O485  1  0.294500  0.385700  0.228700  1.0  -0.6772
  O  O486  1  0.125700  0.495300  0.912200  1.0  -0.8762
  O  O487  1  0.256000  0.456800  0.822000  1.0  -0.8539
  O  O488  1  0.070900  0.494800  0.766700  1.0  -0.9085
  O  O489  1  0.138800  0.424900  0.732300  1.0  -0.8011
  O  O490  1  0.206700  0.528800  0.017800  1.0  -0.822
  O  O491  1  0.065900  0.503900  0.041600  1.0  -0.6166
  O  O492  1  0.408200  0.432800  0.848600  1.0  -0.7746
  O  O493  1  0.213400  0.371500  0.694700  1.0  -0.7942
  O  O494  1  0.345500  0.417200  0.701200  1.0  -0.793
  O  O495  1  0.445800  0.369400  0.790700  1.0  -0.7892
  O  O496  1  0.314200  0.323500  0.775600  1.0  -0.7729
  O  O497  1  0.057100  0.377600  0.668300  1.0  -0.6302
  O  O498  1  0.311100  0.272800  0.863200  1.0  -0.5898
  O  O499  1  0.476600  0.465100  0.729600  1.0  -0.8385
  O  O500  1  0.572100  0.418600  0.817100  1.0  -0.8263
  O  O501  1  0.556000  0.375000  0.240700  1.0  -0.7494
  O  O502  1  0.581000  0.378500  0.075000  1.0  -0.8631
  O  O503  1  0.640400  0.319100  0.126600  1.0  -0.756
  O  O504  1  0.612100  0.366300  0.898500  1.0  -0.8542
  O  O505  1  0.554200  0.310300  0.966600  1.0  -0.7607
  O  O506  1  0.565400  0.264600  0.068600  1.0  -0.6473
  O  O507  1  0.445400  0.262900  0.970400  1.0  -0.5844
  O  O508  1  0.526300  0.473600  0.275600  1.0  -0.8309
  O  O509  1  0.579900  0.432000  0.161700  1.0  -0.7663
  O  O510  1  0.657200  0.429500  0.306800  1.0  -0.7275
  O  O511  1  0.150000  0.574100  0.901900  1.0  -0.7746
  O  O512  1  0.155600  0.560600  0.731100  1.0  -0.8186
  O  O513  1  0.167400  0.493300  0.658400  1.0  -0.8415
  O  O514  1  0.341000  0.494600  0.679800  1.0  -0.8672
  O  O515  1  0.020900  0.523200  0.639300  1.0  -0.6026
  O  O516  1  0.026100  0.462400  0.644000  1.0  -0.6872
  O  O517  1  0.246000  0.627400  0.975800  1.0  -0.7545
  O  O518  1  0.295100  0.580600  0.094100  1.0  -0.8198
  O  O519  1  0.322600  0.568300  0.943100  1.0  -0.7589
  O  O520  1  0.697200  0.333600  0.262000  1.0  -0.789
  O  O521  1  0.709400  0.393800  0.173500  1.0  -0.9025
  O  O522  1  0.795200  0.385100  0.331000  1.0  -0.7584
  O  O523  1  0.205700  0.668100  0.850500  1.0  -0.8371
  O  O524  1  0.106500  0.616700  0.778400  1.0  -0.7601
  O  O525  1  0.470800  0.496300  0.601500  1.0  -0.6796
  O  O526  1  0.695500  0.382500  0.788400  1.0  -0.6752
  O  O527  1  0.734300  0.278700  0.200600  1.0  -0.6491
  O  O528  1  0.055400  0.597200  0.646300  1.0  -0.534
  O  O529  1  0.244400  0.871200  0.501400  1.0  -0.7455
  O  O530  1  0.196100  0.920400  0.391700  1.0  -0.8212
  O  O531  1  0.354100  0.918500  0.580500  1.0  -0.7886
  O  O532  1  0.303100  0.968000  0.466900  1.0  -0.8427
  O  O533  1  0.186200  0.932100  0.547200  1.0  -0.7924
  O  O534  1  0.213600  0.890900  0.657100  1.0  -0.8923
  O  O535  1  0.384800  0.870700  0.694600  1.0  -0.8176
  O  O536  1  0.282000  0.824000  0.615000  1.0  -0.774
  O  O537  1  0.104300  0.868400  0.369700  1.0  -0.8712
  O  O538  1  0.123300  0.825600  0.584700  1.0  -0.7862
  O  O539  1  0.043100  0.811900  0.429400  1.0  -0.8153
  O  O540  1  0.079400  0.921900  0.290200  1.0  -0.8277
  O  O541  1  0.205500  0.885700  0.271300  1.0  -0.6773
  O  O542  1  0.374300  0.995300  0.587800  1.0  -0.879
  O  O543  1  0.244000  0.956800  0.678000  1.0  -0.8543
  O  O544  1  0.429100  0.994800  0.733300  1.0  -0.9088
  O  O545  1  0.361200  0.924900  0.767700  1.0  -0.8005
  O  O546  1  0.293300  0.028800  0.482200  1.0  -0.8225
  O  O547  1  0.434100  0.003900  0.458400  1.0  -0.6174
  O  O548  1  0.091800  0.932800  0.651400  1.0  -0.7762
  O  O549  1  0.286600  0.871500  0.805300  1.0  -0.792
  O  O550  1  0.154500  0.917200  0.798800  1.0  -0.7915
  O  O551  1  0.054200  0.869400  0.709300  1.0  -0.7901
  O  O552  1  0.185800  0.823500  0.724400  1.0  -0.7716
  O  O553  1  0.442900  0.877600  0.831700  1.0  -0.6269
  O  O554  1  0.188900  0.772800  0.636800  1.0  -0.5853
  O  O555  1  0.023400  0.965100  0.770400  1.0  -0.8376
  O  O556  1  0.927900  0.918600  0.682900  1.0  -0.8255
  O  O557  1  0.944000  0.875000  0.259300  1.0  -0.7497
  O  O558  1  0.919000  0.878500  0.425000  1.0  -0.8641
  O  O559  1  0.859600  0.819100  0.373400  1.0  -0.7564
  O  O560  1  0.887900  0.866300  0.601500  1.0  -0.8559
  O  O561  1  0.945800  0.810300  0.533400  1.0  -0.7601
  O  O562  1  0.934600  0.764600  0.431400  1.0  -0.6477
  O  O563  1  0.054600  0.762900  0.529600  1.0  -0.5839
  O  O564  1  0.973700  0.973600  0.224400  1.0  -0.8313
  O  O565  1  0.920100  0.932000  0.338300  1.0  -0.7659
  O  O566  1  0.842800  0.929500  0.193200  1.0  -0.7248
  O  O567  1  0.350000  0.074100  0.598100  1.0  -0.7754
  O  O568  1  0.344400  0.060600  0.768900  1.0  -0.8165
  O  O569  1  0.332600  0.993300  0.841600  1.0  -0.8416
  O  O570  1  0.159000  0.994600  0.820200  1.0  -0.8695
  O  O571  1  0.479100  0.023200  0.860700  1.0  -0.6056
  O  O572  1  0.473900  0.962400  0.856000  1.0  -0.6857
  O  O573  1  0.254000  0.127400  0.524200  1.0  -0.7543
  O  O574  1  0.204900  0.080600  0.405900  1.0  -0.8204
  O  O575  1  0.177400  0.068300  0.556900  1.0  -0.7586
  O  O576  1  0.802800  0.833600  0.238000  1.0  -0.7943
  O  O577  1  0.790600  0.893800  0.326500  1.0  -0.9011
  O  O578  1  0.704800  0.885100  0.169000  1.0  -0.7569
  O  O579  1  0.294300  0.168100  0.649500  1.0  -0.8327
  O  O580  1  0.393500  0.116700  0.721600  1.0  -0.7598
  O  O581  1  0.029200  0.996300  0.898500  1.0  -0.6811
  O  O582  1  0.804500  0.882500  0.711600  1.0  -0.6753
  O  O583  1  0.765700  0.778700  0.299400  1.0  -0.6524
  O  O584  1  0.444600  0.097200  0.853700  1.0  -0.5338
