# generated using pymatgen
data_Zr3H12C32(OF)12
_symmetry_space_group_name_H-M   'P 1'
_cell_length_a   24.25700000
_cell_length_b   24.25700000
_cell_length_c   15.02500000
_cell_angle_alpha   90.00000000
_cell_angle_beta   90.00000000
_cell_angle_gamma   90.00000000
_symmetry_Int_Tables_number   1
_chemical_formula_structural   Zr3H12C32(OF)12
_chemical_formula_sum   'Zr12 H48 C128 O48 F48'
_cell_volume   8840.74078623
_cell_formula_units_Z   4
loop_
 _symmetry_equiv_pos_site_id
 _symmetry_equiv_pos_as_xyz
  1  'x, y, z'
loop_
 _atom_site_type_symbol
 _atom_site_label
 _atom_site_symmetry_multiplicity
 _atom_site_fract_x
 _atom_site_fract_y
 _atom_site_fract_z
 _atom_site_occupancy
 _atom_site_charge
  Zr  Zr1  1  0.399630  0.000000  0.000000  1.0  2.1688
  Zr  Zr2  1  0.600370  0.000000  0.000000  1.0  2.168
  Zr  Zr3  1  0.000000  0.399630  0.500000  1.0  2.1717
  Zr  Zr4  1  0.000000  0.600370  0.500000  1.0  2.1698
  Zr  Zr5  1  0.500000  0.072680  0.116890  1.0  2.1565
  Zr  Zr6  1  0.500000  0.927320  0.116890  1.0  2.1546
  Zr  Zr7  1  0.927320  0.500000  0.616890  1.0  2.1541
  Zr  Zr8  1  0.072680  0.500000  0.616890  1.0  2.1543
  Zr  Zr9  1  0.500000  0.072680  0.883110  1.0  2.1527
  Zr  Zr10  1  0.500000  0.927320  0.883110  1.0  2.1522
  Zr  Zr11  1  0.072680  0.500000  0.383110  1.0  2.1525
  Zr  Zr12  1  0.927320  0.500000  0.383110  1.0  2.1517
  H  H13  1  0.263100  0.104300  0.088400  1.0  0.1451
  H  H14  1  0.370000  0.164800  0.270000  1.0  0.1437
  H  H15  1  0.302500  0.227400  0.319500  1.0  0.1577
  H  H16  1  0.736900  0.895700  0.088400  1.0  0.1446
  H  H17  1  0.630000  0.835200  0.270000  1.0  0.1437
  H  H18  1  0.697500  0.772600  0.319500  1.0  0.1591
  H  H19  1  0.895700  0.263100  0.588400  1.0  0.1441
  H  H20  1  0.835200  0.370000  0.770000  1.0  0.1436
  H  H21  1  0.772600  0.302500  0.819500  1.0  0.1581
  H  H22  1  0.104300  0.736900  0.588400  1.0  0.1444
  H  H23  1  0.164800  0.630000  0.770000  1.0  0.1437
  H  H24  1  0.227400  0.697500  0.819500  1.0  0.1576
  H  H25  1  0.736900  0.104300  0.911600  1.0  0.1448
  H  H26  1  0.630000  0.164800  0.730000  1.0  0.1434
  H  H27  1  0.697500  0.227400  0.680500  1.0  0.1583
  H  H28  1  0.263100  0.895700  0.911600  1.0  0.144
  H  H29  1  0.370000  0.835200  0.730000  1.0  0.1442
  H  H30  1  0.302500  0.772600  0.680500  1.0  0.1582
  H  H31  1  0.104300  0.263100  0.411600  1.0  0.144
  H  H32  1  0.164800  0.370000  0.230000  1.0  0.1434
  H  H33  1  0.227400  0.302500  0.180500  1.0  0.1575
  H  H34  1  0.895700  0.736900  0.411600  1.0  0.1434
  H  H35  1  0.835200  0.630000  0.230000  1.0  0.1435
  H  H36  1  0.772600  0.697500  0.180500  1.0  0.1575
  H  H37  1  0.736900  0.895700  0.911600  1.0  0.1442
  H  H38  1  0.630000  0.835200  0.730000  1.0  0.1434
  H  H39  1  0.697500  0.772600  0.680500  1.0  0.1582
  H  H40  1  0.263100  0.104300  0.911600  1.0  0.1448
  H  H41  1  0.370000  0.164800  0.730000  1.0  0.1442
  H  H42  1  0.302500  0.227400  0.680500  1.0  0.1582
  H  H43  1  0.104300  0.736900  0.411600  1.0  0.1438
  H  H44  1  0.164800  0.630000  0.230000  1.0  0.1436
  H  H45  1  0.227400  0.697500  0.180500  1.0  0.1573
  H  H46  1  0.895700  0.263100  0.411600  1.0  0.1438
  H  H47  1  0.835200  0.370000  0.230000  1.0  0.1434
  H  H48  1  0.772600  0.302500  0.180500  1.0  0.1578
  H  H49  1  0.263100  0.895700  0.088400  1.0  0.1445
  H  H50  1  0.370000  0.835200  0.270000  1.0  0.1437
  H  H51  1  0.302500  0.772600  0.319500  1.0  0.1582
  H  H52  1  0.736900  0.104300  0.088400  1.0  0.1451
  H  H53  1  0.630000  0.164800  0.270000  1.0  0.1437
  H  H54  1  0.697500  0.227400  0.319500  1.0  0.1587
  H  H55  1  0.895700  0.736900  0.588400  1.0  0.1441
  H  H56  1  0.835200  0.630000  0.770000  1.0  0.1436
  H  H57  1  0.772600  0.697500  0.819500  1.0  0.1581
  H  H58  1  0.104300  0.263100  0.588400  1.0  0.1442
  H  H59  1  0.164800  0.370000  0.770000  1.0  0.1437
  H  H60  1  0.227400  0.302500  0.819500  1.0  0.1575
  C  C61  1  0.366600  0.093000  0.139300  1.0  0.7592
  C  C62  1  0.323000  0.128700  0.174400  1.0  -0.1103
  C  C63  1  0.271100  0.129300  0.135300  1.0  -0.0295
  C  C64  1  0.230300  0.166400  0.164000  1.0  0.0053
  C  C65  1  0.334600  0.165100  0.242900  1.0  -0.0095
  C  C66  1  0.243200  0.203000  0.233100  1.0  -0.0029
  C  C67  1  0.294400  0.202500  0.272500  1.0  -0.1282
  C  C68  1  0.175400  0.163200  0.114700  1.0  0.4785
  C  C69  1  0.633400  0.907000  0.139300  1.0  0.7593
  C  C70  1  0.677000  0.871300  0.174400  1.0  -0.1098
  C  C71  1  0.728900  0.870700  0.135300  1.0  -0.0292
  C  C72  1  0.769700  0.833600  0.164000  1.0  0.0061
  C  C73  1  0.665400  0.834900  0.242900  1.0  -0.0108
  C  C74  1  0.756800  0.797000  0.233100  1.0  -0.0032
  C  C75  1  0.705600  0.797500  0.272500  1.0  -0.1309
  C  C76  1  0.824600  0.836800  0.114700  1.0  0.4768
  C  C77  1  0.907000  0.366600  0.639300  1.0  0.7578
  C  C78  1  0.871300  0.323000  0.674400  1.0  -0.1116
  C  C79  1  0.870700  0.271100  0.635300  1.0  -0.0299
  C  C80  1  0.833600  0.230300  0.664000  1.0  0.0052
  C  C81  1  0.834900  0.334600  0.742900  1.0  -0.0135
  C  C82  1  0.797000  0.243200  0.733100  1.0  -0.0028
  C  C83  1  0.797500  0.294400  0.772500  1.0  -0.1313
  C  C84  1  0.836800  0.175400  0.614700  1.0  0.4842
  C  C85  1  0.093000  0.633400  0.639300  1.0  0.7586
  C  C86  1  0.128700  0.677000  0.674400  1.0  -0.1103
  C  C87  1  0.129300  0.728900  0.635300  1.0  -0.0307
  C  C88  1  0.166400  0.769700  0.664000  1.0  0.0046
  C  C89  1  0.165100  0.665400  0.742900  1.0  -0.0148
  C  C90  1  0.203000  0.756800  0.733100  1.0  -0.0033
  C  C91  1  0.202500  0.705600  0.772500  1.0  -0.129
  C  C92  1  0.163200  0.824600  0.614700  1.0  0.483
  C  C93  1  0.633400  0.093000  0.860700  1.0  0.7587
  C  C94  1  0.677000  0.128700  0.825600  1.0  -0.1108
  C  C95  1  0.728900  0.129300  0.864700  1.0  -0.0295
  C  C96  1  0.769700  0.166400  0.836000  1.0  0.0056
  C  C97  1  0.665400  0.165100  0.757100  1.0  -0.0105
  C  C98  1  0.756800  0.203000  0.766900  1.0  -0.0036
  C  C99  1  0.705600  0.202500  0.727500  1.0  -0.13
  C  C100  1  0.824600  0.163200  0.885300  1.0  0.4781
  C  C101  1  0.366600  0.907000  0.860700  1.0  0.7586
  C  C102  1  0.323000  0.871300  0.825600  1.0  -0.111
  C  C103  1  0.271100  0.870700  0.864700  1.0  -0.0278
  C  C104  1  0.230300  0.833600  0.836000  1.0  0.0057
  C  C105  1  0.334600  0.834900  0.757100  1.0  -0.0098
  C  C106  1  0.243200  0.797000  0.766900  1.0  -0.0032
  C  C107  1  0.294400  0.797500  0.727500  1.0  -0.1289
  C  C108  1  0.175400  0.836800  0.885300  1.0  0.4792
  C  C109  1  0.093000  0.366600  0.360700  1.0  0.7584
  C  C110  1  0.128700  0.323000  0.325600  1.0  -0.1099
  C  C111  1  0.129300  0.271100  0.364700  1.0  -0.0296
  C  C112  1  0.166400  0.230300  0.336000  1.0  0.0042
  C  C113  1  0.165100  0.334600  0.257100  1.0  -0.0151
  C  C114  1  0.203000  0.243200  0.266900  1.0  -0.0032
  C  C115  1  0.202500  0.294400  0.227500  1.0  -0.1286
  C  C116  1  0.163200  0.175400  0.385300  1.0  0.4857
  C  C117  1  0.907000  0.633400  0.360700  1.0  0.7573
  C  C118  1  0.871300  0.677000  0.325600  1.0  -0.111
  C  C119  1  0.870700  0.728900  0.364700  1.0  -0.0293
  C  C120  1  0.833600  0.769700  0.336000  1.0  0.0055
  C  C121  1  0.834900  0.665400  0.257100  1.0  -0.0135
  C  C122  1  0.797000  0.756800  0.266900  1.0  -0.0037
  C  C123  1  0.797500  0.705600  0.227500  1.0  -0.1289
  C  C124  1  0.836800  0.824600  0.385300  1.0  0.4831
  C  C125  1  0.633400  0.907000  0.860700  1.0  0.7589
  C  C126  1  0.677000  0.871300  0.825600  1.0  -0.1098
  C  C127  1  0.728900  0.870700  0.864700  1.0  -0.0284
  C  C128  1  0.769700  0.833600  0.836000  1.0  0.0059
  C  C129  1  0.665400  0.834900  0.757100  1.0  -0.01
  C  C130  1  0.756800  0.797000  0.766900  1.0  -0.0034
  C  C131  1  0.705600  0.797500  0.727500  1.0  -0.1311
  C  C132  1  0.824600  0.836800  0.885300  1.0  0.4779
  C  C133  1  0.366600  0.093000  0.860700  1.0  0.7583
  C  C134  1  0.323000  0.128700  0.825600  1.0  -0.1106
  C  C135  1  0.271100  0.129300  0.864700  1.0  -0.0289
  C  C136  1  0.230300  0.166400  0.836000  1.0  0.0052
  C  C137  1  0.334600  0.165100  0.757100  1.0  -0.0103
  C  C138  1  0.243200  0.203000  0.766900  1.0  -0.0032
  C  C139  1  0.294400  0.202500  0.727500  1.0  -0.1289
  C  C140  1  0.175400  0.163200  0.885300  1.0  0.479
  C  C141  1  0.093000  0.633400  0.360700  1.0  0.7582
  C  C142  1  0.128700  0.677000  0.325600  1.0  -0.1103
  C  C143  1  0.129300  0.728900  0.364700  1.0  -0.0298
  C  C144  1  0.166400  0.769700  0.336000  1.0  0.0047
  C  C145  1  0.165100  0.665400  0.257100  1.0  -0.0145
  C  C146  1  0.203000  0.756800  0.266900  1.0  -0.0037
  C  C147  1  0.202500  0.705600  0.227500  1.0  -0.1287
  C  C148  1  0.163200  0.824600  0.385300  1.0  0.4829
  C  C149  1  0.907000  0.366600  0.360700  1.0  0.7569
  C  C150  1  0.871300  0.323000  0.325600  1.0  -0.1114
  C  C151  1  0.870700  0.271100  0.364700  1.0  -0.0292
  C  C152  1  0.833600  0.230300  0.336000  1.0  0.0051
  C  C153  1  0.834900  0.334600  0.257100  1.0  -0.0149
  C  C154  1  0.797000  0.243200  0.266900  1.0  -0.0031
  C  C155  1  0.797500  0.294400  0.227500  1.0  -0.1311
  C  C156  1  0.836800  0.175400  0.385300  1.0  0.4851
  C  C157  1  0.366600  0.907000  0.139300  1.0  0.7595
  C  C158  1  0.323000  0.871300  0.174400  1.0  -0.1112
  C  C159  1  0.271100  0.870700  0.135300  1.0  -0.0284
  C  C160  1  0.230300  0.833600  0.164000  1.0  0.0057
  C  C161  1  0.334600  0.834900  0.242900  1.0  -0.0094
  C  C162  1  0.243200  0.797000  0.233100  1.0  -0.0028
  C  C163  1  0.294400  0.797500  0.272500  1.0  -0.128
  C  C164  1  0.175400  0.836800  0.114700  1.0  0.4783
  C  C165  1  0.633400  0.093000  0.139300  1.0  0.7589
  C  C166  1  0.677000  0.128700  0.174400  1.0  -0.1105
  C  C167  1  0.728900  0.129300  0.135300  1.0  -0.0303
  C  C168  1  0.769700  0.166400  0.164000  1.0  0.0059
  C  C169  1  0.665400  0.165100  0.242900  1.0  -0.0111
  C  C170  1  0.756800  0.203000  0.233100  1.0  -0.0034
  C  C171  1  0.705600  0.202500  0.272500  1.0  -0.1299
  C  C172  1  0.824600  0.163200  0.114700  1.0  0.4771
  C  C173  1  0.907000  0.633400  0.639300  1.0  0.7577
  C  C174  1  0.871300  0.677000  0.674400  1.0  -0.1111
  C  C175  1  0.870700  0.728900  0.635300  1.0  -0.0299
  C  C176  1  0.833600  0.769700  0.664000  1.0  0.0055
  C  C177  1  0.834900  0.665400  0.742900  1.0  -0.0139
  C  C178  1  0.797000  0.756800  0.733100  1.0  -0.0034
  C  C179  1  0.797500  0.705600  0.772500  1.0  -0.1297
  C  C180  1  0.836800  0.824600  0.614700  1.0  0.4826
  C  C181  1  0.093000  0.366600  0.639300  1.0  0.7589
  C  C182  1  0.128700  0.323000  0.674400  1.0  -0.1101
  C  C183  1  0.129300  0.271100  0.635300  1.0  -0.0306
  C  C184  1  0.166400  0.230300  0.664000  1.0  0.0042
  C  C185  1  0.165100  0.334600  0.742900  1.0  -0.0131
  C  C186  1  0.203000  0.243200  0.733100  1.0  -0.0028
  C  C187  1  0.202500  0.294400  0.772500  1.0  -0.1282
  C  C188  1  0.163200  0.175400  0.614700  1.0  0.4844
  O  O189  1  0.351890  0.054270  0.086500  1.0  -0.5741
  O  O190  1  0.417030  0.102800  0.164500  1.0  -0.6469
  O  O191  1  0.648110  0.945730  0.086500  1.0  -0.5739
  O  O192  1  0.582970  0.897200  0.164500  1.0  -0.6499
  O  O193  1  0.945730  0.351890  0.586500  1.0  -0.5728
  O  O194  1  0.897200  0.417030  0.664500  1.0  -0.6522
  O  O195  1  0.054270  0.648110  0.586500  1.0  -0.5728
  O  O196  1  0.102800  0.582970  0.664500  1.0  -0.65
  O  O197  1  0.648110  0.054270  0.913500  1.0  -0.5761
  O  O198  1  0.582970  0.102800  0.835500  1.0  -0.649
  O  O199  1  0.351890  0.945730  0.913500  1.0  -0.5755
  O  O200  1  0.417030  0.897200  0.835500  1.0  -0.6484
  O  O201  1  0.054270  0.351890  0.413500  1.0  -0.5733
  O  O202  1  0.102800  0.417030  0.335500  1.0  -0.6518
  O  O203  1  0.945730  0.648110  0.413500  1.0  -0.5755
  O  O204  1  0.897200  0.582970  0.335500  1.0  -0.6516
  O  O205  1  0.648110  0.945730  0.913500  1.0  -0.5758
  O  O206  1  0.582970  0.897200  0.835500  1.0  -0.6497
  O  O207  1  0.351890  0.054270  0.913500  1.0  -0.5757
  O  O208  1  0.417030  0.102800  0.835500  1.0  -0.6482
  O  O209  1  0.054270  0.648110  0.413500  1.0  -0.5749
  O  O210  1  0.102800  0.582970  0.335500  1.0  -0.6512
  O  O211  1  0.945730  0.351890  0.413500  1.0  -0.5741
  O  O212  1  0.897200  0.417030  0.335500  1.0  -0.6527
  O  O213  1  0.351890  0.945730  0.086500  1.0  -0.5738
  O  O214  1  0.417030  0.897200  0.164500  1.0  -0.647
  O  O215  1  0.648110  0.054270  0.086500  1.0  -0.5744
  O  O216  1  0.582970  0.102800  0.164500  1.0  -0.6488
  O  O217  1  0.945730  0.648110  0.586500  1.0  -0.5741
  O  O218  1  0.897200  0.582970  0.664500  1.0  -0.6521
  O  O219  1  0.054270  0.351890  0.586500  1.0  -0.5712
  O  O220  1  0.102800  0.417030  0.664500  1.0  -0.6499
  O  O221  1  0.450700  0.000000  0.116000  1.0  -1.1667
  O  O222  1  0.549300  0.000000  0.116000  1.0  -1.1654
  O  O223  1  0.000000  0.450700  0.616000  1.0  -1.1658
  O  O224  1  0.000000  0.549300  0.616000  1.0  -1.166
  O  O225  1  0.549300  0.000000  0.884000  1.0  -1.1709
  O  O226  1  0.450700  0.000000  0.884000  1.0  -1.1714
  O  O227  1  0.000000  0.450700  0.384000  1.0  -1.1714
  O  O228  1  0.000000  0.549300  0.384000  1.0  -1.1716
  O  O229  1  0.451100  0.927200  0.000000  1.0  -1.1514
  O  O230  1  0.548900  0.072800  0.000000  1.0  -1.1525
  O  O231  1  0.072800  0.451100  0.500000  1.0  -1.1516
  O  O232  1  0.927200  0.548900  0.500000  1.0  -1.1541
  O  O233  1  0.548900  0.927200  0.000000  1.0  -1.1504
  O  O234  1  0.451100  0.072800  0.000000  1.0  -1.1527
  O  O235  1  0.927200  0.451100  0.500000  1.0  -1.1541
  O  O236  1  0.072800  0.548900  0.500000  1.0  -1.1508
  F  F237  1  0.132200  0.151200  0.166700  1.0  -0.1371
  F  F238  1  0.162700  0.210500  0.073400  1.0  -0.1471
  F  F239  1  0.176300  0.124400  0.051300  1.0  -0.35
  F  F240  1  0.867800  0.848800  0.166700  1.0  -0.1374
  F  F241  1  0.837300  0.789500  0.073400  1.0  -0.1481
  F  F242  1  0.823700  0.875600  0.051300  1.0  -0.3565
  F  F243  1  0.848800  0.132200  0.666667  1.0  -0.1385
  F  F244  1  0.789500  0.162700  0.573400  1.0  -0.1483
  F  F245  1  0.875600  0.176300  0.551300  1.0  -0.3574
  F  F246  1  0.151200  0.867800  0.666667  1.0  -0.14
  F  F247  1  0.210500  0.837300  0.573400  1.0  -0.1479
  F  F248  1  0.124400  0.823700  0.551300  1.0  -0.3522
  F  F249  1  0.867800  0.151200  0.833300  1.0  -0.1383
  F  F250  1  0.837300  0.210500  0.926600  1.0  -0.1467
  F  F251  1  0.823700  0.124400  0.948700  1.0  -0.3569
  F  F252  1  0.132200  0.848800  0.833300  1.0  -0.1389
  F  F253  1  0.162700  0.789500  0.926600  1.0  -0.1455
  F  F254  1  0.176300  0.875600  0.948700  1.0  -0.3507
  F  F255  1  0.151200  0.132200  0.333333  1.0  -0.1392
  F  F256  1  0.210500  0.162700  0.426600  1.0  -0.1479
  F  F257  1  0.124400  0.176300  0.448700  1.0  -0.353
  F  F258  1  0.848800  0.867800  0.333333  1.0  -0.1399
  F  F259  1  0.789500  0.837300  0.426600  1.0  -0.1472
  F  F260  1  0.875600  0.823700  0.448700  1.0  -0.3574
  F  F261  1  0.867800  0.848800  0.833300  1.0  -0.1386
  F  F262  1  0.837300  0.789500  0.926600  1.0  -0.1473
  F  F263  1  0.823700  0.875600  0.948700  1.0  -0.3573
  F  F264  1  0.132200  0.151200  0.833300  1.0  -0.1382
  F  F265  1  0.162700  0.210500  0.926600  1.0  -0.1471
  F  F266  1  0.176300  0.124400  0.948700  1.0  -0.3495
  F  F267  1  0.151200  0.867800  0.333333  1.0  -0.1408
  F  F268  1  0.210500  0.837300  0.426600  1.0  -0.1473
  F  F269  1  0.124400  0.823700  0.448700  1.0  -0.3517
  F  F270  1  0.848800  0.132200  0.333333  1.0  -0.1394
  F  F271  1  0.789500  0.162700  0.426600  1.0  -0.1475
  F  F272  1  0.875600  0.176300  0.448700  1.0  -0.358
  F  F273  1  0.132200  0.848800  0.166700  1.0  -0.138
  F  F274  1  0.162700  0.789500  0.073400  1.0  -0.1466
  F  F275  1  0.176300  0.875600  0.051300  1.0  -0.3512
  F  F276  1  0.867800  0.151200  0.166700  1.0  -0.1372
  F  F277  1  0.837300  0.210500  0.073400  1.0  -0.1469
  F  F278  1  0.823700  0.124400  0.051300  1.0  -0.3563
  F  F279  1  0.848800  0.867800  0.666667  1.0  -0.1391
  F  F280  1  0.789500  0.837300  0.573400  1.0  -0.1478
  F  F281  1  0.875600  0.823700  0.551300  1.0  -0.3572
  F  F282  1  0.151200  0.132200  0.666667  1.0  -0.1383
  F  F283  1  0.210500  0.162700  0.573400  1.0  -0.1487
  F  F284  1  0.124400  0.176300  0.551300  1.0  -0.3534
