# generated using pymatgen
data_Zr3H24(C8O3)4
_symmetry_space_group_name_H-M   'P 1'
_cell_length_a   35.12600000
_cell_length_b   35.12600000
_cell_length_c   11.23900000
_cell_angle_alpha   90.00000000
_cell_angle_beta   90.00000000
_cell_angle_gamma   90.00000000
_symmetry_Int_Tables_number   1
_chemical_formula_structural   Zr3H24(C8O3)4
_chemical_formula_sum   'Zr24 H192 C256 O96'
_cell_volume   13867.08141036
_cell_formula_units_Z   8
loop_
 _symmetry_equiv_pos_site_id
 _symmetry_equiv_pos_as_xyz
  1  'x, y, z'
loop_
 _atom_site_type_symbol
 _atom_site_label
 _atom_site_symmetry_multiplicity
 _atom_site_fract_x
 _atom_site_fract_y
 _atom_site_fract_z
 _atom_site_occupancy
 _atom_site_charge
  Zr  Zr1  1  0.450580  0.549420  0.500000  1.0  2.0987
  Zr  Zr2  1  0.049420  0.950580  0.500000  1.0  2.1003
  Zr  Zr3  1  0.950580  0.450580  0.000000  1.0  2.0988
  Zr  Zr4  1  0.549420  0.049420  0.000000  1.0  2.1001
  Zr  Zr5  1  0.549420  0.450580  0.500000  1.0  2.1031
  Zr  Zr6  1  0.950580  0.049420  0.500000  1.0  2.1013
  Zr  Zr7  1  0.049420  0.549420  0.000000  1.0  2.1028
  Zr  Zr8  1  0.450580  0.950580  0.000000  1.0  2.1015
  Zr  Zr9  1  0.543690  0.543690  0.612400  1.0  2.0478
  Zr  Zr10  1  0.525360  0.525360  0.309050  1.0  2.0595
  Zr  Zr11  1  0.956310  0.956310  0.612400  1.0  2.051
  Zr  Zr12  1  0.974640  0.974640  0.309050  1.0  2.0599
  Zr  Zr13  1  0.956310  0.543690  0.112400  1.0  2.0503
  Zr  Zr14  1  0.974640  0.525360  0.809050  1.0  2.06
  Zr  Zr15  1  0.543690  0.956310  0.112400  1.0  2.0468
  Zr  Zr16  1  0.525360  0.974640  0.809050  1.0  2.0596
  Zr  Zr17  1  0.456310  0.043690  0.887600  1.0  2.0503
  Zr  Zr18  1  0.474640  0.025360  0.190950  1.0  2.0591
  Zr  Zr19  1  0.043690  0.456310  0.887600  1.0  2.0479
  Zr  Zr20  1  0.025360  0.474640  0.190950  1.0  2.0593
  Zr  Zr21  1  0.043690  0.043690  0.387600  1.0  2.0475
  Zr  Zr22  1  0.025360  0.025360  0.690950  1.0  2.0596
  Zr  Zr23  1  0.456310  0.456310  0.387600  1.0  2.0519
  Zr  Zr24  1  0.474640  0.474640  0.690950  1.0  2.0586
  H  H25  1  0.776800  0.450800  0.860500  1.0  0.1258
  H  H26  1  0.842200  0.443700  0.893200  1.0  0.1144
  H  H27  1  0.732200  0.427700  0.648900  1.0  0.133
  H  H28  1  0.666667  0.430800  0.615000  1.0  0.1237
  H  H29  1  0.668800  0.544400  0.677100  1.0  0.1297
  H  H30  1  0.783800  0.536000  0.511400  1.0  0.1269
  H  H31  1  0.782400  0.494500  0.452800  1.0  0.1379
  H  H32  1  0.821600  0.517700  0.456300  1.0  0.1253
  H  H33  1  0.864100  0.499900  0.585800  1.0  0.1317
  H  H34  1  0.723400  0.577500  0.733500  1.0  0.1262
  H  H35  1  0.759600  0.563600  0.659000  1.0  0.1433
  H  H36  1  0.756300  0.553500  0.797500  1.0  0.1391
  H  H37  1  0.723200  0.049200  0.860500  1.0  0.1248
  H  H38  1  0.657800  0.056300  0.893200  1.0  0.1143
  H  H39  1  0.767800  0.072300  0.648900  1.0  0.1347
  H  H40  1  0.833400  0.069200  0.615000  1.0  0.1249
  H  H41  1  0.831200  0.955600  0.677100  1.0  0.129
  H  H42  1  0.716200  0.964000  0.511400  1.0  0.1257
  H  H43  1  0.717600  0.005500  0.452800  1.0  0.1387
  H  H44  1  0.678400  0.982300  0.456300  1.0  0.1248
  H  H45  1  0.635900  0.000100  0.585800  1.0  0.1309
  H  H46  1  0.776600  0.922500  0.733500  1.0  0.1255
  H  H47  1  0.740400  0.936400  0.659000  1.0  0.1418
  H  H48  1  0.743700  0.946500  0.797500  1.0  0.1394
  H  H49  1  0.049200  0.776800  0.360500  1.0  0.1244
  H  H50  1  0.056300  0.842200  0.393200  1.0  0.1129
  H  H51  1  0.072300  0.732200  0.148900  1.0  0.1328
  H  H52  1  0.069200  0.666667  0.115000  1.0  0.1245
  H  H53  1  0.955600  0.668800  0.177100  1.0  0.1285
  H  H54  1  0.964000  0.783800  0.011400  1.0  0.1276
  H  H55  1  0.005500  0.782400  0.952800  1.0  0.1373
  H  H56  1  0.982300  0.821600  0.956300  1.0  0.1226
  H  H57  1  0.000100  0.864100  0.085800  1.0  0.1317
  H  H58  1  0.922500  0.723400  0.233500  1.0  0.1271
  H  H59  1  0.936400  0.759600  0.159000  1.0  0.143
  H  H60  1  0.946500  0.756300  0.297500  1.0  0.1388
  H  H61  1  0.450800  0.723200  0.360500  1.0  0.1247
  H  H62  1  0.443700  0.657800  0.393200  1.0  0.1131
  H  H63  1  0.427700  0.767800  0.148900  1.0  0.1348
  H  H64  1  0.430800  0.833400  0.115000  1.0  0.1242
  H  H65  1  0.544400  0.831200  0.177100  1.0  0.1291
  H  H66  1  0.536000  0.716200  0.011400  1.0  0.1262
  H  H67  1  0.494500  0.717600  0.952800  1.0  0.1373
  H  H68  1  0.517700  0.678400  0.956300  1.0  0.1222
  H  H69  1  0.499900  0.635900  0.085800  1.0  0.1318
  H  H70  1  0.577500  0.776600  0.233500  1.0  0.1283
  H  H71  1  0.563600  0.740400  0.159000  1.0  0.1419
  H  H72  1  0.553500  0.743700  0.297500  1.0  0.1381
  H  H73  1  0.223200  0.950800  0.639500  1.0  0.1257
  H  H74  1  0.157800  0.943700  0.606800  1.0  0.114
  H  H75  1  0.267800  0.927700  0.851100  1.0  0.1342
  H  H76  1  0.333400  0.930800  0.885000  1.0  0.1241
  H  H77  1  0.331200  0.044400  0.822900  1.0  0.1292
  H  H78  1  0.216200  0.036000  0.988600  1.0  0.1263
  H  H79  1  0.217600  0.994500  0.047200  1.0  0.1381
  H  H80  1  0.178400  0.017700  0.043700  1.0  0.1252
  H  H81  1  0.135900  0.999900  0.914200  1.0  0.1313
  H  H82  1  0.276600  0.077500  0.766500  1.0  0.1267
  H  H83  1  0.240400  0.063600  0.841000  1.0  0.1424
  H  H84  1  0.243700  0.053500  0.702500  1.0  0.1389
  H  H85  1  0.276800  0.549200  0.639500  1.0  0.126
  H  H86  1  0.342200  0.556300  0.606800  1.0  0.1138
  H  H87  1  0.232200  0.572300  0.851100  1.0  0.1344
  H  H88  1  0.166600  0.569200  0.885000  1.0  0.1256
  H  H89  1  0.168800  0.455600  0.822900  1.0  0.1287
  H  H90  1  0.283800  0.464000  0.988600  1.0  0.1269
  H  H91  1  0.282400  0.505500  0.047200  1.0  0.1372
  H  H92  1  0.321600  0.482300  0.043700  1.0  0.125
  H  H93  1  0.364100  0.500100  0.914200  1.0  0.1313
  H  H94  1  0.223400  0.422500  0.766500  1.0  0.1262
  H  H95  1  0.259600  0.436400  0.841000  1.0  0.1424
  H  H96  1  0.256300  0.446500  0.702500  1.0  0.1367
  H  H97  1  0.950800  0.276800  0.139500  1.0  0.1248
  H  H98  1  0.943700  0.342200  0.106800  1.0  0.1126
  H  H99  1  0.927700  0.232200  0.351100  1.0  0.1341
  H  H100  1  0.930800  0.166600  0.385000  1.0  0.1244
  H  H101  1  0.044400  0.168800  0.322900  1.0  0.1285
  H  H102  1  0.036000  0.283800  0.488600  1.0  0.1264
  H  H103  1  0.994500  0.282400  0.547200  1.0  0.1368
  H  H104  1  0.017700  0.321600  0.543700  1.0  0.1227
  H  H105  1  0.999900  0.364100  0.414200  1.0  0.132
  H  H106  1  0.077500  0.223400  0.266500  1.0  0.129
  H  H107  1  0.063600  0.259600  0.341000  1.0  0.1418
  H  H108  1  0.053500  0.256300  0.202500  1.0  0.1382
  H  H109  1  0.549200  0.223200  0.139500  1.0  0.1251
  H  H110  1  0.556300  0.157800  0.106800  1.0  0.1128
  H  H111  1  0.572300  0.267800  0.351100  1.0  0.1337
  H  H112  1  0.569200  0.333400  0.385000  1.0  0.1246
  H  H113  1  0.455600  0.331200  0.322900  1.0  0.1288
  H  H114  1  0.464000  0.216200  0.488600  1.0  0.1276
  H  H115  1  0.505500  0.217600  0.547200  1.0  0.1367
  H  H116  1  0.482300  0.178400  0.543700  1.0  0.1226
  H  H117  1  0.500100  0.135900  0.414200  1.0  0.132
  H  H118  1  0.422500  0.276600  0.266500  1.0  0.1276
  H  H119  1  0.436400  0.240400  0.341000  1.0  0.1422
  H  H120  1  0.446500  0.243700  0.202500  1.0  0.1382
  H  H121  1  0.223200  0.549200  0.139500  1.0  0.1257
  H  H122  1  0.157800  0.556300  0.106800  1.0  0.114
  H  H123  1  0.267800  0.572300  0.351100  1.0  0.1346
  H  H124  1  0.333400  0.569200  0.385000  1.0  0.1249
  H  H125  1  0.331200  0.455600  0.322900  1.0  0.1292
  H  H126  1  0.216200  0.464000  0.488600  1.0  0.1261
  H  H127  1  0.217600  0.505500  0.547200  1.0  0.1373
  H  H128  1  0.178400  0.482300  0.543700  1.0  0.1253
  H  H129  1  0.135900  0.500100  0.414200  1.0  0.1313
  H  H130  1  0.276600  0.422500  0.266500  1.0  0.126
  H  H131  1  0.240400  0.436400  0.341000  1.0  0.1422
  H  H132  1  0.243700  0.446500  0.202500  1.0  0.1367
  H  H133  1  0.276800  0.950800  0.139500  1.0  0.1256
  H  H134  1  0.342200  0.943700  0.106800  1.0  0.1141
  H  H135  1  0.232200  0.927700  0.351100  1.0  0.1347
  H  H136  1  0.166600  0.930800  0.385000  1.0  0.1237
  H  H137  1  0.168800  0.044400  0.322900  1.0  0.1299
  H  H138  1  0.283800  0.036000  0.488600  1.0  0.1269
  H  H139  1  0.282400  0.994500  0.547200  1.0  0.1376
  H  H140  1  0.321600  0.017700  0.543700  1.0  0.1248
  H  H141  1  0.364100  0.999900  0.414200  1.0  0.1314
  H  H142  1  0.223400  0.077500  0.266500  1.0  0.1269
  H  H143  1  0.259600  0.063600  0.341000  1.0  0.1425
  H  H144  1  0.256300  0.053500  0.202500  1.0  0.139
  H  H145  1  0.950800  0.223200  0.639500  1.0  0.1252
  H  H146  1  0.943700  0.157800  0.606800  1.0  0.1126
  H  H147  1  0.927700  0.267800  0.851100  1.0  0.1346
  H  H148  1  0.930800  0.333400  0.885000  1.0  0.1242
  H  H149  1  0.044400  0.331200  0.822900  1.0  0.1292
  H  H150  1  0.036000  0.216200  0.988600  1.0  0.1263
  H  H151  1  0.994500  0.217600  0.047200  1.0  0.1369
  H  H152  1  0.017700  0.178400  0.043700  1.0  0.1226
  H  H153  1  0.999900  0.135900  0.914200  1.0  0.1321
  H  H154  1  0.077500  0.276600  0.766500  1.0  0.1287
  H  H155  1  0.063600  0.240400  0.841000  1.0  0.1417
  H  H156  1  0.053500  0.243700  0.702500  1.0  0.1378
  H  H157  1  0.549200  0.276800  0.639500  1.0  0.1248
  H  H158  1  0.556300  0.342200  0.606800  1.0  0.1128
  H  H159  1  0.572300  0.232200  0.851100  1.0  0.1338
  H  H160  1  0.569200  0.166600  0.885000  1.0  0.1247
  H  H161  1  0.455600  0.168800  0.822900  1.0  0.1286
  H  H162  1  0.464000  0.283800  0.988600  1.0  0.1279
  H  H163  1  0.505500  0.282400  0.047200  1.0  0.1368
  H  H164  1  0.482300  0.321600  0.043700  1.0  0.1225
  H  H165  1  0.500100  0.364100  0.914200  1.0  0.1319
  H  H166  1  0.422500  0.223400  0.766500  1.0  0.128
  H  H167  1  0.436400  0.259600  0.841000  1.0  0.1424
  H  H168  1  0.446500  0.256300  0.702500  1.0  0.1385
  H  H169  1  0.776800  0.049200  0.360500  1.0  0.1255
  H  H170  1  0.842200  0.056300  0.393200  1.0  0.1142
  H  H171  1  0.732200  0.072300  0.148900  1.0  0.1331
  H  H172  1  0.666667  0.069200  0.115000  1.0  0.1254
  H  H173  1  0.668800  0.955600  0.177100  1.0  0.1285
  H  H174  1  0.783800  0.964000  0.011400  1.0  0.1265
  H  H175  1  0.782400  0.005500  0.952800  1.0  0.138
  H  H176  1  0.821600  0.982300  0.956300  1.0  0.1252
  H  H177  1  0.864100  0.000100  0.085800  1.0  0.1315
  H  H178  1  0.723400  0.922500  0.233500  1.0  0.1252
  H  H179  1  0.759600  0.936400  0.159000  1.0  0.1422
  H  H180  1  0.756300  0.946500  0.297500  1.0  0.1381
  H  H181  1  0.723200  0.450800  0.360500  1.0  0.125
  H  H182  1  0.657800  0.443700  0.393200  1.0  0.1144
  H  H183  1  0.767800  0.427700  0.148900  1.0  0.1342
  H  H184  1  0.833400  0.430800  0.115000  1.0  0.1242
  H  H185  1  0.831200  0.544400  0.177100  1.0  0.1291
  H  H186  1  0.716200  0.536000  0.011400  1.0  0.1265
  H  H187  1  0.717600  0.494500  0.952800  1.0  0.1385
  H  H188  1  0.678400  0.517700  0.956300  1.0  0.125
  H  H189  1  0.635900  0.499900  0.085800  1.0  0.1311
  H  H190  1  0.776600  0.577500  0.233500  1.0  0.1265
  H  H191  1  0.740400  0.563600  0.159000  1.0  0.1431
  H  H192  1  0.743700  0.553500  0.297500  1.0  0.1397
  H  H193  1  0.049200  0.723200  0.860500  1.0  0.1237
  H  H194  1  0.056300  0.657800  0.893200  1.0  0.1132
  H  H195  1  0.072300  0.767800  0.648900  1.0  0.134
  H  H196  1  0.069200  0.833400  0.615000  1.0  0.1244
  H  H197  1  0.955600  0.831200  0.677100  1.0  0.1287
  H  H198  1  0.964000  0.716200  0.511400  1.0  0.1273
  H  H199  1  0.005500  0.717600  0.452800  1.0  0.1374
  H  H200  1  0.982300  0.678400  0.456300  1.0  0.1219
  H  H201  1  0.000100  0.635900  0.585800  1.0  0.1314
  H  H202  1  0.922500  0.776600  0.733500  1.0  0.1268
  H  H203  1  0.936400  0.740400  0.659000  1.0  0.1419
  H  H204  1  0.946500  0.743700  0.797500  1.0  0.1392
  H  H205  1  0.450800  0.776800  0.860500  1.0  0.1252
  H  H206  1  0.443700  0.842200  0.893200  1.0  0.1126
  H  H207  1  0.427700  0.732200  0.648900  1.0  0.1326
  H  H208  1  0.430800  0.666667  0.615000  1.0  0.1247
  H  H209  1  0.544400  0.668800  0.677100  1.0  0.1284
  H  H210  1  0.536000  0.783800  0.511400  1.0  0.1265
  H  H211  1  0.494500  0.782400  0.452800  1.0  0.1373
  H  H212  1  0.517700  0.821600  0.456300  1.0  0.1227
  H  H213  1  0.499900  0.864100  0.585800  1.0  0.1317
  H  H214  1  0.577500  0.723400  0.733500  1.0  0.1283
  H  H215  1  0.563600  0.759600  0.659000  1.0  0.1425
  H  H216  1  0.553500  0.756300  0.797500  1.0  0.138
  C  C217  1  0.794560  0.460790  0.804800  1.0  -0.1213
  C  C218  1  0.807520  0.494210  0.622100  1.0  0.0366
  C  C219  1  0.833380  0.456530  0.824200  1.0  -0.036
  C  C220  1  0.859320  0.471120  0.742500  1.0  -0.1344
  C  C221  1  0.719320  0.451380  0.654600  1.0  -0.123
  C  C222  1  0.680320  0.453240  0.634500  1.0  -0.0809
  C  C223  1  0.661490  0.487930  0.642900  1.0  -0.1181
  C  C224  1  0.720650  0.518880  0.691500  1.0  0.0346
  C  C225  1  0.681640  0.520740  0.671400  1.0  -0.0962
  C  C226  1  0.797900  0.512300  0.499300  1.0  -0.3107
  C  C227  1  0.846410  0.489940  0.641600  1.0  -0.0994
  C  C228  1  0.781660  0.479650  0.703600  1.0  0.0266
  C  C229  1  0.900600  0.470900  0.771100  1.0  0.7483
  C  C230  1  0.739500  0.484190  0.683000  1.0  0.0448
  C  C231  1  0.620100  0.489930  0.621500  1.0  0.7176
  C  C232  1  0.742000  0.557000  0.723400  1.0  -0.3696
  C  C233  1  0.705440  0.039210  0.804800  1.0  -0.1219
  C  C234  1  0.692480  0.005790  0.622100  1.0  0.0354
  C  C235  1  0.666667  0.043470  0.824200  1.0  -0.0346
  C  C236  1  0.640680  0.028880  0.742500  1.0  -0.1337
  C  C237  1  0.780680  0.048620  0.654600  1.0  -0.1172
  C  C238  1  0.819680  0.046760  0.634500  1.0  -0.0845
  C  C239  1  0.838510  0.012070  0.642900  1.0  -0.1181
  C  C240  1  0.779350  0.981120  0.691500  1.0  0.0355
  C  C241  1  0.818360  0.979260  0.671400  1.0  -0.0975
  C  C242  1  0.702100  0.987700  0.499300  1.0  -0.3104
  C  C243  1  0.653590  0.010060  0.641600  1.0  -0.0962
  C  C244  1  0.718340  0.020350  0.703600  1.0  0.0269
  C  C245  1  0.599400  0.029100  0.771100  1.0  0.7513
  C  C246  1  0.760500  0.015810  0.683000  1.0  0.0448
  C  C247  1  0.879900  0.010070  0.621500  1.0  0.7173
  C  C248  1  0.758000  0.943000  0.723400  1.0  -0.368
  C  C249  1  0.039210  0.794560  0.304800  1.0  -0.1175
  C  C250  1  0.005790  0.807520  0.122100  1.0  0.0385
  C  C251  1  0.043470  0.833380  0.324200  1.0  -0.0332
  C  C252  1  0.028880  0.859320  0.242500  1.0  -0.1332
  C  C253  1  0.048620  0.719320  0.154600  1.0  -0.1162
  C  C254  1  0.046760  0.680320  0.134500  1.0  -0.08
  C  C255  1  0.012070  0.661490  0.142900  1.0  -0.1156
  C  C256  1  0.981120  0.720650  0.191500  1.0  0.0351
  C  C257  1  0.979260  0.681640  0.171400  1.0  -0.0954
  C  C258  1  0.987700  0.797900  0.999300  1.0  -0.3095
  C  C259  1  0.010060  0.846410  0.141600  1.0  -0.0996
  C  C260  1  0.020350  0.781660  0.203600  1.0  0.0265
  C  C261  1  0.029100  0.900600  0.271100  1.0  0.7493
  C  C262  1  0.015810  0.739500  0.183000  1.0  0.0456
  C  C263  1  0.010070  0.620100  0.121500  1.0  0.7189
  C  C264  1  0.943000  0.742000  0.223400  1.0  -0.3688
  C  C265  1  0.460790  0.705440  0.304800  1.0  -0.1173
  C  C266  1  0.494210  0.692480  0.122100  1.0  0.0381
  C  C267  1  0.456530  0.666667  0.324200  1.0  -0.0305
  C  C268  1  0.471120  0.640680  0.242500  1.0  -0.1334
  C  C269  1  0.451380  0.780680  0.154600  1.0  -0.1118
  C  C270  1  0.453240  0.819680  0.134500  1.0  -0.0793
  C  C271  1  0.487930  0.838510  0.142900  1.0  -0.1137
  C  C272  1  0.518880  0.779350  0.191500  1.0  0.0357
  C  C273  1  0.520740  0.818360  0.171400  1.0  -0.0954
  C  C274  1  0.512300  0.702100  0.999300  1.0  -0.311
  C  C275  1  0.489940  0.653590  0.141600  1.0  -0.096
  C  C276  1  0.479650  0.718340  0.203600  1.0  0.0259
  C  C277  1  0.470900  0.599400  0.271100  1.0  0.75
  C  C278  1  0.484190  0.760500  0.183000  1.0  0.0437
  C  C279  1  0.489930  0.879900  0.121500  1.0  0.719
  C  C280  1  0.557000  0.758000  0.223400  1.0  -0.3698
  C  C281  1  0.205440  0.960790  0.695200  1.0  -0.1208
  C  C282  1  0.192480  0.994210  0.877900  1.0  0.0349
  C  C283  1  0.166620  0.956530  0.675800  1.0  -0.0359
  C  C284  1  0.140680  0.971120  0.757500  1.0  -0.1338
  C  C285  1  0.280680  0.951380  0.845400  1.0  -0.1196
  C  C286  1  0.319680  0.953240  0.865500  1.0  -0.0835
  C  C287  1  0.338510  0.987930  0.857100  1.0  -0.1185
  C  C288  1  0.279350  0.018880  0.808500  1.0  0.037
  C  C289  1  0.318360  0.020740  0.828600  1.0  -0.0976
  C  C290  1  0.202100  0.012300  0.000700  1.0  -0.3104
  C  C291  1  0.153590  0.989940  0.858400  1.0  -0.0993
  C  C292  1  0.218340  0.979650  0.796400  1.0  0.0268
  C  C293  1  0.099400  0.970900  0.728900  1.0  0.7488
  C  C294  1  0.260500  0.984190  0.817000  1.0  0.0439
  C  C295  1  0.379900  0.989930  0.878500  1.0  0.7173
  C  C296  1  0.258000  0.057000  0.776600  1.0  -0.3705
  C  C297  1  0.294560  0.539210  0.695200  1.0  -0.1216
  C  C298  1  0.307520  0.505790  0.877900  1.0  0.0366
  C  C299  1  0.333380  0.543470  0.675800  1.0  -0.0354
  C  C300  1  0.359320  0.528880  0.757500  1.0  -0.134
  C  C301  1  0.219320  0.548620  0.845400  1.0  -0.117
  C  C302  1  0.180320  0.546760  0.865500  1.0  -0.0843
  C  C303  1  0.161490  0.512070  0.857100  1.0  -0.119
  C  C304  1  0.220650  0.481120  0.808500  1.0  0.0345
  C  C305  1  0.181640  0.479260  0.828600  1.0  -0.095
  C  C306  1  0.297900  0.487700  0.000700  1.0  -0.3107
  C  C307  1  0.346410  0.510060  0.858400  1.0  -0.099
  C  C308  1  0.281660  0.520350  0.796400  1.0  0.0278
  C  C309  1  0.400600  0.529100  0.728900  1.0  0.7489
  C  C310  1  0.239500  0.515810  0.817000  1.0  0.0449
  C  C311  1  0.120100  0.510070  0.878500  1.0  0.7169
  C  C312  1  0.242000  0.443000  0.776600  1.0  -0.3683
  C  C313  1  0.960790  0.294560  0.195200  1.0  -0.1166
  C  C314  1  0.994210  0.307520  0.377900  1.0  0.0383
  C  C315  1  0.956530  0.333380  0.175800  1.0  -0.0321
  C  C316  1  0.971120  0.359320  0.257500  1.0  -0.1337
  C  C317  1  0.951380  0.219320  0.345400  1.0  -0.1124
  C  C318  1  0.953240  0.180320  0.365500  1.0  -0.0801
  C  C319  1  0.987930  0.161490  0.357100  1.0  -0.1167
  C  C320  1  0.018880  0.220650  0.308500  1.0  0.0361
  C  C321  1  0.020740  0.181640  0.328600  1.0  -0.0974
  C  C322  1  0.012300  0.297900  0.500700  1.0  -0.3104
  C  C323  1  0.989940  0.346410  0.358400  1.0  -0.0978
  C  C324  1  0.979650  0.281660  0.296400  1.0  0.0264
  C  C325  1  0.970900  0.400600  0.228900  1.0  0.7483
  C  C326  1  0.984190  0.239500  0.317000  1.0  0.0438
  C  C327  1  0.989930  0.120100  0.378500  1.0  0.7183
  C  C328  1  0.057000  0.242000  0.276600  1.0  -0.3694
  C  C329  1  0.539210  0.205440  0.195200  1.0  -0.1171
  C  C330  1  0.505790  0.192480  0.377900  1.0  0.0384
  C  C331  1  0.543470  0.166620  0.175800  1.0  -0.0337
  C  C332  1  0.528880  0.140680  0.257500  1.0  -0.1323
  C  C333  1  0.548620  0.280680  0.345400  1.0  -0.1136
  C  C334  1  0.546760  0.319680  0.365500  1.0  -0.0782
  C  C335  1  0.512070  0.338510  0.357100  1.0  -0.1138
  C  C336  1  0.481120  0.279350  0.308500  1.0  0.0347
  C  C337  1  0.479260  0.318360  0.328600  1.0  -0.096
  C  C338  1  0.487700  0.202100  0.500700  1.0  -0.3106
  C  C339  1  0.510060  0.153590  0.358400  1.0  -0.0962
  C  C340  1  0.520350  0.218340  0.296400  1.0  0.0264
  C  C341  1  0.529100  0.099400  0.228900  1.0  0.7502
  C  C342  1  0.515810  0.260500  0.317000  1.0  0.0453
  C  C343  1  0.510070  0.379900  0.378500  1.0  0.719
  C  C344  1  0.443000  0.258000  0.276600  1.0  -0.3695
  C  C345  1  0.205440  0.539210  0.195200  1.0  -0.1206
  C  C346  1  0.192480  0.505790  0.377900  1.0  0.0353
  C  C347  1  0.166620  0.543470  0.175800  1.0  -0.0351
  C  C348  1  0.140680  0.528880  0.257500  1.0  -0.1335
  C  C349  1  0.280680  0.548620  0.345400  1.0  -0.1173
  C  C350  1  0.319680  0.546760  0.365500  1.0  -0.0843
  C  C351  1  0.338510  0.512070  0.357100  1.0  -0.1187
  C  C352  1  0.279350  0.481120  0.308500  1.0  0.036
  C  C353  1  0.318360  0.479260  0.328600  1.0  -0.0977
  C  C354  1  0.202100  0.487700  0.500700  1.0  -0.3108
  C  C355  1  0.153590  0.510060  0.358400  1.0  -0.0993
  C  C356  1  0.218340  0.520350  0.296400  1.0  0.0271
  C  C357  1  0.099400  0.529100  0.228900  1.0  0.7486
  C  C358  1  0.260500  0.515810  0.317000  1.0  0.0446
  C  C359  1  0.379900  0.510070  0.378500  1.0  0.7018
  C  C360  1  0.258000  0.443000  0.276600  1.0  -0.368
  C  C361  1  0.294560  0.960790  0.195200  1.0  -0.1209
  C  C362  1  0.307520  0.994210  0.377900  1.0  0.0364
  C  C363  1  0.333380  0.956530  0.175800  1.0  -0.0368
  C  C364  1  0.359320  0.971120  0.257500  1.0  -0.1338
  C  C365  1  0.219320  0.951380  0.345400  1.0  -0.1195
  C  C366  1  0.180320  0.953240  0.365500  1.0  -0.0808
  C  C367  1  0.161490  0.987930  0.357100  1.0  -0.1187
  C  C368  1  0.220650  0.018880  0.308500  1.0  0.035
  C  C369  1  0.181640  0.020740  0.328600  1.0  -0.0957
  C  C370  1  0.297900  0.012300  0.500700  1.0  -0.3109
  C  C371  1  0.346410  0.989940  0.358400  1.0  -0.099
  C  C372  1  0.281660  0.979650  0.296400  1.0  0.0266
  C  C373  1  0.400600  0.970900  0.228900  1.0  0.7492
  C  C374  1  0.239500  0.984190  0.317000  1.0  0.0446
  C  C375  1  0.120100  0.989930  0.378500  1.0  0.7024
  C  C376  1  0.242000  0.057000  0.276600  1.0  -0.3698
  C  C377  1  0.960790  0.205440  0.695200  1.0  -0.117
  C  C378  1  0.994210  0.192480  0.877900  1.0  0.0385
  C  C379  1  0.956530  0.166620  0.675800  1.0  -0.0321
  C  C380  1  0.971120  0.140680  0.757500  1.0  -0.1324
  C  C381  1  0.951380  0.280680  0.845400  1.0  -0.112
  C  C382  1  0.953240  0.319680  0.865500  1.0  -0.0801
  C  C383  1  0.987930  0.338510  0.857100  1.0  -0.114
  C  C384  1  0.018880  0.279350  0.808500  1.0  0.0361
  C  C385  1  0.020740  0.318360  0.828600  1.0  -0.0956
  C  C386  1  0.012300  0.202100  0.000700  1.0  -0.3099
  C  C387  1  0.989940  0.153590  0.858400  1.0  -0.096
  C  C388  1  0.979650  0.218340  0.796400  1.0  0.0261
  C  C389  1  0.970900  0.099400  0.728900  1.0  0.7495
  C  C390  1  0.984190  0.260500  0.817000  1.0  0.0437
  C  C391  1  0.989930  0.379900  0.878500  1.0  0.7039
  C  C392  1  0.057000  0.258000  0.776600  1.0  -0.3698
  C  C393  1  0.539210  0.294560  0.695200  1.0  -0.1173
  C  C394  1  0.505790  0.307520  0.877900  1.0  0.0388
  C  C395  1  0.543470  0.333380  0.675800  1.0  -0.0339
  C  C396  1  0.528880  0.359320  0.757500  1.0  -0.1335
  C  C397  1  0.548620  0.219320  0.845400  1.0  -0.1141
  C  C398  1  0.546760  0.180320  0.865500  1.0  -0.0783
  C  C399  1  0.512070  0.161490  0.857100  1.0  -0.1165
  C  C400  1  0.481120  0.220650  0.808500  1.0  0.0354
  C  C401  1  0.479260  0.181640  0.828600  1.0  -0.0953
  C  C402  1  0.487700  0.297900  0.000700  1.0  -0.3111
  C  C403  1  0.510060  0.346410  0.858400  1.0  -0.0992
  C  C404  1  0.520350  0.281660  0.796400  1.0  0.0265
  C  C405  1  0.529100  0.400600  0.728900  1.0  0.7489
  C  C406  1  0.515810  0.239500  0.817000  1.0  0.0456
  C  C407  1  0.510070  0.120100  0.878500  1.0  0.7032
  C  C408  1  0.443000  0.242000  0.776600  1.0  -0.3685
  C  C409  1  0.794560  0.039210  0.304800  1.0  -0.1223
  C  C410  1  0.807520  0.005790  0.122100  1.0  0.0369
  C  C411  1  0.833380  0.043470  0.324200  1.0  -0.0356
  C  C412  1  0.859320  0.028880  0.242500  1.0  -0.1343
  C  C413  1  0.719320  0.048620  0.154600  1.0  -0.1203
  C  C414  1  0.680320  0.046760  0.134500  1.0  -0.0845
  C  C415  1  0.661490  0.012070  0.142900  1.0  -0.1182
  C  C416  1  0.720650  0.981120  0.191500  1.0  0.034
  C  C417  1  0.681640  0.979260  0.171400  1.0  -0.095
  C  C418  1  0.797900  0.987700  0.999300  1.0  -0.3105
  C  C419  1  0.846410  0.010060  0.141600  1.0  -0.0992
  C  C420  1  0.781660  0.020350  0.203600  1.0  0.0277
  C  C421  1  0.900600  0.029100  0.271100  1.0  0.7487
  C  C422  1  0.739500  0.015810  0.183000  1.0  0.045
  C  C423  1  0.620100  0.010070  0.121500  1.0  0.7027
  C  C424  1  0.742000  0.943000  0.223400  1.0  -0.3683
  C  C425  1  0.705440  0.460790  0.304800  1.0  -0.1212
  C  C426  1  0.692480  0.494210  0.122100  1.0  0.0352
  C  C427  1  0.666667  0.456530  0.324200  1.0  -0.0342
  C  C428  1  0.640680  0.471120  0.242500  1.0  -0.1349
  C  C429  1  0.780680  0.451380  0.154600  1.0  -0.1194
  C  C430  1  0.819680  0.453240  0.134500  1.0  -0.0837
  C  C431  1  0.838510  0.487930  0.142900  1.0  -0.1181
  C  C432  1  0.779350  0.518880  0.191500  1.0  0.0368
  C  C433  1  0.818360  0.520740  0.171400  1.0  -0.0977
  C  C434  1  0.702100  0.512300  0.999300  1.0  -0.3101
  C  C435  1  0.653590  0.489940  0.141600  1.0  -0.0964
  C  C436  1  0.718340  0.479650  0.203600  1.0  0.0266
  C  C437  1  0.599400  0.470900  0.271100  1.0  0.7507
  C  C438  1  0.760500  0.484190  0.183000  1.0  0.0441
  C  C439  1  0.879900  0.489930  0.121500  1.0  0.7028
  C  C440  1  0.758000  0.557000  0.223400  1.0  -0.3705
  C  C441  1  0.039210  0.705440  0.804800  1.0  -0.1169
  C  C442  1  0.005790  0.692480  0.622100  1.0  0.0381
  C  C443  1  0.043470  0.666667  0.824200  1.0  -0.0321
  C  C444  1  0.028880  0.640680  0.742500  1.0  -0.1332
  C  C445  1  0.048620  0.780680  0.654600  1.0  -0.1137
  C  C446  1  0.046760  0.819680  0.634500  1.0  -0.0787
  C  C447  1  0.012070  0.838510  0.642900  1.0  -0.1134
  C  C448  1  0.981120  0.779350  0.691500  1.0  0.0345
  C  C449  1  0.979260  0.818360  0.671400  1.0  -0.0958
  C  C450  1  0.987700  0.702100  0.499300  1.0  -0.31
  C  C451  1  0.010060  0.653590  0.641600  1.0  -0.0963
  C  C452  1  0.020350  0.718340  0.703600  1.0  0.0265
  C  C453  1  0.029100  0.599400  0.771100  1.0  0.75
  C  C454  1  0.015810  0.760500  0.683000  1.0  0.0453
  C  C455  1  0.010070  0.879900  0.621500  1.0  0.7045
  C  C456  1  0.943000  0.758000  0.723400  1.0  -0.3697
  C  C457  1  0.460790  0.794560  0.804800  1.0  -0.117
  C  C458  1  0.494210  0.807520  0.622100  1.0  0.038
  C  C459  1  0.456530  0.833380  0.824200  1.0  -0.0318
  C  C460  1  0.471120  0.859320  0.742500  1.0  -0.1331
  C  C461  1  0.451380  0.719320  0.654600  1.0  -0.116
  C  C462  1  0.453240  0.680320  0.634500  1.0  -0.0811
  C  C463  1  0.487930  0.661490  0.642900  1.0  -0.1158
  C  C464  1  0.518880  0.720650  0.691500  1.0  0.0356
  C  C465  1  0.520740  0.681640  0.671400  1.0  -0.0973
  C  C466  1  0.512300  0.797900  0.499300  1.0  -0.3104
  C  C467  1  0.489940  0.846410  0.641600  1.0  -0.0984
  C  C468  1  0.479650  0.781660  0.703600  1.0  0.0261
  C  C469  1  0.470900  0.900600  0.771100  1.0  0.7495
  C  C470  1  0.484190  0.739500  0.683000  1.0  0.044
  C  C471  1  0.489930  0.620100  0.621500  1.0  0.704
  C  C472  1  0.557000  0.742000  0.723400  1.0  -0.3693
  O  O473  1  0.604330  0.459930  0.584400  1.0  -0.6032
  O  O474  1  0.466950  0.514970  0.347500  1.0  -1.1041
  O  O475  1  0.602160  0.519600  0.655300  1.0  -0.7065
  O  O476  1  0.909310  0.447840  0.853500  1.0  -0.6241
  O  O477  1  0.511030  0.557800  0.461800  1.0  -1.0641
  O  O478  1  0.922790  0.496220  0.730800  1.0  -0.6821
  O  O479  1  0.895670  0.040070  0.584400  1.0  -0.6041
  O  O480  1  0.033050  0.985030  0.347500  1.0  -1.1049
  O  O481  1  0.897840  0.980400  0.655300  1.0  -0.7061
  O  O482  1  0.590690  0.052160  0.853500  1.0  -0.6236
  O  O483  1  0.988970  0.942200  0.461800  1.0  -1.068
  O  O484  1  0.577210  0.003780  0.730800  1.0  -0.6826
  O  O485  1  0.040070  0.604330  0.084400  1.0  -0.6043
  O  O486  1  0.985030  0.466950  0.847500  1.0  -1.1042
  O  O487  1  0.980400  0.602160  0.155300  1.0  -0.7043
  O  O488  1  0.052160  0.909310  0.353500  1.0  -0.6245
  O  O489  1  0.942200  0.511030  0.961800  1.0  -1.0671
  O  O490  1  0.003780  0.922790  0.230800  1.0  -0.6853
  O  O491  1  0.459930  0.895670  0.084400  1.0  -0.6043
  O  O492  1  0.514970  0.033050  0.847500  1.0  -1.105
  O  O493  1  0.519600  0.897840  0.155300  1.0  -0.7069
  O  O494  1  0.447840  0.590690  0.353500  1.0  -0.6258
  O  O495  1  0.557800  0.988970  0.961800  1.0  -1.0659
  O  O496  1  0.496220  0.577210  0.230800  1.0  -0.6843
  O  O497  1  0.395670  0.959930  0.915600  1.0  -0.6034
  O  O498  1  0.533050  0.014970  0.152500  1.0  -1.1
  O  O499  1  0.397840  0.019600  0.844700  1.0  -0.7041
  O  O500  1  0.090690  0.947840  0.646500  1.0  -0.6227
  O  O501  1  0.488970  0.057800  0.038200  1.0  -1.0674
  O  O502  1  0.077210  0.996220  0.769200  1.0  -0.6828
  O  O503  1  0.104330  0.540070  0.915600  1.0  -0.6045
  O  O504  1  0.966950  0.485030  0.152500  1.0  -1.1
  O  O505  1  0.102160  0.480400  0.844700  1.0  -0.7057
  O  O506  1  0.409310  0.552160  0.646500  1.0  -0.6237
  O  O507  1  0.011030  0.442200  0.038200  1.0  -1.0648
  O  O508  1  0.422790  0.503780  0.769200  1.0  -0.6822
  O  O509  1  0.959930  0.104330  0.415600  1.0  -0.6046
  O  O510  1  0.014970  0.966950  0.652500  1.0  -1.102
  O  O511  1  0.019600  0.102160  0.344700  1.0  -0.7062
  O  O512  1  0.947840  0.409310  0.146500  1.0  -0.6239
  O  O513  1  0.057800  0.011030  0.538200  1.0  -1.0656
  O  O514  1  0.996220  0.422790  0.269200  1.0  -0.6847
  O  O515  1  0.540070  0.395670  0.415600  1.0  -0.6044
  O  O516  1  0.485030  0.533050  0.652500  1.0  -1.0996
  O  O517  1  0.480400  0.397840  0.344700  1.0  -0.7039
  O  O518  1  0.552160  0.090690  0.146500  1.0  -0.6249
  O  O519  1  0.442200  0.488970  0.538200  1.0  -1.0677
  O  O520  1  0.503780  0.077210  0.269200  1.0  -0.686
  O  O521  1  0.395670  0.540070  0.415600  1.0  -0.6043
  O  O522  1  0.533050  0.485030  0.652500  1.0  -1.0995
  O  O523  1  0.397840  0.480400  0.344700  1.0  -0.7048
  O  O524  1  0.090690  0.552160  0.146500  1.0  -0.6226
  O  O525  1  0.488970  0.442200  0.538200  1.0  -1.0679
  O  O526  1  0.077210  0.503780  0.269200  1.0  -0.6828
  O  O527  1  0.104330  0.959930  0.415600  1.0  -0.6035
  O  O528  1  0.966950  0.014970  0.652500  1.0  -1.1004
  O  O529  1  0.102160  0.019600  0.344700  1.0  -0.7074
  O  O530  1  0.409310  0.947840  0.146500  1.0  -0.6239
  O  O531  1  0.011030  0.057800  0.538200  1.0  -1.0635
  O  O532  1  0.422790  0.996220  0.269200  1.0  -0.6817
  O  O533  1  0.959930  0.395670  0.915600  1.0  -0.6048
  O  O534  1  0.014970  0.533050  0.152500  1.0  -1.1015
  O  O535  1  0.019600  0.397840  0.844700  1.0  -0.7064
  O  O536  1  0.947840  0.090690  0.646500  1.0  -0.6238
  O  O537  1  0.057800  0.488970  0.038200  1.0  -1.0662
  O  O538  1  0.996220  0.077210  0.769200  1.0  -0.6853
  O  O539  1  0.540070  0.104330  0.915600  1.0  -0.6043
  O  O540  1  0.485030  0.966950  0.152500  1.0  -1.0999
  O  O541  1  0.480400  0.102160  0.844700  1.0  -0.7061
  O  O542  1  0.552160  0.409310  0.646500  1.0  -0.625
  O  O543  1  0.442200  0.011030  0.038200  1.0  -1.067
  O  O544  1  0.503780  0.422790  0.769200  1.0  -0.6856
  O  O545  1  0.604330  0.040070  0.084400  1.0  -0.604
  O  O546  1  0.466950  0.985030  0.847500  1.0  -1.1038
  O  O547  1  0.602160  0.980400  0.155300  1.0  -0.7076
  O  O548  1  0.909310  0.052160  0.353500  1.0  -0.624
  O  O549  1  0.511030  0.942200  0.961800  1.0  -1.0651
  O  O550  1  0.922790  0.003780  0.230800  1.0  -0.6813
  O  O551  1  0.895670  0.459930  0.084400  1.0  -0.603
  O  O552  1  0.033050  0.514970  0.847500  1.0  -1.1052
  O  O553  1  0.897840  0.519600  0.155300  1.0  -0.7055
  O  O554  1  0.590690  0.447840  0.353500  1.0  -0.6237
  O  O555  1  0.988970  0.557800  0.961800  1.0  -1.0677
  O  O556  1  0.577210  0.496220  0.230800  1.0  -0.6828
  O  O557  1  0.040070  0.895670  0.584400  1.0  -0.6041
  O  O558  1  0.985030  0.033050  0.347500  1.0  -1.1047
  O  O559  1  0.980400  0.897840  0.655300  1.0  -0.7057
  O  O560  1  0.052160  0.590690  0.853500  1.0  -0.6251
  O  O561  1  0.942200  0.988970  0.461800  1.0  -1.0674
  O  O562  1  0.003780  0.577210  0.730800  1.0  -0.6852
  O  O563  1  0.459930  0.604330  0.584400  1.0  -0.6043
  O  O564  1  0.514970  0.466950  0.347500  1.0  -1.1046
  O  O565  1  0.519600  0.602160  0.655300  1.0  -0.7077
  O  O566  1  0.447840  0.909310  0.853500  1.0  -0.6251
  O  O567  1  0.557800  0.511030  0.461800  1.0  -1.0658
  O  O568  1  0.496220  0.922790  0.730800  1.0  -0.6848
