# generated using pymatgen
data_CsNpH6C12O7
_symmetry_space_group_name_H-M   'P 1'
_cell_length_a   8.28460000
_cell_length_b   18.11750000
_cell_length_c   20.76150000
_cell_angle_alpha   90.00000000
_cell_angle_beta   97.67800000
_cell_angle_gamma   90.00000000
_symmetry_Int_Tables_number   1
_chemical_formula_structural   CsNpH6C12O7
_chemical_formula_sum   'Cs8 Np8 H48 C96 O56'
_cell_volume   3088.28482851
_cell_formula_units_Z   8
loop_
 _symmetry_equiv_pos_site_id
 _symmetry_equiv_pos_as_xyz
  1  'x, y, z'
loop_
 _atom_site_type_symbol
 _atom_site_label
 _atom_site_symmetry_multiplicity
 _atom_site_fract_x
 _atom_site_fract_y
 _atom_site_fract_z
 _atom_site_occupancy
 _atom_site_charge
  Cs  Cs1  1  0.056350  0.694960  0.388830  1.0  0.9435
  Cs  Cs2  1  0.556350  0.194960  0.388830  1.0  0.9435
  Cs  Cs3  1  0.943650  0.694960  0.111170  1.0  0.9466
  Cs  Cs4  1  0.443650  0.194960  0.111170  1.0  0.9466
  Cs  Cs5  1  0.943650  0.305040  0.611170  1.0  0.9468
  Cs  Cs6  1  0.443650  0.805040  0.611170  1.0  0.9468
  Cs  Cs7  1  0.056350  0.305040  0.888830  1.0  0.9441
  Cs  Cs8  1  0.556350  0.805040  0.888830  1.0  0.9441
  Np  Np9  1  0.568500  0.804350  0.381620  1.0  2.1152
  Np  Np10  1  0.068500  0.304350  0.381620  1.0  2.1152
  Np  Np11  1  0.431500  0.804350  0.118380  1.0  2.1141
  Np  Np12  1  0.931500  0.304350  0.118380  1.0  2.1141
  Np  Np13  1  0.431500  0.195650  0.618380  1.0  2.114
  Np  Np14  1  0.931500  0.695650  0.618380  1.0  2.114
  Np  Np15  1  0.568500  0.195650  0.881620  1.0  2.1148
  Np  Np16  1  0.068500  0.695650  0.881620  1.0  2.1148
  H  H17  1  0.367900  0.543100  0.394800  1.0  0.1142
  H  H18  1  0.657500  0.369200  0.457300  1.0  0.0982
  H  H19  1  0.880000  0.449400  0.478500  1.0  0.1077
  H  H20  1  0.842900  0.576100  0.459300  1.0  0.0955
  H  H21  1  0.228800  0.009300  0.297500  1.0  0.1109
  H  H22  1  0.867900  0.043100  0.394800  1.0  0.1142
  H  H23  1  0.157500  0.869200  0.457300  1.0  0.0982
  H  H24  1  0.380000  0.949400  0.478500  1.0  0.1077
  H  H25  1  0.342900  0.076100  0.459300  1.0  0.0955
  H  H26  1  0.728800  0.509300  0.297500  1.0  0.1109
  H  H27  1  0.632100  0.543100  0.105200  1.0  0.1142
  H  H28  1  0.342500  0.369200  0.042700  1.0  0.097
  H  H29  1  0.120000  0.449400  0.021500  1.0  0.1077
  H  H30  1  0.157100  0.576100  0.040700  1.0  0.0951
  H  H31  1  0.771200  0.009300  0.202500  1.0  0.1101
  H  H32  1  0.132100  0.043100  0.105200  1.0  0.1142
  H  H33  1  0.842500  0.869200  0.042700  1.0  0.097
  H  H34  1  0.620000  0.949400  0.021500  1.0  0.1077
  H  H35  1  0.657100  0.076100  0.040700  1.0  0.0951
  H  H36  1  0.271200  0.509300  0.202500  1.0  0.1101
  H  H37  1  0.632100  0.456900  0.605200  1.0  0.1141
  H  H38  1  0.342500  0.630800  0.542700  1.0  0.0981
  H  H39  1  0.120000  0.550600  0.521500  1.0  0.1079
  H  H40  1  0.157100  0.423900  0.540700  1.0  0.0953
  H  H41  1  0.771200  0.990700  0.702500  1.0  0.1096
  H  H42  1  0.132100  0.956900  0.605200  1.0  0.1141
  H  H43  1  0.842500  0.130800  0.542700  1.0  0.0981
  H  H44  1  0.620000  0.050600  0.521500  1.0  0.1079
  H  H45  1  0.657100  0.923900  0.540700  1.0  0.0953
  H  H46  1  0.271200  0.490700  0.702500  1.0  0.1096
  H  H47  1  0.367900  0.456900  0.894800  1.0  0.1138
  H  H48  1  0.657500  0.630800  0.957300  1.0  0.0984
  H  H49  1  0.880000  0.550600  0.978500  1.0  0.1078
  H  H50  1  0.842900  0.423900  0.959300  1.0  0.0953
  H  H51  1  0.228800  0.990700  0.797500  1.0  0.1105
  H  H52  1  0.867900  0.956900  0.894800  1.0  0.1138
  H  H53  1  0.157500  0.130800  0.957300  1.0  0.0984
  H  H54  1  0.380000  0.050600  0.978500  1.0  0.1078
  H  H55  1  0.342900  0.923900  0.959300  1.0  0.0953
  H  H56  1  0.728800  0.490700  0.797500  1.0  0.1105
  H  H57  1  0.000000  0.814100  0.250000  1.0  0.0816
  H  H58  1  0.000000  0.073800  0.250000  1.0  0.1121
  H  H59  1  0.500000  0.314100  0.250000  1.0  0.0816
  H  H60  1  0.500000  0.573800  0.250000  1.0  0.1121
  H  H61  1  0.000000  0.185900  0.750000  1.0  0.0824
  H  H62  1  0.000000  0.926200  0.750000  1.0  0.1124
  H  H63  1  0.500000  0.685900  0.750000  1.0  0.0824
  H  H64  1  0.500000  0.426200  0.750000  1.0  0.1124
  C  C65  1  0.584600  0.651900  0.411200  1.0  0.6874
  C  C66  1  0.602800  0.570700  0.424400  1.0  -0.1248
  C  C67  1  0.471600  0.524100  0.411900  1.0  -0.0294
  C  C68  1  0.490800  0.448500  0.424400  1.0  -0.1083
  C  C69  1  0.643800  0.420600  0.449200  1.0  -0.0082
  C  C70  1  0.775600  0.468000  0.461800  1.0  -0.1137
  C  C71  1  0.753400  0.543300  0.449900  1.0  -0.0505
  C  C72  1  0.349000  0.397200  0.410900  1.0  0.6657
  C  C73  1  0.281600  0.868300  0.313500  1.0  0.6926
  C  C74  1  0.135000  0.905900  0.279000  1.0  -0.1167
  C  C75  1  0.135200  0.983100  0.278400  1.0  -0.0415
  C  C76  1  0.084600  0.151900  0.411200  1.0  0.6874
  C  C77  1  0.102800  0.070700  0.424400  1.0  -0.1248
  C  C78  1  0.971600  0.024100  0.411900  1.0  -0.0294
  C  C79  1  0.990800  0.948500  0.424400  1.0  -0.1083
  C  C80  1  0.143800  0.920600  0.449200  1.0  -0.0082
  C  C81  1  0.275600  0.968000  0.461800  1.0  -0.1137
  C  C82  1  0.253400  0.043300  0.449900  1.0  -0.0505
  C  C83  1  0.849000  0.897200  0.410900  1.0  0.6657
  C  C84  1  0.781600  0.368300  0.313500  1.0  0.6926
  C  C85  1  0.635000  0.405900  0.279000  1.0  -0.1167
  C  C86  1  0.635200  0.483100  0.278400  1.0  -0.0415
  C  C87  1  0.415400  0.651900  0.088800  1.0  0.6868
  C  C88  1  0.397200  0.570700  0.075600  1.0  -0.1242
  C  C89  1  0.528400  0.524100  0.088100  1.0  -0.0302
  C  C90  1  0.509200  0.448500  0.075600  1.0  -0.1076
  C  C91  1  0.356200  0.420600  0.050800  1.0  -0.0071
  C  C92  1  0.224400  0.468000  0.038200  1.0  -0.1129
  C  C93  1  0.246600  0.543300  0.050100  1.0  -0.049
  C  C94  1  0.651000  0.397200  0.089100  1.0  0.6666
  C  C95  1  0.718400  0.868300  0.186500  1.0  0.6923
  C  C96  1  0.865000  0.905900  0.221000  1.0  -0.1162
  C  C97  1  0.864800  0.983100  0.221600  1.0  -0.042
  C  C98  1  0.915400  0.151900  0.088800  1.0  0.6868
  C  C99  1  0.897200  0.070700  0.075600  1.0  -0.1242
  C  C100  1  0.028400  0.024100  0.088100  1.0  -0.0302
  C  C101  1  0.009200  0.948500  0.075600  1.0  -0.1076
  C  C102  1  0.856200  0.920600  0.050800  1.0  -0.0071
  C  C103  1  0.724400  0.968000  0.038200  1.0  -0.1129
  C  C104  1  0.746600  0.043300  0.050100  1.0  -0.049
  C  C105  1  0.151000  0.897200  0.089100  1.0  0.6666
  C  C106  1  0.218400  0.368300  0.186500  1.0  0.6923
  C  C107  1  0.365000  0.405900  0.221000  1.0  -0.1162
  C  C108  1  0.364800  0.483100  0.221600  1.0  -0.042
  C  C109  1  0.415400  0.348100  0.588800  1.0  0.6865
  C  C110  1  0.397200  0.429300  0.575600  1.0  -0.1236
  C  C111  1  0.528400  0.475900  0.588100  1.0  -0.0301
  C  C112  1  0.509200  0.551500  0.575600  1.0  -0.1071
  C  C113  1  0.356200  0.579400  0.550800  1.0  -0.0081
  C  C114  1  0.224400  0.532000  0.538200  1.0  -0.1131
  C  C115  1  0.246600  0.456700  0.550100  1.0  -0.0494
  C  C116  1  0.651000  0.602800  0.589100  1.0  0.6662
  C  C117  1  0.718400  0.131700  0.686500  1.0  0.6913
  C  C118  1  0.865000  0.094100  0.721000  1.0  -0.1165
  C  C119  1  0.864800  0.016900  0.721600  1.0  -0.0426
  C  C120  1  0.915400  0.848100  0.588800  1.0  0.6865
  C  C121  1  0.897200  0.929300  0.575600  1.0  -0.1236
  C  C122  1  0.028400  0.975900  0.588100  1.0  -0.0301
  C  C123  1  0.009200  0.051500  0.575600  1.0  -0.1071
  C  C124  1  0.856200  0.079400  0.550800  1.0  -0.0081
  C  C125  1  0.724400  0.032000  0.538200  1.0  -0.1131
  C  C126  1  0.746600  0.956700  0.550100  1.0  -0.0494
  C  C127  1  0.151000  0.102800  0.589100  1.0  0.6662
  C  C128  1  0.218400  0.631700  0.686500  1.0  0.6913
  C  C129  1  0.365000  0.594100  0.721000  1.0  -0.1165
  C  C130  1  0.364800  0.516900  0.721600  1.0  -0.0426
  C  C131  1  0.584600  0.348100  0.911200  1.0  0.6857
  C  C132  1  0.602800  0.429300  0.924400  1.0  -0.1248
  C  C133  1  0.471600  0.475900  0.911900  1.0  -0.0296
  C  C134  1  0.490800  0.551500  0.924400  1.0  -0.1075
  C  C135  1  0.643800  0.579400  0.949200  1.0  -0.0084
  C  C136  1  0.775600  0.532000  0.961800  1.0  -0.1139
  C  C137  1  0.753400  0.456700  0.949900  1.0  -0.0508
  C  C138  1  0.349000  0.602800  0.910900  1.0  0.665
  C  C139  1  0.281600  0.131700  0.813500  1.0  0.6921
  C  C140  1  0.135000  0.094100  0.779000  1.0  -0.1163
  C  C141  1  0.135200  0.016900  0.778400  1.0  -0.0421
  C  C142  1  0.084600  0.848100  0.911200  1.0  0.6857
  C  C143  1  0.102800  0.929300  0.924400  1.0  -0.1248
  C  C144  1  0.971600  0.975900  0.911900  1.0  -0.0296
  C  C145  1  0.990800  0.051500  0.924400  1.0  -0.1075
  C  C146  1  0.143800  0.079400  0.949200  1.0  -0.0084
  C  C147  1  0.275600  0.032000  0.961800  1.0  -0.1139
  C  C148  1  0.253400  0.956700  0.949900  1.0  -0.0508
  C  C149  1  0.849000  0.102800  0.910900  1.0  0.665
  C  C150  1  0.781600  0.631700  0.813500  1.0  0.6921
  C  C151  1  0.635000  0.594100  0.779000  1.0  -0.1163
  C  C152  1  0.635200  0.516900  0.778400  1.0  -0.0421
  C  C153  1  0.000000  0.866600  0.250000  1.0  -0.053
  C  C154  1  0.000000  0.021300  0.250000  1.0  -0.0969
  C  C155  1  0.500000  0.366600  0.250000  1.0  -0.053
  C  C156  1  0.500000  0.521300  0.250000  1.0  -0.0969
  C  C157  1  0.000000  0.133400  0.750000  1.0  -0.0503
  C  C158  1  0.000000  0.978700  0.750000  1.0  -0.0973
  C  C159  1  0.500000  0.633400  0.750000  1.0  -0.0503
  C  C160  1  0.500000  0.478700  0.750000  1.0  -0.0973
  O  O161  1  0.497500  0.823100  0.456600  1.0  -0.7361
  O  O162  1  0.448100  0.678900  0.388200  1.0  -0.7395
  O  O163  1  0.708600  0.691700  0.422200  1.0  -0.7554
  O  O164  1  0.210400  0.423200  0.386900  1.0  -0.6567
  O  O165  1  0.361400  0.329100  0.423400  1.0  -0.7914
  O  O166  1  0.274800  0.800600  0.329100  1.0  -0.7505
  O  O167  1  0.411000  0.904400  0.328300  1.0  -0.6318
  O  O168  1  0.997500  0.323100  0.456600  1.0  -0.7361
  O  O169  1  0.948100  0.178900  0.388200  1.0  -0.7395
  O  O170  1  0.208600  0.191700  0.422200  1.0  -0.7554
  O  O171  1  0.710400  0.923200  0.386900  1.0  -0.6567
  O  O172  1  0.861400  0.829100  0.423400  1.0  -0.7914
  O  O173  1  0.774800  0.300600  0.329100  1.0  -0.7505
  O  O174  1  0.911000  0.404400  0.328300  1.0  -0.6316
  O  O175  1  0.502500  0.823100  0.043400  1.0  -0.7352
  O  O176  1  0.551900  0.678900  0.111800  1.0  -0.7409
  O  O177  1  0.291400  0.691700  0.077800  1.0  -0.7565
  O  O178  1  0.789600  0.423200  0.113100  1.0  -0.658
  O  O179  1  0.638600  0.329100  0.076600  1.0  -0.7916
  O  O180  1  0.725200  0.800600  0.170900  1.0  -0.7495
  O  O181  1  0.589000  0.904400  0.171700  1.0  -0.6311
  O  O182  1  0.002500  0.323100  0.043400  1.0  -0.7352
  O  O183  1  0.051900  0.178900  0.111800  1.0  -0.7409
  O  O184  1  0.791400  0.191700  0.077800  1.0  -0.7565
  O  O185  1  0.289600  0.923200  0.113100  1.0  -0.6582
  O  O186  1  0.138600  0.829100  0.076600  1.0  -0.7916
  O  O187  1  0.225200  0.300600  0.170900  1.0  -0.7495
  O  O188  1  0.089000  0.404400  0.171700  1.0  -0.631
  O  O189  1  0.502500  0.176900  0.543400  1.0  -0.7354
  O  O190  1  0.551900  0.321100  0.611800  1.0  -0.7398
  O  O191  1  0.291400  0.308300  0.577800  1.0  -0.7553
  O  O192  1  0.789600  0.576800  0.613100  1.0  -0.6573
  O  O193  1  0.638600  0.670900  0.576600  1.0  -0.7923
  O  O194  1  0.725200  0.199400  0.670900  1.0  -0.7486
  O  O195  1  0.589000  0.095600  0.671700  1.0  -0.6313
  O  O196  1  0.002500  0.676900  0.543400  1.0  -0.7354
  O  O197  1  0.051900  0.821100  0.611800  1.0  -0.7398
  O  O198  1  0.791400  0.808300  0.577800  1.0  -0.7553
  O  O199  1  0.289600  0.076800  0.613100  1.0  -0.6574
  O  O200  1  0.138600  0.170900  0.576600  1.0  -0.7923
  O  O201  1  0.225200  0.699400  0.670900  1.0  -0.7486
  O  O202  1  0.089000  0.595600  0.671700  1.0  -0.6312
  O  O203  1  0.497500  0.176900  0.956600  1.0  -0.7362
  O  O204  1  0.448100  0.321100  0.888200  1.0  -0.7398
  O  O205  1  0.708600  0.308300  0.922200  1.0  -0.7555
  O  O206  1  0.210400  0.576800  0.886900  1.0  -0.6563
  O  O207  1  0.361400  0.670900  0.923400  1.0  -0.7912
  O  O208  1  0.274800  0.199400  0.829100  1.0  -0.7486
  O  O209  1  0.411000  0.095600  0.828300  1.0  -0.6317
  O  O210  1  0.997500  0.676900  0.956600  1.0  -0.7362
  O  O211  1  0.948100  0.821100  0.888200  1.0  -0.7398
  O  O212  1  0.208600  0.808300  0.922200  1.0  -0.7555
  O  O213  1  0.710400  0.076800  0.886900  1.0  -0.6564
  O  O214  1  0.861400  0.170900  0.923400  1.0  -0.7912
  O  O215  1  0.774800  0.699400  0.829100  1.0  -0.7486
  O  O216  1  0.911000  0.595600  0.828300  1.0  -0.6315
