# generated using pymatgen
data_Cd2H26C17(NO2)6
_symmetry_space_group_name_H-M   'P 1'
_cell_length_a   12.67740000
_cell_length_b   12.67740000
_cell_length_c   18.03810000
_cell_angle_alpha   69.42660000
_cell_angle_beta   69.42660000
_cell_angle_gamma   89.99990000
_symmetry_Int_Tables_number   1
_chemical_formula_structural   Cd2H26C17(NO2)6
_chemical_formula_sum   'Cd8 H104 C68 N24 O48'
_cell_volume   2515.68547000
_cell_formula_units_Z   4
loop_
 _symmetry_equiv_pos_site_id
 _symmetry_equiv_pos_as_xyz
  1  'x, y, z'
loop_
 _atom_site_type_symbol
 _atom_site_label
 _atom_site_symmetry_multiplicity
 _atom_site_fract_x
 _atom_site_fract_y
 _atom_site_fract_z
 _atom_site_occupancy
 _atom_site_charge
  Cd  Cd1  1  0.577830  0.820050  0.860100  1.0  0.9155
  Cd  Cd2  1  0.562070  0.319850  0.860100  1.0  0.9158
  Cd  Cd3  1  0.570050  0.812070  0.360100  1.0  0.9153
  Cd  Cd4  1  0.069850  0.827830  0.360100  1.0  0.914
  Cd  Cd5  1  0.187930  0.429950  0.639900  1.0  0.9147
  Cd  Cd6  1  0.172170  0.930150  0.639900  1.0  0.9174
  Cd  Cd7  1  0.680150  0.437930  0.139900  1.0  0.9122
  Cd  Cd8  1  0.179950  0.422170  0.139900  1.0  0.9139
  H  H9  1  0.933800  0.816100  0.655600  1.0  0.3433
  H  H10  1  0.911200  0.969700  0.581600  1.0  0.3494
  H  H11  1  0.768000  0.701600  0.634800  1.0  0.0944
  H  H12  1  0.746100  0.872700  0.549400  1.0  0.1026
  H  H13  1  0.628000  0.067400  0.870000  1.0  0.0808
  H  H14  1  0.566000  0.995200  0.693200  1.0  0.0889
  H  H15  1  0.465000  0.017200  0.767000  1.0  0.0649
  H  H16  1  0.776300  0.028500  0.766600  1.0  0.0704
  H  H17  1  0.753500  0.003100  0.692400  1.0  0.0655
  H  H18  1  0.703900  0.138500  0.598600  1.0  0.0738
  H  H19  1  0.389600  0.637100  0.036200  1.0  0.0977
  H  H20  1  0.634800  0.570900  0.856800  1.0  0.0996
  H  H21  1  0.674800  0.611200  0.964000  1.0  0.064
  H  H22  1  0.410600  0.528300  0.655600  1.0  0.3445
  H  H23  1  0.507200  0.448700  0.581600  1.0  0.3449
  H  H24  1  0.597200  0.663600  0.634800  1.0  0.0931
  H  H25  1  0.704500  0.577900  0.549400  1.0  0.1005
  H  H26  1  0.502000  0.062600  0.870000  1.0  0.0775
  H  H27  1  0.740800  0.311600  0.693200  1.0  0.0878
  H  H28  1  0.768000  0.215800  0.767000  1.0  0.065
  H  H29  1  0.457100  0.204900  0.766600  1.0  0.0656
  H  H30  1  0.554100  0.304500  0.692400  1.0  0.068
  H  H31  1  0.697500  0.262900  0.598600  1.0  0.0741
  H  H32  1  0.574200  0.326700  0.036200  1.0  0.0992
  H  H33  1  0.508400  0.572300  0.856800  1.0  0.0977
  H  H34  1  0.361200  0.424800  0.964000  1.0  0.0622
  H  H35  1  0.566100  0.660600  0.155600  1.0  0.3441
  H  H36  1  0.719700  0.757200  0.081600  1.0  0.347
  H  H37  1  0.451600  0.847200  0.134800  1.0  0.0942
  H  H38  1  0.622700  0.954500  0.049400  1.0  0.1017
  H  H39  1  0.817400  0.752000  0.370000  1.0  0.0779
  H  H40  1  0.745200  0.990800  0.193200  1.0  0.091
  H  H41  1  0.767200  0.018000  0.267000  1.0  0.0659
  H  H42  1  0.778500  0.707100  0.266600  1.0  0.0683
  H  H43  1  0.753100  0.804100  0.192400  1.0  0.068
  H  H44  1  0.888500  0.947500  0.098600  1.0  0.0743
  H  H45  1  0.387100  0.824200  0.536200  1.0  0.0949
  H  H46  1  0.320900  0.758400  0.356800  1.0  0.099
  H  H47  1  0.361200  0.611200  0.464000  1.0  0.0611
  H  H48  1  0.278300  0.183800  0.155600  1.0  0.3439
  H  H49  1  0.198700  0.161200  0.081600  1.0  0.3506
  H  H50  1  0.413600  0.018000  0.134800  1.0  0.0929
  H  H51  1  0.327900  0.996100  0.049400  1.0  0.1019
  H  H52  1  0.812600  0.878000  0.370000  1.0  0.0796
  H  H53  1  0.061600  0.816000  0.193200  1.0  0.0872
  H  H54  1  0.965800  0.715000  0.267000  1.0  0.0644
  H  H55  1  0.954900  0.026300  0.266600  1.0  0.0679
  H  H56  1  0.054500  0.003500  0.192400  1.0  0.0689
  H  H57  1  0.012900  0.953900  0.098600  1.0  0.0721
  H  H58  1  0.076700  0.639600  0.536200  1.0  0.0978
  H  H59  1  0.322300  0.884800  0.356800  1.0  0.0987
  H  H60  1  0.174800  0.924800  0.464000  1.0  0.0634
  H  H61  1  0.339400  0.433900  0.844400  1.0  0.3441
  H  H62  1  0.242800  0.280300  0.918400  1.0  0.3505
  H  H63  1  0.152800  0.548400  0.865200  1.0  0.0944
  H  H64  1  0.045500  0.377300  0.950600  1.0  0.1009
  H  H65  1  0.248000  0.182600  0.630000  1.0  0.0843
  H  H66  1  0.009200  0.254800  0.806800  1.0  0.0893
  H  H67  1  0.982000  0.232800  0.733000  1.0  0.0675
  H  H68  1  0.292900  0.221500  0.733400  1.0  0.065
  H  H69  1  0.195900  0.246900  0.807600  1.0  0.069
  H  H70  1  0.052500  0.111500  0.901400  1.0  0.0758
  H  H71  1  0.175800  0.612900  0.463800  1.0  0.0985
  H  H72  1  0.241600  0.679100  0.643200  1.0  0.1002
  H  H73  1  0.388800  0.638800  0.536000  1.0  0.0629
  H  H74  1  0.816200  0.721700  0.844400  1.0  0.3445
  H  H75  1  0.838800  0.801300  0.918400  1.0  0.348
  H  H76  1  0.982000  0.586400  0.865200  1.0  0.0926
  H  H77  1  0.003900  0.672100  0.950600  1.0  0.1033
  H  H78  1  0.122000  0.187400  0.630000  1.0  0.0811
  H  H79  1  0.184000  0.938400  0.806800  1.0  0.0883
  H  H80  1  0.285000  0.034200  0.733000  1.0  0.0621
  H  H81  1  0.973700  0.045100  0.733400  1.0  0.0691
  H  H82  1  0.996500  0.945500  0.807600  1.0  0.0685
  H  H83  1  0.046100  0.987100  0.901400  1.0  0.0703
  H  H84  1  0.360400  0.923300  0.463800  1.0  0.0991
  H  H85  1  0.115200  0.677700  0.643200  1.0  0.0942
  H  H86  1  0.075200  0.825200  0.536000  1.0  0.0638
  H  H87  1  0.471700  0.589400  0.344400  1.0  0.346
  H  H88  1  0.551300  0.492800  0.418400  1.0  0.3491
  H  H89  1  0.336400  0.402800  0.365200  1.0  0.0937
  H  H90  1  0.422100  0.295500  0.450600  1.0  0.1016
  H  H91  1  0.937400  0.498000  0.130000  1.0  0.0785
  H  H92  1  0.688400  0.259200  0.306800  1.0  0.0894
  H  H93  1  0.784200  0.232000  0.233000  1.0  0.0668
  H  H94  1  0.795100  0.542900  0.233400  1.0  0.0689
  H  H95  1  0.695500  0.445900  0.307600  1.0  0.0657
  H  H96  1  0.737100  0.302500  0.401400  1.0  0.0712
  H  H97  1  0.673300  0.425800  0.963800  1.0  0.0994
  H  H98  1  0.427700  0.491600  0.143200  1.0  0.0979
  H  H99  1  0.575200  0.638800  0.036000  1.0  0.0637
  H  H100  1  0.183900  0.066200  0.344400  1.0  0.3424
  H  H101  1  0.030300  0.088800  0.418400  1.0  0.3479
  H  H102  1  0.298400  0.232000  0.365200  1.0  0.0927
  H  H103  1  0.127300  0.253900  0.450600  1.0  0.1016
  H  H104  1  0.932600  0.372000  0.130000  1.0  0.0812
  H  H105  1  0.004800  0.434000  0.306800  1.0  0.0851
  H  H106  1  0.982800  0.535000  0.233000  1.0  0.0676
  H  H107  1  0.971500  0.223700  0.233400  1.0  0.0691
  H  H108  1  0.996900  0.246500  0.307600  1.0  0.0654
  H  H109  1  0.861500  0.296100  0.401400  1.0  0.0747
  H  H110  1  0.362900  0.610400  0.963800  1.0  0.0997
  H  H111  1  0.429100  0.365200  0.143200  1.0  0.0977
  H  H112  1  0.388800  0.325200  0.036000  1.0  0.0648
  C  C113  1  0.712500  0.787000  0.714800  1.0  0.6589
  C  C114  1  0.798700  0.769700  0.640600  1.0  0.0389
  C  C115  1  0.818300  0.869800  0.560400  1.0  0.025
  C  C116  1  0.906000  0.853400  0.489000  1.0  0.6303
  C  C117  1  0.546500  0.041100  0.729400  1.0  0.0936
  C  C118  1  0.731400  0.048100  0.729200  1.0  0.1069
  C  C119  1  0.572700  0.498200  0.714800  1.0  0.66
  C  C120  1  0.560700  0.589700  0.640600  1.0  0.0395
  C  C121  1  0.621300  0.569800  0.560400  1.0  0.0219
  C  C122  1  0.605000  0.657600  0.489000  1.0  0.6305
  C  C123  1  0.724100  0.229500  0.729400  1.0  0.0912
  C  C124  1  0.539400  0.222700  0.729200  1.0  0.1092
  C  C125  1  0.537000  0.822700  0.214800  1.0  0.6593
  C  C126  1  0.519700  0.810700  0.140600  1.0  0.0372
  C  C127  1  0.619800  0.871300  0.060400  1.0  0.0288
  C  C128  1  0.603400  0.855000  0.989000  1.0  0.63
  C  C129  1  0.791100  0.974100  0.229400  1.0  0.0955
  C  C130  1  0.798100  0.789400  0.229200  1.0  0.1068
  C  C131  1  0.248200  0.962500  0.214800  1.0  0.6596
  C  C132  1  0.339700  0.048700  0.140600  1.0  0.0389
  C  C133  1  0.319800  0.068300  0.060400  1.0  0.0253
  C  C134  1  0.407600  0.156000  0.989000  1.0  0.6287
  C  C135  1  0.979500  0.796500  0.229400  1.0  0.094
  C  C136  1  0.972700  0.981400  0.229200  1.0  0.1071
  C  C137  1  0.177300  0.463000  0.785200  1.0  0.6619
  C  C138  1  0.189300  0.480300  0.859400  1.0  0.0394
  C  C139  1  0.128700  0.380200  0.939600  1.0  0.0244
  C  C140  1  0.145000  0.396600  0.011000  1.0  0.63
  C  C141  1  0.025900  0.208900  0.770600  1.0  0.0953
  C  C142  1  0.210600  0.201900  0.770800  1.0  0.105
  C  C143  1  0.037500  0.751800  0.785200  1.0  0.6572
  C  C144  1  0.951300  0.660300  0.859400  1.0  0.0373
  C  C145  1  0.931700  0.680200  0.939600  1.0  0.025
  C  C146  1  0.844000  0.592400  0.011000  1.0  0.6312
  C  C147  1  0.203500  0.020500  0.770600  1.0  0.0943
  C  C148  1  0.018600  0.027300  0.770800  1.0  0.1048
  C  C149  1  0.501800  0.427300  0.285200  1.0  0.6611
  C  C150  1  0.410300  0.439300  0.359400  1.0  0.0395
  C  C151  1  0.430200  0.378700  0.439600  1.0  0.0248
  C  C152  1  0.342400  0.395000  0.511000  1.0  0.6275
  C  C153  1  0.770500  0.275900  0.270600  1.0  0.0934
  C  C154  1  0.777300  0.460600  0.270800  1.0  0.1094
  C  C155  1  0.213000  0.287500  0.285200  1.0  0.6648
  C  C156  1  0.230300  0.201300  0.359400  1.0  0.038
  C  C157  1  0.130200  0.181700  0.439600  1.0  0.0252
  C  C158  1  0.146600  0.094000  0.511000  1.0  0.633
  C  C159  1  0.958900  0.453500  0.270600  1.0  0.0912
  C  C160  1  0.951900  0.268600  0.270800  1.0  0.1079
  C  C161  1  0.583600  0.083600  0.832800  1.0  0.0782
  C  C162  1  0.681600  0.181600  0.636800  1.0  0.1191
  C  C163  1  0.833600  0.833600  0.332800  1.0  0.0782
  C  C164  1  0.931600  0.931600  0.136800  1.0  0.1191
  C  C165  1  0.166400  0.166400  0.667200  1.0  0.0788
  C  C166  1  0.068400  0.068400  0.863200  1.0  0.1179
  C  C167  1  0.916400  0.416400  0.167200  1.0  0.0788
  C  C168  1  0.818400  0.318400  0.363200  1.0  0.1179
  C  C169  1  0.408700  0.591300  0.000000  1.0  0.0725
  C  C170  1  0.591300  0.408700  0.000000  1.0  0.0742
  C  C171  1  0.341300  0.841300  0.500000  1.0  0.0751
  C  C172  1  0.158700  0.658700  0.500000  1.0  0.0758
  C  C173  1  0.553000  0.553000  0.894000  1.0  0.066
  C  C174  1  0.303000  0.803000  0.394000  1.0  0.066
  C  C175  1  0.197000  0.697000  0.606000  1.0  0.0654
  C  C176  1  0.447000  0.447000  0.106000  1.0  0.0654
  C  C177  1  0.592500  0.592500  0.000000  1.0  0.0932
  C  C178  1  0.407500  0.407500  0.000000  1.0  0.093
  C  C179  1  0.342500  0.657500  0.500000  1.0  0.093
  C  C180  1  0.157500  0.842500  0.500000  1.0  0.094
  N  N181  1  0.612500  0.014800  0.782200  1.0  -0.2905
  N  N182  1  0.561000  0.156900  0.675800  1.0  -0.3163
  N  N183  1  0.528000  0.620800  0.946000  1.0  -0.2739
  N  N184  1  0.605300  0.203000  0.782200  1.0  -0.2904
  N  N185  1  0.763200  0.167300  0.675800  1.0  -0.3105
  N  N186  1  0.526000  0.433200  0.946000  1.0  -0.2767
  N  N187  1  0.764800  0.855300  0.282200  1.0  -0.2923
  N  N188  1  0.906900  0.013200  0.175800  1.0  -0.3186
  N  N189  1  0.370800  0.776000  0.446000  1.0  -0.2739
  N  N190  1  0.953000  0.862500  0.282200  1.0  -0.2938
  N  N191  1  0.917300  0.811000  0.175800  1.0  -0.3191
  N  N192  1  0.183200  0.778000  0.446000  1.0  -0.2727
  N  N193  1  0.144700  0.235200  0.717800  1.0  -0.291
  N  N194  1  0.986800  0.093100  0.824200  1.0  -0.3126
  N  N195  1  0.224000  0.629200  0.554000  1.0  -0.2737
  N  N196  1  0.137500  0.047000  0.717800  1.0  -0.2929
  N  N197  1  0.189000  0.082700  0.824200  1.0  -0.318
  N  N198  1  0.222000  0.816800  0.554000  1.0  -0.2734
  N  N199  1  0.797000  0.394700  0.217800  1.0  -0.2911
  N  N200  1  0.832700  0.236800  0.324200  1.0  -0.3181
  N  N201  1  0.566800  0.474000  0.054000  1.0  -0.277
  N  N202  1  0.985200  0.387500  0.217800  1.0  -0.2892
  N  N203  1  0.843100  0.439000  0.324200  1.0  -0.3151
  N  N204  1  0.379200  0.472000  0.054000  1.0  -0.2728
  O  O205  1  0.738100  0.793900  0.771000  1.0  -0.5893
  O  O206  1  0.616300  0.790500  0.718600  1.0  -0.6206
  O  O207  1  0.901300  0.749800  0.650800  1.0  -0.5078
  O  O208  1  0.839400  0.968700  0.572600  1.0  -0.5007
  O  O209  1  0.977200  0.937500  0.437400  1.0  -0.595
  O  O210  1  0.908800  0.760300  0.483600  1.0  -0.5812
  O  O211  1  0.490900  0.435100  0.771000  1.0  -0.5887
  O  O212  1  0.665100  0.490900  0.718600  1.0  -0.6229
  O  O213  1  0.447900  0.599400  0.650800  1.0  -0.5096
  O  O214  1  0.588000  0.458700  0.572600  1.0  -0.5022
  O  O215  1  0.585400  0.625100  0.437400  1.0  -0.5914
  O  O216  1  0.607600  0.756100  0.483600  1.0  -0.5775
  O  O217  1  0.543900  0.740900  0.271000  1.0  -0.5903
  O  O218  1  0.540500  0.915100  0.218600  1.0  -0.6209
  O  O219  1  0.499800  0.697900  0.150800  1.0  -0.5105
  O  O220  1  0.718700  0.838000  0.072600  1.0  -0.5017
  O  O221  1  0.687500  0.835400  0.937400  1.0  -0.5944
  O  O222  1  0.510300  0.857600  0.983600  1.0  -0.5814
  O  O223  1  0.185100  0.988100  0.271000  1.0  -0.5887
  O  O224  1  0.240900  0.866300  0.218600  1.0  -0.6217
  O  O225  1  0.349400  0.151300  0.150800  1.0  -0.5061
  O  O226  1  0.208700  0.089400  0.072600  1.0  -0.5021
  O  O227  1  0.375100  0.227200  0.937400  1.0  -0.5922
  O  O228  1  0.506100  0.158800  0.983600  1.0  -0.578
  O  O229  1  0.259100  0.456100  0.729000  1.0  -0.5887
  O  O230  1  0.084900  0.459500  0.781400  1.0  -0.6222
  O  O231  1  0.302100  0.500200  0.849200  1.0  -0.5094
  O  O232  1  0.162000  0.281300  0.927400  1.0  -0.5019
  O  O233  1  0.164600  0.312500  0.062600  1.0  -0.5945
  O  O234  1  0.142400  0.489700  0.016400  1.0  -0.5806
  O  O235  1  0.011900  0.814900  0.729000  1.0  -0.589
  O  O236  1  0.133700  0.759100  0.781400  1.0  -0.6217
  O  O237  1  0.848700  0.650600  0.849200  1.0  -0.5082
  O  O238  1  0.910600  0.791300  0.927400  1.0  -0.5016
  O  O239  1  0.772800  0.624900  0.062600  1.0  -0.5914
  O  O240  1  0.841200  0.493900  0.016400  1.0  -0.5813
  O  O241  1  0.564900  0.509100  0.229000  1.0  -0.5897
  O  O242  1  0.509100  0.334900  0.281400  1.0  -0.6205
  O  O243  1  0.400600  0.552100  0.349200  1.0  -0.5088
  O  O244  1  0.541300  0.412000  0.427400  1.0  -0.5029
  O  O245  1  0.374900  0.414600  0.562600  1.0  -0.5925
  O  O246  1  0.243900  0.392400  0.516400  1.0  -0.5806
  O  O247  1  0.206100  0.261900  0.229000  1.0  -0.587
  O  O248  1  0.209500  0.383700  0.281400  1.0  -0.6208
  O  O249  1  0.250200  0.098700  0.349200  1.0  -0.5053
  O  O250  1  0.031300  0.160600  0.427400  1.0  -0.5011
  O  O251  1  0.062500  0.022800  0.562600  1.0  -0.594
  O  O252  1  0.239700  0.091200  0.516400  1.0  -0.5783
