# generated using pymatgen
data_Mn3Re12C12(Se4N3)4
_symmetry_space_group_name_H-M   'P 1'
_cell_length_a   19.85700000
_cell_length_b   19.85700000
_cell_length_c   19.85700000
_cell_angle_alpha   90.00000000
_cell_angle_beta   90.00000000
_cell_angle_gamma   90.00000000
_symmetry_Int_Tables_number   1
_chemical_formula_structural   Mn3Re12C12(Se4N3)4
_chemical_formula_sum   'Mn12 Re48 C48 Se64 N48'
_cell_volume   7829.62401579
_cell_formula_units_Z   4
loop_
 _symmetry_equiv_pos_site_id
 _symmetry_equiv_pos_as_xyz
  1  'x, y, z'
loop_
 _atom_site_type_symbol
 _atom_site_label
 _atom_site_symmetry_multiplicity
 _atom_site_fract_x
 _atom_site_fract_y
 _atom_site_fract_z
 _atom_site_occupancy
 _atom_site_charge
  Mn  Mn1  1  0.000000  0.340000  0.000000  1.0  1.1667
  Mn  Mn2  1  0.500000  0.840000  0.500000  1.0  1.1667
  Mn  Mn3  1  0.000000  0.660000  0.000000  1.0  1.167
  Mn  Mn4  1  0.500000  0.160000  0.500000  1.0  1.167
  Mn  Mn5  1  0.000000  0.000000  0.340000  1.0  1.1671
  Mn  Mn6  1  0.500000  0.500000  0.840000  1.0  1.1671
  Mn  Mn7  1  0.000000  0.000000  0.660000  1.0  1.1667
  Mn  Mn8  1  0.500000  0.500000  0.160000  1.0  1.1667
  Mn  Mn9  1  0.340000  0.000000  0.000000  1.0  1.1665
  Mn  Mn10  1  0.840000  0.500000  0.500000  1.0  1.1665
  Mn  Mn11  1  0.660000  0.000000  0.000000  1.0  1.1672
  Mn  Mn12  1  0.160000  0.500000  0.500000  1.0  1.1672
  Re  Re13  1  0.187700  0.281240  0.187700  1.0  -0.1291
  Re  Re14  1  0.687700  0.781240  0.687700  1.0  -0.1291
  Re  Re15  1  0.812300  0.718760  0.187700  1.0  -0.1295
  Re  Re16  1  0.312300  0.218760  0.687700  1.0  -0.1295
  Re  Re17  1  0.812300  0.281240  0.812300  1.0  -0.1296
  Re  Re18  1  0.312300  0.781240  0.312300  1.0  -0.1296
  Re  Re19  1  0.187700  0.718760  0.812300  1.0  -0.1292
  Re  Re20  1  0.687700  0.218760  0.312300  1.0  -0.1292
  Re  Re21  1  0.187700  0.187700  0.281240  1.0  -0.129
  Re  Re22  1  0.687700  0.687700  0.781240  1.0  -0.129
  Re  Re23  1  0.187700  0.812300  0.718760  1.0  -0.1292
  Re  Re24  1  0.687700  0.312300  0.218760  1.0  -0.1292
  Re  Re25  1  0.812300  0.812300  0.281240  1.0  -0.1296
  Re  Re26  1  0.312300  0.312300  0.781240  1.0  -0.1296
  Re  Re27  1  0.812300  0.187700  0.718760  1.0  -0.1293
  Re  Re28  1  0.312300  0.687700  0.218760  1.0  -0.1293
  Re  Re29  1  0.281240  0.187700  0.187700  1.0  -0.1295
  Re  Re30  1  0.781240  0.687700  0.687700  1.0  -0.1295
  Re  Re31  1  0.718760  0.187700  0.812300  1.0  -0.1291
  Re  Re32  1  0.218760  0.687700  0.312300  1.0  -0.1291
  Re  Re33  1  0.281240  0.812300  0.812300  1.0  -0.1298
  Re  Re34  1  0.781240  0.312300  0.312300  1.0  -0.1298
  Re  Re35  1  0.718760  0.812300  0.187700  1.0  -0.1294
  Re  Re36  1  0.218760  0.312300  0.687700  1.0  -0.1294
  Re  Re37  1  0.281240  0.187700  0.812300  1.0  -0.1296
  Re  Re38  1  0.781240  0.687700  0.312300  1.0  -0.1296
  Re  Re39  1  0.718760  0.812300  0.812300  1.0  -0.1294
  Re  Re40  1  0.218760  0.312300  0.312300  1.0  -0.1294
  Re  Re41  1  0.281240  0.812300  0.187700  1.0  -0.1298
  Re  Re42  1  0.781240  0.312300  0.687700  1.0  -0.1298
  Re  Re43  1  0.718760  0.187700  0.187700  1.0  -0.1293
  Re  Re44  1  0.218760  0.687700  0.687700  1.0  -0.1293
  Re  Re45  1  0.187700  0.187700  0.718760  1.0  -0.1291
  Re  Re46  1  0.687700  0.687700  0.218760  1.0  -0.1291
  Re  Re47  1  0.812300  0.187700  0.281240  1.0  -0.1293
  Re  Re48  1  0.312300  0.687700  0.781240  1.0  -0.1293
  Re  Re49  1  0.812300  0.812300  0.718760  1.0  -0.1295
  Re  Re50  1  0.312300  0.312300  0.218760  1.0  -0.1295
  Re  Re51  1  0.187700  0.812300  0.281240  1.0  -0.1292
  Re  Re52  1  0.687700  0.312300  0.781240  1.0  -0.1292
  Re  Re53  1  0.187700  0.281240  0.812300  1.0  -0.1292
  Re  Re54  1  0.687700  0.781240  0.312300  1.0  -0.1292
  Re  Re55  1  0.187700  0.718760  0.187700  1.0  -0.1292
  Re  Re56  1  0.687700  0.218760  0.687700  1.0  -0.1292
  Re  Re57  1  0.812300  0.281240  0.187700  1.0  -0.1295
  Re  Re58  1  0.312300  0.781240  0.687700  1.0  -0.1295
  Re  Re59  1  0.812300  0.718760  0.812300  1.0  -0.1296
  Re  Re60  1  0.312300  0.218760  0.312300  1.0  -0.1296
  C  C61  1  0.116900  0.315900  0.116900  1.0  0.2195
  C  C62  1  0.616900  0.815900  0.616900  1.0  0.2195
  C  C63  1  0.883100  0.684100  0.116900  1.0  0.2202
  C  C64  1  0.383100  0.184100  0.616900  1.0  0.2202
  C  C65  1  0.883100  0.315900  0.883100  1.0  0.221
  C  C66  1  0.383100  0.815900  0.383100  1.0  0.221
  C  C67  1  0.116900  0.684100  0.883100  1.0  0.2204
  C  C68  1  0.616900  0.184100  0.383100  1.0  0.2204
  C  C69  1  0.116900  0.116900  0.315900  1.0  0.2219
  C  C70  1  0.616900  0.616900  0.815900  1.0  0.2219
  C  C71  1  0.116900  0.883100  0.684100  1.0  0.2216
  C  C72  1  0.616900  0.383100  0.184100  1.0  0.2216
  C  C73  1  0.883100  0.883100  0.315900  1.0  0.2218
  C  C74  1  0.383100  0.383100  0.815900  1.0  0.2218
  C  C75  1  0.883100  0.116900  0.684100  1.0  0.2231
  C  C76  1  0.383100  0.616900  0.184100  1.0  0.2231
  C  C77  1  0.315900  0.116900  0.116900  1.0  0.2202
  C  C78  1  0.815900  0.616900  0.616900  1.0  0.2202
  C  C79  1  0.684100  0.116900  0.883100  1.0  0.22
  C  C80  1  0.184100  0.616900  0.383100  1.0  0.22
  C  C81  1  0.315900  0.883100  0.883100  1.0  0.2203
  C  C82  1  0.815900  0.383100  0.383100  1.0  0.2203
  C  C83  1  0.684100  0.883100  0.116900  1.0  0.2189
  C  C84  1  0.184100  0.383100  0.616900  1.0  0.2189
  C  C85  1  0.315900  0.116900  0.883100  1.0  0.2208
  C  C86  1  0.815900  0.616900  0.383100  1.0  0.2208
  C  C87  1  0.684100  0.883100  0.883100  1.0  0.2197
  C  C88  1  0.184100  0.383100  0.383100  1.0  0.2197
  C  C89  1  0.315900  0.883100  0.116900  1.0  0.2192
  C  C90  1  0.815900  0.383100  0.616900  1.0  0.2192
  C  C91  1  0.684100  0.116900  0.116900  1.0  0.2196
  C  C92  1  0.184100  0.616900  0.616900  1.0  0.2196
  C  C93  1  0.116900  0.116900  0.684100  1.0  0.2223
  C  C94  1  0.616900  0.616900  0.184100  1.0  0.2223
  C  C95  1  0.883100  0.116900  0.315900  1.0  0.2228
  C  C96  1  0.383100  0.616900  0.815900  1.0  0.2228
  C  C97  1  0.883100  0.883100  0.684100  1.0  0.2222
  C  C98  1  0.383100  0.383100  0.184100  1.0  0.2222
  C  C99  1  0.116900  0.883100  0.315900  1.0  0.221
  C  C100  1  0.616900  0.383100  0.815900  1.0  0.221
  C  C101  1  0.116900  0.315900  0.883100  1.0  0.2201
  C  C102  1  0.616900  0.815900  0.383100  1.0  0.2201
  C  C103  1  0.116900  0.684100  0.116900  1.0  0.2202
  C  C104  1  0.616900  0.184100  0.616900  1.0  0.2202
  C  C105  1  0.883100  0.315900  0.116900  1.0  0.2197
  C  C106  1  0.383100  0.815900  0.616900  1.0  0.2197
  C  C107  1  0.883100  0.684100  0.883100  1.0  0.2211
  C  C108  1  0.383100  0.184100  0.383100  1.0  0.2211
  Se  Se109  1  0.279800  0.279800  0.100450  1.0  0.0349
  Se  Se110  1  0.779800  0.779800  0.600450  1.0  0.0349
  Se  Se111  1  0.720200  0.720200  0.100450  1.0  0.0345
  Se  Se112  1  0.220200  0.220200  0.600450  1.0  0.0345
  Se  Se113  1  0.720200  0.279800  0.899550  1.0  0.0338
  Se  Se114  1  0.220200  0.779800  0.399550  1.0  0.0338
  Se  Se115  1  0.279800  0.720200  0.899550  1.0  0.034
  Se  Se116  1  0.779800  0.220200  0.399550  1.0  0.034
  Se  Se117  1  0.100450  0.279800  0.279800  1.0  0.033
  Se  Se118  1  0.600450  0.779800  0.779800  1.0  0.033
  Se  Se119  1  0.100450  0.720200  0.720200  1.0  0.0327
  Se  Se120  1  0.600450  0.220200  0.220200  1.0  0.0327
  Se  Se121  1  0.899550  0.720200  0.279800  1.0  0.0333
  Se  Se122  1  0.399550  0.220200  0.779800  1.0  0.0333
  Se  Se123  1  0.899550  0.279800  0.720200  1.0  0.0336
  Se  Se124  1  0.399550  0.779800  0.220200  1.0  0.0336
  Se  Se125  1  0.279800  0.100450  0.279800  1.0  0.0314
  Se  Se126  1  0.779800  0.600450  0.779800  1.0  0.0314
  Se  Se127  1  0.720200  0.100450  0.720200  1.0  0.0312
  Se  Se128  1  0.220200  0.600450  0.220200  1.0  0.0312
  Se  Se129  1  0.279800  0.899550  0.720200  1.0  0.0327
  Se  Se130  1  0.779800  0.399550  0.220200  1.0  0.0327
  Se  Se131  1  0.720200  0.899550  0.279800  1.0  0.0321
  Se  Se132  1  0.220200  0.399550  0.779800  1.0  0.0321
  Se  Se133  1  0.279800  0.279800  0.899550  1.0  0.0346
  Se  Se134  1  0.779800  0.779800  0.399550  1.0  0.0346
  Se  Se135  1  0.720200  0.720200  0.899550  1.0  0.0331
  Se  Se136  1  0.220200  0.220200  0.399550  1.0  0.0331
  Se  Se137  1  0.279800  0.720200  0.100450  1.0  0.0347
  Se  Se138  1  0.779800  0.220200  0.600450  1.0  0.0347
  Se  Se139  1  0.720200  0.279800  0.100450  1.0  0.0347
  Se  Se140  1  0.220200  0.779800  0.600450  1.0  0.0347
  Se  Se141  1  0.279800  0.100450  0.720200  1.0  0.0315
  Se  Se142  1  0.779800  0.600450  0.220200  1.0  0.0315
  Se  Se143  1  0.720200  0.100450  0.279800  1.0  0.0308
  Se  Se144  1  0.220200  0.600450  0.779800  1.0  0.0308
  Se  Se145  1  0.720200  0.899550  0.720200  1.0  0.0324
  Se  Se146  1  0.220200  0.399550  0.220200  1.0  0.0324
  Se  Se147  1  0.279800  0.899550  0.279800  1.0  0.0327
  Se  Se148  1  0.779800  0.399550  0.779800  1.0  0.0327
  Se  Se149  1  0.100450  0.279800  0.720200  1.0  0.0332
  Se  Se150  1  0.600450  0.779800  0.220200  1.0  0.0332
  Se  Se151  1  0.100450  0.720200  0.279800  1.0  0.0325
  Se  Se152  1  0.600450  0.220200  0.779800  1.0  0.0325
  Se  Se153  1  0.899550  0.279800  0.279800  1.0  0.0337
  Se  Se154  1  0.399550  0.779800  0.779800  1.0  0.0337
  Se  Se155  1  0.899550  0.720200  0.720200  1.0  0.0333
  Se  Se156  1  0.399550  0.220200  0.220200  1.0  0.0333
  Se  Se157  1  0.160750  0.160750  0.160750  1.0  0.0421
  Se  Se158  1  0.660750  0.660750  0.660750  1.0  0.0421
  Se  Se159  1  0.839250  0.839250  0.160750  1.0  0.0426
  Se  Se160  1  0.339250  0.339250  0.660750  1.0  0.0426
  Se  Se161  1  0.839250  0.160750  0.839250  1.0  0.0424
  Se  Se162  1  0.339250  0.660750  0.339250  1.0  0.0424
  Se  Se163  1  0.160750  0.839250  0.839250  1.0  0.0413
  Se  Se164  1  0.660750  0.339250  0.339250  1.0  0.0413
  Se  Se165  1  0.160750  0.160750  0.839250  1.0  0.0415
  Se  Se166  1  0.660750  0.660750  0.339250  1.0  0.0415
  Se  Se167  1  0.839250  0.839250  0.839250  1.0  0.0423
  Se  Se168  1  0.339250  0.339250  0.339250  1.0  0.0423
  Se  Se169  1  0.160750  0.839250  0.160750  1.0  0.0417
  Se  Se170  1  0.660750  0.339250  0.660750  1.0  0.0417
  Se  Se171  1  0.839250  0.160750  0.160750  1.0  0.0429
  Se  Se172  1  0.339250  0.660750  0.660750  1.0  0.0429
  N  N173  1  0.077500  0.332200  0.077500  1.0  -0.4296
  N  N174  1  0.577500  0.832200  0.577500  1.0  -0.4296
  N  N175  1  0.922500  0.667800  0.077500  1.0  -0.43
  N  N176  1  0.422500  0.167800  0.577500  1.0  -0.43
  N  N177  1  0.922500  0.332200  0.922500  1.0  -0.4302
  N  N178  1  0.422500  0.832200  0.422500  1.0  -0.4302
  N  N179  1  0.077500  0.667800  0.922500  1.0  -0.4302
  N  N180  1  0.577500  0.167800  0.422500  1.0  -0.4302
  N  N181  1  0.077500  0.077500  0.332200  1.0  -0.4306
  N  N182  1  0.577500  0.577500  0.832200  1.0  -0.4306
  N  N183  1  0.077500  0.922500  0.667800  1.0  -0.4294
  N  N184  1  0.577500  0.422500  0.167800  1.0  -0.4294
  N  N185  1  0.922500  0.922500  0.332200  1.0  -0.43
  N  N186  1  0.422500  0.422500  0.832200  1.0  -0.43
  N  N187  1  0.922500  0.077500  0.667800  1.0  -0.4296
  N  N188  1  0.422500  0.577500  0.167800  1.0  -0.4296
  N  N189  1  0.332200  0.077500  0.077500  1.0  -0.4309
  N  N190  1  0.832200  0.577500  0.577500  1.0  -0.4309
  N  N191  1  0.667800  0.077500  0.922500  1.0  -0.4307
  N  N192  1  0.167800  0.577500  0.422500  1.0  -0.4307
  N  N193  1  0.332200  0.922500  0.922500  1.0  -0.431
  N  N194  1  0.832200  0.422500  0.422500  1.0  -0.431
  N  N195  1  0.667800  0.922500  0.077500  1.0  -0.4301
  N  N196  1  0.167800  0.422500  0.577500  1.0  -0.4301
  N  N197  1  0.332200  0.077500  0.922500  1.0  -0.4315
  N  N198  1  0.832200  0.577500  0.422500  1.0  -0.4315
  N  N199  1  0.667800  0.922500  0.922500  1.0  -0.4307
  N  N200  1  0.167800  0.422500  0.422500  1.0  -0.4307
  N  N201  1  0.332200  0.922500  0.077500  1.0  -0.4303
  N  N202  1  0.832200  0.422500  0.577500  1.0  -0.4303
  N  N203  1  0.667800  0.077500  0.077500  1.0  -0.4303
  N  N204  1  0.167800  0.577500  0.577500  1.0  -0.4303
  N  N205  1  0.077500  0.077500  0.667800  1.0  -0.4297
  N  N206  1  0.577500  0.577500  0.167800  1.0  -0.4297
  N  N207  1  0.922500  0.077500  0.332200  1.0  -0.4305
  N  N208  1  0.422500  0.577500  0.832200  1.0  -0.4305
  N  N209  1  0.922500  0.922500  0.667800  1.0  -0.4293
  N  N210  1  0.422500  0.422500  0.167800  1.0  -0.4293
  N  N211  1  0.077500  0.922500  0.332200  1.0  -0.4301
  N  N212  1  0.577500  0.422500  0.832200  1.0  -0.4301
  N  N213  1  0.077500  0.332200  0.922500  1.0  -0.4305
  N  N214  1  0.577500  0.832200  0.422500  1.0  -0.4305
  N  N215  1  0.077500  0.667800  0.077500  1.0  -0.4298
  N  N216  1  0.577500  0.167800  0.577500  1.0  -0.4298
  N  N217  1  0.922500  0.332200  0.077500  1.0  -0.4293
  N  N218  1  0.422500  0.832200  0.577500  1.0  -0.4293
  N  N219  1  0.922500  0.667800  0.922500  1.0  -0.4303
  N  N220  1  0.422500  0.167800  0.422500  1.0  -0.4303
