# generated using pymatgen
data_Co3Re12C12(Se4N3)4
_symmetry_space_group_name_H-M   'P 1'
_cell_length_a   19.63400000
_cell_length_b   19.63400000
_cell_length_c   19.63400000
_cell_angle_alpha   90.00000000
_cell_angle_beta   90.00000000
_cell_angle_gamma   90.00000000
_symmetry_Int_Tables_number   1
_chemical_formula_structural   Co3Re12C12(Se4N3)4
_chemical_formula_sum   'Co12 Re48 C48 Se64 N48'
_cell_volume   7568.78833210
_cell_formula_units_Z   4
loop_
 _symmetry_equiv_pos_site_id
 _symmetry_equiv_pos_as_xyz
  1  'x, y, z'
loop_
 _atom_site_type_symbol
 _atom_site_label
 _atom_site_symmetry_multiplicity
 _atom_site_fract_x
 _atom_site_fract_y
 _atom_site_fract_z
 _atom_site_occupancy
 _atom_site_charge
  Co  Co1  1  0.000000  0.341900  0.000000  1.0  0.9469
  Co  Co2  1  0.500000  0.841900  0.500000  1.0  0.9469
  Co  Co3  1  0.000000  0.658100  0.000000  1.0  0.9473
  Co  Co4  1  0.500000  0.158100  0.500000  1.0  0.9473
  Co  Co5  1  0.000000  0.000000  0.341900  1.0  0.9468
  Co  Co6  1  0.500000  0.500000  0.841900  1.0  0.9468
  Co  Co7  1  0.000000  0.000000  0.658100  1.0  0.9466
  Co  Co8  1  0.500000  0.500000  0.158100  1.0  0.9466
  Co  Co9  1  0.341900  0.000000  0.000000  1.0  0.9475
  Co  Co10  1  0.841900  0.500000  0.500000  1.0  0.9475
  Co  Co11  1  0.658100  0.000000  0.000000  1.0  0.948
  Co  Co12  1  0.158100  0.500000  0.500000  1.0  0.948
  Re  Re13  1  0.186790  0.281790  0.186790  1.0  -0.0975
  Re  Re14  1  0.686790  0.781790  0.686790  1.0  -0.0975
  Re  Re15  1  0.813210  0.718210  0.186790  1.0  -0.0985
  Re  Re16  1  0.313210  0.218210  0.686790  1.0  -0.0985
  Re  Re17  1  0.813210  0.281790  0.813210  1.0  -0.0982
  Re  Re18  1  0.313210  0.781790  0.313210  1.0  -0.0982
  Re  Re19  1  0.186790  0.718210  0.813210  1.0  -0.0972
  Re  Re20  1  0.686790  0.218210  0.313210  1.0  -0.0972
  Re  Re21  1  0.186790  0.186790  0.281790  1.0  -0.0972
  Re  Re22  1  0.686790  0.686790  0.781790  1.0  -0.0972
  Re  Re23  1  0.186790  0.813210  0.718210  1.0  -0.0971
  Re  Re24  1  0.686790  0.313210  0.218210  1.0  -0.0971
  Re  Re25  1  0.813210  0.813210  0.281790  1.0  -0.0982
  Re  Re26  1  0.313210  0.313210  0.781790  1.0  -0.0982
  Re  Re27  1  0.813210  0.186790  0.718210  1.0  -0.0981
  Re  Re28  1  0.313210  0.686790  0.218210  1.0  -0.0981
  Re  Re29  1  0.281790  0.186790  0.186790  1.0  -0.0982
  Re  Re30  1  0.781790  0.686790  0.686790  1.0  -0.0982
  Re  Re31  1  0.718210  0.186790  0.813210  1.0  -0.0972
  Re  Re32  1  0.218210  0.686790  0.313210  1.0  -0.0972
  Re  Re33  1  0.281790  0.813210  0.813210  1.0  -0.0979
  Re  Re34  1  0.781790  0.313210  0.313210  1.0  -0.0979
  Re  Re35  1  0.718210  0.813210  0.186790  1.0  -0.0975
  Re  Re36  1  0.218210  0.313210  0.686790  1.0  -0.0975
  Re  Re37  1  0.281790  0.186790  0.813210  1.0  -0.0979
  Re  Re38  1  0.781790  0.686790  0.313210  1.0  -0.0979
  Re  Re39  1  0.718210  0.813210  0.813210  1.0  -0.0972
  Re  Re40  1  0.218210  0.313210  0.313210  1.0  -0.0972
  Re  Re41  1  0.281790  0.813210  0.186790  1.0  -0.0982
  Re  Re42  1  0.781790  0.313210  0.686790  1.0  -0.0982
  Re  Re43  1  0.718210  0.186790  0.186790  1.0  -0.0977
  Re  Re44  1  0.218210  0.686790  0.686790  1.0  -0.0977
  Re  Re45  1  0.186790  0.186790  0.718210  1.0  -0.0974
  Re  Re46  1  0.686790  0.686790  0.218210  1.0  -0.0974
  Re  Re47  1  0.813210  0.186790  0.281790  1.0  -0.0982
  Re  Re48  1  0.313210  0.686790  0.781790  1.0  -0.0982
  Re  Re49  1  0.813210  0.813210  0.718210  1.0  -0.0981
  Re  Re50  1  0.313210  0.313210  0.218210  1.0  -0.0981
  Re  Re51  1  0.186790  0.813210  0.281790  1.0  -0.0971
  Re  Re52  1  0.686790  0.313210  0.781790  1.0  -0.0971
  Re  Re53  1  0.186790  0.281790  0.813210  1.0  -0.0972
  Re  Re54  1  0.686790  0.781790  0.313210  1.0  -0.0972
  Re  Re55  1  0.186790  0.718210  0.186790  1.0  -0.0976
  Re  Re56  1  0.686790  0.218210  0.686790  1.0  -0.0976
  Re  Re57  1  0.813210  0.281790  0.186790  1.0  -0.0985
  Re  Re58  1  0.313210  0.781790  0.686790  1.0  -0.0985
  Re  Re59  1  0.813210  0.718210  0.813210  1.0  -0.0981
  Re  Re60  1  0.313210  0.218210  0.313210  1.0  -0.0981
  C  C61  1  0.115200  0.315700  0.115200  1.0  0.2025
  C  C62  1  0.615200  0.815700  0.615200  1.0  0.2025
  C  C63  1  0.884800  0.684300  0.115200  1.0  0.2024
  C  C64  1  0.384800  0.184300  0.615200  1.0  0.2024
  C  C65  1  0.884800  0.315700  0.884800  1.0  0.2031
  C  C66  1  0.384800  0.815700  0.384800  1.0  0.2031
  C  C67  1  0.115200  0.684300  0.884800  1.0  0.2026
  C  C68  1  0.615200  0.184300  0.384800  1.0  0.2026
  C  C69  1  0.115200  0.115200  0.315700  1.0  0.2044
  C  C70  1  0.615200  0.615200  0.815700  1.0  0.2044
  C  C71  1  0.115200  0.884800  0.684300  1.0  0.2043
  C  C72  1  0.615200  0.384800  0.184300  1.0  0.2043
  C  C73  1  0.884800  0.884800  0.315700  1.0  0.204
  C  C74  1  0.384800  0.384800  0.815700  1.0  0.204
  C  C75  1  0.884800  0.115200  0.684300  1.0  0.2051
  C  C76  1  0.384800  0.615200  0.184300  1.0  0.2051
  C  C77  1  0.315700  0.115200  0.115200  1.0  0.2024
  C  C78  1  0.815700  0.615200  0.615200  1.0  0.2024
  C  C79  1  0.684300  0.115200  0.884800  1.0  0.2021
  C  C80  1  0.184300  0.615200  0.384800  1.0  0.2021
  C  C81  1  0.315700  0.884800  0.884800  1.0  0.2021
  C  C82  1  0.815700  0.384800  0.384800  1.0  0.2021
  C  C83  1  0.684300  0.884800  0.115200  1.0  0.2016
  C  C84  1  0.184300  0.384800  0.615200  1.0  0.2016
  C  C85  1  0.315700  0.115200  0.884800  1.0  0.2026
  C  C86  1  0.815700  0.615200  0.384800  1.0  0.2026
  C  C87  1  0.684300  0.884800  0.884800  1.0  0.2018
  C  C88  1  0.184300  0.384800  0.384800  1.0  0.2018
  C  C89  1  0.315700  0.884800  0.115200  1.0  0.2014
  C  C90  1  0.815700  0.384800  0.615200  1.0  0.2014
  C  C91  1  0.684300  0.115200  0.115200  1.0  0.2022
  C  C92  1  0.184300  0.615200  0.615200  1.0  0.2022
  C  C93  1  0.115200  0.115200  0.684300  1.0  0.2048
  C  C94  1  0.615200  0.615200  0.184300  1.0  0.2048
  C  C95  1  0.884800  0.115200  0.315700  1.0  0.2049
  C  C96  1  0.384800  0.615200  0.815700  1.0  0.2049
  C  C97  1  0.884800  0.884800  0.684300  1.0  0.2041
  C  C98  1  0.384800  0.384800  0.184300  1.0  0.2041
  C  C99  1  0.115200  0.884800  0.315700  1.0  0.2039
  C  C100  1  0.615200  0.384800  0.815700  1.0  0.2039
  C  C101  1  0.115200  0.315700  0.884800  1.0  0.2028
  C  C102  1  0.615200  0.815700  0.384800  1.0  0.2028
  C  C103  1  0.115200  0.684300  0.115200  1.0  0.2027
  C  C104  1  0.615200  0.184300  0.615200  1.0  0.2027
  C  C105  1  0.884800  0.315700  0.115200  1.0  0.2023
  C  C106  1  0.384800  0.815700  0.615200  1.0  0.2023
  C  C107  1  0.884800  0.684300  0.884800  1.0  0.2028
  C  C108  1  0.384800  0.184300  0.384800  1.0  0.2028
  Se  Se109  1  0.280070  0.280070  0.098300  1.0  0.0462
  Se  Se110  1  0.780070  0.780070  0.598300  1.0  0.0462
  Se  Se111  1  0.719930  0.719930  0.098300  1.0  0.0457
  Se  Se112  1  0.219930  0.219930  0.598300  1.0  0.0457
  Se  Se113  1  0.719930  0.280070  0.901700  1.0  0.0445
  Se  Se114  1  0.219930  0.780070  0.401700  1.0  0.0445
  Se  Se115  1  0.280070  0.719930  0.901700  1.0  0.0448
  Se  Se116  1  0.780070  0.219930  0.401700  1.0  0.0448
  Se  Se117  1  0.098300  0.280070  0.280070  1.0  0.0439
  Se  Se118  1  0.598300  0.780070  0.780070  1.0  0.0439
  Se  Se119  1  0.098300  0.719930  0.719930  1.0  0.0437
  Se  Se120  1  0.598300  0.219930  0.219930  1.0  0.0437
  Se  Se121  1  0.901700  0.719930  0.280070  1.0  0.0446
  Se  Se122  1  0.401700  0.219930  0.780070  1.0  0.0446
  Se  Se123  1  0.901700  0.280070  0.719930  1.0  0.0447
  Se  Se124  1  0.401700  0.780070  0.219930  1.0  0.0447
  Se  Se125  1  0.280070  0.098300  0.280070  1.0  0.0425
  Se  Se126  1  0.780070  0.598300  0.780070  1.0  0.0425
  Se  Se127  1  0.719930  0.098300  0.719930  1.0  0.042
  Se  Se128  1  0.219930  0.598300  0.219930  1.0  0.042
  Se  Se129  1  0.280070  0.901700  0.719930  1.0  0.0438
  Se  Se130  1  0.780070  0.401700  0.219930  1.0  0.0438
  Se  Se131  1  0.719930  0.901700  0.280070  1.0  0.0431
  Se  Se132  1  0.219930  0.401700  0.780070  1.0  0.0431
  Se  Se133  1  0.280070  0.280070  0.901700  1.0  0.0454
  Se  Se134  1  0.780070  0.780070  0.401700  1.0  0.0454
  Se  Se135  1  0.719930  0.719930  0.901700  1.0  0.0439
  Se  Se136  1  0.219930  0.219930  0.401700  1.0  0.0439
  Se  Se137  1  0.280070  0.719930  0.098300  1.0  0.046
  Se  Se138  1  0.780070  0.219930  0.598300  1.0  0.046
  Se  Se139  1  0.719930  0.280070  0.098300  1.0  0.0459
  Se  Se140  1  0.219930  0.780070  0.598300  1.0  0.0459
  Se  Se141  1  0.280070  0.098300  0.719930  1.0  0.0424
  Se  Se142  1  0.780070  0.598300  0.219930  1.0  0.0424
  Se  Se143  1  0.719930  0.098300  0.280070  1.0  0.0418
  Se  Se144  1  0.219930  0.598300  0.780070  1.0  0.0418
  Se  Se145  1  0.719930  0.901700  0.719930  1.0  0.0433
  Se  Se146  1  0.219930  0.401700  0.219930  1.0  0.0433
  Se  Se147  1  0.280070  0.901700  0.280070  1.0  0.0438
  Se  Se148  1  0.780070  0.401700  0.780070  1.0  0.0438
  Se  Se149  1  0.098300  0.280070  0.719930  1.0  0.0441
  Se  Se150  1  0.598300  0.780070  0.219930  1.0  0.0441
  Se  Se151  1  0.098300  0.719930  0.280070  1.0  0.0435
  Se  Se152  1  0.598300  0.219930  0.780070  1.0  0.0435
  Se  Se153  1  0.901700  0.280070  0.280070  1.0  0.0448
  Se  Se154  1  0.401700  0.780070  0.780070  1.0  0.0448
  Se  Se155  1  0.901700  0.719930  0.719930  1.0  0.0444
  Se  Se156  1  0.401700  0.219930  0.219930  1.0  0.0444
  Se  Se157  1  0.159350  0.159350  0.159350  1.0  0.0545
  Se  Se158  1  0.659350  0.659350  0.659350  1.0  0.0545
  Se  Se159  1  0.840650  0.840650  0.159350  1.0  0.0546
  Se  Se160  1  0.340650  0.340650  0.659350  1.0  0.0546
  Se  Se161  1  0.840650  0.159350  0.840650  1.0  0.0544
  Se  Se162  1  0.340650  0.659350  0.340650  1.0  0.0544
  Se  Se163  1  0.159350  0.840650  0.840650  1.0  0.0536
  Se  Se164  1  0.659350  0.340650  0.340650  1.0  0.0536
  Se  Se165  1  0.159350  0.159350  0.840650  1.0  0.0539
  Se  Se166  1  0.659350  0.659350  0.340650  1.0  0.0539
  Se  Se167  1  0.840650  0.840650  0.840650  1.0  0.0543
  Se  Se168  1  0.340650  0.340650  0.340650  1.0  0.0543
  Se  Se169  1  0.159350  0.840650  0.159350  1.0  0.0539
  Se  Se170  1  0.659350  0.340650  0.659350  1.0  0.0539
  Se  Se171  1  0.840650  0.159350  0.159350  1.0  0.0552
  Se  Se172  1  0.340650  0.659350  0.659350  1.0  0.0552
  N  N173  1  0.075300  0.334200  0.075300  1.0  -0.4036
  N  N174  1  0.575300  0.834200  0.575300  1.0  -0.4036
  N  N175  1  0.924700  0.665800  0.075300  1.0  -0.4031
  N  N176  1  0.424700  0.165800  0.575300  1.0  -0.4031
  N  N177  1  0.924700  0.334200  0.924700  1.0  -0.404
  N  N178  1  0.424700  0.834200  0.424700  1.0  -0.404
  N  N179  1  0.075300  0.665800  0.924700  1.0  -0.4038
  N  N180  1  0.575300  0.165800  0.424700  1.0  -0.4038
  N  N181  1  0.075300  0.075300  0.334200  1.0  -0.405
  N  N182  1  0.575300  0.575300  0.834200  1.0  -0.405
  N  N183  1  0.075300  0.924700  0.665800  1.0  -0.4059
  N  N184  1  0.575300  0.424700  0.165800  1.0  -0.4059
  N  N185  1  0.924700  0.924700  0.334200  1.0  -0.4042
  N  N186  1  0.424700  0.424700  0.834200  1.0  -0.4042
  N  N187  1  0.924700  0.075300  0.665800  1.0  -0.406
  N  N188  1  0.424700  0.575300  0.165800  1.0  -0.406
  N  N189  1  0.334200  0.075300  0.075300  1.0  -0.4035
  N  N190  1  0.834200  0.575300  0.575300  1.0  -0.4035
  N  N191  1  0.665800  0.075300  0.924700  1.0  -0.4045
  N  N192  1  0.165800  0.575300  0.424700  1.0  -0.4045
  N  N193  1  0.334200  0.924700  0.924700  1.0  -0.4037
  N  N194  1  0.834200  0.424700  0.424700  1.0  -0.4037
  N  N195  1  0.665800  0.924700  0.075300  1.0  -0.404
  N  N196  1  0.165800  0.424700  0.575300  1.0  -0.404
  N  N197  1  0.334200  0.075300  0.924700  1.0  -0.4041
  N  N198  1  0.834200  0.575300  0.424700  1.0  -0.4041
  N  N199  1  0.665800  0.924700  0.924700  1.0  -0.4044
  N  N200  1  0.165800  0.424700  0.424700  1.0  -0.4044
  N  N201  1  0.334200  0.924700  0.075300  1.0  -0.4032
  N  N202  1  0.834200  0.424700  0.575300  1.0  -0.4032
  N  N203  1  0.665800  0.075300  0.075300  1.0  -0.4041
  N  N204  1  0.165800  0.575300  0.575300  1.0  -0.4041
  N  N205  1  0.075300  0.075300  0.665800  1.0  -0.4063
  N  N206  1  0.575300  0.575300  0.165800  1.0  -0.4063
  N  N207  1  0.924700  0.075300  0.334200  1.0  -0.4045
  N  N208  1  0.424700  0.575300  0.834200  1.0  -0.4045
  N  N209  1  0.924700  0.924700  0.665800  1.0  -0.4056
  N  N210  1  0.424700  0.424700  0.165800  1.0  -0.4056
  N  N211  1  0.075300  0.924700  0.334200  1.0  -0.4048
  N  N212  1  0.575300  0.424700  0.834200  1.0  -0.4048
  N  N213  1  0.075300  0.334200  0.924700  1.0  -0.4045
  N  N214  1  0.575300  0.834200  0.424700  1.0  -0.4045
  N  N215  1  0.075300  0.665800  0.075300  1.0  -0.4033
  N  N216  1  0.575300  0.165800  0.575300  1.0  -0.4033
  N  N217  1  0.924700  0.334200  0.075300  1.0  -0.4032
  N  N218  1  0.424700  0.834200  0.575300  1.0  -0.4032
  N  N219  1  0.924700  0.665800  0.924700  1.0  -0.4035
  N  N220  1  0.424700  0.165800  0.424700  1.0  -0.4035
