# generated using pymatgen
data_Mn3Re12C12(Se4N3)4
_symmetry_space_group_name_H-M   'P 1'
_cell_length_a   20.06000000
_cell_length_b   20.06000000
_cell_length_c   20.06000000
_cell_angle_alpha   90.00000000
_cell_angle_beta   90.00000000
_cell_angle_gamma   90.00000000
_symmetry_Int_Tables_number   1
_chemical_formula_structural   Mn3Re12C12(Se4N3)4
_chemical_formula_sum   'Mn12 Re48 C48 Se64 N48'
_cell_volume   8072.21621600
_cell_formula_units_Z   4
loop_
 _symmetry_equiv_pos_site_id
 _symmetry_equiv_pos_as_xyz
  1  'x, y, z'
loop_
 _atom_site_type_symbol
 _atom_site_label
 _atom_site_symmetry_multiplicity
 _atom_site_fract_x
 _atom_site_fract_y
 _atom_site_fract_z
 _atom_site_occupancy
 _atom_site_charge
  Mn  Mn1  1  0.000000  0.318700  0.000000  1.0  1.2116
  Mn  Mn2  1  0.500000  0.818700  0.500000  1.0  1.2116
  Mn  Mn3  1  0.000000  0.681300  0.000000  1.0  1.213
  Mn  Mn4  1  0.500000  0.181300  0.500000  1.0  1.213
  Mn  Mn5  1  0.000000  0.000000  0.318700  1.0  1.2133
  Mn  Mn6  1  0.500000  0.500000  0.818700  1.0  1.2133
  Mn  Mn7  1  0.000000  0.000000  0.681300  1.0  1.2127
  Mn  Mn8  1  0.500000  0.500000  0.181300  1.0  1.2127
  Mn  Mn9  1  0.318700  0.000000  0.000000  1.0  1.2126
  Mn  Mn10  1  0.818700  0.500000  0.500000  1.0  1.2126
  Mn  Mn11  1  0.681300  0.000000  0.000000  1.0  1.2133
  Mn  Mn12  1  0.181300  0.500000  0.500000  1.0  1.2133
  Re  Re13  1  0.188240  0.280780  0.188240  1.0  -0.1193
  Re  Re14  1  0.688240  0.780780  0.688240  1.0  -0.1193
  Re  Re15  1  0.811760  0.719220  0.188240  1.0  -0.1198
  Re  Re16  1  0.311760  0.219220  0.688240  1.0  -0.1198
  Re  Re17  1  0.811760  0.280780  0.811760  1.0  -0.1201
  Re  Re18  1  0.311760  0.780780  0.311760  1.0  -0.1201
  Re  Re19  1  0.188240  0.719220  0.811760  1.0  -0.1193
  Re  Re20  1  0.688240  0.219220  0.311760  1.0  -0.1193
  Re  Re21  1  0.188240  0.188240  0.280780  1.0  -0.119
  Re  Re22  1  0.688240  0.688240  0.780780  1.0  -0.119
  Re  Re23  1  0.188240  0.811760  0.719220  1.0  -0.1193
  Re  Re24  1  0.688240  0.311760  0.219220  1.0  -0.1193
  Re  Re25  1  0.811760  0.811760  0.280780  1.0  -0.1198
  Re  Re26  1  0.311760  0.311760  0.780780  1.0  -0.1198
  Re  Re27  1  0.811760  0.188240  0.719220  1.0  -0.1197
  Re  Re28  1  0.311760  0.688240  0.219220  1.0  -0.1197
  Re  Re29  1  0.280780  0.188240  0.188240  1.0  -0.12
  Re  Re30  1  0.780780  0.688240  0.688240  1.0  -0.12
  Re  Re31  1  0.719220  0.188240  0.811760  1.0  -0.1196
  Re  Re32  1  0.219220  0.688240  0.311760  1.0  -0.1196
  Re  Re33  1  0.280780  0.811760  0.811760  1.0  -0.1203
  Re  Re34  1  0.780780  0.311760  0.311760  1.0  -0.1203
  Re  Re35  1  0.719220  0.811760  0.188240  1.0  -0.1196
  Re  Re36  1  0.219220  0.311760  0.688240  1.0  -0.1196
  Re  Re37  1  0.280780  0.188240  0.811760  1.0  -0.12
  Re  Re38  1  0.780780  0.688240  0.311760  1.0  -0.12
  Re  Re39  1  0.719220  0.811760  0.811760  1.0  -0.1199
  Re  Re40  1  0.219220  0.311760  0.311760  1.0  -0.1199
  Re  Re41  1  0.280780  0.811760  0.188240  1.0  -0.12
  Re  Re42  1  0.780780  0.311760  0.688240  1.0  -0.12
  Re  Re43  1  0.719220  0.188240  0.188240  1.0  -0.1196
  Re  Re44  1  0.219220  0.688240  0.688240  1.0  -0.1196
  Re  Re45  1  0.188240  0.188240  0.719220  1.0  -0.1193
  Re  Re46  1  0.688240  0.688240  0.219220  1.0  -0.1193
  Re  Re47  1  0.811760  0.188240  0.280780  1.0  -0.1195
  Re  Re48  1  0.311760  0.688240  0.780780  1.0  -0.1195
  Re  Re49  1  0.811760  0.811760  0.719220  1.0  -0.1198
  Re  Re50  1  0.311760  0.311760  0.219220  1.0  -0.1198
  Re  Re51  1  0.188240  0.811760  0.280780  1.0  -0.1192
  Re  Re52  1  0.688240  0.311760  0.780780  1.0  -0.1192
  Re  Re53  1  0.188240  0.280780  0.811760  1.0  -0.1195
  Re  Re54  1  0.688240  0.780780  0.311760  1.0  -0.1195
  Re  Re55  1  0.188240  0.719220  0.188240  1.0  -0.1193
  Re  Re56  1  0.688240  0.219220  0.688240  1.0  -0.1193
  Re  Re57  1  0.811760  0.280780  0.188240  1.0  -0.1198
  Re  Re58  1  0.311760  0.780780  0.688240  1.0  -0.1198
  Re  Re59  1  0.811760  0.719220  0.811760  1.0  -0.1199
  Re  Re60  1  0.311760  0.219220  0.311760  1.0  -0.1199
  C  C61  1  0.115900  0.308900  0.115900  1.0  0.2051
  C  C62  1  0.615900  0.808900  0.615900  1.0  0.2051
  C  C63  1  0.884100  0.691100  0.115900  1.0  0.2048
  C  C64  1  0.384100  0.191100  0.615900  1.0  0.2048
  C  C65  1  0.884100  0.308900  0.884100  1.0  0.2056
  C  C66  1  0.384100  0.808900  0.384100  1.0  0.2056
  C  C67  1  0.115900  0.691100  0.884100  1.0  0.2058
  C  C68  1  0.615900  0.191100  0.384100  1.0  0.2058
  C  C69  1  0.115900  0.115900  0.308900  1.0  0.2063
  C  C70  1  0.615900  0.615900  0.808900  1.0  0.2063
  C  C71  1  0.115900  0.884100  0.691100  1.0  0.2074
  C  C72  1  0.615900  0.384100  0.191100  1.0  0.2074
  C  C73  1  0.884100  0.884100  0.308900  1.0  0.2069
  C  C74  1  0.384100  0.384100  0.808900  1.0  0.2069
  C  C75  1  0.884100  0.115900  0.691100  1.0  0.2065
  C  C76  1  0.384100  0.615900  0.191100  1.0  0.2065
  C  C77  1  0.308900  0.115900  0.115900  1.0  0.2036
  C  C78  1  0.808900  0.615900  0.615900  1.0  0.2036
  C  C79  1  0.691100  0.115900  0.884100  1.0  0.2047
  C  C80  1  0.191100  0.615900  0.384100  1.0  0.2047
  C  C81  1  0.308900  0.884100  0.884100  1.0  0.2051
  C  C82  1  0.808900  0.384100  0.384100  1.0  0.2051
  C  C83  1  0.691100  0.884100  0.115900  1.0  0.205
  C  C84  1  0.191100  0.384100  0.615900  1.0  0.205
  C  C85  1  0.308900  0.115900  0.884100  1.0  0.2044
  C  C86  1  0.808900  0.615900  0.384100  1.0  0.2044
  C  C87  1  0.691100  0.884100  0.884100  1.0  0.2056
  C  C88  1  0.191100  0.384100  0.384100  1.0  0.2056
  C  C89  1  0.308900  0.884100  0.115900  1.0  0.2041
  C  C90  1  0.808900  0.384100  0.615900  1.0  0.2041
  C  C91  1  0.691100  0.115900  0.115900  1.0  0.2043
  C  C92  1  0.191100  0.615900  0.615900  1.0  0.2043
  C  C93  1  0.115900  0.115900  0.691100  1.0  0.2067
  C  C94  1  0.615900  0.615900  0.191100  1.0  0.2067
  C  C95  1  0.884100  0.115900  0.308900  1.0  0.2063
  C  C96  1  0.384100  0.615900  0.808900  1.0  0.2063
  C  C97  1  0.884100  0.884100  0.691100  1.0  0.207
  C  C98  1  0.384100  0.384100  0.191100  1.0  0.207
  C  C99  1  0.115900  0.884100  0.308900  1.0  0.2072
  C  C100  1  0.615900  0.384100  0.808900  1.0  0.2072
  C  C101  1  0.115900  0.308900  0.884100  1.0  0.2056
  C  C102  1  0.615900  0.808900  0.384100  1.0  0.2056
  C  C103  1  0.115900  0.691100  0.115900  1.0  0.2056
  C  C104  1  0.615900  0.191100  0.615900  1.0  0.2056
  C  C105  1  0.884100  0.308900  0.115900  1.0  0.2044
  C  C106  1  0.384100  0.808900  0.615900  1.0  0.2044
  C  C107  1  0.884100  0.691100  0.884100  1.0  0.2056
  C  C108  1  0.384100  0.191100  0.384100  1.0  0.2056
  Se  Se109  1  0.279850  0.279850  0.102160  1.0  0.0267
  Se  Se110  1  0.779850  0.779850  0.602160  1.0  0.0267
  Se  Se111  1  0.720150  0.720150  0.102160  1.0  0.0271
  Se  Se112  1  0.220150  0.220150  0.602160  1.0  0.0271
  Se  Se113  1  0.720150  0.279850  0.897840  1.0  0.0285
  Se  Se114  1  0.220150  0.779850  0.397840  1.0  0.0285
  Se  Se115  1  0.279850  0.720150  0.897840  1.0  0.0289
  Se  Se116  1  0.779850  0.220150  0.397840  1.0  0.0289
  Se  Se117  1  0.102160  0.279850  0.279850  1.0  0.0295
  Se  Se118  1  0.602160  0.779850  0.779850  1.0  0.0295
  Se  Se119  1  0.102160  0.720150  0.720150  1.0  0.0291
  Se  Se120  1  0.602160  0.220150  0.220150  1.0  0.0291
  Se  Se121  1  0.897840  0.720150  0.279850  1.0  0.0303
  Se  Se122  1  0.397840  0.220150  0.779850  1.0  0.0303
  Se  Se123  1  0.897840  0.279850  0.720150  1.0  0.0303
  Se  Se124  1  0.397840  0.779850  0.220150  1.0  0.0303
  Se  Se125  1  0.279850  0.102160  0.279850  1.0  0.0265
  Se  Se126  1  0.779850  0.602160  0.779850  1.0  0.0265
  Se  Se127  1  0.720150  0.102160  0.720150  1.0  0.0262
  Se  Se128  1  0.220150  0.602160  0.220150  1.0  0.0262
  Se  Se129  1  0.279850  0.897840  0.720150  1.0  0.029
  Se  Se130  1  0.779850  0.397840  0.220150  1.0  0.029
  Se  Se131  1  0.720150  0.897840  0.279850  1.0  0.0283
  Se  Se132  1  0.220150  0.397840  0.779850  1.0  0.0283
  Se  Se133  1  0.279850  0.279850  0.897840  1.0  0.0291
  Se  Se134  1  0.779850  0.779850  0.397840  1.0  0.0291
  Se  Se135  1  0.720150  0.720150  0.897840  1.0  0.0283
  Se  Se136  1  0.220150  0.220150  0.397840  1.0  0.0283
  Se  Se137  1  0.279850  0.720150  0.102160  1.0  0.0267
  Se  Se138  1  0.779850  0.220150  0.602160  1.0  0.0267
  Se  Se139  1  0.720150  0.279850  0.102160  1.0  0.0271
  Se  Se140  1  0.220150  0.779850  0.602160  1.0  0.0271
  Se  Se141  1  0.279850  0.102160  0.720150  1.0  0.0262
  Se  Se142  1  0.779850  0.602160  0.220150  1.0  0.0262
  Se  Se143  1  0.720150  0.102160  0.279850  1.0  0.0266
  Se  Se144  1  0.220150  0.602160  0.779850  1.0  0.0266
  Se  Se145  1  0.720150  0.897840  0.720150  1.0  0.0283
  Se  Se146  1  0.220150  0.397840  0.220150  1.0  0.0283
  Se  Se147  1  0.279850  0.897840  0.279850  1.0  0.0289
  Se  Se148  1  0.779850  0.397840  0.779850  1.0  0.0289
  Se  Se149  1  0.102160  0.279850  0.720150  1.0  0.0294
  Se  Se150  1  0.602160  0.779850  0.220150  1.0  0.0294
  Se  Se151  1  0.102160  0.720150  0.279850  1.0  0.0292
  Se  Se152  1  0.602160  0.220150  0.779850  1.0  0.0292
  Se  Se153  1  0.897840  0.279850  0.279850  1.0  0.0303
  Se  Se154  1  0.397840  0.779850  0.779850  1.0  0.0303
  Se  Se155  1  0.897840  0.720150  0.720150  1.0  0.0303
  Se  Se156  1  0.397840  0.220150  0.220150  1.0  0.0303
  Se  Se157  1  0.161920  0.161920  0.161920  1.0  0.0439
  Se  Se158  1  0.661920  0.661920  0.661920  1.0  0.0439
  Se  Se159  1  0.838080  0.838080  0.161920  1.0  0.0447
  Se  Se160  1  0.338080  0.338080  0.661920  1.0  0.0447
  Se  Se161  1  0.838080  0.161920  0.838080  1.0  0.0442
  Se  Se162  1  0.338080  0.661920  0.338080  1.0  0.0442
  Se  Se163  1  0.161920  0.838080  0.838080  1.0  0.0433
  Se  Se164  1  0.661920  0.338080  0.338080  1.0  0.0433
  Se  Se165  1  0.161920  0.161920  0.838080  1.0  0.0433
  Se  Se166  1  0.661920  0.661920  0.338080  1.0  0.0433
  Se  Se167  1  0.838080  0.838080  0.838080  1.0  0.0444
  Se  Se168  1  0.338080  0.338080  0.338080  1.0  0.0444
  Se  Se169  1  0.161920  0.838080  0.161920  1.0  0.0438
  Se  Se170  1  0.661920  0.338080  0.661920  1.0  0.0438
  Se  Se171  1  0.838080  0.161920  0.161920  1.0  0.0449
  Se  Se172  1  0.338080  0.661920  0.661920  1.0  0.0449
  N  N173  1  0.077500  0.320600  0.077500  1.0  -0.4315
  N  N174  1  0.577500  0.820600  0.577500  1.0  -0.4315
  N  N175  1  0.922500  0.679400  0.077500  1.0  -0.4322
  N  N176  1  0.422500  0.179400  0.577500  1.0  -0.4322
  N  N177  1  0.922500  0.320600  0.922500  1.0  -0.4323
  N  N178  1  0.422500  0.820600  0.422500  1.0  -0.4323
  N  N179  1  0.077500  0.679400  0.922500  1.0  -0.4317
  N  N180  1  0.577500  0.179400  0.422500  1.0  -0.4315
  N  N181  1  0.077500  0.077500  0.320600  1.0  -0.4316
  N  N182  1  0.577500  0.577500  0.820600  1.0  -0.4316
  N  N183  1  0.077500  0.922500  0.679400  1.0  -0.4311
  N  N184  1  0.577500  0.422500  0.179400  1.0  -0.4313
  N  N185  1  0.922500  0.922500  0.320600  1.0  -0.4318
  N  N186  1  0.422500  0.422500  0.820600  1.0  -0.4318
  N  N187  1  0.922500  0.077500  0.679400  1.0  -0.4319
  N  N188  1  0.422500  0.577500  0.179400  1.0  -0.4319
  N  N189  1  0.320600  0.077500  0.077500  1.0  -0.433
  N  N190  1  0.820600  0.577500  0.577500  1.0  -0.433
  N  N191  1  0.679400  0.077500  0.922500  1.0  -0.4331
  N  N192  1  0.179400  0.577500  0.422500  1.0  -0.4329
  N  N193  1  0.320600  0.922500  0.922500  1.0  -0.4335
  N  N194  1  0.820600  0.422500  0.422500  1.0  -0.4335
  N  N195  1  0.679400  0.922500  0.077500  1.0  -0.4328
  N  N196  1  0.179400  0.422500  0.577500  1.0  -0.4328
  N  N197  1  0.320600  0.077500  0.922500  1.0  -0.4333
  N  N198  1  0.820600  0.577500  0.422500  1.0  -0.4333
  N  N199  1  0.679400  0.922500  0.922500  1.0  -0.4333
  N  N200  1  0.179400  0.422500  0.422500  1.0  -0.4333
  N  N201  1  0.320600  0.922500  0.077500  1.0  -0.4324
  N  N202  1  0.820600  0.422500  0.577500  1.0  -0.4324
  N  N203  1  0.679400  0.077500  0.077500  1.0  -0.4331
  N  N204  1  0.179400  0.577500  0.577500  1.0  -0.4331
  N  N205  1  0.077500  0.077500  0.679400  1.0  -0.4313
  N  N206  1  0.577500  0.577500  0.179400  1.0  -0.4313
  N  N207  1  0.922500  0.077500  0.320600  1.0  -0.4321
  N  N208  1  0.422500  0.577500  0.820600  1.0  -0.4321
  N  N209  1  0.922500  0.922500  0.679400  1.0  -0.4313
  N  N210  1  0.422500  0.422500  0.179400  1.0  -0.4313
  N  N211  1  0.077500  0.922500  0.320600  1.0  -0.4313
  N  N212  1  0.577500  0.422500  0.820600  1.0  -0.4313
  N  N213  1  0.077500  0.320600  0.922500  1.0  -0.432
  N  N214  1  0.577500  0.820600  0.422500  1.0  -0.432
  N  N215  1  0.077500  0.679400  0.077500  1.0  -0.4315
  N  N216  1  0.577500  0.179400  0.577500  1.0  -0.4315
  N  N217  1  0.922500  0.320600  0.077500  1.0  -0.4315
  N  N218  1  0.422500  0.820600  0.577500  1.0  -0.4315
  N  N219  1  0.922500  0.679400  0.922500  1.0  -0.4322
  N  N220  1  0.422500  0.179400  0.422500  1.0  -0.4322
