# generated using pymatgen
data_CuH6C6BrN2
_symmetry_space_group_name_H-M   'P 1'
_cell_length_a   12.60080000
_cell_length_b   14.03130000
_cell_length_c   14.03130000
_cell_angle_alpha   78.36820000
_cell_angle_beta   63.31900000
_cell_angle_gamma   63.31890000
_symmetry_Int_Tables_number   1
_chemical_formula_structural   CuH6C6BrN2
_chemical_formula_sum   'Cu8 H48 C48 Br8 N16'
_cell_volume   1980.62585296
_cell_formula_units_Z   8
loop_
 _symmetry_equiv_pos_site_id
 _symmetry_equiv_pos_as_xyz
  1  'x, y, z'
loop_
 _atom_site_type_symbol
 _atom_site_label
 _atom_site_symmetry_multiplicity
 _atom_site_fract_x
 _atom_site_fract_y
 _atom_site_fract_z
 _atom_site_occupancy
 _atom_site_charge
  Cu  Cu1  1  0.175720  0.476380  0.999000  1.0  0.2894
  Cu  Cu2  1  0.651100  0.523620  0.001000  1.0  0.2894
  Cu  Cu3  1  0.424720  0.501000  0.976380  1.0  0.2891
  Cu  Cu4  1  0.902100  0.499000  0.023620  1.0  0.2885
  Cu  Cu5  1  0.651100  0.001000  0.523620  1.0  0.2884
  Cu  Cu6  1  0.175720  0.999000  0.476380  1.0  0.289
  Cu  Cu7  1  0.902100  0.023620  0.499000  1.0  0.2896
  Cu  Cu8  1  0.424720  0.976380  0.501000  1.0  0.2893
  H  H9  1  0.729600  0.392000  0.238400  1.0  0.11
  H  H10  1  0.799900  0.346200  0.123800  1.0  0.099
  H  H11  1  0.358700  0.250900  0.079300  1.0  0.1114
  H  H12  1  0.299700  0.356800  0.139200  1.0  0.1028
  H  H13  1  0.360000  0.608000  0.761600  1.0  0.1124
  H  H14  1  0.269900  0.653800  0.876200  1.0  0.1007
  H  H15  1  0.688900  0.749100  0.920700  1.0  0.112
  H  H16  1  0.795700  0.643200  0.860800  1.0  0.1003
  H  H17  1  0.218000  0.261600  0.892000  1.0  0.1097
  H  H18  1  0.173700  0.376200  0.846200  1.0  0.0998
  H  H19  1  0.688000  0.420700  0.750900  1.0  0.1123
  H  H20  1  0.688900  0.360800  0.856800  1.0  0.1031
  H  H21  1  0.371600  0.738400  0.108000  1.0  0.1122
  H  H22  1  0.396100  0.623800  0.153800  1.0  0.0979
  H  H23  1  0.859600  0.579300  0.249100  1.0  0.1101
  H  H24  1  0.906500  0.639200  0.143200  1.0  0.1034
  H  H25  1  0.360000  0.761600  0.608000  1.0  0.1108
  H  H26  1  0.269900  0.876200  0.653800  1.0  0.0995
  H  H27  1  0.688900  0.920700  0.749100  1.0  0.1104
  H  H28  1  0.795700  0.860800  0.643200  1.0  0.1032
  H  H29  1  0.729600  0.238400  0.392000  1.0  0.1096
  H  H30  1  0.799900  0.123800  0.346200  1.0  0.0981
  H  H31  1  0.358700  0.079300  0.250900  1.0  0.1107
  H  H32  1  0.299700  0.139200  0.356800  1.0  0.1028
  H  H33  1  0.371600  0.108000  0.738400  1.0  0.1119
  H  H34  1  0.396100  0.153800  0.623800  1.0  0.099
  H  H35  1  0.859600  0.249100  0.579300  1.0  0.1107
  H  H36  1  0.906500  0.143200  0.639200  1.0  0.1009
  H  H37  1  0.218000  0.892000  0.261600  1.0  0.1113
  H  H38  1  0.173700  0.846200  0.376200  1.0  0.1008
  H  H39  1  0.688000  0.750900  0.420700  1.0  0.1135
  H  H40  1  0.688900  0.856800  0.360800  1.0  0.1024
  H  H41  1  0.688600  0.250100  0.250100  1.0  0.0871
  H  H42  1  0.832600  0.180700  0.180700  1.0  0.0788
  H  H43  1  0.420400  0.206100  0.206100  1.0  0.0847
  H  H44  1  0.294200  0.286100  0.286100  1.0  0.0808
  H  H45  1  0.188800  0.749900  0.749900  1.0  0.087
  H  H46  1  0.194000  0.819300  0.819300  1.0  0.0819
  H  H47  1  0.832600  0.793900  0.793900  1.0  0.0832
  H  H48  1  0.866400  0.713900  0.713900  1.0  0.0829
  H  H49  1  0.188700  0.249900  0.750100  1.0  0.0871
  H  H50  1  0.263300  0.319300  0.680700  1.0  0.0795
  H  H51  1  0.876500  0.293900  0.706100  1.0  0.0855
  H  H52  1  0.830300  0.213900  0.786100  1.0  0.0812
  H  H53  1  0.188700  0.750100  0.249900  1.0  0.0869
  H  H54  1  0.263300  0.680700  0.319300  1.0  0.0814
  H  H55  1  0.876500  0.706100  0.293900  1.0  0.0827
  H  H56  1  0.830300  0.786100  0.213900  1.0  0.0835
  C  C57  1  0.926600  0.319900  0.184300  1.0  0.249
  C  C58  1  0.159900  0.304200  0.162400  1.0  0.2278
  C  C59  1  0.799500  0.332400  0.193800  1.0  -0.2409
  C  C60  1  0.296200  0.288800  0.145000  1.0  -0.2284
  C  C61  1  0.430800  0.680100  0.815700  1.0  0.2527
  C  C62  1  0.626500  0.695800  0.837600  1.0  0.2251
  C  C63  1  0.325700  0.667600  0.806200  1.0  -0.2608
  C  C64  1  0.730000  0.711200  0.855000  1.0  -0.2308
  C  C65  1  0.360900  0.315700  0.819900  1.0  0.2551
  C  C66  1  0.572300  0.337600  0.804200  1.0  0.2263
  C  C67  1  0.243300  0.306200  0.832400  1.0  -0.2448
  C  C68  1  0.691200  0.355000  0.788800  1.0  -0.2372
  C  C69  1  0.496500  0.684300  0.180100  1.0  0.2491
  C  C70  1  0.714100  0.662400  0.195800  1.0  0.2299
  C  C71  1  0.381900  0.693800  0.167600  1.0  -0.2393
  C  C72  1  0.835000  0.645000  0.211200  1.0  -0.2363
  C  C73  1  0.430800  0.815700  0.680100  1.0  0.2489
  C  C74  1  0.626500  0.837600  0.695800  1.0  0.2297
  C  C75  1  0.325700  0.806200  0.667600  1.0  -0.2403
  C  C76  1  0.730000  0.855000  0.711200  1.0  -0.2359
  C  C77  1  0.926600  0.184300  0.319900  1.0  0.2551
  C  C78  1  0.159900  0.162400  0.304200  1.0  0.2264
  C  C79  1  0.799500  0.193800  0.332400  1.0  -0.2438
  C  C80  1  0.296200  0.145000  0.288800  1.0  -0.2373
  C  C81  1  0.496500  0.180100  0.684300  1.0  0.2493
  C  C82  1  0.714100  0.195800  0.662400  1.0  0.227
  C  C83  1  0.381900  0.167600  0.693800  1.0  -0.24
  C  C84  1  0.835000  0.211200  0.645000  1.0  -0.2286
  C  C85  1  0.360900  0.819900  0.315700  1.0  0.2527
  C  C86  1  0.572300  0.804200  0.337600  1.0  0.2257
  C  C87  1  0.243300  0.832400  0.306200  1.0  -0.2605
  C  C88  1  0.691200  0.788800  0.355000  1.0  -0.2306
  C  C89  1  0.986500  0.245200  0.245200  1.0  -0.1035
  C  C90  1  0.105300  0.236300  0.236300  1.0  -0.0862
  C  C91  1  0.776900  0.234900  0.234900  1.0  -0.0524
  C  C92  1  0.327000  0.234000  0.234000  1.0  -0.0521
  C  C93  1  0.476900  0.754800  0.754800  1.0  -0.1023
  C  C94  1  0.577900  0.763700  0.763700  1.0  -0.0915
  C  C95  1  0.246700  0.765100  0.765100  1.0  -0.0489
  C  C96  1  0.795000  0.766000  0.766000  1.0  -0.0498
  C  C97  1  0.481700  0.254800  0.745200  1.0  -0.1033
  C  C98  1  0.591600  0.263700  0.736300  1.0  -0.0863
  C  C99  1  0.261800  0.265100  0.734900  1.0  -0.0519
  C  C100  1  0.811000  0.266000  0.734000  1.0  -0.0522
  C  C101  1  0.481700  0.745200  0.254800  1.0  -0.1026
  C  C102  1  0.591600  0.736300  0.263700  1.0  -0.0917
  C  C103  1  0.261800  0.734900  0.265100  1.0  -0.049
  C  C104  1  0.811000  0.734000  0.266000  1.0  -0.0499
  Br  Br105  1  0.030140  0.602390  0.914530  1.0  -0.4177
  Br  Br106  1  0.547060  0.397610  0.085470  1.0  -0.4172
  Br  Br107  1  0.194670  0.585470  0.102390  1.0  -0.4171
  Br  Br108  1  0.882530  0.414530  0.897610  1.0  -0.4172
  Br  Br109  1  0.547060  0.085470  0.397610  1.0  -0.4173
  Br  Br110  1  0.030140  0.914530  0.602390  1.0  -0.4172
  Br  Br111  1  0.882530  0.897610  0.414530  1.0  -0.4175
  Br  Br112  1  0.194670  0.102390  0.585470  1.0  -0.4174
  N  N113  1  0.101400  0.373200  0.104200  1.0  -0.1507
  N  N114  1  0.982700  0.382900  0.115100  1.0  -0.164
  N  N115  1  0.578800  0.626800  0.895800  1.0  -0.1511
  N  N116  1  0.480700  0.617100  0.884900  1.0  -0.1643
  N  N117  1  0.455600  0.395800  0.873200  1.0  -0.1508
  N  N118  1  0.347800  0.384900  0.882900  1.0  -0.1653
  N  N119  1  0.724600  0.604200  0.126800  1.0  -0.15
  N  N120  1  0.615600  0.615100  0.117100  1.0  -0.1648
  N  N121  1  0.578800  0.895800  0.626800  1.0  -0.1495
  N  N122  1  0.480700  0.884900  0.617100  1.0  -0.1653
  N  N123  1  0.101400  0.104200  0.373200  1.0  -0.1508
  N  N124  1  0.982700  0.115100  0.382900  1.0  -0.1645
  N  N125  1  0.724600  0.126800  0.604200  1.0  -0.1507
  N  N126  1  0.615600  0.117100  0.615100  1.0  -0.164
  N  N127  1  0.455600  0.873200  0.395800  1.0  -0.1515
  N  N128  1  0.347800  0.882900  0.384900  1.0  -0.1647
