# generated using pymatgen
data_EuH8C16ClO8
_symmetry_space_group_name_H-M   'P 1'
_cell_length_a   13.05330000
_cell_length_b   13.14710000
_cell_length_c   14.05370000
_cell_angle_alpha   90.00000000
_cell_angle_beta   104.08800000
_cell_angle_gamma   90.00000000
_symmetry_Int_Tables_number   1
_chemical_formula_structural   EuH8C16ClO8
_chemical_formula_sum   'Eu4 H32 C64 Cl4 O32'
_cell_volume   2339.25857233
_cell_formula_units_Z   4
loop_
 _symmetry_equiv_pos_site_id
 _symmetry_equiv_pos_as_xyz
  1  'x, y, z'
loop_
 _atom_site_type_symbol
 _atom_site_label
 _atom_site_symmetry_multiplicity
 _atom_site_fract_x
 _atom_site_fract_y
 _atom_site_fract_z
 _atom_site_occupancy
 _atom_site_charge
  Eu  Eu1  1  0.590680  0.052840  0.911930  1.0  2.1368
  Eu  Eu2  1  0.909320  0.552840  0.588070  1.0  2.1391
  Eu  Eu3  1  0.409320  0.947160  0.088070  1.0  2.1392
  Eu  Eu4  1  0.090680  0.447160  0.411930  1.0  2.1368
  H  H5  1  0.394700  0.866100  0.660300  1.0  0.1342
  H  H6  1  0.310200  0.755100  0.540700  1.0  0.1407
  H  H7  1  0.133800  0.652500  0.717100  1.0  0.1367
  H  H8  1  0.226200  0.757100  0.841400  1.0  0.1372
  H  H9  1  0.681600  0.485700  0.063300  1.0  0.1545
  H  H10  1  0.407200  0.373700  0.901200  1.0  0.1165
  H  H11  1  0.633400  0.905600  0.597100  1.0  0.1389
  H  H12  1  0.423500  0.128600  0.569800  1.0  0.1372
  H  H13  1  0.105300  0.366100  0.839700  1.0  0.1346
  H  H14  1  0.189800  0.255100  0.959300  1.0  0.1411
  H  H15  1  0.366200  0.152500  0.782900  1.0  0.1375
  H  H16  1  0.273800  0.257100  0.658600  1.0  0.1372
  H  H17  1  0.818400  0.985700  0.436700  1.0  0.1538
  H  H18  1  0.092800  0.873700  0.598800  1.0  0.1157
  H  H19  1  0.866600  0.405600  0.902900  1.0  0.1387
  H  H20  1  0.076500  0.628600  0.930200  1.0  0.1373
  H  H21  1  0.605300  0.133900  0.339700  1.0  0.1343
  H  H22  1  0.689800  0.244900  0.459300  1.0  0.1412
  H  H23  1  0.866200  0.347500  0.282900  1.0  0.1374
  H  H24  1  0.773800  0.242900  0.158600  1.0  0.1371
  H  H25  1  0.318400  0.514300  0.936700  1.0  0.1536
  H  H26  1  0.592800  0.626300  0.098800  1.0  0.1149
  H  H27  1  0.366600  0.094400  0.402900  1.0  0.1387
  H  H28  1  0.576500  0.871400  0.430200  1.0  0.137
  H  H29  1  0.894700  0.633900  0.160300  1.0  0.1348
  H  H30  1  0.810200  0.744900  0.040700  1.0  0.1408
  H  H31  1  0.633800  0.847500  0.217100  1.0  0.1366
  H  H32  1  0.726200  0.742900  0.341400  1.0  0.1371
  H  H33  1  0.181600  0.014300  0.563300  1.0  0.1541
  H  H34  1  0.907200  0.126300  0.401200  1.0  0.116
  H  H35  1  0.133400  0.594400  0.097100  1.0  0.1388
  H  H36  1  0.923500  0.371400  0.069800  1.0  0.1371
  C  C37  1  0.321400  0.820500  0.764300  1.0  -0.0968
  C  C38  1  0.344300  0.821500  0.672800  1.0  -0.0187
  C  C39  1  0.292200  0.756400  0.600800  1.0  -0.0111
  C  C40  1  0.213100  0.692400  0.616200  1.0  -0.1254
  C  C41  1  0.187700  0.693900  0.706300  1.0  -0.0092
  C  C42  1  0.242500  0.757200  0.780600  1.0  0.0147
  C  C43  1  0.384300  0.884900  0.847500  1.0  0.7334
  C  C44  1  0.159800  0.620300  0.539400  1.0  0.7476
  C  C45  1  0.552200  0.415900  0.976700  1.0  -0.0936
  C  C46  1  0.609100  0.491800  0.037900  1.0  -0.0298
  C  C47  1  0.444200  0.424900  0.940700  1.0  0.0117
  C  C48  1  0.606800  0.321400  0.951800  1.0  0.6841
  C  C49  1  0.535100  0.020300  0.599600  1.0  -0.0907
  C  C50  1  0.579500  0.944300  0.558300  1.0  -0.0099
  C  C51  1  0.454900  0.076600  0.542100  1.0  -0.0135
  C  C52  1  0.570400  0.041700  0.708100  1.0  0.718
  C  C53  1  0.178600  0.320500  0.735700  1.0  -0.0967
  C  C54  1  0.155700  0.321500  0.827200  1.0  -0.0187
  C  C55  1  0.207800  0.256400  0.899200  1.0  -0.0087
  C  C56  1  0.286900  0.192400  0.883800  1.0  -0.1248
  C  C57  1  0.312300  0.193900  0.793700  1.0  -0.0108
  C  C58  1  0.257500  0.257200  0.719400  1.0  0.0152
  C  C59  1  0.115700  0.384900  0.652500  1.0  0.7327
  C  C60  1  0.340200  0.120300  0.960600  1.0  0.7468
  C  C61  1  0.947800  0.915900  0.523300  1.0  -0.0927
  C  C62  1  0.890900  0.991800  0.462100  1.0  -0.0306
  C  C63  1  0.055800  0.924900  0.559300  1.0  0.0118
  C  C64  1  0.893200  0.821400  0.548200  1.0  0.6834
  C  C65  1  0.964900  0.520300  0.900400  1.0  -0.0886
  C  C66  1  0.920500  0.444300  0.941700  1.0  -0.009
  C  C67  1  0.045100  0.576600  0.957900  1.0  -0.0133
  C  C68  1  0.929600  0.541700  0.791900  1.0  0.7155
  C  C69  1  0.678600  0.179500  0.235700  1.0  -0.0973
  C  C70  1  0.655700  0.178500  0.327200  1.0  -0.0194
  C  C71  1  0.707800  0.243600  0.399200  1.0  -0.0089
  C  C72  1  0.786900  0.307600  0.383800  1.0  -0.1243
  C  C73  1  0.812300  0.306100  0.293700  1.0  -0.0096
  C  C74  1  0.757500  0.242800  0.219400  1.0  0.0151
  C  C75  1  0.615700  0.115100  0.152500  1.0  0.7328
  C  C76  1  0.840200  0.379700  0.460600  1.0  0.7471
  C  C77  1  0.447800  0.584100  0.023300  1.0  -0.0925
  C  C78  1  0.390900  0.508200  0.962100  1.0  -0.0307
  C  C79  1  0.555800  0.575100  0.059300  1.0  0.0086
  C  C80  1  0.393200  0.678600  0.048200  1.0  0.6837
  C  C81  1  0.464900  0.979700  0.400400  1.0  -0.0894
  C  C82  1  0.420500  0.055700  0.441700  1.0  -0.0084
  C  C83  1  0.545100  0.923400  0.457900  1.0  -0.012
  C  C84  1  0.429600  0.958300  0.291900  1.0  0.7157
  C  C85  1  0.821400  0.679500  0.264300  1.0  -0.097
  C  C86  1  0.844300  0.678500  0.172800  1.0  -0.0186
  C  C87  1  0.792200  0.743600  0.100800  1.0  -0.0111
  C  C88  1  0.713100  0.807600  0.116200  1.0  -0.1241
  C  C89  1  0.687700  0.806100  0.206300  1.0  -0.0085
  C  C90  1  0.742500  0.742800  0.280600  1.0  0.0147
  C  C91  1  0.884300  0.615100  0.347500  1.0  0.7333
  C  C92  1  0.659800  0.879700  0.039400  1.0  0.7475
  C  C93  1  0.052200  0.084100  0.476700  1.0  -0.0932
  C  C94  1  0.109100  0.008200  0.537900  1.0  -0.0295
  C  C95  1  0.944200  0.075100  0.440700  1.0  0.0083
  C  C96  1  0.106800  0.178600  0.451800  1.0  0.6841
  C  C97  1  0.035100  0.479700  0.099600  1.0  -0.09
  C  C98  1  0.079500  0.555700  0.058300  1.0  -0.0098
  C  C99  1  0.954900  0.423400  0.042100  1.0  -0.0124
  C  C100  1  0.070400  0.458300  0.208100  1.0  0.7181
  Cl  Cl101  1  0.801910  0.137990  0.922810  1.0  -0.4837
  Cl  Cl102  1  0.698090  0.637990  0.577190  1.0  -0.4838
  Cl  Cl103  1  0.198090  0.862010  0.077190  1.0  -0.4837
  Cl  Cl104  1  0.301910  0.362010  0.422810  1.0  -0.4831
  O  O105  1  0.463200  0.930100  0.833200  1.0  -0.6558
  O  O106  1  0.349900  0.887600  0.924500  1.0  -0.6482
  O  O107  1  0.203300  0.592800  0.472800  1.0  -0.6403
  O  O108  1  0.068800  0.586000  0.541800  1.0  -0.8176
  O  O109  1  0.557300  0.247500  0.913700  1.0  -0.6375
  O  O110  1  0.709800  0.329300  0.975600  1.0  -0.4646
  O  O111  1  0.641500  0.986600  0.760700  1.0  -0.6511
  O  O112  1  0.527200  0.111300  0.744400  1.0  -0.6407
  O  O113  1  0.036800  0.430100  0.666800  1.0  -0.6566
  O  O114  1  0.150100  0.387600  0.575500  1.0  -0.6467
  O  O115  1  0.296700  0.092800  0.027200  1.0  -0.6395
  O  O116  1  0.431200  0.086000  0.958200  1.0  -0.8177
  O  O117  1  0.942700  0.747500  0.586300  1.0  -0.6392
  O  O118  1  0.790200  0.829300  0.524400  1.0  -0.4668
  O  O119  1  0.858500  0.486600  0.739300  1.0  -0.6554
  O  O120  1  0.972800  0.611300  0.755600  1.0  -0.6412
  O  O121  1  0.536800  0.069900  0.166800  1.0  -0.6569
  O  O122  1  0.650100  0.112400  0.075500  1.0  -0.6466
  O  O123  1  0.796700  0.407200  0.527200  1.0  -0.6401
  O  O124  1  0.931200  0.414000  0.458200  1.0  -0.8176
  O  O125  1  0.442700  0.752500  0.086300  1.0  -0.6382
  O  O126  1  0.290200  0.670700  0.024400  1.0  -0.4671
  O  O127  1  0.358500  0.013400  0.239300  1.0  -0.6575
  O  O128  1  0.472800  0.888700  0.255600  1.0  -0.6415
  O  O129  1  0.963200  0.569900  0.333200  1.0  -0.6557
  O  O130  1  0.849900  0.612400  0.424500  1.0  -0.6483
  O  O131  1  0.703300  0.907200  0.972800  1.0  -0.64
  O  O132  1  0.568800  0.914000  0.041800  1.0  -0.8177
  O  O133  1  0.057300  0.252500  0.413700  1.0  -0.6372
  O  O134  1  0.209800  0.170700  0.475600  1.0  -0.4647
  O  O135  1  0.141500  0.513400  0.260700  1.0  -0.6538
  O  O136  1  0.027200  0.388700  0.244400  1.0  -0.6415
