# generated using pymatgen
data_CuH6C6IN2
_symmetry_space_group_name_H-M   'P 1'
_cell_length_a   13.13600000
_cell_length_b   14.08070000
_cell_length_c   14.08070000
_cell_angle_alpha   77.43300000
_cell_angle_beta   62.19550000
_cell_angle_gamma   62.19560000
_symmetry_Int_Tables_number   1
_chemical_formula_structural   CuH6C6IN2
_chemical_formula_sum   'Cu8 H48 C48 I8 N16'
_cell_volume   2037.75162914
_cell_formula_units_Z   8
loop_
 _symmetry_equiv_pos_site_id
 _symmetry_equiv_pos_as_xyz
  1  'x, y, z'
loop_
 _atom_site_type_symbol
 _atom_site_label
 _atom_site_symmetry_multiplicity
 _atom_site_fract_x
 _atom_site_fract_y
 _atom_site_fract_z
 _atom_site_occupancy
 _atom_site_charge
  Cu  Cu1  1  0.384300  0.250000  0.731400  1.0  0.216
  Cu  Cu2  1  0.865700  0.250000  0.768600  1.0  0.2156
  Cu  Cu3  1  0.615700  0.268600  0.750000  1.0  0.2126
  Cu  Cu4  1  0.134300  0.231400  0.750000  1.0  0.2135
  Cu  Cu5  1  0.615700  0.750000  0.268600  1.0  0.2155
  Cu  Cu6  1  0.134300  0.750000  0.231400  1.0  0.216
  Cu  Cu7  1  0.384300  0.731400  0.250000  1.0  0.2133
  Cu  Cu8  1  0.865700  0.768600  0.250000  1.0  0.2128
  H  H9  1  0.355500  0.342000  0.494800  1.0  0.1115
  H  H10  1  0.257700  0.382800  0.610800  1.0  0.0905
  H  H11  1  0.692300  0.158000  0.005200  1.0  0.1095
  H  H12  1  0.751300  0.117200  0.889200  1.0  0.0894
  H  H13  1  0.350300  0.505200  0.842000  1.0  0.1097
  H  H14  1  0.368500  0.389200  0.882800  1.0  0.093
  H  H15  1  0.197500  0.994800  0.658000  1.0  0.1107
  H  H16  1  0.140500  0.110800  0.617200  1.0  0.0907
  H  H17  1  0.307700  0.994800  0.842000  1.0  0.1106
  H  H18  1  0.248700  0.110800  0.882800  1.0  0.091
  H  H19  1  0.644500  0.505200  0.658000  1.0  0.109
  H  H20  1  0.742300  0.389200  0.617200  1.0  0.0932
  H  H21  1  0.802500  0.342000  0.005200  1.0  0.1118
  H  H22  1  0.859500  0.382800  0.889200  1.0  0.0925
  H  H23  1  0.649700  0.158000  0.494800  1.0  0.1089
  H  H24  1  0.631500  0.117200  0.610800  1.0  0.0905
  H  H25  1  0.644500  0.658000  0.505200  1.0  0.111
  H  H26  1  0.742300  0.617200  0.389200  1.0  0.0924
  H  H27  1  0.307700  0.842000  0.994800  1.0  0.1094
  H  H28  1  0.248700  0.882800  0.110800  1.0  0.0899
  H  H29  1  0.649700  0.494800  0.158000  1.0  0.1094
  H  H30  1  0.631500  0.610800  0.117200  1.0  0.0912
  H  H31  1  0.802500  0.005200  0.342000  1.0  0.1104
  H  H32  1  0.859500  0.889200  0.382800  1.0  0.0929
  H  H33  1  0.692300  0.005200  0.158000  1.0  0.1108
  H  H34  1  0.751300  0.889200  0.117200  1.0  0.0917
  H  H35  1  0.355500  0.494800  0.342000  1.0  0.1094
  H  H36  1  0.257700  0.610800  0.382800  1.0  0.0918
  H  H37  1  0.197500  0.658000  0.994800  1.0  0.1114
  H  H38  1  0.140500  0.617200  0.110800  1.0  0.0909
  H  H39  1  0.350300  0.842000  0.505200  1.0  0.1103
  H  H40  1  0.368500  0.882800  0.389200  1.0  0.0895
  H  H41  1  0.184300  0.481300  0.481300  1.0  0.0879
  H  H42  1  0.184300  0.551800  0.551800  1.0  0.0777
  H  H43  1  0.646900  0.018700  0.018700  1.0  0.0893
  H  H44  1  0.787900  0.948200  0.948200  1.0  0.0763
  H  H45  1  0.165600  0.518700  0.981300  1.0  0.0879
  H  H46  1  0.236100  0.448200  0.051800  1.0  0.0779
  H  H47  1  0.165600  0.981300  0.518700  1.0  0.0894
  H  H48  1  0.236100  0.051800  0.448200  1.0  0.0766
  H  H49  1  0.353100  0.981300  0.981300  1.0  0.0862
  H  H50  1  0.212100  0.051800  0.051800  1.0  0.0769
  H  H51  1  0.815700  0.518700  0.518700  1.0  0.0871
  H  H52  1  0.815700  0.448200  0.448200  1.0  0.0767
  H  H53  1  0.834400  0.481300  0.018700  1.0  0.0867
  H  H54  1  0.763900  0.551800  0.948200  1.0  0.0774
  H  H55  1  0.834400  0.018700  0.481300  1.0  0.0864
  H  H56  1  0.763900  0.948200  0.551800  1.0  0.0771
  C  C57  1  0.411200  0.415600  0.558000  1.0  0.2405
  C  C58  1  0.313100  0.400800  0.543200  1.0  -0.2271
  C  C59  1  0.884800  0.084400  0.942000  1.0  0.2396
  C  C60  1  0.757100  0.099200  0.956800  1.0  -0.2295
  C  C61  1  0.469200  0.442000  0.915600  1.0  0.2389
  C  C62  1  0.356300  0.456800  0.900800  1.0  -0.2319
  C  C63  1  0.326800  0.058000  0.584400  1.0  0.2413
  C  C64  1  0.213900  0.043200  0.599200  1.0  -0.2344
  C  C65  1  0.115200  0.058000  0.915600  1.0  0.2428
  C  C66  1  0.242900  0.043200  0.900800  1.0  -0.2327
  C  C67  1  0.588800  0.442000  0.584400  1.0  0.2398
  C  C68  1  0.686900  0.456800  0.599200  1.0  -0.231
  C  C69  1  0.673200  0.415600  0.942000  1.0  0.2438
  C  C70  1  0.786100  0.400800  0.956800  1.0  -0.2269
  C  C71  1  0.530800  0.084400  0.558000  1.0  0.2398
  C  C72  1  0.643700  0.099200  0.543200  1.0  -0.2284
  C  C73  1  0.588800  0.584400  0.442000  1.0  0.2438
  C  C74  1  0.686900  0.599200  0.456800  1.0  -0.2269
  C  C75  1  0.115200  0.915600  0.058000  1.0  0.2397
  C  C76  1  0.242900  0.900800  0.043200  1.0  -0.2284
  C  C77  1  0.530800  0.558000  0.084400  1.0  0.2393
  C  C78  1  0.643700  0.543200  0.099200  1.0  -0.2313
  C  C79  1  0.673200  0.942000  0.415600  1.0  0.2429
  C  C80  1  0.786100  0.956800  0.400800  1.0  -0.2323
  C  C81  1  0.884800  0.942000  0.084400  1.0  0.2421
  C  C82  1  0.757100  0.956800  0.099200  1.0  -0.234
  C  C83  1  0.411200  0.558000  0.415600  1.0  0.2383
  C  C84  1  0.313100  0.543200  0.400800  1.0  -0.2321
  C  C85  1  0.326800  0.584400  0.058000  1.0  0.2406
  C  C86  1  0.213900  0.599200  0.043200  1.0  -0.2267
  C  C87  1  0.469200  0.915600  0.442000  1.0  0.2396
  C  C88  1  0.356300  0.900800  0.456800  1.0  -0.2293
  C  C89  1  0.455900  0.492700  0.492700  1.0  -0.1041
  C  C90  1  0.238200  0.497300  0.497300  1.0  -0.0523
  C  C91  1  0.941300  0.007300  0.007300  1.0  -0.0987
  C  C92  1  0.732800  0.002700  0.002700  1.0  -0.0538
  C  C93  1  0.448600  0.507300  0.992700  1.0  -0.1041
  C  C94  1  0.235500  0.502700  0.997300  1.0  -0.0522
  C  C95  1  0.448600  0.992700  0.507300  1.0  -0.0987
  C  C96  1  0.235500  0.997300  0.502700  1.0  -0.0535
  C  C97  1  0.058700  0.992700  0.992700  1.0  -0.0989
  C  C98  1  0.267200  0.997300  0.997300  1.0  -0.0568
  C  C99  1  0.544100  0.507300  0.507300  1.0  -0.1035
  C  C100  1  0.761800  0.502700  0.502700  1.0  -0.0543
  C  C101  1  0.551400  0.492700  0.007300  1.0  -0.1035
  C  C102  1  0.764500  0.497300  0.002700  1.0  -0.0544
  C  C103  1  0.551400  0.007300  0.492700  1.0  -0.0989
  C  C104  1  0.764500  0.002700  0.497300  1.0  -0.056
  I  I105  1  0.500000  0.144060  0.855940  1.0  -0.3631
  I  I106  1  0.000000  0.355940  0.644060  1.0  -0.3632
  I  I107  1  0.855940  0.144060  0.644060  1.0  -0.3633
  I  I108  1  0.144060  0.355940  0.855940  1.0  -0.3624
  I  I109  1  0.500000  0.855940  0.144060  1.0  -0.3632
  I  I110  1  0.000000  0.644060  0.355940  1.0  -0.3631
  I  I111  1  0.144060  0.855940  0.355940  1.0  -0.3624
  I  I112  1  0.855940  0.644060  0.144060  1.0  -0.3633
  N  N113  1  0.454200  0.357500  0.629100  1.0  -0.1428
  N  N114  1  0.940800  0.142500  0.870900  1.0  -0.1421
  N  N115  1  0.583300  0.370900  0.857500  1.0  -0.1424
  N  N116  1  0.311700  0.129100  0.642500  1.0  -0.1421
  N  N117  1  0.059200  0.129100  0.857500  1.0  -0.1429
  N  N118  1  0.545800  0.370900  0.642500  1.0  -0.1421
  N  N119  1  0.688300  0.357500  0.870900  1.0  -0.1425
  N  N120  1  0.416700  0.142500  0.629100  1.0  -0.1429
  N  N121  1  0.545800  0.642500  0.370900  1.0  -0.1423
  N  N122  1  0.059200  0.857500  0.129100  1.0  -0.1427
  N  N123  1  0.416700  0.629100  0.142500  1.0  -0.1426
  N  N124  1  0.688300  0.870900  0.357500  1.0  -0.1424
  N  N125  1  0.940800  0.870900  0.142500  1.0  -0.1419
  N  N126  1  0.454200  0.629100  0.357500  1.0  -0.1426
  N  N127  1  0.311700  0.642500  0.129100  1.0  -0.1432
  N  N128  1  0.583300  0.857500  0.370900  1.0  -0.1424
