# generated using pymatgen
data_Cu6H24C25(I2N5)2
_symmetry_space_group_name_H-M   'P 1'
_cell_length_a   20.46300000
_cell_length_b   20.46300000
_cell_length_c   17.98900000
_cell_angle_alpha   90.00000000
_cell_angle_beta   90.00000000
_cell_angle_gamma   120.00000000
_symmetry_Int_Tables_number   1
_chemical_formula_structural   Cu6H24C25(I2N5)2
_chemical_formula_sum   'Cu36 H144 C150 I24 N60'
_cell_volume   6523.43383724
_cell_formula_units_Z   6
loop_
 _symmetry_equiv_pos_site_id
 _symmetry_equiv_pos_as_xyz
  1  'x, y, z'
loop_
 _atom_site_type_symbol
 _atom_site_label
 _atom_site_symmetry_multiplicity
 _atom_site_fract_x
 _atom_site_fract_y
 _atom_site_fract_z
 _atom_site_occupancy
 _atom_site_charge
  Cu  Cu1  1  0.092220  0.340040  0.484940  1.0  0.3297
  Cu  Cu2  1  0.659960  0.752180  0.484940  1.0  0.328
  Cu  Cu3  1  0.247820  0.907780  0.484940  1.0  0.3311
  Cu  Cu4  1  0.907780  0.659960  0.984940  1.0  0.3282
  Cu  Cu5  1  0.340040  0.247820  0.984940  1.0  0.3295
  Cu  Cu6  1  0.752180  0.092220  0.984940  1.0  0.3305
  Cu  Cu7  1  0.340040  0.092220  0.515060  1.0  0.3305
  Cu  Cu8  1  0.752180  0.659960  0.515060  1.0  0.3283
  Cu  Cu9  1  0.907780  0.247820  0.515060  1.0  0.3284
  Cu  Cu10  1  0.659960  0.907780  0.015060  1.0  0.3297
  Cu  Cu11  1  0.247820  0.340040  0.015060  1.0  0.3286
  Cu  Cu12  1  0.092220  0.752180  0.015060  1.0  0.328
  Cu  Cu13  1  0.907780  0.659960  0.515060  1.0  0.3284
  Cu  Cu14  1  0.340040  0.247820  0.515060  1.0  0.3285
  Cu  Cu15  1  0.752180  0.092220  0.515060  1.0  0.3298
  Cu  Cu16  1  0.092220  0.340040  0.015060  1.0  0.3286
  Cu  Cu17  1  0.659960  0.752180  0.015060  1.0  0.3278
  Cu  Cu18  1  0.247820  0.907780  0.015060  1.0  0.3305
  Cu  Cu19  1  0.659960  0.907780  0.484940  1.0  0.3307
  Cu  Cu20  1  0.247820  0.340040  0.484940  1.0  0.3294
  Cu  Cu21  1  0.092220  0.752180  0.484940  1.0  0.328
  Cu  Cu22  1  0.340040  0.092220  0.984940  1.0  0.3308
  Cu  Cu23  1  0.752180  0.659960  0.984940  1.0  0.3284
  Cu  Cu24  1  0.907780  0.247820  0.984940  1.0  0.3295
  Cu  Cu25  1  0.876570  0.123430  0.423720  1.0  0.1921
  Cu  Cu26  1  0.876570  0.753140  0.423720  1.0  0.1932
  Cu  Cu27  1  0.246860  0.123430  0.423720  1.0  0.1916
  Cu  Cu28  1  0.123430  0.876570  0.923720  1.0  0.1919
  Cu  Cu29  1  0.123430  0.246860  0.923720  1.0  0.1916
  Cu  Cu30  1  0.753140  0.876570  0.923720  1.0  0.1925
  Cu  Cu31  1  0.123430  0.876570  0.576280  1.0  0.1912
  Cu  Cu32  1  0.753140  0.876570  0.576280  1.0  0.192
  Cu  Cu33  1  0.123430  0.246860  0.576280  1.0  0.191
  Cu  Cu34  1  0.876570  0.123430  0.076280  1.0  0.1915
  Cu  Cu35  1  0.246860  0.123430  0.076280  1.0  0.1908
  Cu  Cu36  1  0.876570  0.753140  0.076280  1.0  0.1925
  H  H37  1  0.036500  0.384100  0.324400  1.0  0.1214
  H  H38  1  0.998000  0.306000  0.363800  1.0  0.1189
  H  H39  1  0.154600  0.509300  0.398000  1.0  0.1162
  H  H40  1  0.179400  0.490900  0.473000  1.0  0.1197
  H  H41  1  0.615900  0.652400  0.324400  1.0  0.1217
  H  H42  1  0.694000  0.692000  0.363800  1.0  0.1192
  H  H43  1  0.490700  0.645300  0.398000  1.0  0.1162
  H  H44  1  0.509100  0.688500  0.473000  1.0  0.119
  H  H45  1  0.347600  0.963500  0.324400  1.0  0.1197
  H  H46  1  0.308000  0.002000  0.363800  1.0  0.1178
  H  H47  1  0.354700  0.845400  0.398000  1.0  0.1162
  H  H48  1  0.311500  0.820600  0.473000  1.0  0.1175
  H  H49  1  0.963500  0.615900  0.824400  1.0  0.1206
  H  H50  1  0.002000  0.694000  0.863800  1.0  0.1189
  H  H51  1  0.845400  0.490700  0.898000  1.0  0.1162
  H  H52  1  0.820600  0.509100  0.973000  1.0  0.1194
  H  H53  1  0.384100  0.347600  0.824400  1.0  0.121
  H  H54  1  0.306000  0.308000  0.863800  1.0  0.12
  H  H55  1  0.509300  0.354700  0.898000  1.0  0.1159
  H  H56  1  0.490900  0.311500  0.973000  1.0  0.1203
  H  H57  1  0.652400  0.036500  0.824400  1.0  0.1207
  H  H58  1  0.692000  0.998000  0.863800  1.0  0.1182
  H  H59  1  0.645300  0.154600  0.898000  1.0  0.1163
  H  H60  1  0.688500  0.179400  0.973000  1.0  0.1187
  H  H61  1  0.384100  0.036500  0.675600  1.0  0.1204
  H  H62  1  0.306000  0.998000  0.636200  1.0  0.118
  H  H63  1  0.509300  0.154600  0.602000  1.0  0.1161
  H  H64  1  0.490900  0.179400  0.527000  1.0  0.118
  H  H65  1  0.652400  0.615900  0.675600  1.0  0.1208
  H  H66  1  0.692000  0.694000  0.636200  1.0  0.1187
  H  H67  1  0.645300  0.490700  0.602000  1.0  0.1162
  H  H68  1  0.688500  0.509100  0.527000  1.0  0.1194
  H  H69  1  0.963500  0.347600  0.675600  1.0  0.122
  H  H70  1  0.002000  0.308000  0.636200  1.0  0.1189
  H  H71  1  0.845400  0.354700  0.602000  1.0  0.1162
  H  H72  1  0.820600  0.311500  0.527000  1.0  0.1199
  H  H73  1  0.615900  0.963500  0.175600  1.0  0.1214
  H  H74  1  0.694000  0.002000  0.136200  1.0  0.1176
  H  H75  1  0.490700  0.845400  0.102000  1.0  0.1157
  H  H76  1  0.509100  0.820600  0.027000  1.0  0.1182
  H  H77  1  0.347600  0.384100  0.175600  1.0  0.1204
  H  H78  1  0.308000  0.306000  0.136200  1.0  0.1185
  H  H79  1  0.354700  0.509300  0.102000  1.0  0.1159
  H  H80  1  0.311500  0.490900  0.027000  1.0  0.1191
  H  H81  1  0.036500  0.652400  0.175600  1.0  0.1213
  H  H82  1  0.998000  0.692000  0.136200  1.0  0.1194
  H  H83  1  0.154600  0.645300  0.102000  1.0  0.1152
  H  H84  1  0.179400  0.688500  0.027000  1.0  0.1195
  H  H85  1  0.963500  0.615900  0.675600  1.0  0.1208
  H  H86  1  0.002000  0.694000  0.636200  1.0  0.1186
  H  H87  1  0.845400  0.490700  0.602000  1.0  0.1159
  H  H88  1  0.820600  0.509100  0.527000  1.0  0.1191
  H  H89  1  0.384100  0.347600  0.675600  1.0  0.1213
  H  H90  1  0.306000  0.308000  0.636200  1.0  0.1194
  H  H91  1  0.509300  0.354700  0.602000  1.0  0.1154
  H  H92  1  0.490900  0.311500  0.527000  1.0  0.1199
  H  H93  1  0.652400  0.036500  0.675600  1.0  0.1211
  H  H94  1  0.692000  0.998000  0.636200  1.0  0.1177
  H  H95  1  0.645300  0.154600  0.602000  1.0  0.1156
  H  H96  1  0.688500  0.179400  0.527000  1.0  0.1189
  H  H97  1  0.036500  0.384100  0.175600  1.0  0.1215
  H  H98  1  0.998000  0.306000  0.136200  1.0  0.1184
  H  H99  1  0.154600  0.509300  0.102000  1.0  0.116
  H  H100  1  0.179400  0.490900  0.027000  1.0  0.1193
  H  H101  1  0.615900  0.652400  0.175600  1.0  0.1218
  H  H102  1  0.694000  0.692000  0.136200  1.0  0.119
  H  H103  1  0.490700  0.645300  0.102000  1.0  0.116
  H  H104  1  0.509100  0.688500  0.027000  1.0  0.1194
  H  H105  1  0.347600  0.963500  0.175600  1.0  0.12
  H  H106  1  0.308000  0.002000  0.136200  1.0  0.1176
  H  H107  1  0.354700  0.845400  0.102000  1.0  0.116
  H  H108  1  0.311500  0.820600  0.027000  1.0  0.1174
  H  H109  1  0.615900  0.963500  0.324400  1.0  0.1212
  H  H110  1  0.694000  0.002000  0.363800  1.0  0.118
  H  H111  1  0.490700  0.845400  0.398000  1.0  0.116
  H  H112  1  0.509100  0.820600  0.473000  1.0  0.1188
  H  H113  1  0.347600  0.384100  0.324400  1.0  0.1201
  H  H114  1  0.308000  0.306000  0.363800  1.0  0.119
  H  H115  1  0.354700  0.509300  0.398000  1.0  0.1162
  H  H116  1  0.311500  0.490900  0.473000  1.0  0.1195
  H  H117  1  0.036500  0.652400  0.324400  1.0  0.1214
  H  H118  1  0.998000  0.692000  0.363800  1.0  0.1202
  H  H119  1  0.154600  0.645300  0.398000  1.0  0.1157
  H  H120  1  0.179400  0.688500  0.473000  1.0  0.1191
  H  H121  1  0.384100  0.036500  0.824400  1.0  0.12
  H  H122  1  0.306000  0.998000  0.863800  1.0  0.1182
  H  H123  1  0.509300  0.154600  0.898000  1.0  0.1167
  H  H124  1  0.490900  0.179400  0.973000  1.0  0.1174
  H  H125  1  0.652400  0.615900  0.824400  1.0  0.121
  H  H126  1  0.692000  0.694000  0.863800  1.0  0.1188
  H  H127  1  0.645300  0.490700  0.898000  1.0  0.1165
  H  H128  1  0.688500  0.509100  0.973000  1.0  0.1196
  H  H129  1  0.963500  0.347600  0.824400  1.0  0.1218
  H  H130  1  0.002000  0.308000  0.863800  1.0  0.1189
  H  H131  1  0.845400  0.354700  0.898000  1.0  0.1163
  H  H132  1  0.820600  0.311500  0.973000  1.0  0.1203
  H  H133  1  0.935800  0.300900  0.250000  1.0  0.1038
  H  H134  1  0.964400  0.243500  0.250000  1.0  0.1184
  H  H135  1  0.699100  0.634900  0.250000  1.0  0.1017
  H  H136  1  0.756500  0.720900  0.250000  1.0  0.1195
  H  H137  1  0.365100  0.064200  0.250000  1.0  0.103
  H  H138  1  0.279100  0.035600  0.250000  1.0  0.1144
  H  H139  1  0.064200  0.699100  0.750000  1.0  0.1034
  H  H140  1  0.035600  0.756500  0.750000  1.0  0.1193
  H  H141  1  0.300900  0.365100  0.750000  1.0  0.1051
  H  H142  1  0.243500  0.279100  0.750000  1.0  0.1201
  H  H143  1  0.634900  0.935800  0.750000  1.0  0.1019
  H  H144  1  0.720900  0.964400  0.750000  1.0  0.1092
  H  H145  1  0.300900  0.935800  0.750000  1.0  0.1018
  H  H146  1  0.243500  0.964400  0.750000  1.0  0.1143
  H  H147  1  0.634900  0.699100  0.750000  1.0  0.1039
  H  H148  1  0.720900  0.756500  0.750000  1.0  0.1195
  H  H149  1  0.064200  0.365100  0.750000  1.0  0.1032
  H  H150  1  0.035600  0.279100  0.750000  1.0  0.1189
  H  H151  1  0.699100  0.064200  0.250000  1.0  0.1047
  H  H152  1  0.756500  0.035600  0.250000  1.0  0.1106
  H  H153  1  0.365100  0.300900  0.250000  1.0  0.1032
  H  H154  1  0.279100  0.243500  0.250000  1.0  0.1195
  H  H155  1  0.935800  0.634900  0.250000  1.0  0.1026
  H  H156  1  0.964400  0.720900  0.250000  1.0  0.1196
  H  H157  1  0.243500  0.621750  0.445600  1.0  0.101
  H  H158  1  0.205500  0.602750  0.523200  1.0  0.105
  H  H159  1  0.378250  0.621750  0.445600  1.0  0.1017
  H  H160  1  0.397250  0.602750  0.523200  1.0  0.1059
  H  H161  1  0.378250  0.756500  0.445600  1.0  0.0976
  H  H162  1  0.397250  0.794500  0.523200  1.0  0.1037
  H  H163  1  0.756500  0.378250  0.945600  1.0  0.1019
  H  H164  1  0.794500  0.397250  0.023200  1.0  0.106
  H  H165  1  0.621750  0.378250  0.945600  1.0  0.1008
  H  H166  1  0.602750  0.397250  0.023200  1.0  0.1051
  H  H167  1  0.621750  0.243500  0.945600  1.0  0.1011
  H  H168  1  0.602750  0.205500  0.023200  1.0  0.1033
  H  H169  1  0.621750  0.243500  0.554400  1.0  0.1
  H  H170  1  0.602750  0.205500  0.476800  1.0  0.1028
  H  H171  1  0.621750  0.378250  0.554400  1.0  0.1004
  H  H172  1  0.602750  0.397250  0.476800  1.0  0.1049
  H  H173  1  0.756500  0.378250  0.554400  1.0  0.1022
  H  H174  1  0.794500  0.397250  0.476800  1.0  0.1048
  H  H175  1  0.378250  0.756500  0.054400  1.0  0.0972
  H  H176  1  0.397250  0.794500  0.976800  1.0  0.1024
  H  H177  1  0.378250  0.621750  0.054400  1.0  0.1019
  H  H178  1  0.397250  0.602750  0.976800  1.0  0.1047
  H  H179  1  0.243500  0.621750  0.054400  1.0  0.1005
  H  H180  1  0.205500  0.602750  0.976800  1.0  0.1047
  C  C181  1  0.099700  0.332600  0.318900  1.0  0.2595
  C  C182  1  0.026400  0.333000  0.320800  1.0  -0.3023
  C  C183  1  0.073800  0.476200  0.477500  1.0  0.189
  C  C184  1  0.154000  0.514800  0.451000  1.0  -0.2626
  C  C185  1  0.667400  0.767100  0.318900  1.0  0.2581
  C  C186  1  0.667000  0.693400  0.320800  1.0  -0.3019
  C  C187  1  0.523800  0.597600  0.477500  1.0  0.1903
  C  C188  1  0.485200  0.639200  0.451000  1.0  -0.2646
  C  C189  1  0.232900  0.900300  0.318900  1.0  0.2569
  C  C190  1  0.306600  0.973600  0.320800  1.0  -0.3004
  C  C191  1  0.402400  0.926200  0.477500  1.0  0.1891
  C  C192  1  0.360800  0.846000  0.451000  1.0  -0.2622
  C  C193  1  0.900300  0.667400  0.818900  1.0  0.2588
  C  C194  1  0.973600  0.667000  0.820800  1.0  -0.3002
  C  C195  1  0.926200  0.523800  0.977500  1.0  0.1892
  C  C196  1  0.846000  0.485200  0.951000  1.0  -0.2625
  C  C197  1  0.332600  0.232900  0.818900  1.0  0.2578
  C  C198  1  0.333000  0.306600  0.820800  1.0  -0.3019
  C  C199  1  0.476200  0.402400  0.977500  1.0  0.1894
  C  C200  1  0.514800  0.360800  0.951000  1.0  -0.2642
  C  C201  1  0.767100  0.099700  0.818900  1.0  0.2583
  C  C202  1  0.693400  0.026400  0.820800  1.0  -0.3027
  C  C203  1  0.597600  0.073800  0.977500  1.0  0.1894
  C  C204  1  0.639200  0.154000  0.951000  1.0  -0.262
  C  C205  1  0.332600  0.099700  0.681100  1.0  0.2591
  C  C206  1  0.333000  0.026400  0.679200  1.0  -0.301
  C  C207  1  0.476200  0.073800  0.522500  1.0  0.1892
  C  C208  1  0.514800  0.154000  0.549000  1.0  -0.2623
  C  C209  1  0.767100  0.667400  0.681100  1.0  0.2601
  C  C210  1  0.693400  0.667000  0.679200  1.0  -0.3025
  C  C211  1  0.597600  0.523800  0.522500  1.0  0.1894
  C  C212  1  0.639200  0.485200  0.549000  1.0  -0.2623
  C  C213  1  0.900300  0.232900  0.681100  1.0  0.2592
  C  C214  1  0.973600  0.306600  0.679200  1.0  -0.3014
  C  C215  1  0.926200  0.402400  0.522500  1.0  0.1902
  C  C216  1  0.846000  0.360800  0.549000  1.0  -0.2649
  C  C217  1  0.667400  0.900300  0.181100  1.0  0.2587
  C  C218  1  0.667000  0.973600  0.179200  1.0  -0.3021
  C  C219  1  0.523800  0.926200  0.022500  1.0  0.1896
  C  C220  1  0.485200  0.846000  0.049000  1.0  -0.2613
  C  C221  1  0.232900  0.332600  0.181100  1.0  0.2597
  C  C222  1  0.306600  0.333000  0.179200  1.0  -0.2998
  C  C223  1  0.402400  0.476200  0.022500  1.0  0.189
  C  C224  1  0.360800  0.514800  0.049000  1.0  -0.2635
  C  C225  1  0.099700  0.767100  0.181100  1.0  0.259
  C  C226  1  0.026400  0.693400  0.179200  1.0  -0.3024
  C  C227  1  0.073800  0.597600  0.022500  1.0  0.1895
  C  C228  1  0.154000  0.639200  0.049000  1.0  -0.264
  C  C229  1  0.900300  0.667400  0.681100  1.0  0.2599
  C  C230  1  0.973600  0.667000  0.679200  1.0  -0.3008
  C  C231  1  0.926200  0.523800  0.522500  1.0  0.1893
  C  C232  1  0.846000  0.485200  0.549000  1.0  -0.2626
  C  C233  1  0.332600  0.232900  0.681100  1.0  0.2584
  C  C234  1  0.333000  0.306600  0.679200  1.0  -0.3017
  C  C235  1  0.476200  0.402400  0.522500  1.0  0.1895
  C  C236  1  0.514800  0.360800  0.549000  1.0  -0.2641
  C  C237  1  0.767100  0.099700  0.681100  1.0  0.2597
  C  C238  1  0.693400  0.026400  0.679200  1.0  -0.3021
  C  C239  1  0.597600  0.073800  0.522500  1.0  0.1895
  C  C240  1  0.639200  0.154000  0.549000  1.0  -0.2619
  C  C241  1  0.099700  0.332600  0.181100  1.0  0.2602
  C  C242  1  0.026400  0.333000  0.179200  1.0  -0.302
  C  C243  1  0.073800  0.476200  0.022500  1.0  0.1891
  C  C244  1  0.154000  0.514800  0.049000  1.0  -0.262
  C  C245  1  0.667400  0.767100  0.181100  1.0  0.2595
  C  C246  1  0.667000  0.693400  0.179200  1.0  -0.3018
  C  C247  1  0.523800  0.597600  0.022500  1.0  0.1902
  C  C248  1  0.485200  0.639200  0.049000  1.0  -0.2646
  C  C249  1  0.232900  0.900300  0.181100  1.0  0.2578
  C  C250  1  0.306600  0.973600  0.179200  1.0  -0.3014
  C  C251  1  0.402400  0.926200  0.022500  1.0  0.1891
  C  C252  1  0.360800  0.846000  0.049000  1.0  -0.2622
  C  C253  1  0.667400  0.900300  0.318900  1.0  0.2579
  C  C254  1  0.667000  0.973600  0.320800  1.0  -0.3026
  C  C255  1  0.523800  0.926200  0.477500  1.0  0.1895
  C  C256  1  0.485200  0.846000  0.451000  1.0  -0.2615
  C  C257  1  0.232900  0.332600  0.318900  1.0  0.2587
  C  C258  1  0.306600  0.333000  0.320800  1.0  -0.2995
  C  C259  1  0.402400  0.476200  0.477500  1.0  0.1889
  C  C260  1  0.360800  0.514800  0.451000  1.0  -0.2637
  C  C261  1  0.099700  0.767100  0.318900  1.0  0.2578
  C  C262  1  0.026400  0.693400  0.320800  1.0  -0.3028
  C  C263  1  0.073800  0.597600  0.477500  1.0  0.1895
  C  C264  1  0.154000  0.639200  0.451000  1.0  -0.264
  C  C265  1  0.332600  0.099700  0.818900  1.0  0.2578
  C  C266  1  0.333000  0.026400  0.820800  1.0  -0.3005
  C  C267  1  0.476200  0.073800  0.977500  1.0  0.1892
  C  C268  1  0.514800  0.154000  0.951000  1.0  -0.2625
  C  C269  1  0.767100  0.667400  0.818900  1.0  0.2595
  C  C270  1  0.693400  0.667000  0.820800  1.0  -0.3027
  C  C271  1  0.597600  0.523800  0.977500  1.0  0.1892
  C  C272  1  0.639200  0.485200  0.951000  1.0  -0.2623
  C  C273  1  0.900300  0.232900  0.818900  1.0  0.2584
  C  C274  1  0.973600  0.306600  0.820800  1.0  -0.301
  C  C275  1  0.926200  0.402400  0.977500  1.0  0.1902
  C  C276  1  0.846000  0.360800  0.951000  1.0  -0.2651
  C  C277  1  0.131100  0.329200  0.250000  1.0  -0.002
  C  C278  1  0.980200  0.296200  0.250000  1.0  -0.084
  C  C279  1  0.670800  0.801900  0.250000  1.0  -0.0002
  C  C280  1  0.703800  0.684000  0.250000  1.0  -0.0839
  C  C281  1  0.198100  0.868900  0.250000  1.0  0.0012
  C  C282  1  0.316000  0.019800  0.250000  1.0  -0.0873
  C  C283  1  0.868900  0.670800  0.750000  1.0  -0.0017
  C  C284  1  0.019800  0.703800  0.750000  1.0  -0.0865
  C  C285  1  0.329200  0.198100  0.750000  1.0  0.0018
  C  C286  1  0.296200  0.316000  0.750000  1.0  -0.0829
  C  C287  1  0.801900  0.131100  0.750000  1.0  -0.0
  C  C288  1  0.684000  0.980200  0.750000  1.0  -0.0853
  C  C289  1  0.329200  0.131100  0.750000  1.0  0.0014
  C  C290  1  0.296200  0.980200  0.750000  1.0  -0.0849
  C  C291  1  0.801900  0.670800  0.750000  1.0  -0.0025
  C  C292  1  0.684000  0.703800  0.750000  1.0  -0.0841
  C  C293  1  0.868900  0.198100  0.750000  1.0  0.0006
  C  C294  1  0.019800  0.316000  0.750000  1.0  -0.0844
  C  C295  1  0.670800  0.868900  0.250000  1.0  -0.0004
  C  C296  1  0.703800  0.019800  0.250000  1.0  -0.0871
  C  C297  1  0.198100  0.329200  0.250000  1.0  -0.0013
  C  C298  1  0.316000  0.296200  0.250000  1.0  -0.0861
  C  C299  1  0.131100  0.801900  0.250000  1.0  0.001
  C  C300  1  0.980200  0.684000  0.250000  1.0  -0.0817
  C  C301  1  0.037200  0.518600  0.488000  1.0  -0.0524
  C  C302  1  0.195700  0.597850  0.470700  1.0  -0.0686
  C  C303  1  0.481400  0.518600  0.488000  1.0  -0.0526
  C  C304  1  0.402150  0.597850  0.470700  1.0  -0.0666
  C  C305  1  0.481400  0.962800  0.488000  1.0  -0.052
  C  C306  1  0.402150  0.804300  0.470700  1.0  -0.071
  C  C307  1  0.962800  0.481400  0.988000  1.0  -0.0524
  C  C308  1  0.804300  0.402150  0.970700  1.0  -0.0668
  C  C309  1  0.518600  0.481400  0.988000  1.0  -0.0522
  C  C310  1  0.597850  0.402150  0.970700  1.0  -0.0683
  C  C311  1  0.518600  0.037200  0.988000  1.0  -0.052
  C  C312  1  0.597850  0.195700  0.970700  1.0  -0.0718
  C  C313  1  0.518600  0.037200  0.512000  1.0  -0.0517
  C  C314  1  0.597850  0.195700  0.529300  1.0  -0.0723
  C  C315  1  0.518600  0.481400  0.512000  1.0  -0.052
  C  C316  1  0.597850  0.402150  0.529300  1.0  -0.0687
  C  C317  1  0.962800  0.481400  0.512000  1.0  -0.0522
  C  C318  1  0.804300  0.402150  0.529300  1.0  -0.0669
  C  C319  1  0.481400  0.962800  0.012000  1.0  -0.0518
  C  C320  1  0.402150  0.804300  0.029300  1.0  -0.0721
  C  C321  1  0.481400  0.518600  0.012000  1.0  -0.0524
  C  C322  1  0.402150  0.597850  0.029300  1.0  -0.0669
  C  C323  1  0.037200  0.518600  0.012000  1.0  -0.0522
  C  C324  1  0.195700  0.597850  0.029300  1.0  -0.0691
  C  C325  1  0.909600  0.090400  0.250000  1.0  0.1479
  C  C326  1  0.909600  0.819200  0.250000  1.0  0.1445
  C  C327  1  0.180800  0.090400  0.250000  1.0  0.1457
  C  C328  1  0.090400  0.909600  0.750000  1.0  0.1449
  C  C329  1  0.090400  0.180800  0.750000  1.0  0.1449
  C  C330  1  0.819200  0.909600  0.750000  1.0  0.148
  I  I331  1  0.805110  0.194890  0.407820  1.0  -0.2821
  I  I332  1  0.805110  0.610220  0.407820  1.0  -0.2824
  I  I333  1  0.389780  0.194890  0.407820  1.0  -0.2835
  I  I334  1  0.194890  0.805110  0.907820  1.0  -0.2825
  I  I335  1  0.194890  0.389780  0.907820  1.0  -0.2843
  I  I336  1  0.610220  0.805110  0.907820  1.0  -0.2813
  I  I337  1  0.194890  0.805110  0.592180  1.0  -0.2814
  I  I338  1  0.610220  0.805110  0.592180  1.0  -0.2819
  I  I339  1  0.194890  0.389780  0.592180  1.0  -0.2826
  I  I340  1  0.805110  0.194890  0.092180  1.0  -0.2823
  I  I341  1  0.389780  0.194890  0.092180  1.0  -0.2818
  I  I342  1  0.805110  0.610220  0.092180  1.0  -0.2823
  I  I343  1  0.000000  0.194540  0.500000  1.0  -0.2202
  I  I344  1  0.805460  0.805460  0.500000  1.0  -0.2197
  I  I345  1  0.194540  0.000000  0.500000  1.0  -0.218
  I  I346  1  0.000000  0.805460  0.000000  1.0  -0.2206
  I  I347  1  0.194540  0.194540  0.000000  1.0  -0.2206
  I  I348  1  0.805460  0.000000  0.000000  1.0  -0.2148
  I  I349  1  0.000000  0.805460  0.500000  1.0  -0.2206
  I  I350  1  0.194540  0.194540  0.500000  1.0  -0.2206
  I  I351  1  0.805460  0.000000  0.500000  1.0  -0.2148
  I  I352  1  0.000000  0.194540  0.000000  1.0  -0.2202
  I  I353  1  0.805460  0.805460  0.000000  1.0  -0.2197
  I  I354  1  0.194540  0.000000  0.000000  1.0  -0.218
  N  N355  1  0.135800  0.339800  0.382000  1.0  -0.2636
  N  N356  1  0.037700  0.401900  0.489400  1.0  -0.1907
  N  N357  1  0.660200  0.796000  0.382000  1.0  -0.265
  N  N358  1  0.598100  0.635800  0.489400  1.0  -0.1914
  N  N359  1  0.204000  0.864200  0.382000  1.0  -0.2651
  N  N360  1  0.364200  0.962300  0.489400  1.0  -0.1919
  N  N361  1  0.864200  0.660200  0.882000  1.0  -0.2649
  N  N362  1  0.962300  0.598100  0.989400  1.0  -0.1921
  N  N363  1  0.339800  0.204000  0.882000  1.0  -0.2645
  N  N364  1  0.401900  0.364200  0.989400  1.0  -0.1893
  N  N365  1  0.796000  0.135800  0.882000  1.0  -0.2641
  N  N366  1  0.635800  0.037700  0.989400  1.0  -0.1908
  N  N367  1  0.339800  0.135800  0.618000  1.0  -0.2654
  N  N368  1  0.401900  0.037700  0.510600  1.0  -0.192
  N  N369  1  0.796000  0.660200  0.618000  1.0  -0.2647
  N  N370  1  0.635800  0.598100  0.510600  1.0  -0.1921
  N  N371  1  0.864200  0.204000  0.618000  1.0  -0.2649
  N  N372  1  0.962300  0.364200  0.510600  1.0  -0.1901
  N  N373  1  0.660200  0.864200  0.118000  1.0  -0.2652
  N  N374  1  0.598100  0.962300  0.010600  1.0  -0.1912
  N  N375  1  0.204000  0.339800  0.118000  1.0  -0.2648
  N  N376  1  0.364200  0.401900  0.010600  1.0  -0.1923
  N  N377  1  0.135800  0.796000  0.118000  1.0  -0.2658
  N  N378  1  0.037700  0.635800  0.010600  1.0  -0.1917
  N  N379  1  0.864200  0.660200  0.618000  1.0  -0.2659
  N  N380  1  0.962300  0.598100  0.510600  1.0  -0.1922
  N  N381  1  0.339800  0.204000  0.618000  1.0  -0.2651
  N  N382  1  0.401900  0.364200  0.510600  1.0  -0.1902
  N  N383  1  0.796000  0.135800  0.618000  1.0  -0.265
  N  N384  1  0.635800  0.037700  0.510600  1.0  -0.1912
  N  N385  1  0.135800  0.339800  0.118000  1.0  -0.2642
  N  N386  1  0.037700  0.401900  0.010600  1.0  -0.1915
  N  N387  1  0.660200  0.796000  0.118000  1.0  -0.2658
  N  N388  1  0.598100  0.635800  0.010600  1.0  -0.1917
  N  N389  1  0.204000  0.864200  0.118000  1.0  -0.2658
  N  N390  1  0.364200  0.962300  0.010600  1.0  -0.1923
  N  N391  1  0.660200  0.864200  0.382000  1.0  -0.2645
  N  N392  1  0.598100  0.962300  0.489400  1.0  -0.1909
  N  N393  1  0.204000  0.339800  0.382000  1.0  -0.2642
  N  N394  1  0.364200  0.401900  0.489400  1.0  -0.1915
  N  N395  1  0.135800  0.796000  0.382000  1.0  -0.2651
  N  N396  1  0.037700  0.635800  0.489400  1.0  -0.1915
  N  N397  1  0.339800  0.135800  0.882000  1.0  -0.2646
  N  N398  1  0.401900  0.037700  0.989400  1.0  -0.1916
  N  N399  1  0.796000  0.660200  0.882000  1.0  -0.264
  N  N400  1  0.635800  0.598100  0.989400  1.0  -0.1919
  N  N401  1  0.864200  0.204000  0.882000  1.0  -0.2642
  N  N402  1  0.962300  0.364200  0.989400  1.0  -0.1892
  N  N403  1  0.902400  0.097600  0.322100  1.0  -0.4427
  N  N404  1  0.902400  0.804800  0.322100  1.0  -0.4481
  N  N405  1  0.195200  0.097600  0.322100  1.0  -0.4445
  N  N406  1  0.097600  0.902400  0.822100  1.0  -0.4462
  N  N407  1  0.097600  0.195200  0.822100  1.0  -0.4468
  N  N408  1  0.804800  0.902400  0.822100  1.0  -0.4448
  N  N409  1  0.097600  0.902400  0.677900  1.0  -0.4456
  N  N410  1  0.804800  0.902400  0.677900  1.0  -0.4421
  N  N411  1  0.097600  0.195200  0.677900  1.0  -0.4463
  N  N412  1  0.902400  0.097600  0.177900  1.0  -0.4412
  N  N413  1  0.195200  0.097600  0.177900  1.0  -0.4449
  N  N414  1  0.902400  0.804800  0.177900  1.0  -0.4476
