# generated using pymatgen
data_Eu2H12C24ClO12
_symmetry_space_group_name_H-M   'P 1'
_cell_length_a   12.03170000
_cell_length_b   19.51500000
_cell_length_c   17.28340000
_cell_angle_alpha   90.00000000
_cell_angle_beta   122.33200000
_cell_angle_gamma   90.00000000
_symmetry_Int_Tables_number   1
_chemical_formula_structural   Eu2H12C24ClO12
_chemical_formula_sum   'Eu8 H48 C96 Cl4 O48'
_cell_volume   3428.96110246
_cell_formula_units_Z   4
loop_
 _symmetry_equiv_pos_site_id
 _symmetry_equiv_pos_as_xyz
  1  'x, y, z'
loop_
 _atom_site_type_symbol
 _atom_site_label
 _atom_site_symmetry_multiplicity
 _atom_site_fract_x
 _atom_site_fract_y
 _atom_site_fract_z
 _atom_site_occupancy
 _atom_site_charge
  Eu  Eu1  1  0.735440  0.730140  0.556540  1.0  2.1743
  Eu  Eu2  1  0.685540  0.767470  0.765880  1.0  2.1085
  Eu  Eu3  1  0.264560  0.230140  0.943460  1.0  2.1749
  Eu  Eu4  1  0.314460  0.267470  0.734120  1.0  2.1079
  Eu  Eu5  1  0.264560  0.269860  0.443460  1.0  2.1755
  Eu  Eu6  1  0.314460  0.232530  0.234120  1.0  2.1074
  Eu  Eu7  1  0.735440  0.769860  0.056540  1.0  2.1741
  Eu  Eu8  1  0.685540  0.732530  0.265880  1.0  2.1077
  H  H9  1  0.494900  0.452900  0.744600  1.0  0.1119
  H  H10  1  0.589000  0.559300  0.761000  1.0  0.1102
  H  H11  1  0.687900  0.506400  0.582400  1.0  0.1024
  H  H12  1  0.594300  0.399800  0.565400  1.0  0.1069
  H  H13  1  0.033700  0.676900  0.397800  1.0  0.1062
  H  H14  1  0.233500  0.672200  0.535000  1.0  0.1242
  H  H15  1  0.398700  0.780400  0.425800  1.0  0.1105
  H  H16  1  0.199600  0.784600  0.288500  1.0  0.1176
  H  H17  1  0.916000  0.547600  0.357400  1.0  0.1074
  H  H18  1  0.970800  0.554600  0.606100  1.0  0.1119
  H  H19  1  0.549300  0.912600  0.433000  1.0  0.1075
  H  H20  1  0.573300  0.994100  0.653800  1.0  0.1146
  H  H21  1  0.505100  0.952900  0.755400  1.0  0.1124
  H  H22  1  0.411000  0.059300  0.739000  1.0  0.1103
  H  H23  1  0.312100  0.006400  0.917600  1.0  0.1015
  H  H24  1  0.405700  0.899800  0.934600  1.0  0.1073
  H  H25  1  0.966300  0.176900  0.102200  1.0  0.1063
  H  H26  1  0.766500  0.172200  0.965000  1.0  0.1245
  H  H27  1  0.601300  0.280400  0.074200  1.0  0.1108
  H  H28  1  0.800400  0.284600  0.211500  1.0  0.1173
  H  H29  1  0.084000  0.047600  0.142600  1.0  0.1078
  H  H30  1  0.029200  0.054600  0.893900  1.0  0.1117
  H  H31  1  0.450700  0.412600  0.067000  1.0  0.1078
  H  H32  1  0.426700  0.494100  0.846200  1.0  0.1148
  H  H33  1  0.505100  0.547100  0.255400  1.0  0.1126
  H  H34  1  0.411000  0.440700  0.239000  1.0  0.1104
  H  H35  1  0.312100  0.493600  0.417600  1.0  0.1016
  H  H36  1  0.405700  0.600200  0.434600  1.0  0.1071
  H  H37  1  0.966300  0.323100  0.602200  1.0  0.1062
  H  H38  1  0.766500  0.327800  0.465000  1.0  0.1242
  H  H39  1  0.601300  0.219600  0.574200  1.0  0.1109
  H  H40  1  0.800400  0.215400  0.711500  1.0  0.117
  H  H41  1  0.084000  0.452400  0.642600  1.0  0.1078
  H  H42  1  0.029200  0.445400  0.393900  1.0  0.112
  H  H43  1  0.450700  0.087400  0.567000  1.0  0.1075
  H  H44  1  0.426700  0.005900  0.346200  1.0  0.1148
  H  H45  1  0.494900  0.047100  0.244600  1.0  0.112
  H  H46  1  0.589000  0.940700  0.261000  1.0  0.1105
  H  H47  1  0.687900  0.993600  0.082400  1.0  0.1024
  H  H48  1  0.594300  0.100200  0.065400  1.0  0.107
  H  H49  1  0.033700  0.823100  0.897800  1.0  0.1062
  H  H50  1  0.233500  0.827800  0.035000  1.0  0.1241
  H  H51  1  0.398700  0.719600  0.925800  1.0  0.1106
  H  H52  1  0.199600  0.715400  0.788500  1.0  0.118
  H  H53  1  0.916000  0.952400  0.857400  1.0  0.1077
  H  H54  1  0.970800  0.945400  0.106100  1.0  0.1123
  H  H55  1  0.549300  0.587400  0.933000  1.0  0.1077
  H  H56  1  0.573300  0.505900  0.153800  1.0  0.1149
  C  C57  1  0.536100  0.415200  0.654000  1.0  -0.1288
  C  C58  1  0.534200  0.463400  0.712200  1.0  -0.0294
  C  C59  1  0.590200  0.527100  0.721700  1.0  -0.0355
  C  C60  1  0.648600  0.543400  0.673500  1.0  -0.1323
  C  C61  1  0.649300  0.495600  0.615300  1.0  -0.0062
  C  C62  1  0.593400  0.431700  0.605000  1.0  -0.028
  C  C63  1  0.474100  0.346600  0.643800  1.0  0.7643
  C  C64  1  0.707600  0.613000  0.684200  1.0  0.8066
  C  C65  1  0.095300  0.732700  0.329900  1.0  -0.1236
  C  C66  1  0.106800  0.698300  0.403500  1.0  -0.0672
  C  C67  1  0.226400  0.695500  0.485600  1.0  -0.0614
  C  C68  1  0.335400  0.727400  0.494600  1.0  -0.1294
  C  C69  1  0.325000  0.760000  0.420400  1.0  -0.0388
  C  C70  1  0.205900  0.762700  0.338500  1.0  -0.0586
  C  C71  1  0.965500  0.740100  0.242100  1.0  0.7473
  C  C72  1  0.460900  0.730200  0.586400  1.0  0.7029
  C  C73  1  0.931500  0.561600  0.477300  1.0  -0.1524
  C  C74  1  0.949800  0.528600  0.415200  1.0  -0.0344
  C  C75  1  0.982300  0.532700  0.563000  1.0  -0.0478
  C  C76  1  0.857700  0.627900  0.453500  1.0  0.7409
  C  C77  1  0.571600  0.943600  0.551300  1.0  -0.1239
  C  C78  1  0.529200  0.947600  0.460000  1.0  -0.0323
  C  C79  1  0.543600  0.996300  0.591900  1.0  -0.0642
  C  C80  1  0.645800  0.881000  0.606100  1.0  0.761
  C  C81  1  0.463900  0.915200  0.846000  1.0  -0.1297
  C  C82  1  0.465800  0.963400  0.787800  1.0  -0.0305
  C  C83  1  0.409800  0.027100  0.778300  1.0  -0.0347
  C  C84  1  0.351400  0.043400  0.826500  1.0  -0.1334
  C  C85  1  0.350700  0.995600  0.884700  1.0  -0.0067
  C  C86  1  0.406600  0.931700  0.895000  1.0  -0.0287
  C  C87  1  0.525900  0.846600  0.856200  1.0  0.7642
  C  C88  1  0.292400  0.113000  0.815800  1.0  0.8086
  C  C89  1  0.904700  0.232700  0.170100  1.0  -0.1261
  C  C90  1  0.893200  0.198300  0.096500  1.0  -0.0667
  C  C91  1  0.773600  0.195500  0.014400  1.0  -0.0617
  C  C92  1  0.664600  0.227400  0.005400  1.0  -0.1285
  C  C93  1  0.675000  0.260000  0.079600  1.0  -0.039
  C  C94  1  0.794100  0.262700  0.161500  1.0  -0.0589
  C  C95  1  0.034500  0.240100  0.257900  1.0  0.7468
  C  C96  1  0.539100  0.230200  0.913600  1.0  0.7035
  C  C97  1  0.068500  0.061600  0.022700  1.0  -0.1527
  C  C98  1  0.050200  0.028600  0.084800  1.0  -0.0346
  C  C99  1  0.017700  0.032700  0.937000  1.0  -0.0476
  C  C100  1  0.142300  0.127900  0.046500  1.0  0.7414
  C  C101  1  0.428400  0.443600  0.948700  1.0  -0.1237
  C  C102  1  0.470800  0.447600  0.040000  1.0  -0.034
  C  C103  1  0.456400  0.496300  0.908100  1.0  -0.0619
  C  C104  1  0.354200  0.381000  0.893900  1.0  0.7613
  C  C105  1  0.463900  0.584800  0.346000  1.0  -0.1287
  C  C106  1  0.465800  0.536600  0.287800  1.0  -0.0311
  C  C107  1  0.409800  0.472900  0.278300  1.0  -0.0345
  C  C108  1  0.351400  0.456600  0.326500  1.0  -0.1341
  C  C109  1  0.350700  0.504400  0.384700  1.0  -0.0066
  C  C110  1  0.406600  0.568300  0.395000  1.0  -0.028
  C  C111  1  0.525900  0.653400  0.356200  1.0  0.7668
  C  C112  1  0.292400  0.387000  0.315800  1.0  0.808
  C  C113  1  0.904700  0.267300  0.670100  1.0  -0.1263
  C  C114  1  0.893200  0.301700  0.596500  1.0  -0.067
  C  C115  1  0.773600  0.304500  0.514400  1.0  -0.0616
  C  C116  1  0.664600  0.272600  0.505400  1.0  -0.1289
  C  C117  1  0.675000  0.240000  0.579600  1.0  -0.0384
  C  C118  1  0.794100  0.237300  0.661500  1.0  -0.0588
  C  C119  1  0.034500  0.259900  0.757900  1.0  0.7469
  C  C120  1  0.539100  0.269800  0.413600  1.0  0.7038
  C  C121  1  0.068500  0.438400  0.522700  1.0  -0.1528
  C  C122  1  0.050200  0.471400  0.584800  1.0  -0.0347
  C  C123  1  0.017700  0.467300  0.437000  1.0  -0.0478
  C  C124  1  0.142300  0.372100  0.546500  1.0  0.7402
  C  C125  1  0.428400  0.056400  0.448700  1.0  -0.1235
  C  C126  1  0.470800  0.052400  0.540000  1.0  -0.0334
  C  C127  1  0.456400  0.003700  0.408100  1.0  -0.0624
  C  C128  1  0.354200  0.119000  0.393900  1.0  0.7608
  C  C129  1  0.536100  0.084800  0.154000  1.0  -0.1291
  C  C130  1  0.534200  0.036600  0.212200  1.0  -0.0296
  C  C131  1  0.590200  0.972900  0.221700  1.0  -0.0357
  C  C132  1  0.648600  0.956600  0.173500  1.0  -0.1317
  C  C133  1  0.649300  0.004400  0.115300  1.0  -0.006
  C  C134  1  0.593400  0.068300  0.105000  1.0  -0.0273
  C  C135  1  0.474100  0.153400  0.143800  1.0  0.7658
  C  C136  1  0.707600  0.887000  0.184200  1.0  0.8067
  C  C137  1  0.095300  0.767300  0.829900  1.0  -0.1242
  C  C138  1  0.106800  0.801700  0.903500  1.0  -0.0667
  C  C139  1  0.226400  0.804500  0.985600  1.0  -0.0614
  C  C140  1  0.335400  0.772600  0.994600  1.0  -0.1293
  C  C141  1  0.325000  0.740000  0.920400  1.0  -0.0397
  C  C142  1  0.205900  0.737300  0.838500  1.0  -0.0579
  C  C143  1  0.965500  0.759900  0.742100  1.0  0.7472
  C  C144  1  0.460900  0.769800  0.086400  1.0  0.7031
  C  C145  1  0.931500  0.938400  0.977300  1.0  -0.153
  C  C146  1  0.949800  0.971400  0.915200  1.0  -0.0349
  C  C147  1  0.982300  0.967300  0.063000  1.0  -0.0482
  C  C148  1  0.857700  0.872100  0.953500  1.0  0.7402
  C  C149  1  0.571600  0.556400  0.051300  1.0  -0.1236
  C  C150  1  0.529200  0.552400  0.960000  1.0  -0.0321
  C  C151  1  0.543600  0.503700  0.091900  1.0  -0.0646
  C  C152  1  0.645800  0.619000  0.106100  1.0  0.761
  Cl  Cl153  1  0.764450  0.808490  0.428630  1.0  -0.4564
  Cl  Cl154  1  0.235550  0.308490  0.071370  1.0  -0.456
  Cl  Cl155  1  0.235550  0.191510  0.571370  1.0  -0.4552
  Cl  Cl156  1  0.764450  0.691510  0.928630  1.0  -0.4558
  O  O157  1  0.445900  0.311770  0.574500  1.0  -0.6764
  O  O158  1  0.457100  0.327080  0.705100  1.0  -0.7185
  O  O159  1  0.712100  0.651300  0.743900  1.0  -0.7204
  O  O160  1  0.748800  0.628470  0.633800  1.0  -0.6807
  O  O161  1  0.962500  0.751000  0.169900  1.0  -0.6013
  O  O162  1  0.862400  0.735810  0.243400  1.0  -0.795
  O  O163  1  0.457900  0.726800  0.657000  1.0  -0.6137
  O  O164  1  0.567900  0.739330  0.590300  1.0  -0.7676
  O  O165  1  0.835600  0.652580  0.510300  1.0  -0.7394
  O  O166  1  0.824300  0.654440  0.378300  1.0  -0.6829
  O  O167  1  0.642500  0.868250  0.675700  1.0  -0.6832
  O  O168  1  0.699900  0.845670  0.575300  1.0  -0.7075
  O  O169  1  0.554100  0.811770  0.925500  1.0  -0.6775
  O  O170  1  0.542900  0.827080  0.794900  1.0  -0.7198
  O  O171  1  0.287900  0.151300  0.756100  1.0  -0.7218
  O  O172  1  0.251200  0.128470  0.866200  1.0  -0.6784
  O  O173  1  0.037500  0.251000  0.330100  1.0  -0.6043
  O  O174  1  0.137600  0.235810  0.256600  1.0  -0.7949
  O  O175  1  0.542100  0.226800  0.843000  1.0  -0.6098
  O  O176  1  0.432100  0.239330  0.909700  1.0  -0.7679
  O  O177  1  0.164400  0.152580  0.989700  1.0  -0.7389
  O  O178  1  0.175700  0.154440  0.121700  1.0  -0.6839
  O  O179  1  0.357500  0.368250  0.824300  1.0  -0.6839
  O  O180  1  0.300100  0.345670  0.924700  1.0  -0.7059
  O  O181  1  0.554100  0.688230  0.425500  1.0  -0.6781
  O  O182  1  0.542900  0.672920  0.294900  1.0  -0.7194
  O  O183  1  0.287900  0.348700  0.256100  1.0  -0.7226
  O  O184  1  0.251200  0.371530  0.366200  1.0  -0.679
  O  O185  1  0.037500  0.249000  0.830100  1.0  -0.6039
  O  O186  1  0.137600  0.264190  0.756600  1.0  -0.7946
  O  O187  1  0.542100  0.273200  0.343000  1.0  -0.6096
  O  O188  1  0.432100  0.260670  0.409700  1.0  -0.7678
  O  O189  1  0.164400  0.347420  0.489700  1.0  -0.7386
  O  O190  1  0.175700  0.345560  0.621700  1.0  -0.6845
  O  O191  1  0.357500  0.131750  0.324300  1.0  -0.6841
  O  O192  1  0.300100  0.154330  0.424700  1.0  -0.7049
  O  O193  1  0.445900  0.188230  0.074500  1.0  -0.6769
  O  O194  1  0.457100  0.172920  0.205100  1.0  -0.72
  O  O195  1  0.712100  0.848700  0.243900  1.0  -0.7208
  O  O196  1  0.748800  0.871530  0.133800  1.0  -0.6799
  O  O197  1  0.962500  0.749000  0.669900  1.0  -0.6018
  O  O198  1  0.862400  0.764190  0.743400  1.0  -0.7945
  O  O199  1  0.457900  0.773200  0.157000  1.0  -0.6136
  O  O200  1  0.567900  0.760670  0.090300  1.0  -0.7678
  O  O201  1  0.835600  0.847420  0.010300  1.0  -0.7392
  O  O202  1  0.824300  0.845560  0.878300  1.0  -0.6841
  O  O203  1  0.642500  0.631750  0.175700  1.0  -0.6827
  O  O204  1  0.699900  0.654330  0.075300  1.0  -0.7067
