# generated using pymatgen
data_Eu2H12C24ClO12
_symmetry_space_group_name_H-M   'P 1'
_cell_length_a   19.17580000
_cell_length_b   10.98670000
_cell_length_c   33.41050000
_cell_angle_alpha   90.00000000
_cell_angle_beta   103.27300000
_cell_angle_gamma   90.00000000
_symmetry_Int_Tables_number   1
_chemical_formula_structural   Eu2H12C24ClO12
_chemical_formula_sum   'Eu16 H96 C192 Cl8 O96'
_cell_volume   6850.85431605
_cell_formula_units_Z   8
loop_
 _symmetry_equiv_pos_site_id
 _symmetry_equiv_pos_as_xyz
  1  'x, y, z'
loop_
 _atom_site_type_symbol
 _atom_site_label
 _atom_site_symmetry_multiplicity
 _atom_site_fract_x
 _atom_site_fract_y
 _atom_site_fract_z
 _atom_site_occupancy
 _atom_site_charge
  Eu  Eu1  1  0.013010  0.184790  0.186680  1.0  2.1572
  Eu  Eu2  1  0.003490  0.059110  0.055760  1.0  2.1447
  Eu  Eu3  1  0.513010  0.684790  0.186680  1.0  2.1572
  Eu  Eu4  1  0.503490  0.559110  0.055760  1.0  2.1447
  Eu  Eu5  1  0.986990  0.184790  0.313320  1.0  2.1581
  Eu  Eu6  1  0.996510  0.059110  0.444240  1.0  2.1428
  Eu  Eu7  1  0.486990  0.684790  0.313320  1.0  2.1581
  Eu  Eu8  1  0.496510  0.559110  0.444240  1.0  2.1428
  Eu  Eu9  1  0.986990  0.815210  0.813320  1.0  2.1581
  Eu  Eu10  1  0.996510  0.940890  0.944240  1.0  2.1429
  Eu  Eu11  1  0.486990  0.315210  0.813320  1.0  2.1581
  Eu  Eu12  1  0.496510  0.440890  0.944240  1.0  2.1429
  Eu  Eu13  1  0.013010  0.815210  0.686680  1.0  2.1572
  Eu  Eu14  1  0.003490  0.940890  0.555760  1.0  2.1447
  Eu  Eu15  1  0.513010  0.315210  0.686680  1.0  2.1572
  Eu  Eu16  1  0.503490  0.440890  0.555760  1.0  2.1447
  H  H17  1  0.019600  0.563500  0.121900  1.0  0.1185
  H  H18  1  0.015900  0.739300  0.082900  1.0  0.1105
  H  H19  1  0.098400  0.555600  0.001700  1.0  0.1154
  H  H20  1  0.093100  0.378100  0.037600  1.0  0.1065
  H  H21  1  0.174300  0.786000  0.120000  1.0  0.1106
  H  H22  1  0.279400  0.689900  0.151400  1.0  0.1209
  H  H23  1  0.286800  0.885900  0.253200  1.0  0.1201
  H  H24  1  0.185700  0.990400  0.220400  1.0  0.1112
  H  H25  1  0.047000  0.581000  0.202400  1.0  0.116
  H  H26  1  0.048900  0.792300  0.203100  1.0  0.1064
  H  H27  1  0.792300  0.885300  0.053400  1.0  0.1271
  H  H28  1  0.799600  0.748000  0.943400  1.0  0.1053
  H  H29  1  0.519600  0.063500  0.121900  1.0  0.1185
  H  H30  1  0.515900  0.239300  0.082900  1.0  0.1105
  H  H31  1  0.598400  0.055600  0.001700  1.0  0.1154
  H  H32  1  0.593100  0.878100  0.037600  1.0  0.1065
  H  H33  1  0.674300  0.286000  0.120000  1.0  0.1106
  H  H34  1  0.779400  0.189900  0.151400  1.0  0.1209
  H  H35  1  0.786800  0.385900  0.253200  1.0  0.1201
  H  H36  1  0.685700  0.490400  0.220400  1.0  0.1112
  H  H37  1  0.547000  0.081000  0.202400  1.0  0.116
  H  H38  1  0.548900  0.292300  0.203100  1.0  0.1064
  H  H39  1  0.292300  0.385300  0.053400  1.0  0.1271
  H  H40  1  0.299600  0.248000  0.943400  1.0  0.1053
  H  H41  1  0.980400  0.563500  0.378100  1.0  0.1181
  H  H42  1  0.984100  0.739300  0.417100  1.0  0.1103
  H  H43  1  0.901600  0.555600  0.498300  1.0  0.1148
  H  H44  1  0.906900  0.378100  0.462400  1.0  0.1068
  H  H45  1  0.825700  0.786000  0.380000  1.0  0.111
  H  H46  1  0.720600  0.689900  0.348600  1.0  0.1214
  H  H47  1  0.713200  0.885900  0.246800  1.0  0.1201
  H  H48  1  0.814300  0.990400  0.279600  1.0  0.111
  H  H49  1  0.953000  0.581000  0.297600  1.0  0.1161
  H  H50  1  0.951100  0.792300  0.296900  1.0  0.1064
  H  H51  1  0.207700  0.885300  0.446600  1.0  0.1268
  H  H52  1  0.200400  0.748000  0.556600  1.0  0.1058
  H  H53  1  0.480400  0.063500  0.378100  1.0  0.1181
  H  H54  1  0.484100  0.239300  0.417100  1.0  0.1103
  H  H55  1  0.401600  0.055600  0.498300  1.0  0.1148
  H  H56  1  0.406900  0.878100  0.462400  1.0  0.1068
  H  H57  1  0.325700  0.286000  0.380000  1.0  0.111
  H  H58  1  0.220600  0.189900  0.348600  1.0  0.1214
  H  H59  1  0.213200  0.385900  0.246800  1.0  0.1201
  H  H60  1  0.314300  0.490400  0.279600  1.0  0.111
  H  H61  1  0.453000  0.081000  0.297600  1.0  0.1161
  H  H62  1  0.451100  0.292300  0.296900  1.0  0.1064
  H  H63  1  0.707700  0.385300  0.446600  1.0  0.1268
  H  H64  1  0.700400  0.248000  0.556600  1.0  0.1058
  H  H65  1  0.980400  0.436500  0.878100  1.0  0.1184
  H  H66  1  0.984100  0.260700  0.917100  1.0  0.1099
  H  H67  1  0.901600  0.444400  0.998300  1.0  0.1148
  H  H68  1  0.906900  0.621900  0.962400  1.0  0.1072
  H  H69  1  0.825700  0.214000  0.880000  1.0  0.1111
  H  H70  1  0.720600  0.310100  0.848600  1.0  0.1213
  H  H71  1  0.713200  0.114100  0.746800  1.0  0.1201
  H  H72  1  0.814300  0.009600  0.779600  1.0  0.1111
  H  H73  1  0.953000  0.419000  0.797600  1.0  0.1157
  H  H74  1  0.951100  0.207700  0.796900  1.0  0.1069
  H  H75  1  0.207700  0.114700  0.946600  1.0  0.1271
  H  H76  1  0.200400  0.252000  0.056600  1.0  0.106
  H  H77  1  0.480400  0.936500  0.878100  1.0  0.1184
  H  H78  1  0.484100  0.760700  0.917100  1.0  0.1099
  H  H79  1  0.401600  0.944400  0.998300  1.0  0.1148
  H  H80  1  0.406900  0.121900  0.962400  1.0  0.1072
  H  H81  1  0.325700  0.714000  0.880000  1.0  0.1111
  H  H82  1  0.220600  0.810100  0.848600  1.0  0.1213
  H  H83  1  0.213200  0.614100  0.746800  1.0  0.1201
  H  H84  1  0.314300  0.509600  0.779600  1.0  0.1111
  H  H85  1  0.453000  0.919000  0.797600  1.0  0.1157
  H  H86  1  0.451100  0.707700  0.796900  1.0  0.1069
  H  H87  1  0.707700  0.614700  0.946600  1.0  0.1271
  H  H88  1  0.700400  0.752000  0.056600  1.0  0.106
  H  H89  1  0.019600  0.436500  0.621900  1.0  0.1186
  H  H90  1  0.015900  0.260700  0.582900  1.0  0.1104
  H  H91  1  0.098400  0.444400  0.501700  1.0  0.1155
  H  H92  1  0.093100  0.621900  0.537600  1.0  0.1074
  H  H93  1  0.174300  0.214000  0.620000  1.0  0.1106
  H  H94  1  0.279400  0.310100  0.651400  1.0  0.1211
  H  H95  1  0.286800  0.114100  0.753200  1.0  0.1201
  H  H96  1  0.185700  0.009600  0.720400  1.0  0.1112
  H  H97  1  0.047000  0.419000  0.702400  1.0  0.1161
  H  H98  1  0.048900  0.207700  0.703100  1.0  0.1066
  H  H99  1  0.792300  0.114700  0.553400  1.0  0.1273
  H  H100  1  0.799600  0.252000  0.443400  1.0  0.1055
  H  H101  1  0.519600  0.936500  0.621900  1.0  0.1186
  H  H102  1  0.515900  0.760700  0.582900  1.0  0.1104
  H  H103  1  0.598400  0.944400  0.501700  1.0  0.1155
  H  H104  1  0.593100  0.121900  0.537600  1.0  0.1074
  H  H105  1  0.674300  0.714000  0.620000  1.0  0.1106
  H  H106  1  0.779400  0.810100  0.651400  1.0  0.1211
  H  H107  1  0.786800  0.614100  0.753200  1.0  0.1201
  H  H108  1  0.685700  0.509600  0.720400  1.0  0.1112
  H  H109  1  0.547000  0.919000  0.702400  1.0  0.1161
  H  H110  1  0.548900  0.707700  0.703100  1.0  0.1066
  H  H111  1  0.292300  0.614700  0.553400  1.0  0.1273
  H  H112  1  0.299600  0.752000  0.443400  1.0  0.1055
  C  C113  1  0.054100  0.452800  0.082840  1.0  -0.1292
  C  C114  1  0.033300  0.560900  0.097000  1.0  -0.0631
  C  C115  1  0.032900  0.667200  0.074000  1.0  -0.0321
  C  C116  1  0.057000  0.666100  0.038700  1.0  -0.1115
  C  C117  1  0.080800  0.557000  0.025400  1.0  -0.0336
  C  C118  1  0.078300  0.451100  0.047100  1.0  -0.0232
  C  C119  1  0.047300  0.333700  0.104400  1.0  0.7576
  C  C120  1  0.051100  0.775100  0.011100  1.0  0.6969
  C  C121  1  0.171500  0.902700  0.166470  1.0  -0.1447
  C  C122  1  0.198300  0.808800  0.146300  1.0  -0.0539
  C  C123  1  0.260300  0.749700  0.165400  1.0  -0.054
  C  C124  1  0.294000  0.778500  0.205100  1.0  -0.1189
  C  C125  1  0.265100  0.868000  0.226000  1.0  -0.0662
  C  C126  1  0.204500  0.929900  0.206500  1.0  -0.0112
  C  C127  1  0.109900  0.980000  0.143940  1.0  0.718
  C  C128  1  0.363900  0.720300  0.225700  1.0  0.7744
  C  C129  1  0.028300  0.623500  0.221700  1.0  -0.0349
  C  C130  1  0.029000  0.750100  0.221800  1.0  -0.0389
  C  C131  1  0.804900  0.828800  0.997700  1.0  -0.1265
  C  C132  1  0.775300  0.831100  0.032000  1.0  -0.0383
  C  C133  1  0.779600  0.748600  0.966200  1.0  -0.0003
  C  C134  1  0.865600  0.913000  0.996000  1.0  0.7443
  C  C135  1  0.554100  0.952800  0.082840  1.0  -0.1292
  C  C136  1  0.533300  0.060900  0.097000  1.0  -0.0643
  C  C137  1  0.532900  0.167200  0.074000  1.0  -0.0321
  C  C138  1  0.557000  0.166100  0.038700  1.0  -0.1115
  C  C139  1  0.580800  0.057000  0.025400  1.0  -0.0336
  C  C140  1  0.578300  0.951100  0.047100  1.0  -0.0232
  C  C141  1  0.547300  0.833700  0.104400  1.0  0.7576
  C  C142  1  0.551100  0.275100  0.011100  1.0  0.6969
  C  C143  1  0.671500  0.402700  0.166470  1.0  -0.1447
  C  C144  1  0.698300  0.308800  0.146300  1.0  -0.0539
  C  C145  1  0.760300  0.249700  0.165400  1.0  -0.054
  C  C146  1  0.794000  0.278500  0.205100  1.0  -0.1189
  C  C147  1  0.765100  0.368000  0.226000  1.0  -0.0662
  C  C148  1  0.704500  0.429900  0.206500  1.0  -0.0112
  C  C149  1  0.609900  0.480000  0.143940  1.0  0.718
  C  C150  1  0.863900  0.220300  0.225700  1.0  0.7744
  C  C151  1  0.528300  0.123500  0.221700  1.0  -0.0349
  C  C152  1  0.529000  0.250100  0.221800  1.0  -0.0389
  C  C153  1  0.304900  0.328800  0.997700  1.0  -0.1265
  C  C154  1  0.275300  0.331100  0.032000  1.0  -0.0383
  C  C155  1  0.279600  0.248600  0.966200  1.0  -0.0003
  C  C156  1  0.365600  0.413000  0.996000  1.0  0.7443
  C  C157  1  0.945900  0.452800  0.417160  1.0  -0.1309
  C  C158  1  0.966700  0.560900  0.403000  1.0  -0.0602
  C  C159  1  0.967100  0.667200  0.426000  1.0  -0.0337
  C  C160  1  0.943000  0.666100  0.461300  1.0  -0.1111
  C  C161  1  0.919200  0.557000  0.474600  1.0  -0.0369
  C  C162  1  0.921700  0.451100  0.452900  1.0  -0.023
  C  C163  1  0.952700  0.333700  0.395600  1.0  0.7579
  C  C164  1  0.948900  0.775100  0.488900  1.0  0.6964
  C  C165  1  0.828500  0.902700  0.333530  1.0  -0.1454
  C  C166  1  0.801700  0.808800  0.353700  1.0  -0.0521
  C  C167  1  0.739700  0.749700  0.334600  1.0  -0.056
  C  C168  1  0.706000  0.778500  0.294900  1.0  -0.119
  C  C169  1  0.734900  0.868000  0.274000  1.0  -0.0641
  C  C170  1  0.795500  0.929900  0.293500  1.0  -0.0102
  C  C171  1  0.890100  0.980000  0.356060  1.0  0.7204
  C  C172  1  0.636100  0.720300  0.274300  1.0  0.7751
  C  C173  1  0.971700  0.623500  0.278300  1.0  -0.0361
  C  C174  1  0.971000  0.750100  0.278200  1.0  -0.0399
  C  C175  1  0.195100  0.828800  0.502300  1.0  -0.126
  C  C176  1  0.224700  0.831100  0.468000  1.0  -0.0384
  C  C177  1  0.220400  0.748600  0.533800  1.0  -0.002
  C  C178  1  0.134400  0.913000  0.504000  1.0  0.7593
  C  C179  1  0.445900  0.952800  0.417160  1.0  -0.1309
  C  C180  1  0.466700  0.060900  0.403000  1.0  -0.0595
  C  C181  1  0.467100  0.167200  0.426000  1.0  -0.0343
  C  C182  1  0.443000  0.166100  0.461300  1.0  -0.1111
  C  C183  1  0.419200  0.057000  0.474600  1.0  -0.0369
  C  C184  1  0.421700  0.951100  0.452900  1.0  -0.023
  C  C185  1  0.452700  0.833700  0.395600  1.0  0.7579
  C  C186  1  0.448900  0.275100  0.488900  1.0  0.6964
  C  C187  1  0.328500  0.402700  0.333530  1.0  -0.1454
  C  C188  1  0.301700  0.308800  0.353700  1.0  -0.0521
  C  C189  1  0.239700  0.249700  0.334600  1.0  -0.056
  C  C190  1  0.206000  0.278500  0.294900  1.0  -0.119
  C  C191  1  0.234900  0.368000  0.274000  1.0  -0.0641
  C  C192  1  0.295500  0.429900  0.293500  1.0  -0.0102
  C  C193  1  0.390100  0.480000  0.356060  1.0  0.7204
  C  C194  1  0.136100  0.220300  0.274300  1.0  0.7751
  C  C195  1  0.471700  0.123500  0.278300  1.0  -0.0361
  C  C196  1  0.471000  0.250100  0.278200  1.0  -0.0399
  C  C197  1  0.695100  0.328800  0.502300  1.0  -0.126
  C  C198  1  0.724700  0.331100  0.468000  1.0  -0.0384
  C  C199  1  0.720400  0.248600  0.533800  1.0  -0.002
  C  C200  1  0.634400  0.413000  0.504000  1.0  0.7593
  C  C201  1  0.945900  0.547200  0.917160  1.0  -0.1302
  C  C202  1  0.966700  0.439100  0.903000  1.0  -0.0599
  C  C203  1  0.967100  0.332800  0.926000  1.0  -0.0332
  C  C204  1  0.943000  0.333900  0.961300  1.0  -0.1117
  C  C205  1  0.919200  0.443000  0.974600  1.0  -0.0365
  C  C206  1  0.921700  0.548900  0.952900  1.0  -0.0231
  C  C207  1  0.952700  0.666300  0.895600  1.0  0.7576
  C  C208  1  0.948900  0.224900  0.988900  1.0  0.6965
  C  C209  1  0.828500  0.097300  0.833530  1.0  -0.1455
  C  C210  1  0.801700  0.191200  0.853700  1.0  -0.0526
  C  C211  1  0.739700  0.250300  0.834600  1.0  -0.053
  C  C212  1  0.706000  0.221500  0.794900  1.0  -0.1192
  C  C213  1  0.734900  0.132000  0.774000  1.0  -0.0662
  C  C214  1  0.795500  0.070100  0.793500  1.0  -0.0097
  C  C215  1  0.890100  0.020000  0.856060  1.0  0.7208
  C  C216  1  0.636100  0.279700  0.774300  1.0  0.7581
  C  C217  1  0.971700  0.376500  0.778300  1.0  -0.0358
  C  C218  1  0.971000  0.249900  0.778200  1.0  -0.0402
  C  C219  1  0.195100  0.171200  0.002300  1.0  -0.1272
  C  C220  1  0.224700  0.168900  0.968000  1.0  -0.0379
  C  C221  1  0.220400  0.251400  0.033800  1.0  -0.0022
  C  C222  1  0.134400  0.087000  0.004000  1.0  0.7596
  C  C223  1  0.445900  0.047200  0.917160  1.0  -0.1302
  C  C224  1  0.466700  0.939100  0.903000  1.0  -0.0612
  C  C225  1  0.467100  0.832800  0.926000  1.0  -0.0332
  C  C226  1  0.443000  0.833900  0.961300  1.0  -0.1117
  C  C227  1  0.419200  0.943000  0.974600  1.0  -0.0365
  C  C228  1  0.421700  0.048900  0.952900  1.0  -0.0231
  C  C229  1  0.452700  0.166300  0.895600  1.0  0.7576
  C  C230  1  0.448900  0.724900  0.988900  1.0  0.6965
  C  C231  1  0.328500  0.597300  0.833530  1.0  -0.1455
  C  C232  1  0.301700  0.691200  0.853700  1.0  -0.0526
  C  C233  1  0.239700  0.750300  0.834600  1.0  -0.053
  C  C234  1  0.206000  0.721500  0.794900  1.0  -0.1192
  C  C235  1  0.234900  0.632000  0.774000  1.0  -0.0662
  C  C236  1  0.295500  0.570100  0.793500  1.0  -0.0097
  C  C237  1  0.390100  0.520000  0.856060  1.0  0.7208
  C  C238  1  0.136100  0.779700  0.774300  1.0  0.7581
  C  C239  1  0.471700  0.876500  0.778300  1.0  -0.0358
  C  C240  1  0.471000  0.749900  0.778200  1.0  -0.0402
  C  C241  1  0.695100  0.671200  0.002300  1.0  -0.1272
  C  C242  1  0.724700  0.668900  0.968000  1.0  -0.0379
  C  C243  1  0.720400  0.751400  0.033800  1.0  -0.0022
  C  C244  1  0.634400  0.587000  0.004000  1.0  0.7596
  C  C245  1  0.054100  0.547200  0.582840  1.0  -0.1305
  C  C246  1  0.033300  0.439100  0.597000  1.0  -0.0643
  C  C247  1  0.032900  0.332800  0.574000  1.0  -0.0373
  C  C248  1  0.057000  0.333900  0.538700  1.0  -0.1121
  C  C249  1  0.080800  0.443000  0.525400  1.0  -0.0333
  C  C250  1  0.078300  0.548900  0.547100  1.0  -0.0234
  C  C251  1  0.047300  0.666300  0.604400  1.0  0.7571
  C  C252  1  0.051100  0.224900  0.511100  1.0  0.6971
  C  C253  1  0.171500  0.097300  0.666470  1.0  -0.1452
  C  C254  1  0.198300  0.191200  0.646300  1.0  -0.0544
  C  C255  1  0.260300  0.250300  0.665400  1.0  -0.0562
  C  C256  1  0.294000  0.221500  0.705100  1.0  -0.1194
  C  C257  1  0.265100  0.132000  0.726000  1.0  -0.0556
  C  C258  1  0.204500  0.070100  0.706500  1.0  -0.0103
  C  C259  1  0.109900  0.020000  0.643940  1.0  0.7177
  C  C260  1  0.363900  0.279700  0.725700  1.0  0.7742
  C  C261  1  0.028300  0.376500  0.721700  1.0  -0.0347
  C  C262  1  0.029000  0.249900  0.721800  1.0  -0.0388
  C  C263  1  0.804900  0.171200  0.497700  1.0  -0.1272
  C  C264  1  0.775300  0.168900  0.532000  1.0  -0.0373
  C  C265  1  0.779600  0.251400  0.466200  1.0  -0.0002
  C  C266  1  0.865600  0.087000  0.496000  1.0  0.7434
  C  C267  1  0.554100  0.047200  0.582840  1.0  -0.1305
  C  C268  1  0.533300  0.939100  0.597000  1.0  -0.0649
  C  C269  1  0.532900  0.832800  0.574000  1.0  -0.0373
  C  C270  1  0.557000  0.833900  0.538700  1.0  -0.1121
  C  C271  1  0.580800  0.943000  0.525400  1.0  -0.0333
  C  C272  1  0.578300  0.048900  0.547100  1.0  -0.0234
  C  C273  1  0.547300  0.166300  0.604400  1.0  0.7571
  C  C274  1  0.551100  0.724900  0.511100  1.0  0.6971
  C  C275  1  0.671500  0.597300  0.666470  1.0  -0.1452
  C  C276  1  0.698300  0.691200  0.646300  1.0  -0.0544
  C  C277  1  0.760300  0.750300  0.665400  1.0  -0.0562
  C  C278  1  0.794000  0.721500  0.705100  1.0  -0.1194
  C  C279  1  0.765100  0.632000  0.726000  1.0  -0.0556
  C  C280  1  0.704500  0.570100  0.706500  1.0  -0.0103
  C  C281  1  0.609900  0.520000  0.643940  1.0  0.7177
  C  C282  1  0.863900  0.779700  0.725700  1.0  0.7742
  C  C283  1  0.528300  0.876500  0.721700  1.0  -0.0347
  C  C284  1  0.529000  0.749900  0.721800  1.0  -0.0388
  C  C285  1  0.304900  0.671200  0.497700  1.0  -0.1272
  C  C286  1  0.275300  0.668900  0.532000  1.0  -0.0373
  C  C287  1  0.279600  0.751400  0.466200  1.0  -0.0002
  C  C288  1  0.365600  0.587000  0.496000  1.0  0.7434
  C  C289  1  0.000000  0.561100  0.250000  1.0  -0.1027
  C  C290  1  0.000000  0.812700  0.250000  1.0  -0.1052
  C  C291  1  0.000000  0.424600  0.250000  1.0  0.7368
  C  C292  1  0.000000  0.949100  0.250000  1.0  0.7452
  C  C293  1  0.500000  0.061100  0.250000  1.0  -0.1027
  C  C294  1  0.500000  0.312700  0.250000  1.0  -0.1052
  C  C295  1  0.500000  0.924600  0.250000  1.0  0.7368
  C  C296  1  0.500000  0.449100  0.250000  1.0  0.7452
  C  C297  1  0.000000  0.438900  0.750000  1.0  -0.1029
  C  C298  1  0.000000  0.187300  0.750000  1.0  -0.1059
  C  C299  1  0.000000  0.575400  0.750000  1.0  0.7372
  C  C300  1  0.000000  0.050900  0.750000  1.0  0.7455
  C  C301  1  0.500000  0.938900  0.750000  1.0  -0.1029
  C  C302  1  0.500000  0.687300  0.750000  1.0  -0.1059
  C  C303  1  0.500000  0.075400  0.750000  1.0  0.7372
  C  C304  1  0.500000  0.550900  0.750000  1.0  0.7455
  Cl  Cl305  1  0.921940  0.086590  0.115280  1.0  -0.4021
  Cl  Cl306  1  0.421940  0.586590  0.115280  1.0  -0.4021
  Cl  Cl307  1  0.078060  0.086590  0.384720  1.0  -0.4011
  Cl  Cl308  1  0.578060  0.586590  0.384720  1.0  -0.4011
  Cl  Cl309  1  0.078060  0.913410  0.884720  1.0  -0.4016
  Cl  Cl310  1  0.578060  0.413410  0.884720  1.0  -0.4016
  Cl  Cl311  1  0.921940  0.913410  0.615280  1.0  -0.4024
  Cl  Cl312  1  0.421940  0.413410  0.615280  1.0  -0.4024
  O  O313  1  0.031800  0.336700  0.139010  1.0  -0.6817
  O  O314  1  0.056300  0.237600  0.085910  1.0  -0.7231
  O  O315  1  0.018800  0.870800  0.019790  1.0  -0.8201
  O  O316  1  0.072200  0.768300  0.978660  1.0  -0.6616
  O  O317  1  0.096000  0.073700  0.161130  1.0  -0.7021
  O  O318  1  0.079100  0.947800  0.108000  1.0  -0.6463
  O  O319  1  0.381100  0.720000  0.264130  1.0  -0.6948
  O  O320  1  0.401400  0.677000  0.202800  1.0  -0.7432
  O  O321  1  0.996300  0.373400  0.216410  1.0  -0.7222
  O  O322  1  0.018000  0.000200  0.220420  1.0  -0.7223
  O  O323  1  0.893200  0.969700  0.028060  1.0  -0.7045
  O  O324  1  0.883900  0.921100  0.962240  1.0  -0.6937
  O  O325  1  0.531800  0.836700  0.139010  1.0  -0.6817
  O  O326  1  0.556300  0.737600  0.085910  1.0  -0.7235
  O  O327  1  0.518800  0.370800  0.019790  1.0  -0.8201
  O  O328  1  0.572200  0.268300  0.978660  1.0  -0.6616
  O  O329  1  0.596000  0.573700  0.161130  1.0  -0.7021
  O  O330  1  0.579100  0.447800  0.108000  1.0  -0.6463
  O  O331  1  0.881100  0.220000  0.264130  1.0  -0.6948
  O  O332  1  0.901400  0.177000  0.202800  1.0  -0.7432
  O  O333  1  0.496300  0.873400  0.216410  1.0  -0.7222
  O  O334  1  0.518000  0.500200  0.220420  1.0  -0.7224
  O  O335  1  0.393200  0.469700  0.028060  1.0  -0.7045
  O  O336  1  0.383900  0.421100  0.962240  1.0  -0.6937
  O  O337  1  0.968200  0.336700  0.360990  1.0  -0.6808
  O  O338  1  0.943700  0.237600  0.414090  1.0  -0.7293
  O  O339  1  0.981200  0.870800  0.480210  1.0  -0.8192
  O  O340  1  0.927800  0.768300  0.521340  1.0  -0.6639
  O  O341  1  0.904000  0.073700  0.338870  1.0  -0.7072
  O  O342  1  0.920900  0.947800  0.392000  1.0  -0.6467
  O  O343  1  0.618900  0.720000  0.235870  1.0  -0.6954
  O  O344  1  0.598600  0.677000  0.297200  1.0  -0.7401
  O  O345  1  0.003700  0.373400  0.283590  1.0  -0.7222
  O  O346  1  0.982000  0.000200  0.279580  1.0  -0.7202
  O  O347  1  0.106800  0.969700  0.471940  1.0  -0.7009
  O  O348  1  0.116100  0.921100  0.537760  1.0  -0.6951
  O  O349  1  0.468200  0.836700  0.360990  1.0  -0.6808
  O  O350  1  0.443700  0.737600  0.414090  1.0  -0.7293
  O  O351  1  0.481200  0.370800  0.480210  1.0  -0.8192
  O  O352  1  0.427800  0.268300  0.521340  1.0  -0.6639
  O  O353  1  0.404000  0.573700  0.338870  1.0  -0.7072
  O  O354  1  0.420900  0.447800  0.392000  1.0  -0.6467
  O  O355  1  0.118900  0.220000  0.235870  1.0  -0.6954
  O  O356  1  0.098600  0.177000  0.297200  1.0  -0.7401
  O  O357  1  0.503700  0.873400  0.283590  1.0  -0.7222
  O  O358  1  0.482000  0.500200  0.279580  1.0  -0.7202
  O  O359  1  0.606800  0.469700  0.471940  1.0  -0.7009
  O  O360  1  0.616100  0.421100  0.537760  1.0  -0.6951
  O  O361  1  0.968200  0.663300  0.860990  1.0  -0.6807
  O  O362  1  0.943700  0.762400  0.914090  1.0  -0.7303
  O  O363  1  0.981200  0.129200  0.980210  1.0  -0.8201
  O  O364  1  0.927800  0.231700  0.021340  1.0  -0.6641
  O  O365  1  0.904000  0.926300  0.838870  1.0  -0.7061
  O  O366  1  0.920900  0.052200  0.892000  1.0  -0.6465
  O  O367  1  0.618900  0.280000  0.735870  1.0  -0.6952
  O  O368  1  0.598600  0.323000  0.797200  1.0  -0.7408
  O  O369  1  0.003700  0.626600  0.783590  1.0  -0.7219
  O  O370  1  0.982000  0.999800  0.779580  1.0  -0.7194
  O  O371  1  0.106800  0.030300  0.971940  1.0  -0.7011
  O  O372  1  0.116100  0.078900  0.037760  1.0  -0.694
  O  O373  1  0.468200  0.163300  0.860990  1.0  -0.6805
  O  O374  1  0.443700  0.262400  0.914090  1.0  -0.7303
  O  O375  1  0.481200  0.629200  0.980210  1.0  -0.8201
  O  O376  1  0.427800  0.731700  0.021340  1.0  -0.6641
  O  O377  1  0.404000  0.426300  0.838870  1.0  -0.7061
  O  O378  1  0.420900  0.552200  0.892000  1.0  -0.6465
  O  O379  1  0.118900  0.780000  0.735870  1.0  -0.6952
  O  O380  1  0.098600  0.823000  0.797200  1.0  -0.7408
  O  O381  1  0.503700  0.126600  0.783590  1.0  -0.7219
  O  O382  1  0.482000  0.499800  0.779580  1.0  -0.7197
  O  O383  1  0.606800  0.530300  0.971940  1.0  -0.7011
  O  O384  1  0.616100  0.578900  0.037760  1.0  -0.694
  O  O385  1  0.031800  0.663300  0.639010  1.0  -0.6823
  O  O386  1  0.056300  0.762400  0.585910  1.0  -0.7242
  O  O387  1  0.018800  0.129200  0.519790  1.0  -0.8203
  O  O388  1  0.072200  0.231700  0.478660  1.0  -0.6615
  O  O389  1  0.096000  0.926300  0.661130  1.0  -0.7013
  O  O390  1  0.079100  0.052200  0.608000  1.0  -0.6462
  O  O391  1  0.381100  0.280000  0.764130  1.0  -0.6948
  O  O392  1  0.401400  0.323000  0.702800  1.0  -0.7437
  O  O393  1  0.996300  0.626600  0.716410  1.0  -0.7224
  O  O394  1  0.018000  0.999800  0.720420  1.0  -0.7225
  O  O395  1  0.893200  0.030300  0.528060  1.0  -0.7039
  O  O396  1  0.883900  0.078900  0.462240  1.0  -0.6944
  O  O397  1  0.531800  0.163300  0.639010  1.0  -0.6822
  O  O398  1  0.556300  0.262400  0.585910  1.0  -0.7247
  O  O399  1  0.518800  0.629200  0.519790  1.0  -0.8203
  O  O400  1  0.572200  0.731700  0.478660  1.0  -0.6615
  O  O401  1  0.596000  0.426300  0.661130  1.0  -0.7013
  O  O402  1  0.579100  0.552200  0.608000  1.0  -0.6462
  O  O403  1  0.881100  0.780000  0.764130  1.0  -0.6948
  O  O404  1  0.901400  0.823000  0.702800  1.0  -0.7437
  O  O405  1  0.496300  0.126600  0.716410  1.0  -0.7224
  O  O406  1  0.518000  0.499800  0.720420  1.0  -0.7221
  O  O407  1  0.393200  0.530300  0.528060  1.0  -0.7039
  O  O408  1  0.383900  0.578900  0.462240  1.0  -0.6944
