# generated using pymatgen
data_VH4C8O5
_symmetry_space_group_name_H-M   'P 1'
_cell_length_a   6.80500000
_cell_length_b   13.97930000
_cell_length_c   15.94470000
_cell_angle_alpha   90.00000000
_cell_angle_beta   90.00000000
_cell_angle_gamma   90.00000000
_symmetry_Int_Tables_number   1
_chemical_formula_structural   VH4C8O5
_chemical_formula_sum   'V4 H16 C32 O20'
_cell_volume   1516.80554275
_cell_formula_units_Z   4
loop_
 _symmetry_equiv_pos_site_id
 _symmetry_equiv_pos_as_xyz
  1  'x, y, z'
loop_
 _atom_site_type_symbol
 _atom_site_label
 _atom_site_symmetry_multiplicity
 _atom_site_fract_x
 _atom_site_fract_y
 _atom_site_fract_z
 _atom_site_occupancy
 _atom_site_charge
  V  V1  1  0.934970  0.236110  0.498800  1.0  1.8831
  V  V2  1  0.565030  0.763890  0.998800  1.0  1.8835
  V  V3  1  0.065030  0.736110  0.001200  1.0  1.8832
  V  V4  1  0.434970  0.263890  0.501200  1.0  1.8833
  H  H5  1  0.967800  0.953200  0.179400  1.0  0.1126
  H  H6  1  0.551300  0.983500  0.176700  1.0  0.1078
  H  H7  1  0.946900  0.061500  0.288400  1.0  0.1099
  H  H8  1  0.530800  0.092400  0.285300  1.0  0.1108
  H  H9  1  0.532200  0.046800  0.679400  1.0  0.1125
  H  H10  1  0.948700  0.016500  0.676700  1.0  0.1078
  H  H11  1  0.553100  0.938500  0.788400  1.0  0.1098
  H  H12  1  0.969200  0.907600  0.785300  1.0  0.1109
  H  H13  1  0.032200  0.453200  0.320600  1.0  0.1126
  H  H14  1  0.448700  0.483500  0.323300  1.0  0.1076
  H  H15  1  0.053100  0.561500  0.211600  1.0  0.1101
  H  H16  1  0.469200  0.592400  0.214700  1.0  0.1109
  H  H17  1  0.467800  0.546800  0.820600  1.0  0.1125
  H  H18  1  0.051300  0.516500  0.823300  1.0  0.1076
  H  H19  1  0.446900  0.438500  0.711600  1.0  0.1102
  H  H20  1  0.030800  0.407600  0.714700  1.0  0.1106
  C  C21  1  0.275700  0.880950  0.101910  1.0  0.727
  C  C22  1  0.261900  0.955740  0.168670  1.0  -0.1244
  C  C23  1  0.081600  0.980300  0.201310  1.0  -0.0512
  C  C24  1  0.429600  0.998510  0.199660  1.0  -0.0551
  C  C25  1  0.224500  0.150960  0.373260  1.0  0.7258
  C  C26  1  0.236900  0.085890  0.299110  1.0  -0.1281
  C  C27  1  0.069100  0.045200  0.266470  1.0  -0.0547
  C  C28  1  0.417400  0.063630  0.264730  1.0  -0.0492
  C  C29  1  0.224300  0.119050  0.601910  1.0  0.7272
  C  C30  1  0.238100  0.044260  0.668670  1.0  -0.1244
  C  C31  1  0.418400  0.019700  0.701310  1.0  -0.0516
  C  C32  1  0.070400  0.001490  0.699660  1.0  -0.056
  C  C33  1  0.275500  0.849040  0.873260  1.0  0.7253
  C  C34  1  0.263100  0.914110  0.799110  1.0  -0.128
  C  C35  1  0.430900  0.954800  0.766470  1.0  -0.0548
  C  C36  1  0.082600  0.936370  0.764730  1.0  -0.0499
  C  C37  1  0.724300  0.380950  0.398090  1.0  0.727
  C  C38  1  0.738100  0.455740  0.331330  1.0  -0.1241
  C  C39  1  0.918400  0.480300  0.298690  1.0  -0.0512
  C  C40  1  0.570400  0.498510  0.300340  1.0  -0.0554
  C  C41  1  0.775500  0.650960  0.126740  1.0  0.7263
  C  C42  1  0.763100  0.585890  0.200890  1.0  -0.1277
  C  C43  1  0.930900  0.545200  0.233530  1.0  -0.0552
  C  C44  1  0.582600  0.563630  0.235270  1.0  -0.0505
  C  C45  1  0.775700  0.619050  0.898090  1.0  0.727
  C  C46  1  0.761900  0.544260  0.831330  1.0  -0.1246
  C  C47  1  0.581600  0.519700  0.798690  1.0  -0.0517
  C  C48  1  0.929600  0.501490  0.800340  1.0  -0.0558
  C  C49  1  0.724500  0.349040  0.626740  1.0  0.7256
  C  C50  1  0.736900  0.414110  0.700890  1.0  -0.1281
  C  C51  1  0.569100  0.454800  0.733530  1.0  -0.0548
  C  C52  1  0.917400  0.436370  0.735270  1.0  -0.0492
  O  O53  1  0.716940  0.191300  0.492780  1.0  -0.7591
  O  O54  1  0.444200  0.858860  0.076080  1.0  -0.6522
  O  O55  1  0.056300  0.168340  0.401960  1.0  -0.6497
  O  O56  1  0.116300  0.845070  0.077240  1.0  -0.6276
  O  O57  1  0.383900  0.182970  0.401930  1.0  -0.6254
  O  O58  1  0.783060  0.808700  0.992780  1.0  -0.7584
  O  O59  1  0.055800  0.141140  0.576080  1.0  -0.6517
  O  O60  1  0.443700  0.831660  0.901960  1.0  -0.6494
  O  O61  1  0.383700  0.154930  0.577240  1.0  -0.6273
  O  O62  1  0.116100  0.817030  0.901930  1.0  -0.6259
  O  O63  1  0.283060  0.691300  0.007220  1.0  -0.7594
  O  O64  1  0.555800  0.358860  0.423920  1.0  -0.6515
  O  O65  1  0.943700  0.668340  0.098040  1.0  -0.6495
  O  O66  1  0.883700  0.345070  0.422760  1.0  -0.6272
  O  O67  1  0.616100  0.682970  0.098070  1.0  -0.6256
  O  O68  1  0.216940  0.308700  0.507220  1.0  -0.759
  O  O69  1  0.944200  0.641140  0.923920  1.0  -0.651
  O  O70  1  0.556300  0.331660  0.598040  1.0  -0.6499
  O  O71  1  0.616300  0.654930  0.922760  1.0  -0.6274
  O  O72  1  0.883900  0.317030  0.598070  1.0  -0.6256
