# generated using pymatgen
data_VH4C8O5
_symmetry_space_group_name_H-M   'P 1'
_cell_length_a   6.82700000
_cell_length_b   13.96500000
_cell_length_c   16.07300000
_cell_angle_alpha   90.00000000
_cell_angle_beta   90.00000000
_cell_angle_gamma   90.00000000
_symmetry_Int_Tables_number   1
_chemical_formula_structural   VH4C8O5
_chemical_formula_sum   'V4 H16 C32 O20'
_cell_volume   1532.38463101
_cell_formula_units_Z   4
loop_
 _symmetry_equiv_pos_site_id
 _symmetry_equiv_pos_as_xyz
  1  'x, y, z'
loop_
 _atom_site_type_symbol
 _atom_site_label
 _atom_site_symmetry_multiplicity
 _atom_site_fract_x
 _atom_site_fract_y
 _atom_site_fract_z
 _atom_site_occupancy
 _atom_site_charge
  V  V1  1  0.934880  0.235850  0.499110  1.0  1.9131
  V  V2  1  0.565120  0.764150  0.999110  1.0  1.9135
  V  V3  1  0.065120  0.735850  0.000890  1.0  1.9132
  V  V4  1  0.434880  0.264150  0.500890  1.0  1.9129
  H  H5  1  0.551900  0.981500  0.179800  1.0  0.1098
  H  H6  1  0.531300  0.087800  0.286800  1.0  0.11
  H  H7  1  0.948200  0.052100  0.293200  1.0  0.1092
  H  H8  1  0.968900  0.952300  0.181200  1.0  0.1058
  H  H9  1  0.948100  0.018500  0.679800  1.0  0.1099
  H  H10  1  0.968700  0.912200  0.786800  1.0  0.1099
  H  H11  1  0.551800  0.947900  0.793200  1.0  0.1087
  H  H12  1  0.531100  0.047700  0.681200  1.0  0.1057
  H  H13  1  0.448100  0.481500  0.320200  1.0  0.1099
  H  H14  1  0.468700  0.587800  0.213200  1.0  0.1103
  H  H15  1  0.051800  0.552100  0.206800  1.0  0.1093
  H  H16  1  0.031100  0.452300  0.318800  1.0  0.1058
  H  H17  1  0.051900  0.518500  0.820200  1.0  0.1096
  H  H18  1  0.031300  0.412200  0.713200  1.0  0.1098
  H  H19  1  0.448200  0.447900  0.706800  1.0  0.1098
  H  H20  1  0.468900  0.547700  0.818800  1.0  0.1055
  C  C21  1  0.277900  0.879500  0.104600  1.0  0.7275
  C  C22  1  0.261500  0.952600  0.170400  1.0  -0.1225
  C  C23  1  0.430200  0.996000  0.202500  1.0  -0.0581
  C  C24  1  0.417700  0.059400  0.266500  1.0  -0.0449
  C  C25  1  0.224200  0.146200  0.375800  1.0  0.7246
  C  C26  1  0.237800  0.082600  0.302500  1.0  -0.1356
  C  C27  1  0.069900  0.039100  0.269800  1.0  -0.0584
  C  C28  1  0.082900  0.977700  0.203900  1.0  -0.0484
  C  C29  1  0.222100  0.120500  0.604600  1.0  0.7279
  C  C30  1  0.238500  0.047400  0.670400  1.0  -0.1229
  C  C31  1  0.069800  0.004000  0.702500  1.0  -0.0588
  C  C32  1  0.082300  0.940600  0.766500  1.0  -0.045
  C  C33  1  0.275800  0.853800  0.875800  1.0  0.7239
  C  C34  1  0.262200  0.917400  0.802500  1.0  -0.1361
  C  C35  1  0.430100  0.960900  0.769800  1.0  -0.058
  C  C36  1  0.417100  0.022300  0.703900  1.0  -0.0491
  C  C37  1  0.722100  0.379500  0.395400  1.0  0.7281
  C  C38  1  0.738500  0.452600  0.329600  1.0  -0.1221
  C  C39  1  0.569800  0.496000  0.297500  1.0  -0.0581
  C  C40  1  0.582300  0.559400  0.233500  1.0  -0.0458
  C  C41  1  0.775800  0.646200  0.124200  1.0  0.7248
  C  C42  1  0.762200  0.582600  0.197500  1.0  -0.1354
  C  C43  1  0.930100  0.539100  0.230200  1.0  -0.0581
  C  C44  1  0.917100  0.477700  0.296100  1.0  -0.0494
  C  C45  1  0.777900  0.620500  0.895400  1.0  0.7277
  C  C46  1  0.761500  0.547400  0.829600  1.0  -0.1227
  C  C47  1  0.930200  0.504000  0.797500  1.0  -0.0584
  C  C48  1  0.917700  0.440600  0.733500  1.0  -0.0458
  C  C49  1  0.724200  0.353800  0.624200  1.0  0.724
  C  C50  1  0.737800  0.417400  0.697500  1.0  -0.1364
  C  C51  1  0.569900  0.460900  0.730200  1.0  -0.0581
  C  C52  1  0.582900  0.522300  0.796100  1.0  -0.0485
  O  O53  1  0.717700  0.191200  0.494200  1.0  -0.7623
  O  O54  1  0.443700  0.857200  0.078500  1.0  -0.6336
  O  O55  1  0.055900  0.166000  0.405300  1.0  -0.662
  O  O56  1  0.116400  0.842600  0.076200  1.0  -0.6487
  O  O57  1  0.382800  0.180700  0.403100  1.0  -0.6267
  O  O58  1  0.782300  0.808800  0.994200  1.0  -0.7609
  O  O59  1  0.056300  0.142800  0.578500  1.0  -0.6334
  O  O60  1  0.444100  0.834000  0.905300  1.0  -0.6612
  O  O61  1  0.383600  0.157400  0.576200  1.0  -0.6477
  O  O62  1  0.117200  0.819300  0.903100  1.0  -0.6267
  O  O63  1  0.282300  0.691200  0.005800  1.0  -0.7624
  O  O64  1  0.556300  0.357200  0.421500  1.0  -0.6332
  O  O65  1  0.944100  0.666000  0.094700  1.0  -0.6611
  O  O66  1  0.883600  0.342600  0.423800  1.0  -0.646
  O  O67  1  0.617200  0.680700  0.096900  1.0  -0.6266
  O  O68  1  0.217700  0.308800  0.505800  1.0  -0.7617
  O  O69  1  0.943700  0.642800  0.921500  1.0  -0.6331
  O  O70  1  0.555900  0.334000  0.594700  1.0  -0.6619
  O  O71  1  0.616400  0.657400  0.923800  1.0  -0.6475
  O  O72  1  0.882800  0.319300  0.596900  1.0  -0.6268
