# generated using pymatgen
data_VH4C8O5
_symmetry_space_group_name_H-M   'P 1'
_cell_length_a   6.80230000
_cell_length_b   13.91200000
_cell_length_c   16.05200000
_cell_angle_alpha   90.00000000
_cell_angle_beta   90.00000000
_cell_angle_gamma   90.00000000
_symmetry_Int_Tables_number   1
_chemical_formula_structural   VH4C8O5
_chemical_formula_sum   'V4 H16 C32 O20'
_cell_volume   1519.05850868
_cell_formula_units_Z   4
loop_
 _symmetry_equiv_pos_site_id
 _symmetry_equiv_pos_as_xyz
  1  'x, y, z'
loop_
 _atom_site_type_symbol
 _atom_site_label
 _atom_site_symmetry_multiplicity
 _atom_site_fract_x
 _atom_site_fract_y
 _atom_site_fract_z
 _atom_site_occupancy
 _atom_site_charge
  V  V1  1  0.564500  0.236060  0.999210  1.0  1.8851
  V  V2  1  0.935500  0.763940  0.499210  1.0  1.885
  V  V3  1  0.435500  0.736060  0.500790  1.0  1.8849
  V  V4  1  0.064500  0.263940  0.000790  1.0  1.8854
  H  H5  1  0.554000  0.054400  0.792900  1.0  0.1065
  H  H6  1  0.531900  0.947700  0.684200  1.0  0.1096
  H  H7  1  0.967100  0.080900  0.794700  1.0  0.1128
  H  H8  1  0.948600  0.972400  0.684700  1.0  0.108
  H  H9  1  0.946000  0.945600  0.292900  1.0  0.1066
  H  H10  1  0.968100  0.052300  0.184200  1.0  0.1099
  H  H11  1  0.532900  0.919100  0.294700  1.0  0.1133
  H  H12  1  0.551400  0.027600  0.184700  1.0  0.1075
  H  H13  1  0.446000  0.554400  0.707100  1.0  0.1069
  H  H14  1  0.468100  0.447700  0.815800  1.0  0.1096
  H  H15  1  0.032900  0.580900  0.705300  1.0  0.1129
  H  H16  1  0.051400  0.472400  0.815300  1.0  0.108
  H  H17  1  0.054000  0.445600  0.207100  1.0  0.1068
  H  H18  1  0.031900  0.552300  0.315800  1.0  0.1095
  H  H19  1  0.467100  0.419100  0.205300  1.0  0.1132
  H  H20  1  0.448600  0.527600  0.315300  1.0  0.1078
  C  C21  1  0.274600  0.143200  0.878630  1.0  0.7411
  C  C22  1  0.262300  0.076900  0.806430  1.0  -0.133
  C  C23  1  0.431300  0.037400  0.772000  1.0  -0.0526
  C  C24  1  0.418000  0.973500  0.707100  1.0  -0.0596
  C  C25  1  0.081000  0.053500  0.773300  1.0  -0.0577
  C  C26  1  0.070200  0.988200  0.707400  1.0  -0.0546
  C  C27  1  0.238000  0.947300  0.675780  1.0  -0.1234
  C  C28  1  0.224100  0.875300  0.607100  1.0  0.7226
  C  C29  1  0.225400  0.856800  0.378630  1.0  0.7409
  C  C30  1  0.237700  0.923100  0.306430  1.0  -0.1332
  C  C31  1  0.068700  0.962600  0.272000  1.0  -0.0521
  C  C32  1  0.082000  0.026500  0.207100  1.0  -0.0598
  C  C33  1  0.419000  0.946500  0.273300  1.0  -0.0567
  C  C34  1  0.429800  0.011800  0.207400  1.0  -0.0534
  C  C35  1  0.262000  0.052700  0.175780  1.0  -0.123
  C  C36  1  0.275900  0.124700  0.107100  1.0  0.7229
  C  C37  1  0.725400  0.643200  0.621370  1.0  0.7416
  C  C38  1  0.737700  0.576900  0.693570  1.0  -0.1332
  C  C39  1  0.568700  0.537400  0.728000  1.0  -0.0527
  C  C40  1  0.582000  0.473500  0.792900  1.0  -0.0595
  C  C41  1  0.919000  0.553500  0.726700  1.0  -0.0574
  C  C42  1  0.929800  0.488200  0.792600  1.0  -0.054
  C  C43  1  0.762000  0.447300  0.824220  1.0  -0.1227
  C  C44  1  0.775900  0.375300  0.892900  1.0  0.7227
  C  C45  1  0.774600  0.356800  0.121370  1.0  0.7413
  C  C46  1  0.762300  0.423100  0.193570  1.0  -0.1332
  C  C47  1  0.931300  0.462600  0.228000  1.0  -0.0528
  C  C48  1  0.918000  0.526500  0.292900  1.0  -0.0594
  C  C49  1  0.581000  0.446500  0.226700  1.0  -0.0573
  C  C50  1  0.570200  0.511800  0.292600  1.0  -0.0549
  C  C51  1  0.738000  0.552700  0.324220  1.0  -0.1227
  C  C52  1  0.724100  0.624700  0.392900  1.0  0.7229
  O  O53  1  0.782240  0.190610  0.996100  1.0  -0.7637
  O  O54  1  0.442500  0.162210  0.906410  1.0  -0.6537
  O  O55  1  0.056300  0.854550  0.580150  1.0  -0.6439
  O  O56  1  0.116700  0.176710  0.906490  1.0  -0.6316
  O  O57  1  0.385700  0.840350  0.581960  1.0  -0.6136
  O  O58  1  0.717760  0.809390  0.496100  1.0  -0.7634
  O  O59  1  0.057500  0.837790  0.406410  1.0  -0.6544
  O  O60  1  0.443700  0.145450  0.080150  1.0  -0.6431
  O  O61  1  0.383300  0.823290  0.406490  1.0  -0.6317
  O  O62  1  0.114300  0.159650  0.081960  1.0  -0.6137
  O  O63  1  0.217760  0.690610  0.503900  1.0  -0.7642
  O  O64  1  0.557500  0.662210  0.593590  1.0  -0.6543
  O  O65  1  0.943700  0.354550  0.919850  1.0  -0.6436
  O  O66  1  0.883300  0.676710  0.593510  1.0  -0.6315
  O  O67  1  0.614300  0.340350  0.918040  1.0  -0.6135
  O  O68  1  0.282240  0.309390  0.003900  1.0  -0.7633
  O  O69  1  0.942500  0.337790  0.093590  1.0  -0.6544
  O  O70  1  0.556300  0.645450  0.419850  1.0  -0.6435
  O  O71  1  0.616700  0.323290  0.093510  1.0  -0.6316
  O  O72  1  0.885700  0.659650  0.418040  1.0  -0.6133
