# generated using pymatgen
data_VH4C8O5
_symmetry_space_group_name_H-M   'P 1'
_cell_length_a   6.78840000
_cell_length_b   13.23050000
_cell_length_c   16.63570000
_cell_angle_alpha   90.00000000
_cell_angle_beta   90.00000000
_cell_angle_gamma   90.00000000
_symmetry_Int_Tables_number   1
_chemical_formula_structural   VH4C8O5
_chemical_formula_sum   'V4 H16 C32 O20'
_cell_volume   1494.11753209
_cell_formula_units_Z   4
loop_
 _symmetry_equiv_pos_site_id
 _symmetry_equiv_pos_as_xyz
  1  'x, y, z'
loop_
 _atom_site_type_symbol
 _atom_site_label
 _atom_site_symmetry_multiplicity
 _atom_site_fract_x
 _atom_site_fract_y
 _atom_site_fract_z
 _atom_site_occupancy
 _atom_site_charge
  V  V1  1  0.438770  0.264610  0.499450  1.0  1.8857
  V  V2  1  0.061230  0.735390  0.999450  1.0  1.886
  V  V3  1  0.561230  0.764610  0.000550  1.0  1.8862
  V  V4  1  0.938770  0.235390  0.500550  1.0  1.8856
  H  H5  1  0.549500  0.983300  0.818800  1.0  0.1092
  H  H6  1  0.530700  0.087000  0.708200  1.0  0.109
  H  H7  1  0.966900  0.935600  0.807200  1.0  0.1132
  H  H8  1  0.948300  0.039300  0.695700  1.0  0.1124
  H  H9  1  0.950500  0.016700  0.318800  1.0  0.1095
  H  H10  1  0.969300  0.913000  0.208200  1.0  0.1095
  H  H11  1  0.533100  0.064400  0.307200  1.0  0.1132
  H  H12  1  0.551700  0.960700  0.195700  1.0  0.1122
  H  H13  1  0.450500  0.483300  0.681200  1.0  0.1097
  H  H14  1  0.469300  0.587000  0.791800  1.0  0.1091
  H  H15  1  0.033100  0.435600  0.692800  1.0  0.1134
  H  H16  1  0.051700  0.539300  0.804300  1.0  0.1124
  H  H17  1  0.049500  0.516700  0.181200  1.0  0.1097
  H  H18  1  0.030700  0.413000  0.291800  1.0  0.1097
  H  H19  1  0.466900  0.564400  0.192800  1.0  0.1131
  H  H20  1  0.448300  0.460700  0.304300  1.0  0.1123
  C  C21  1  0.272800  0.878000  0.893320  1.0  0.7267
  C  C22  1  0.260600  0.948900  0.824100  1.0  -0.1217
  C  C23  1  0.428500  0.994500  0.794130  1.0  -0.0548
  C  C24  1  0.417100  0.056500  0.727920  1.0  -0.0486
  C  C25  1  0.080200  0.966000  0.787140  1.0  -0.0551
  C  C26  1  0.069100  0.028100  0.720540  1.0  -0.0567
  C  C27  1  0.238400  0.074000  0.690410  1.0  -0.1295
  C  C28  1  0.226900  0.138400  0.617530  1.0  0.729
  C  C29  1  0.227200  0.122000  0.393320  1.0  0.7269
  C  C30  1  0.239400  0.051100  0.324100  1.0  -0.1221
  C  C31  1  0.071500  0.005500  0.294130  1.0  -0.0548
  C  C32  1  0.082900  0.943500  0.227920  1.0  -0.0479
  C  C33  1  0.419800  0.034000  0.287140  1.0  -0.0554
  C  C34  1  0.430900  0.971900  0.220540  1.0  -0.0561
  C  C35  1  0.261600  0.926000  0.190410  1.0  -0.1294
  C  C36  1  0.273100  0.861600  0.117530  1.0  0.7287
  C  C37  1  0.727200  0.378000  0.606680  1.0  0.7265
  C  C38  1  0.739400  0.448900  0.675900  1.0  -0.1219
  C  C39  1  0.571500  0.494500  0.705870  1.0  -0.0552
  C  C40  1  0.582900  0.556500  0.772080  1.0  -0.0482
  C  C41  1  0.919800  0.466000  0.712860  1.0  -0.0557
  C  C42  1  0.930900  0.528100  0.779460  1.0  -0.0566
  C  C43  1  0.761600  0.574000  0.809590  1.0  -0.129
  C  C44  1  0.773100  0.638400  0.882470  1.0  0.7288
  C  C45  1  0.772800  0.622000  0.106680  1.0  0.7269
  C  C46  1  0.760600  0.551100  0.175900  1.0  -0.1219
  C  C47  1  0.928500  0.505500  0.205870  1.0  -0.0549
  C  C48  1  0.917100  0.443500  0.272080  1.0  -0.0478
  C  C49  1  0.580200  0.534000  0.212860  1.0  -0.0558
  C  C50  1  0.569100  0.471900  0.279460  1.0  -0.0563
  C  C51  1  0.738400  0.426000  0.309590  1.0  -0.1287
  C  C52  1  0.726900  0.361600  0.382470  1.0  0.7287
  O  O53  1  0.219690  0.311920  0.496910  1.0  -0.7681
  O  O54  1  0.387700  0.171180  0.589810  1.0  -0.6306
  O  O55  1  0.442100  0.857850  0.920670  1.0  -0.6479
  O  O56  1  0.059700  0.156370  0.589160  1.0  -0.6506
  O  O57  1  0.112200  0.842730  0.919620  1.0  -0.6224
  O  O58  1  0.280310  0.688080  0.996910  1.0  -0.7678
  O  O59  1  0.112300  0.828820  0.089810  1.0  -0.631
  O  O60  1  0.057900  0.142150  0.420670  1.0  -0.6478
  O  O61  1  0.440300  0.843630  0.089160  1.0  -0.6506
  O  O62  1  0.387800  0.157270  0.419620  1.0  -0.6228
  O  O63  1  0.780310  0.811920  0.003090  1.0  -0.7679
  O  O64  1  0.612300  0.671180  0.910190  1.0  -0.6306
  O  O65  1  0.557900  0.357850  0.579330  1.0  -0.6483
  O  O66  1  0.940300  0.656370  0.910840  1.0  -0.6498
  O  O67  1  0.887800  0.342730  0.580380  1.0  -0.6231
  O  O68  1  0.719690  0.188080  0.503090  1.0  -0.7685
  O  O69  1  0.887700  0.328820  0.410190  1.0  -0.6301
  O  O70  1  0.942100  0.642150  0.079330  1.0  -0.6476
  O  O71  1  0.559700  0.343630  0.410840  1.0  -0.6507
  O  O72  1  0.612200  0.657270  0.080380  1.0  -0.6227
