# generated using pymatgen
data_VH4C8O5
_symmetry_space_group_name_H-M   'P 1'
_cell_length_a   6.80180000
_cell_length_b   13.53440000
_cell_length_c   16.41560000
_cell_angle_alpha   90.00000000
_cell_angle_beta   90.00000000
_cell_angle_gamma   90.00000000
_symmetry_Int_Tables_number   1
_chemical_formula_structural   VH4C8O5
_chemical_formula_sum   'V4 H16 C32 O20'
_cell_volume   1511.19193269
_cell_formula_units_Z   4
loop_
 _symmetry_equiv_pos_site_id
 _symmetry_equiv_pos_as_xyz
  1  'x, y, z'
loop_
 _atom_site_type_symbol
 _atom_site_label
 _atom_site_symmetry_multiplicity
 _atom_site_fract_x
 _atom_site_fract_y
 _atom_site_fract_z
 _atom_site_occupancy
 _atom_site_charge
  V  V1  1  0.937110  0.764400  0.000720  1.0  1.8857
  V  V2  1  0.562890  0.235600  0.500720  1.0  1.8861
  V  V3  1  0.062890  0.264400  0.499280  1.0  1.8865
  V  V4  1  0.437110  0.735600  0.999280  1.0  1.8857
  H  H5  1  0.533800  0.944600  0.811400  1.0  0.1082
  H  H6  1  0.554700  0.048300  0.703700  1.0  0.1092
  H  H7  1  0.969100  0.084900  0.708600  1.0  0.1082
  H  H8  1  0.950000  0.979700  0.817600  1.0  0.1044
  H  H9  1  0.966200  0.055400  0.311400  1.0  0.1079
  H  H10  1  0.945300  0.951700  0.203700  1.0  0.1095
  H  H11  1  0.530900  0.915100  0.208600  1.0  0.1083
  H  H12  1  0.550000  0.020300  0.317600  1.0  0.104
  H  H13  1  0.466200  0.444600  0.688600  1.0  0.1082
  H  H14  1  0.445300  0.548300  0.796300  1.0  0.1091
  H  H15  1  0.030900  0.584900  0.791400  1.0  0.1081
  H  H16  1  0.050000  0.479700  0.682400  1.0  0.1042
  H  H17  1  0.033800  0.555400  0.188600  1.0  0.1083
  H  H18  1  0.054700  0.451700  0.296300  1.0  0.1089
  H  H19  1  0.469100  0.415100  0.291400  1.0  0.1082
  H  H20  1  0.450000  0.520300  0.182400  1.0  0.104
  C  C21  1  0.225900  0.878900  0.894030  1.0  0.7264
  C  C22  1  0.238600  0.949100  0.825840  1.0  -0.1266
  C  C23  1  0.419600  0.972400  0.790300  1.0  -0.039
  C  C24  1  0.432300  0.034100  0.726100  1.0  -0.0617
  C  C25  1  0.262200  0.077200  0.692640  1.0  -0.1258
  C  C26  1  0.083100  0.056100  0.728900  1.0  -0.0433
  C  C27  1  0.071700  0.993000  0.794240  1.0  -0.0487
  C  C28  1  0.274500  0.141600  0.620470  1.0  0.7325
  C  C29  1  0.274100  0.121100  0.394030  1.0  0.7268
  C  C30  1  0.261400  0.050900  0.325840  1.0  -0.1272
  C  C31  1  0.080400  0.027600  0.290300  1.0  -0.0392
  C  C32  1  0.067700  0.965900  0.226100  1.0  -0.0602
  C  C33  1  0.237800  0.922800  0.192640  1.0  -0.1262
  C  C34  1  0.416900  0.943900  0.228900  1.0  -0.0438
  C  C35  1  0.428300  0.007000  0.294240  1.0  -0.0502
  C  C36  1  0.225500  0.858400  0.120470  1.0  0.7323
  C  C37  1  0.774100  0.378900  0.605970  1.0  0.7264
  C  C38  1  0.761400  0.449100  0.674160  1.0  -0.1276
  C  C39  1  0.580400  0.472400  0.709700  1.0  -0.0393
  C  C40  1  0.567700  0.534100  0.773900  1.0  -0.061
  C  C41  1  0.737800  0.577200  0.807360  1.0  -0.1257
  C  C42  1  0.916900  0.556100  0.771100  1.0  -0.0444
  C  C43  1  0.928300  0.493000  0.705760  1.0  -0.0503
  C  C44  1  0.725500  0.641600  0.879530  1.0  0.7321
  C  C45  1  0.725900  0.621100  0.105970  1.0  0.7266
  C  C46  1  0.738600  0.550900  0.174160  1.0  -0.1276
  C  C47  1  0.919600  0.527600  0.209700  1.0  -0.0394
  C  C48  1  0.932300  0.465900  0.273900  1.0  -0.0615
  C  C49  1  0.762200  0.422800  0.307360  1.0  -0.1257
  C  C50  1  0.583100  0.443900  0.271100  1.0  -0.0422
  C  C51  1  0.571700  0.507000  0.205760  1.0  -0.0492
  C  C52  1  0.774500  0.358400  0.379530  1.0  0.732
  O  O53  1  0.718890  0.811320  0.004220  1.0  -0.7565
  O  O54  1  0.057000  0.857430  0.921330  1.0  -0.6447
  O  O55  1  0.441500  0.160170  0.591640  1.0  -0.6561
  O  O56  1  0.386000  0.843270  0.920550  1.0  -0.6353
  O  O57  1  0.114100  0.175340  0.592340  1.0  -0.6356
  O  O58  1  0.781110  0.188680  0.504220  1.0  -0.7564
  O  O59  1  0.443000  0.142570  0.421330  1.0  -0.6439
  O  O60  1  0.058500  0.839830  0.091640  1.0  -0.6564
  O  O61  1  0.114000  0.156730  0.420550  1.0  -0.6359
  O  O62  1  0.385900  0.824660  0.092340  1.0  -0.6351
  O  O63  1  0.281110  0.311320  0.495780  1.0  -0.756
  O  O64  1  0.943000  0.357430  0.578670  1.0  -0.6448
  O  O65  1  0.558500  0.660170  0.908360  1.0  -0.656
  O  O66  1  0.614000  0.343270  0.579450  1.0  -0.6361
  O  O67  1  0.885900  0.675340  0.907660  1.0  -0.6349
  O  O68  1  0.218890  0.688680  0.995780  1.0  -0.7563
  O  O69  1  0.557000  0.642570  0.078670  1.0  -0.645
  O  O70  1  0.941500  0.339830  0.408360  1.0  -0.6561
  O  O71  1  0.886000  0.656730  0.079450  1.0  -0.6356
  O  O72  1  0.614100  0.324660  0.407660  1.0  -0.6353
