# generated using pymatgen
data_VH4C8O5
_symmetry_space_group_name_H-M   'P 1'
_cell_length_a   6.81270000
_cell_length_b   13.71420000
_cell_length_c   16.07010000
_cell_angle_alpha   90.00000000
_cell_angle_beta   90.00000000
_cell_angle_gamma   90.00000000
_symmetry_Int_Tables_number   1
_chemical_formula_structural   VH4C8O5
_chemical_formula_sum   'V4 H16 C32 O20'
_cell_volume   1501.44117964
_cell_formula_units_Z   4
loop_
 _symmetry_equiv_pos_site_id
 _symmetry_equiv_pos_as_xyz
  1  'x, y, z'
loop_
 _atom_site_type_symbol
 _atom_site_label
 _atom_site_symmetry_multiplicity
 _atom_site_fract_x
 _atom_site_fract_y
 _atom_site_fract_z
 _atom_site_occupancy
 _atom_site_charge
  V  V1  1  0.434170  0.764620  0.001410  1.0  1.8823
  V  V2  1  0.065830  0.235380  0.501410  1.0  1.8826
  V  V3  1  0.565830  0.264620  0.498590  1.0  1.8827
  V  V4  1  0.934170  0.735380  0.998590  1.0  1.8824
  H  H5  1  0.967000  0.457100  0.676100  1.0  0.1138
  H  H6  1  0.946400  0.566000  0.785700  1.0  0.1097
  H  H7  1  0.527900  0.608100  0.775500  1.0  0.1118
  H  H8  1  0.548600  0.500900  0.664800  1.0  0.1086
  H  H9  1  0.533000  0.542900  0.176100  1.0  0.1135
  H  H10  1  0.553600  0.434000  0.285700  1.0  0.1097
  H  H11  1  0.972100  0.391900  0.275500  1.0  0.1117
  H  H12  1  0.951400  0.499100  0.164800  1.0  0.1087
  H  H13  1  0.033000  0.957100  0.823900  1.0  0.1136
  H  H14  1  0.053600  0.066000  0.714300  1.0  0.1102
  H  H15  1  0.472100  0.108100  0.724500  1.0  0.1117
  H  H16  1  0.451400  0.000900  0.835200  1.0  0.1088
  H  H17  1  0.467000  0.042900  0.323900  1.0  0.1133
  H  H18  1  0.446400  0.934000  0.214300  1.0  0.11
  H  H19  1  0.027900  0.891900  0.224500  1.0  0.1118
  H  H20  1  0.048600  0.999100  0.335200  1.0  0.1089
  C  C21  1  0.275800  0.388640  0.595850  1.0  0.728
  C  C22  1  0.260900  0.465630  0.661450  1.0  -0.1269
  C  C23  1  0.080000  0.486650  0.696630  1.0  -0.0544
  C  C24  1  0.067900  0.551680  0.762330  1.0  -0.0597
  C  C25  1  0.235800  0.595500  0.793400  1.0  -0.1296
  C  C26  1  0.415500  0.577040  0.756070  1.0  -0.0537
  C  C27  1  0.428000  0.512660  0.690050  1.0  -0.0574
  C  C28  1  0.223000  0.657830  0.869380  1.0  0.7308
  C  C29  1  0.224200  0.611360  0.095850  1.0  0.728
  C  C30  1  0.239100  0.534370  0.161450  1.0  -0.1265
  C  C31  1  0.420000  0.513350  0.196630  1.0  -0.055
  C  C32  1  0.432100  0.448320  0.262330  1.0  -0.0593
  C  C33  1  0.264200  0.404500  0.293400  1.0  -0.13
  C  C34  1  0.084500  0.422960  0.256070  1.0  -0.0537
  C  C35  1  0.072000  0.487340  0.190050  1.0  -0.0585
  C  C36  1  0.277000  0.342170  0.369380  1.0  0.7303
  C  C37  1  0.724200  0.888640  0.904150  1.0  0.7279
  C  C38  1  0.739100  0.965630  0.838550  1.0  -0.1268
  C  C39  1  0.920000  0.986650  0.803370  1.0  -0.0547
  C  C40  1  0.932100  0.051680  0.737670  1.0  -0.0595
  C  C41  1  0.764200  0.095500  0.706600  1.0  -0.1294
  C  C42  1  0.584500  0.077040  0.743930  1.0  -0.0535
  C  C43  1  0.572000  0.012660  0.809950  1.0  -0.0579
  C  C44  1  0.777000  0.157830  0.630620  1.0  0.7309
  C  C45  1  0.775800  0.111360  0.404150  1.0  0.7278
  C  C46  1  0.760900  0.034370  0.338550  1.0  -0.1268
  C  C47  1  0.580000  0.013350  0.303370  1.0  -0.0544
  C  C48  1  0.567900  0.948320  0.237670  1.0  -0.0596
  C  C49  1  0.735800  0.904500  0.206600  1.0  -0.1302
  C  C50  1  0.915500  0.922960  0.243930  1.0  -0.0541
  C  C51  1  0.928000  0.987340  0.309950  1.0  -0.0577
  C  C52  1  0.723000  0.842170  0.130620  1.0  0.7305
  O  O53  1  0.216080  0.809530  0.009830  1.0  -0.7578
  O  O54  1  0.444120  0.365970  0.570800  1.0  -0.6414
  O  O55  1  0.383180  0.689000  0.898810  1.0  -0.6251
  O  O56  1  0.056060  0.672960  0.899330  1.0  -0.6501
  O  O57  1  0.116650  0.350880  0.571680  1.0  -0.6278
  O  O58  1  0.283920  0.190470  0.509830  1.0  -0.7583
  O  O59  1  0.055880  0.634030  0.070800  1.0  -0.6419
  O  O60  1  0.116820  0.311000  0.398810  1.0  -0.626
  O  O61  1  0.443940  0.327040  0.399330  1.0  -0.65
  O  O62  1  0.383350  0.649120  0.071680  1.0  -0.6278
  O  O63  1  0.783920  0.309530  0.490170  1.0  -0.7573
  O  O64  1  0.555880  0.865970  0.929200  1.0  -0.6416
  O  O65  1  0.616820  0.189000  0.601190  1.0  -0.6257
  O  O66  1  0.943940  0.172960  0.600670  1.0  -0.6499
  O  O67  1  0.883350  0.850880  0.928320  1.0  -0.6277
  O  O68  1  0.716080  0.690470  0.990170  1.0  -0.7583
  O  O69  1  0.944120  0.134030  0.429200  1.0  -0.6408
  O  O70  1  0.883180  0.811000  0.101190  1.0  -0.6256
  O  O71  1  0.556060  0.827040  0.100670  1.0  -0.6502
  O  O72  1  0.616650  0.149120  0.428320  1.0  -0.6273
