# generated using pymatgen
data_VH4C8O5
_symmetry_space_group_name_H-M   'P 1'
_cell_length_a   6.82700000
_cell_length_b   13.96500000
_cell_length_c   16.07400000
_cell_angle_alpha   90.00000000
_cell_angle_beta   90.00000000
_cell_angle_gamma   90.00000000
_symmetry_Int_Tables_number   1
_chemical_formula_structural   VH4C8O5
_chemical_formula_sum   'V4 H16 C32 O20'
_cell_volume   1532.47997007
_cell_formula_units_Z   4
loop_
 _symmetry_equiv_pos_site_id
 _symmetry_equiv_pos_as_xyz
  1  'x, y, z'
loop_
 _atom_site_type_symbol
 _atom_site_label
 _atom_site_symmetry_multiplicity
 _atom_site_fract_x
 _atom_site_fract_y
 _atom_site_fract_z
 _atom_site_occupancy
 _atom_site_charge
  V  V1  1  0.934870  0.235970  0.498650  1.0  1.9125
  V  V2  1  0.565130  0.764030  0.998650  1.0  1.9127
  V  V3  1  0.065130  0.735970  0.001350  1.0  1.9126
  V  V4  1  0.434870  0.264030  0.501350  1.0  1.9123
  H  H5  1  0.551200  0.989500  0.172700  1.0  0.1071
  H  H6  1  0.532600  0.095500  0.282300  1.0  0.1137
  H  H7  1  0.944500  0.065800  0.284700  1.0  0.1117
  H  H8  1  0.966200  0.957800  0.177600  1.0  0.1127
  H  H9  1  0.948800  0.010500  0.672700  1.0  0.1072
  H  H10  1  0.967400  0.904500  0.782300  1.0  0.114
  H  H11  1  0.555500  0.934200  0.784700  1.0  0.1116
  H  H12  1  0.533800  0.042200  0.677600  1.0  0.1124
  H  H13  1  0.448800  0.489500  0.327300  1.0  0.1069
  H  H14  1  0.467400  0.595500  0.217700  1.0  0.1141
  H  H15  1  0.055500  0.565800  0.215300  1.0  0.1119
  H  H16  1  0.033800  0.457800  0.322400  1.0  0.1124
  H  H17  1  0.051200  0.510500  0.827300  1.0  0.107
  H  H18  1  0.032600  0.404500  0.717700  1.0  0.114
  H  H19  1  0.444500  0.434200  0.715300  1.0  0.1121
  H  H20  1  0.466200  0.542200  0.822400  1.0  0.1122
  C  C21  1  0.275600  0.883800  0.101500  1.0  0.7063
  C  C22  1  0.262800  0.959500  0.166100  1.0  -0.1263
  C  C23  1  0.430300  0.003200  0.196600  1.0  -0.0544
  C  C24  1  0.419100  0.067000  0.262000  1.0  -0.0518
  C  C25  1  0.224900  0.151800  0.371800  1.0  0.723
  C  C26  1  0.236400  0.089200  0.298400  1.0  -0.1328
  C  C27  1  0.066700  0.048900  0.263800  1.0  -0.0531
  C  C28  1  0.079700  0.984800  0.199400  1.0  -0.0549
  C  C29  1  0.224400  0.116200  0.601500  1.0  0.7064
  C  C30  1  0.237200  0.040500  0.666100  1.0  -0.126
  C  C31  1  0.069700  0.996800  0.696600  1.0  -0.0548
  C  C32  1  0.080900  0.933000  0.762000  1.0  -0.0507
  C  C33  1  0.275100  0.848200  0.871800  1.0  0.7228
  C  C34  1  0.263600  0.910800  0.798400  1.0  -0.1326
  C  C35  1  0.433300  0.951100  0.763800  1.0  -0.0535
  C  C36  1  0.420300  0.015200  0.699400  1.0  -0.0556
  C  C37  1  0.724400  0.383800  0.398500  1.0  0.7064
  C  C38  1  0.737200  0.459500  0.333900  1.0  -0.1257
  C  C39  1  0.569700  0.503200  0.303400  1.0  -0.054
  C  C40  1  0.580900  0.567000  0.238000  1.0  -0.0519
  C  C41  1  0.775100  0.651800  0.128200  1.0  0.7233
  C  C42  1  0.763600  0.589200  0.201600  1.0  -0.1329
  C  C43  1  0.933300  0.548900  0.236200  1.0  -0.0538
  C  C44  1  0.920300  0.484800  0.300600  1.0  -0.0549
  C  C45  1  0.775600  0.616200  0.898500  1.0  0.7064
  C  C46  1  0.762800  0.540500  0.833900  1.0  -0.126
  C  C47  1  0.930300  0.496800  0.803400  1.0  -0.0544
  C  C48  1  0.919100  0.433000  0.738000  1.0  -0.051
  C  C49  1  0.724900  0.348200  0.628200  1.0  0.723
  C  C50  1  0.736400  0.410800  0.701600  1.0  -0.1329
  C  C51  1  0.566700  0.451100  0.736200  1.0  -0.0533
  C  C52  1  0.579700  0.515200  0.800600  1.0  -0.0555
  O  O53  1  0.717700  0.192700  0.491000  1.0  -0.7708
  O  O54  1  0.446400  0.860900  0.074000  1.0  -0.6399
  O  O55  1  0.055400  0.169200  0.400900  1.0  -0.6486
  O  O56  1  0.113100  0.846300  0.074900  1.0  -0.6237
  O  O57  1  0.383400  0.184200  0.401800  1.0  -0.6316
  O  O58  1  0.782300  0.807300  0.991000  1.0  -0.7703
  O  O59  1  0.053600  0.139100  0.574000  1.0  -0.6406
  O  O60  1  0.444600  0.830800  0.900900  1.0  -0.6475
  O  O61  1  0.386900  0.153700  0.574900  1.0  -0.6226
  O  O62  1  0.116600  0.815800  0.901800  1.0  -0.6322
  O  O63  1  0.282300  0.692700  0.009000  1.0  -0.7712
  O  O64  1  0.553600  0.360900  0.426000  1.0  -0.6411
  O  O65  1  0.944600  0.669200  0.099100  1.0  -0.6473
  O  O66  1  0.886900  0.346300  0.425100  1.0  -0.6227
  O  O67  1  0.616600  0.684200  0.098200  1.0  -0.6319
  O  O68  1  0.217700  0.307300  0.509000  1.0  -0.7708
  O  O69  1  0.946400  0.639100  0.926000  1.0  -0.6388
  O  O70  1  0.555400  0.330800  0.599100  1.0  -0.6487
  O  O71  1  0.613100  0.653700  0.925100  1.0  -0.6236
  O  O72  1  0.883400  0.315800  0.598200  1.0  -0.6318
