# generated using pymatgen
data_Cu2Mo4H16C24N6O7
_symmetry_space_group_name_H-M   'P 1'
_cell_length_a   10.89810000
_cell_length_b   14.40920000
_cell_length_c   23.39020000
_cell_angle_alpha   80.69320000
_cell_angle_beta   76.52840000
_cell_angle_gamma   67.77990000
_symmetry_Int_Tables_number   1
_chemical_formula_structural   Cu2Mo4H16C24N6O7
_chemical_formula_sum   'Cu8 Mo16 H64 C96 N24 O28'
_cell_volume   3295.63211100
_cell_formula_units_Z   4
loop_
 _symmetry_equiv_pos_site_id
 _symmetry_equiv_pos_as_xyz
  1  'x, y, z'
loop_
 _atom_site_type_symbol
 _atom_site_label
 _atom_site_symmetry_multiplicity
 _atom_site_fract_x
 _atom_site_fract_y
 _atom_site_fract_z
 _atom_site_occupancy
 _atom_site_charge
  Cu  Cu1  1  0.644590  0.807560  0.102500  1.0  0.5232
  Cu  Cu2  1  0.344800  0.938620  0.138860  1.0  0.5034
  Cu  Cu3  1  0.554650  0.692440  0.397500  1.0  0.5235
  Cu  Cu4  1  0.422280  0.561380  0.361140  1.0  0.5044
  Cu  Cu5  1  0.355410  0.192440  0.897500  1.0  0.5224
  Cu  Cu6  1  0.655200  0.061380  0.861140  1.0  0.502
  Cu  Cu7  1  0.445350  0.307560  0.602500  1.0  0.5215
  Cu  Cu8  1  0.577720  0.438620  0.638860  1.0  0.5036
  Mo  Mo9  1  0.142270  0.536980  0.978140  1.0  0.6986
  Mo  Mo10  1  0.102650  0.386150  0.134850  1.0  0.6911
  Mo  Mo11  1  0.982350  0.627630  0.104090  1.0  1.2229
  Mo  Mo12  1  0.890590  0.748010  0.964410  1.0  1.2484
  Mo  Mo13  1  0.657390  0.963020  0.521860  1.0  0.698
  Mo  Mo14  1  0.623650  0.113850  0.365150  1.0  0.6965
  Mo  Mo15  1  0.714070  0.872370  0.395910  1.0  1.2191
  Mo  Mo16  1  0.603010  0.751990  0.535590  1.0  1.2466
  Mo  Mo17  1  0.857730  0.463020  0.021860  1.0  0.6995
  Mo  Mo18  1  0.897350  0.613850  0.865150  1.0  0.6928
  Mo  Mo19  1  0.017650  0.372370  0.895910  1.0  1.2204
  Mo  Mo20  1  0.109410  0.251990  0.035590  1.0  1.2487
  Mo  Mo21  1  0.342610  0.036980  0.478140  1.0  0.6983
  Mo  Mo22  1  0.376350  0.886150  0.634850  1.0  0.6948
  Mo  Mo23  1  0.285930  0.127630  0.604090  1.0  1.2223
  Mo  Mo24  1  0.396990  0.248010  0.464410  1.0  1.2514
  H  H25  1  0.593400  0.736200  0.005000  1.0  0.063
  H  H26  1  0.470600  0.643700  0.987100  1.0  0.1153
  H  H27  1  0.344100  0.582300  0.063500  1.0  0.0996
  H  H28  1  0.336000  0.622500  0.155500  1.0  0.2174
  H  H29  1  0.676100  0.531800  0.164000  1.0  0.1523
  H  H30  1  0.770200  0.367800  0.165800  1.0  0.2258
  H  H31  1  0.720100  0.265600  0.248200  1.0  0.1107
  H  H32  1  0.567000  0.348000  0.326000  1.0  0.0708
  H  H33  1  0.715300  0.870400  0.199000  1.0  0.076
  H  H34  1  0.670000  0.018000  0.240000  1.0  0.1573
  H  H35  1  0.558000  0.182000  0.194000  1.0  0.1124
  H  H36  1  0.529000  0.168000  0.102000  1.0  0.1797
  H  H37  1  0.784000  0.064000  0.048000  1.0  0.0876
  H  H38  1  0.954000  0.119000  0.013000  1.0  0.1037
  H  H39  1  0.015000  0.151000  0.907000  1.0  0.1038
  H  H40  1  0.894100  0.121800  0.848000  1.0  0.0797
  H  H41  1  0.334600  0.763800  0.495000  1.0  0.0643
  H  H42  1  0.101400  0.856300  0.512900  1.0  0.1165
  H  H43  1  0.989900  0.917700  0.436500  1.0  0.1001
  H  H44  1  0.114000  0.877500  0.344500  1.0  0.2196
  H  H45  1  0.371900  0.968200  0.336000  1.0  0.1531
  H  H46  1  0.303800  0.132200  0.334200  1.0  0.2232
  H  H47  1  0.233900  0.234400  0.251800  1.0  0.1106
  H  H48  1  0.241000  0.152000  0.174000  1.0  0.0719
  H  H49  1  0.784700  0.629600  0.301000  1.0  0.0777
  H  H50  1  0.928000  0.482000  0.260000  1.0  0.1568
  H  H51  1  0.934000  0.318000  0.306000  1.0  0.1137
  H  H52  1  0.799000  0.332000  0.398000  1.0  0.179
  H  H53  1  0.896000  0.436000  0.452000  1.0  0.0881
  H  H54  1  0.086000  0.381000  0.487000  1.0  0.1043
  H  H55  1  0.073000  0.349000  0.593000  1.0  0.1049
  H  H56  1  0.863900  0.378200  0.652000  1.0  0.0797
  H  H57  1  0.406600  0.263800  0.995000  1.0  0.0633
  H  H58  1  0.529400  0.356300  0.012900  1.0  0.1155
  H  H59  1  0.655900  0.417700  0.936500  1.0  0.0998
  H  H60  1  0.664000  0.377500  0.844500  1.0  0.2165
  H  H61  1  0.323900  0.468200  0.836000  1.0  0.1546
  H  H62  1  0.229800  0.632200  0.834200  1.0  0.2238
  H  H63  1  0.279900  0.734400  0.751800  1.0  0.1114
  H  H64  1  0.433000  0.652000  0.674000  1.0  0.0705
  H  H65  1  0.284700  0.129600  0.801000  1.0  0.0766
  H  H66  1  0.330000  0.982000  0.760000  1.0  0.1574
  H  H67  1  0.442000  0.818000  0.806000  1.0  0.1143
  H  H68  1  0.471000  0.832000  0.898000  1.0  0.1808
  H  H69  1  0.216000  0.936000  0.952000  1.0  0.0881
  H  H70  1  0.046000  0.881000  0.987000  1.0  0.1035
  H  H71  1  0.985000  0.849000  0.093000  1.0  0.1046
  H  H72  1  0.105900  0.878200  0.152000  1.0  0.0798
  H  H73  1  0.665400  0.236200  0.505000  1.0  0.0636
  H  H74  1  0.898600  0.143700  0.487100  1.0  0.1174
  H  H75  1  0.010100  0.082300  0.563500  1.0  0.1008
  H  H76  1  0.886000  0.122500  0.655500  1.0  0.2181
  H  H77  1  0.628100  0.031800  0.664000  1.0  0.1541
  H  H78  1  0.696200  0.867800  0.665800  1.0  0.2234
  H  H79  1  0.766100  0.765600  0.748200  1.0  0.1109
  H  H80  1  0.759000  0.848000  0.826000  1.0  0.07
  H  H81  1  0.215300  0.370400  0.699000  1.0  0.0756
  H  H82  1  0.072000  0.518000  0.740000  1.0  0.1571
  H  H83  1  0.066000  0.682000  0.694000  1.0  0.113
  H  H84  1  0.201000  0.668000  0.602000  1.0  0.1786
  H  H85  1  0.104000  0.564000  0.548000  1.0  0.0888
  H  H86  1  0.914000  0.619000  0.513000  1.0  0.1042
  H  H87  1  0.927000  0.651000  0.407000  1.0  0.1046
  H  H88  1  0.136100  0.621800  0.348000  1.0  0.0805
  C  C89  1  0.538690  0.712240  0.034980  1.0  0.1333
  C  C90  1  0.467400  0.658190  0.023410  1.0  -0.1272
  C  C91  1  0.392250  0.618850  0.070250  1.0  -0.1147
  C  C92  1  0.392370  0.635650  0.127210  1.0  -0.0908
  C  C93  1  0.464200  0.692240  0.134960  1.0  0.1709
  C  C94  1  0.454070  0.719750  0.194710  1.0  0.1741
  C  C95  1  0.478710  0.650190  0.244190  1.0  0.1556
  C  C96  1  0.553170  0.540680  0.241180  1.0  0.119
  C  C97  1  0.649440  0.497770  0.192950  1.0  -0.1008
  C  C98  1  0.713650  0.394370  0.195130  1.0  -0.1165
  C  C99  1  0.680960  0.336330  0.245350  1.0  -0.146
  C  C100  1  0.588720  0.384650  0.292510  1.0  0.1232
  C  C101  1  0.673590  0.935460  0.181760  1.0  0.124
  C  C102  1  0.654010  0.023180  0.205000  1.0  -0.1077
  C  C103  1  0.592950  0.114640  0.175460  1.0  -0.0772
  C  C104  1  0.555720  0.114760  0.122600  1.0  -0.0953
  C  C105  1  0.580300  0.023560  0.102240  1.0  0.1925
  C  C106  1  0.541690  0.014630  0.046790  1.0  0.1622
  C  C107  1  0.606060  0.033880  0.989200  1.0  0.0607
  C  C108  1  0.724110  0.066660  0.971320  1.0  0.1016
  C  C109  1  0.797100  0.078500  0.009100  1.0  -0.1393
  C  C110  1  0.905800  0.109300  0.986900  1.0  -0.1463
  C  C111  1  0.942960  0.126780  0.927100  1.0  -0.1288
  C  C112  1  0.867350  0.112900  0.890800  1.0  0.1259
  C  C113  1  0.285910  0.787760  0.465020  1.0  0.1337
  C  C114  1  0.149000  0.841810  0.476590  1.0  -0.1301
  C  C115  1  0.081350  0.881150  0.429750  1.0  -0.1137
  C  C116  1  0.155230  0.864350  0.372790  1.0  -0.0899
  C  C117  1  0.291400  0.807760  0.365040  1.0  0.1708
  C  C118  1  0.368530  0.780250  0.305290  1.0  0.1746
  C  C119  1  0.373090  0.849810  0.255810  1.0  0.1557
  C  C120  1  0.335030  0.959320  0.258820  1.0  0.12
  C  C121  1  0.340160  0.002230  0.307050  1.0  -0.0977
  C  C122  1  0.303150  0.105630  0.304870  1.0  -0.1157
  C  C123  1  0.262640  0.163670  0.254650  1.0  -0.1421
  C  C124  1  0.265880  0.115350  0.207490  1.0  0.125
  C  C125  1  0.790810  0.564540  0.318240  1.0  0.1217
  C  C126  1  0.882190  0.476820  0.295000  1.0  -0.1088
  C  C127  1  0.883050  0.385360  0.324540  1.0  -0.0768
  C  C128  1  0.793080  0.385240  0.377400  1.0  -0.0988
  C  C129  1  0.706100  0.476440  0.397760  1.0  0.1922
  C  C130  1  0.603110  0.485370  0.453210  1.0  0.1628
  C  C131  1  0.629140  0.466120  0.510800  1.0  0.0605
  C  C132  1  0.762090  0.433340  0.528680  1.0  0.1019
  C  C133  1  0.884700  0.421500  0.490900  1.0  -0.1402
  C  C134  1  0.002000  0.390700  0.513100  1.0  -0.1479
  C  C135  1  0.996840  0.373220  0.572900  1.0  -0.1266
  C  C136  1  0.871050  0.387100  0.609200  1.0  0.1247
  C  C137  1  0.461310  0.287760  0.965020  1.0  0.1332
  C  C138  1  0.532600  0.341810  0.976590  1.0  -0.1283
  C  C139  1  0.607750  0.381150  0.929750  1.0  -0.1121
  C  C140  1  0.607630  0.364350  0.872790  1.0  -0.0942
  C  C141  1  0.535800  0.307760  0.865040  1.0  0.1712
  C  C142  1  0.545930  0.280250  0.805290  1.0  0.1742
  C  C143  1  0.521290  0.349810  0.755810  1.0  0.1557
  C  C144  1  0.446830  0.459320  0.758820  1.0  0.1193
  C  C145  1  0.350560  0.502230  0.807050  1.0  -0.1007
  C  C146  1  0.286350  0.605630  0.804870  1.0  -0.1186
  C  C147  1  0.319040  0.663670  0.754650  1.0  -0.143
  C  C148  1  0.411280  0.615350  0.707490  1.0  0.1231
  C  C149  1  0.326410  0.064540  0.818240  1.0  0.1223
  C  C150  1  0.345990  0.976820  0.795000  1.0  -0.1089
  C  C151  1  0.407050  0.885360  0.824540  1.0  -0.0791
  C  C152  1  0.444280  0.885240  0.877400  1.0  -0.0952
  C  C153  1  0.419700  0.976440  0.897760  1.0  0.1922
  C  C154  1  0.458310  0.985370  0.953210  1.0  0.1621
  C  C155  1  0.393940  0.966120  0.010800  1.0  0.0601
  C  C156  1  0.275890  0.933340  0.028680  1.0  0.1027
  C  C157  1  0.202900  0.921500  0.990900  1.0  -0.1411
  C  C158  1  0.094200  0.890700  0.013100  1.0  -0.148
  C  C159  1  0.057040  0.873220  0.072900  1.0  -0.1314
  C  C160  1  0.132650  0.887100  0.109200  1.0  0.1252
  C  C161  1  0.714090  0.212240  0.534980  1.0  0.1344
  C  C162  1  0.851000  0.158190  0.523410  1.0  -0.1299
  C  C163  1  0.918650  0.118850  0.570250  1.0  -0.1127
  C  C164  1  0.844770  0.135650  0.627210  1.0  -0.0888
  C  C165  1  0.708600  0.192240  0.634960  1.0  0.1713
  C  C166  1  0.631470  0.219750  0.694710  1.0  0.1741
  C  C167  1  0.626910  0.150190  0.744190  1.0  0.1554
  C  C168  1  0.664970  0.040680  0.741180  1.0  0.1211
  C  C169  1  0.659840  0.997770  0.692950  1.0  -0.1
  C  C170  1  0.696850  0.894370  0.695130  1.0  -0.116
  C  C171  1  0.737360  0.836330  0.745350  1.0  -0.1448
  C  C172  1  0.734120  0.884650  0.792510  1.0  0.1241
  C  C173  1  0.209190  0.435460  0.681760  1.0  0.1213
  C  C174  1  0.117810  0.523180  0.705000  1.0  -0.108
  C  C175  1  0.116950  0.614640  0.675460  1.0  -0.0778
  C  C176  1  0.206920  0.614760  0.622600  1.0  -0.0964
  C  C177  1  0.293900  0.523560  0.602240  1.0  0.1914
  C  C178  1  0.396890  0.514630  0.546790  1.0  0.162
  C  C179  1  0.370860  0.533880  0.489200  1.0  0.0605
  C  C180  1  0.237910  0.566660  0.471320  1.0  0.1037
  C  C181  1  0.115300  0.578500  0.509100  1.0  -0.1377
  C  C182  1  0.998000  0.609300  0.486900  1.0  -0.1487
  C  C183  1  0.003160  0.626780  0.427100  1.0  -0.1301
  C  C184  1  0.128950  0.612900  0.390800  1.0  0.1245
  N  N185  1  0.537800  0.730890  0.089710  1.0  -0.3511
  N  N186  1  0.525300  0.484900  0.291500  1.0  -0.3397
  N  N187  1  0.409390  0.818540  0.201280  1.0  -0.4094
  N  N188  1  0.635130  0.934430  0.131510  1.0  -0.3383
  N  N189  1  0.439000  0.981970  0.056430  1.0  -0.3434
  N  N190  1  0.761640  0.083830  0.912090  1.0  -0.313
  N  N191  1  0.358400  0.769110  0.410290  1.0  -0.352
  N  N192  1  0.301700  0.015100  0.208500  1.0  -0.3414
  N  N193  1  0.429210  0.681460  0.298720  1.0  -0.4074
  N  N194  1  0.701070  0.565570  0.368490  1.0  -0.3386
  N  N195  1  0.477400  0.518030  0.443570  1.0  -0.3456
  N  N196  1  0.757560  0.416170  0.587910  1.0  -0.3127
  N  N197  1  0.462200  0.269110  0.910290  1.0  -0.3518
  N  N198  1  0.474700  0.515100  0.708500  1.0  -0.34
  N  N199  1  0.590610  0.181460  0.798720  1.0  -0.409
  N  N200  1  0.364870  0.065570  0.868490  1.0  -0.3393
  N  N201  1  0.561000  0.018030  0.943570  1.0  -0.3439
  N  N202  1  0.238360  0.916170  0.087910  1.0  -0.3113
  N  N203  1  0.641600  0.230890  0.589710  1.0  -0.3514
  N  N204  1  0.698300  0.984900  0.791500  1.0  -0.3414
  N  N205  1  0.570790  0.318540  0.701280  1.0  -0.409
  N  N206  1  0.298930  0.434430  0.631510  1.0  -0.3371
  N  N207  1  0.522600  0.481970  0.556430  1.0  -0.3443
  N  N208  1  0.242440  0.583830  0.412090  1.0  -0.3114
  O  O209  1  0.133960  0.504330  0.059150  1.0  -0.7573
  O  O210  1  0.824660  0.715390  0.126290  1.0  -0.7314
  O  O211  1  0.020680  0.679820  0.019220  1.0  -0.7541
  O  O212  1  0.759010  0.813980  0.016600  1.0  -0.7223
  O  O213  1  0.788570  0.715910  0.921150  1.0  -0.6332
  O  O214  1  0.959960  0.514800  0.152080  1.0  -0.6426
  O  O215  1  0.029440  0.618920  0.925000  1.0  -0.7607
  O  O216  1  0.697440  0.995670  0.440850  1.0  -0.7574
  O  O217  1  0.666340  0.784610  0.373710  1.0  -0.7324
  O  O218  1  0.719720  0.820180  0.480780  1.0  -0.7543
  O  O219  1  0.589590  0.686020  0.483400  1.0  -0.7237
  O  O220  1  0.425630  0.784090  0.578850  1.0  -0.6304
  O  O221  1  0.626840  0.985200  0.347920  1.0  -0.643
  O  O222  1  0.573360  0.881080  0.575000  1.0  -0.761
  O  O223  1  0.866040  0.495670  0.940850  1.0  -0.757
  O  O224  1  0.175340  0.284610  0.873710  1.0  -0.7341
  O  O225  1  0.979320  0.320180  0.980780  1.0  -0.7553
  O  O226  1  0.240990  0.186020  0.983400  1.0  -0.7237
  O  O227  1  0.211430  0.284090  0.078850  1.0  -0.6319
  O  O228  1  0.040040  0.485200  0.847920  1.0  -0.6446
  O  O229  1  0.970560  0.381080  0.075000  1.0  -0.7614
  O  O230  1  0.302560  0.004330  0.559150  1.0  -0.758
  O  O231  1  0.333660  0.215390  0.626290  1.0  -0.7324
  O  O232  1  0.280280  0.179820  0.519220  1.0  -0.7525
  O  O233  1  0.410410  0.313980  0.516600  1.0  -0.7235
  O  O234  1  0.574370  0.215910  0.421150  1.0  -0.6293
  O  O235  1  0.373160  0.014800  0.652080  1.0  -0.6425
  O  O236  1  0.426640  0.118920  0.425000  1.0  -0.7616
