# generated using pymatgen
data_ZnH13C16N4O3
_symmetry_space_group_name_H-M   'P 1'
_cell_length_a   18.03500000
_cell_length_b   18.03500000
_cell_length_c   31.23930000
_cell_angle_alpha   78.13380000
_cell_angle_beta   78.13380000
_cell_angle_gamma   106.71700000
_symmetry_Int_Tables_number   1
_chemical_formula_structural   ZnH13C16N4O3
_chemical_formula_sum   'Zn16 H208 C256 N64 O48'
_cell_volume   9135.63968349
_cell_formula_units_Z   16
loop_
 _symmetry_equiv_pos_site_id
 _symmetry_equiv_pos_as_xyz
  1  'x, y, z'
loop_
 _atom_site_type_symbol
 _atom_site_label
 _atom_site_symmetry_multiplicity
 _atom_site_fract_x
 _atom_site_fract_y
 _atom_site_fract_z
 _atom_site_occupancy
 _atom_site_charge
  Zn  Zn1  1  0.156100  0.410590  0.485140  1.0  0.9014
  Zn  Zn2  1  0.754750  0.522080  0.781570  1.0  0.6391
  Zn  Zn3  1  0.651460  0.895980  0.496360  1.0  0.4887
  Zn  Zn4  1  0.265240  0.994940  0.771980  1.0  0.9213
  Zn  Zn5  1  0.660590  0.906100  0.985150  1.0  0.9022
  Zn  Zn6  1  0.772080  0.504750  0.281570  1.0  0.6335
  Zn  Zn7  1  0.145980  0.401460  0.996360  1.0  0.5072
  Zn  Zn8  1  0.244940  0.015240  0.271980  1.0  0.9228
  Zn  Zn9  1  0.895740  0.641240  0.514850  1.0  0.9026
  Zn  Zn10  1  0.303650  0.536320  0.218430  1.0  0.6415
  Zn  Zn11  1  0.392340  0.147820  0.503640  1.0  0.5046
  Zn  Zn12  1  0.766920  0.037220  0.228020  1.0  0.9198
  Zn  Zn13  1  0.891240  0.645740  0.014860  1.0  0.9013
  Zn  Zn14  1  0.786320  0.053650  0.718430  1.0  0.641
  Zn  Zn15  1  0.397820  0.142340  0.003640  1.0  0.5003
  Zn  Zn16  1  0.287220  0.516920  0.728020  1.0  0.9221
  H  H17  1  0.033400  0.258200  0.549600  1.0  0.0753
  H  H18  1  0.909900  0.213900  0.604000  1.0  0.0899
  H  H19  1  0.913900  0.442100  0.581600  1.0  0.113
  H  H20  1  0.036700  0.481300  0.531600  1.0  0.063
  H  H21  1  0.849500  0.418500  0.748200  1.0  0.0586
  H  H22  1  0.855900  0.346700  0.696600  1.0  0.1143
  H  H23  1  0.697600  0.431200  0.650000  1.0  0.1081
  H  H24  1  0.683500  0.491300  0.711600  1.0  0.0879
  H  H25  1  0.031500  0.522100  0.812400  1.0  0.0751
  H  H26  1  0.095700  0.488500  0.867000  1.0  0.1082
  H  H27  1  0.882100  0.416700  0.961400  1.0  0.097
  H  H28  1  0.822400  0.441400  0.904600  1.0  0.0731
  H  H29  1  0.698400  0.997600  0.558400  1.0  0.0575
  H  H30  1  0.769100  0.010500  0.610000  1.0  0.1263
  H  H31  1  0.810900  0.808100  0.597400  1.0  0.1151
  H  H32  1  0.744600  0.805400  0.543800  1.0  0.0591
  H  H33  1  0.739800  0.787800  0.703800  1.0  0.1056
  H  H34  1  0.695700  0.664500  0.753000  1.0  0.0891
  H  H35  1  0.908400  0.641200  0.714200  1.0  0.0904
  H  H36  1  0.954700  0.764300  0.664000  1.0  0.1028
  H  H37  1  0.543200  0.730200  0.560200  1.0  0.0824
  H  H38  1  0.422000  0.672800  0.612200  1.0  0.0927
  H  H39  1  0.382700  0.880500  0.583800  1.0  0.1088
  H  H40  1  0.503900  0.935100  0.531600  1.0  0.0742
  H  H41  1  0.350500  0.798900  0.700000  1.0  0.1123
  H  H42  1  0.344100  0.877300  0.751200  1.0  0.0862
  H  H43  1  0.189000  0.949200  0.704400  1.0  0.0638
  H  H44  1  0.176400  0.865800  0.657000  1.0  0.1081
  H  H45  1  0.213300  0.139900  0.742400  1.0  0.0521
  H  H46  1  0.260400  0.258800  0.688800  1.0  0.1059
  H  H47  1  0.451300  0.208900  0.639400  1.0  0.1061
  H  H48  1  0.408000  0.097000  0.694200  1.0  0.0949
  H  H49  1  0.281800  0.477200  0.605400  1.0  0.115
  H  H50  1  0.212500  0.487300  0.551600  1.0  0.0494
  H  H51  1  0.248000  0.311200  0.516600  1.0  0.0483
  H  H52  1  0.319100  0.288900  0.565000  1.0  0.0939
  H  H53  1  0.117700  0.092900  0.399000  1.0  0.0864
  H  H54  1  0.115200  0.173400  0.444800  1.0  0.0888
  H  H55  1  0.297400  0.349200  0.349400  1.0  0.0916
  H  H56  1  0.302700  0.257900  0.306400  1.0  0.0851
  H  H57  1  0.207200  0.828800  0.396000  1.0  0.096
  H  H58  1  0.193700  0.717100  0.449800  1.0  0.0951
  H  H59  1  0.194200  0.590800  0.358600  1.0  0.0911
  H  H60  1  0.220700  0.710900  0.300600  1.0  0.0947
  H  H61  1  0.750300  0.347300  0.615600  1.0  0.225
  H  H62  1  0.807900  0.240300  0.649600  1.0  0.2764
  H  H63  1  0.836400  0.946800  0.658800  1.0  0.2595
  H  H64  1  0.937400  0.886600  0.632400  1.0  0.2536
  H  H65  1  0.306100  0.687300  0.655400  1.0  0.262
  H  H66  1  0.225400  0.771800  0.630000  1.0  0.2161
  H  H67  1  0.434600  0.323800  0.608000  1.0  0.2576
  H  H68  1  0.363400  0.412800  0.635200  1.0  0.2883
  H  H69  1  0.508200  0.783400  0.049600  1.0  0.0763
  H  H70  1  0.463900  0.659900  0.104000  1.0  0.0896
  H  H71  1  0.692100  0.663900  0.081600  1.0  0.114
  H  H72  1  0.731300  0.786700  0.031600  1.0  0.0627
  H  H73  1  0.668500  0.599500  0.248200  1.0  0.0579
  H  H74  1  0.596700  0.605900  0.196600  1.0  0.1128
  H  H75  1  0.681200  0.447600  0.150000  1.0  0.1095
  H  H76  1  0.741300  0.433500  0.211600  1.0  0.0885
  H  H77  1  0.772100  0.781500  0.312400  1.0  0.0753
  H  H78  1  0.738500  0.845700  0.367000  1.0  0.1075
  H  H79  1  0.666667  0.632100  0.461400  1.0  0.0967
  H  H80  1  0.691400  0.572400  0.404600  1.0  0.0712
  H  H81  1  0.247600  0.448400  0.058400  1.0  0.0594
  H  H82  1  0.260500  0.519100  0.110000  1.0  0.1273
  H  H83  1  0.058100  0.560900  0.097400  1.0  0.1161
  H  H84  1  0.055400  0.494600  0.043800  1.0  0.0591
  H  H85  1  0.037800  0.489800  0.203800  1.0  0.1044
  H  H86  1  0.914500  0.445700  0.253000  1.0  0.0894
  H  H87  1  0.891200  0.658400  0.214200  1.0  0.0902
  H  H88  1  0.014300  0.704700  0.164000  1.0  0.1016
  H  H89  1  0.980200  0.293200  0.060200  1.0  0.0827
  H  H90  1  0.922800  0.172000  0.112200  1.0  0.0922
  H  H91  1  0.130500  0.132700  0.083800  1.0  0.1078
  H  H92  1  0.185100  0.253900  0.031600  1.0  0.0738
  H  H93  1  0.048900  0.100500  0.200000  1.0  0.1125
  H  H94  1  0.127300  0.094100  0.251200  1.0  0.086
  H  H95  1  0.199200  0.939000  0.204400  1.0  0.0638
  H  H96  1  0.115800  0.926400  0.157000  1.0  0.1088
  H  H97  1  0.389900  0.963300  0.242400  1.0  0.0527
  H  H98  1  0.508800  0.010400  0.188800  1.0  0.1044
  H  H99  1  0.458900  0.201300  0.139400  1.0  0.105
  H  H100  1  0.347000  0.158000  0.194200  1.0  0.0959
  H  H101  1  0.727200  0.031800  0.105400  1.0  0.1156
  H  H102  1  0.737300  0.962500  0.051600  1.0  0.0501
  H  H103  1  0.561200  0.998000  0.016600  1.0  0.048
  H  H104  1  0.538900  0.069100  0.065000  1.0  0.0943
  H  H105  1  0.342900  0.867700  0.899000  1.0  0.086
  H  H106  1  0.423400  0.865200  0.944800  1.0  0.0878
  H  H107  1  0.599200  0.047400  0.849400  1.0  0.0912
  H  H108  1  0.507900  0.052700  0.806400  1.0  0.0845
  H  H109  1  0.078800  0.957200  0.896000  1.0  0.0971
  H  H110  1  0.967100  0.943700  0.949800  1.0  0.0951
  H  H111  1  0.840800  0.944200  0.858600  1.0  0.0906
  H  H112  1  0.960900  0.970700  0.800600  1.0  0.0945
  H  H113  1  0.597300  0.500300  0.115600  1.0  0.2271
  H  H114  1  0.490300  0.557900  0.149600  1.0  0.2746
  H  H115  1  0.196800  0.586400  0.158800  1.0  0.2598
  H  H116  1  0.136600  0.687400  0.132400  1.0  0.2519
  H  H117  1  0.937300  0.056100  0.155400  1.0  0.2641
  H  H118  1  0.021800  0.975400  0.130000  1.0  0.2174
  H  H119  1  0.573800  0.184600  0.108000  1.0  0.2562
  H  H120  1  0.662800  0.113400  0.135200  1.0  0.2885
  H  H121  1  0.807800  0.583000  0.450400  1.0  0.0762
  H  H122  1  0.817900  0.513900  0.396000  1.0  0.0896
  H  H123  1  0.023700  0.495500  0.418400  1.0  0.1148
  H  H124  1  0.012900  0.568300  0.468400  1.0  0.0631
  H  H125  1  0.166700  0.597700  0.251800  1.0  0.0603
  H  H126  1  0.043300  0.552500  0.303400  1.0  0.1134
  H  H127  1  0.081200  0.347600  0.350000  1.0  0.1085
  H  H128  1  0.202900  0.395100  0.288400  1.0  0.0877
  H  H129  1  0.334500  0.843900  0.187600  1.0  0.0746
  H  H130  1  0.355500  0.962700  0.133000  1.0  0.1073
  H  H131  1  0.378100  0.843500  0.038600  1.0  0.0969
  H  H132  1  0.346000  0.727000  0.095400  1.0  0.0707
  H  H133  1  0.556000  0.256800  0.441600  1.0  0.0594
  H  H134  1  0.620500  0.379100  0.390000  1.0  0.1268
  H  H135  1  0.405500  0.408300  0.402600  1.0  0.1164
  H  H136  1  0.349200  0.288400  0.456200  1.0  0.058
  H  H137  1  0.491600  0.443600  0.296200  1.0  0.1049
  H  H138  1  0.417500  0.448700  0.247000  1.0  0.0899
  H  H139  1  0.355400  0.622600  0.285800  1.0  0.0896
  H  H140  1  0.428300  0.618700  0.336000  1.0  0.1036
  H  H141  1  0.290400  0.103400  0.439800  1.0  0.0821
  H  H142  1  0.285000  0.034200  0.387800  1.0  0.0921
  H  H143  1  0.464300  0.966500  0.416200  1.0  0.108
  H  H144  1  0.466700  0.035500  0.468400  1.0  0.0728
  H  H145  1  0.498900  0.050500  0.300000  1.0  0.112
  H  H146  1  0.628500  0.095300  0.248800  1.0  0.0865
  H  H147  1  0.653600  0.893400  0.295600  1.0  0.064
  H  H148  1  0.522800  0.833400  0.343000  1.0  0.1066
  H  H149  1  0.882300  0.955700  0.257600  1.0  0.0516
  H  H150  1  0.947600  0.949200  0.311200  1.0  0.1052
  H  H151  1  0.848300  0.090700  0.360600  1.0  0.1056
  H  H152  1  0.791200  0.102200  0.305800  1.0  0.0955
  H  H153  1  0.082600  0.887200  0.394600  1.0  0.1156
  H  H154  1  0.038900  0.764100  0.448400  1.0  0.0489
  H  H155  1  0.827800  0.764600  0.483400  1.0  0.0467
  H  H156  1  0.853900  0.884100  0.435000  1.0  0.0949
  H  H157  1  0.491900  0.516700  0.601000  1.0  0.0855
  H  H158  1  0.618200  0.560000  0.555200  1.0  0.089
  H  H159  1  0.698600  0.646800  0.650600  1.0  0.0898
  H  H160  1  0.564300  0.609100  0.693600  1.0  0.0863
  H  H161  1  0.224800  0.603200  0.604000  1.0  0.1001
  H  H162  1  0.166900  0.643500  0.550200  1.0  0.096
  H  H163  1  0.949400  0.552800  0.641400  1.0  0.091
  H  H164  1  0.011500  0.521300  0.699400  1.0  0.0954
  H  H165  1  0.962900  0.365900  0.384400  1.0  0.2243
  H  H166  1  0.889900  0.457500  0.350400  1.0  0.2763
  H  H167  1  0.605600  0.495200  0.341200  1.0  0.2603
  H  H168  1  0.519000  0.569800  0.367600  1.0  0.2531
  H  H169  1  0.342700  0.961500  0.344600  1.0  0.2629
  H  H170  1  0.401800  0.855400  0.370000  1.0  0.21
  H  H171  1  0.931800  0.042600  0.392000  1.0  0.2578
  H  H172  1  0.048000  0.998600  0.364800  1.0  0.2859
  H  H173  1  0.833000  0.557800  0.950400  1.0  0.0753
  H  H174  1  0.763900  0.567900  0.896000  1.0  0.0888
  H  H175  1  0.745500  0.773700  0.918400  1.0  0.1135
  H  H176  1  0.818300  0.762900  0.968400  1.0  0.0628
  H  H177  1  0.847700  0.916700  0.751800  1.0  0.0596
  H  H178  1  0.802500  0.793300  0.803400  1.0  0.1146
  H  H179  1  0.597600  0.831200  0.850000  1.0  0.1082
  H  H180  1  0.645100  0.952900  0.788400  1.0  0.088
  H  H181  1  0.093900  0.084500  0.687600  1.0  0.0746
  H  H182  1  0.212700  0.105500  0.633000  1.0  0.1073
  H  H183  1  0.093500  0.128100  0.538600  1.0  0.0966
  H  H184  1  0.977000  0.096000  0.595400  1.0  0.0706
  H  H185  1  0.506800  0.306000  0.941600  1.0  0.0593
  H  H186  1  0.629100  0.370500  0.890000  1.0  0.1265
  H  H187  1  0.658300  0.155500  0.902600  1.0  0.1161
  H  H188  1  0.538400  0.099200  0.956200  1.0  0.0568
  H  H189  1  0.693600  0.241600  0.796200  1.0  0.1065
  H  H190  1  0.698700  0.167500  0.747000  1.0  0.0892
  H  H191  1  0.872600  0.105400  0.785800  1.0  0.0908
  H  H192  1  0.868700  0.178300  0.836000  1.0  0.1033
  H  H193  1  0.353400  0.040400  0.939800  1.0  0.0812
  H  H194  1  0.284200  0.035000  0.887800  1.0  0.0923
  H  H195  1  0.216500  0.214300  0.916200  1.0  0.1089
  H  H196  1  0.285500  0.216700  0.968400  1.0  0.0739
  H  H197  1  0.300500  0.248900  0.800000  1.0  0.1119
  H  H198  1  0.345300  0.378500  0.748800  1.0  0.0872
  H  H199  1  0.143400  0.403600  0.795600  1.0  0.0649
  H  H200  1  0.083400  0.272800  0.843000  1.0  0.1067
  H  H201  1  0.205700  0.632300  0.757600  1.0  0.0515
  H  H202  1  0.199200  0.697600  0.811200  1.0  0.1067
  H  H203  1  0.340700  0.598300  0.860600  1.0  0.1057
  H  H204  1  0.352200  0.541200  0.805800  1.0  0.0952
  H  H205  1  0.137200  0.832600  0.894600  1.0  0.1162
  H  H206  1  0.014100  0.788900  0.948400  1.0  0.0484
  H  H207  1  0.014600  0.577800  0.983400  1.0  0.0474
  H  H208  1  0.134100  0.603900  0.935000  1.0  0.0947
  H  H209  1  0.766700  0.241900  0.101000  1.0  0.0859
  H  H210  1  0.810000  0.368200  0.055200  1.0  0.0897
  H  H211  1  0.896800  0.448600  0.150600  1.0  0.0898
  H  H212  1  0.859100  0.314300  0.193600  1.0  0.086
  H  H213  1  0.853200  0.974800  0.104000  1.0  0.0966
  H  H214  1  0.893500  0.916900  0.050200  1.0  0.0956
  H  H215  1  0.802800  0.699400  0.141400  1.0  0.0914
  H  H216  1  0.771300  0.761500  0.199400  1.0  0.0947
  H  H217  1  0.615900  0.712900  0.884400  1.0  0.223
  H  H218  1  0.707500  0.639900  0.850400  1.0  0.2772
  H  H219  1  0.745200  0.355600  0.841200  1.0  0.259
  H  H220  1  0.819800  0.269000  0.867600  1.0  0.2524
  H  H221  1  0.211500  0.092700  0.844600  1.0  0.2632
  H  H222  1  0.105400  0.151800  0.870000  1.0  0.2149
  H  H223  1  0.292600  0.681800  0.892000  1.0  0.2583
  H  H224  1  0.248600  0.798000  0.864800  1.0  0.2842
  C  C225  1  0.009350  0.295430  0.555820  1.0  0.1288
  C  C226  1  0.934490  0.268490  0.588620  1.0  -0.1996
  C  C227  1  0.897090  0.321490  0.598220  1.0  0.2672
  C  C228  1  0.937050  0.404010  0.575740  1.0  -0.2284
  C  C229  1  0.009830  0.426450  0.545320  1.0  0.1709
  C  C230  1  0.816430  0.419210  0.728960  1.0  0.1477
  C  C231  1  0.822260  0.377200  0.697540  1.0  -0.2369
  C  C232  1  0.778310  0.380970  0.667920  1.0  0.2728
  C  C233  1  0.726990  0.426010  0.671000  1.0  -0.1361
  C  C234  1  0.720420  0.464720  0.707460  1.0  0.1563
  C  C235  1  0.881760  0.508380  0.817000  1.0  0.6822
  C  C236  1  0.919280  0.483880  0.852580  1.0  -0.1351
  C  C237  1  0.000700  0.498520  0.842580  1.0  -0.0455
  C  C238  1  0.040570  0.479890  0.875540  1.0  -0.1251
  C  C239  1  0.995120  0.448340  0.921160  1.0  -0.0993
  C  C240  1  0.913490  0.436150  0.931180  1.0  -0.1888
  C  C241  1  0.877920  0.452640  0.896660  1.0  -0.0682
  C  C242  1  0.030640  0.430320  0.957340  1.0  0.6897
  C  C243  1  0.723040  0.959880  0.565680  1.0  0.1555
  C  C244  1  0.763780  0.967460  0.597360  1.0  -0.2506
  C  C245  1  0.797080  0.909340  0.610520  1.0  0.2251
  C  C246  1  0.789040  0.847920  0.589520  1.0  -0.2478
  C  C247  1  0.749270  0.846770  0.557560  1.0  0.1735
  C  C248  1  0.854810  0.795190  0.678040  1.0  0.2107
  C  C249  1  0.775440  0.759660  0.705640  1.0  -0.2172
  C  C250  1  0.749230  0.684610  0.735160  1.0  0.1436
  C  C251  1  0.873690  0.670530  0.712580  1.0  0.1392
  C  C252  1  0.901920  0.745200  0.682480  1.0  -0.2473
  C  C253  1  0.510850  0.761170  0.565180  1.0  0.149
  C  C254  1  0.438840  0.727140  0.596420  1.0  -0.2053
  C  C255  1  0.388650  0.771010  0.605740  1.0  0.2749
  C  C256  1  0.415050  0.849130  0.579820  1.0  -0.218
  C  C257  1  0.488020  0.881560  0.548420  1.0  0.1606
  C  C258  1  0.262350  0.824330  0.672520  1.0  0.2226
  C  C259  1  0.315130  0.827570  0.701300  1.0  -0.2449
  C  C260  1  0.311720  0.875580  0.731500  1.0  0.146
  C  C261  1  0.219720  0.915600  0.704880  1.0  0.1805
  C  C262  1  0.212690  0.867510  0.674400  1.0  -0.1685
  C  C263  1  0.263190  0.153750  0.721460  1.0  0.1628
  C  C264  1  0.291240  0.225380  0.689180  1.0  -0.155
  C  C265  1  0.360660  0.248500  0.658640  1.0  0.3061
  C  C266  1  0.402340  0.195780  0.661280  1.0  -0.2076
  C  C267  1  0.376020  0.129260  0.692720  1.0  0.1399
  C  C268  1  0.309860  0.381620  0.590320  1.0  0.2992
  C  C269  1  0.276540  0.442320  0.587140  1.0  -0.2055
  C  C270  1  0.235130  0.446990  0.554480  1.0  0.198
  C  C271  1  0.256220  0.346120  0.534660  1.0  0.1647
  C  C272  1  0.298670  0.330930  0.563400  1.0  -0.2212
  C  C273  1  0.220690  0.112490  0.320220  1.0  0.5174
  C  C274  1  0.212840  0.169820  0.347540  1.0  -0.0141
  C  C275  1  0.155360  0.144960  0.389280  1.0  -0.1081
  C  C276  1  0.152260  0.193560  0.415980  1.0  -0.121
  C  C277  1  0.201730  0.271610  0.402340  1.0  -0.083
  C  C278  1  0.260490  0.296770  0.360140  1.0  -0.1228
  C  C279  1  0.263100  0.241420  0.334080  1.0  -0.1025
  C  C280  1  0.194980  0.329000  0.432220  1.0  0.6193
  C  C281  1  0.229360  0.855680  0.305560  1.0  0.6424
  C  C282  1  0.216460  0.780980  0.343340  1.0  -0.1445
  C  C283  1  0.207110  0.781930  0.387960  1.0  -0.1035
  C  C284  1  0.197890  0.715130  0.419980  1.0  -0.0723
  C  C285  1  0.194500  0.643080  0.409620  1.0  -0.1624
  C  C286  1  0.199740  0.639420  0.365640  1.0  -0.0526
  C  C287  1  0.213610  0.711030  0.330960  1.0  -0.026
  C  C288  1  0.181630  0.564130  0.444640  1.0  0.6812
  C  C289  1  0.545430  0.759350  0.055820  1.0  0.13
  C  C290  1  0.518490  0.684490  0.088620  1.0  -0.2
  C  C291  1  0.571490  0.647090  0.098220  1.0  0.2669
  C  C292  1  0.654010  0.687050  0.075740  1.0  -0.2284
  C  C293  1  0.676450  0.759830  0.045320  1.0  0.17
  C  C294  1  0.669210  0.566430  0.228960  1.0  0.1465
  C  C295  1  0.627200  0.572260  0.197540  1.0  -0.2388
  C  C296  1  0.630970  0.528310  0.167920  1.0  0.2727
  C  C297  1  0.676010  0.476990  0.171000  1.0  -0.1365
  C  C298  1  0.714720  0.470420  0.207460  1.0  0.1552
  C  C299  1  0.758380  0.631760  0.317000  1.0  0.6805
  C  C300  1  0.733880  0.669280  0.352580  1.0  -0.1363
  C  C301  1  0.748520  0.750700  0.342580  1.0  -0.0447
  C  C302  1  0.729890  0.790570  0.375540  1.0  -0.1279
  C  C303  1  0.698340  0.745120  0.421160  1.0  -0.0999
  C  C304  1  0.686150  0.663490  0.431180  1.0  -0.189
  C  C305  1  0.702640  0.627920  0.396660  1.0  -0.0695
  C  C306  1  0.680320  0.780640  0.457340  1.0  0.6871
  C  C307  1  0.209880  0.473040  0.065680  1.0  0.1574
  C  C308  1  0.217460  0.513780  0.097360  1.0  -0.2498
  C  C309  1  0.159340  0.547080  0.110520  1.0  0.2245
  C  C310  1  0.097920  0.539040  0.089520  1.0  -0.247
  C  C311  1  0.096770  0.499270  0.057560  1.0  0.1744
  C  C312  1  0.045190  0.604810  0.178040  1.0  0.2108
  C  C313  1  0.009660  0.525440  0.205640  1.0  -0.2194
  C  C314  1  0.934610  0.499230  0.235160  1.0  0.1425
  C  C315  1  0.920530  0.623690  0.212580  1.0  0.1384
  C  C316  1  0.995200  0.651920  0.182480  1.0  -0.2488
  C  C317  1  0.011170  0.260850  0.065180  1.0  0.1479
  C  C318  1  0.977140  0.188840  0.096420  1.0  -0.2065
  C  C319  1  0.021010  0.138650  0.105740  1.0  0.2748
  C  C320  1  0.099130  0.165050  0.079820  1.0  -0.2162
  C  C321  1  0.131560  0.238020  0.048420  1.0  0.1635
  C  C322  1  0.074330  0.012350  0.172520  1.0  0.223
  C  C323  1  0.077570  0.065130  0.201300  1.0  -0.2467
  C  C324  1  0.125580  0.061720  0.231500  1.0  0.1459
  C  C325  1  0.165600  0.969720  0.204880  1.0  0.1791
  C  C326  1  0.117510  0.962690  0.174400  1.0  -0.1684
  C  C327  1  0.403750  0.013190  0.221460  1.0  0.1643
  C  C328  1  0.475380  0.041240  0.189180  1.0  -0.1552
  C  C329  1  0.498500  0.110660  0.158640  1.0  0.3055
  C  C330  1  0.445780  0.152340  0.161280  1.0  -0.2082
  C  C331  1  0.379260  0.126020  0.192720  1.0  0.1388
  C  C332  1  0.631620  0.059860  0.090320  1.0  0.2991
  C  C333  1  0.692320  0.026540  0.087140  1.0  -0.2073
  C  C334  1  0.696990  0.985130  0.054480  1.0  0.1979
  C  C335  1  0.596120  0.006220  0.034660  1.0  0.1648
  C  C336  1  0.580930  0.048670  0.063400  1.0  -0.2204
  C  C337  1  0.362490  0.970690  0.820220  1.0  0.5199
  C  C338  1  0.419820  0.962840  0.847540  1.0  -0.0225
  C  C339  1  0.394960  0.905360  0.889280  1.0  -0.1055
  C  C340  1  0.443560  0.902260  0.915980  1.0  -0.1238
  C  C341  1  0.521610  0.951730  0.902340  1.0  -0.0827
  C  C342  1  0.546770  0.010490  0.860140  1.0  -0.1211
  C  C343  1  0.491420  0.013100  0.834080  1.0  -0.1055
  C  C344  1  0.579000  0.944980  0.932220  1.0  0.6202
  C  C345  1  0.105680  0.979360  0.805560  1.0  0.6411
  C  C346  1  0.030980  0.966460  0.843340  1.0  -0.1451
  C  C347  1  0.031930  0.957110  0.887960  1.0  -0.1036
  C  C348  1  0.965130  0.947890  0.919980  1.0  -0.0716
  C  C349  1  0.893080  0.944500  0.909620  1.0  -0.1598
  C  C350  1  0.889420  0.949740  0.865640  1.0  -0.0528
  C  C351  1  0.961030  0.963610  0.830960  1.0  -0.0262
  C  C352  1  0.814130  0.931630  0.944640  1.0  0.6784
  C  C353  1  0.851250  0.565170  0.444180  1.0  0.1293
  C  C354  1  0.857110  0.523110  0.411380  1.0  -0.2011
  C  C355  1  0.919710  0.495310  0.401780  1.0  0.266
  C  C356  1  0.979750  0.512790  0.424260  1.0  -0.2281
  C  C357  1  0.971770  0.555150  0.454680  1.0  0.172
  C  C358  1  0.148170  0.545390  0.271040  1.0  0.1455
  C  C359  1  0.074740  0.519800  0.302460  1.0  -0.2393
  C  C360  1  0.048890  0.446230  0.332080  1.0  0.2725
  C  C361  1  0.097010  0.397990  0.329000  1.0  -0.1349
  C  C362  1  0.172180  0.427880  0.292540  1.0  0.1553
  C  C363  1  0.325380  0.698760  0.183000  1.0  0.6796
  C  C364  1  0.336460  0.771860  0.147420  1.0  -0.1367
  C  C365  1  0.341100  0.843280  0.157420  1.0  -0.0451
  C  C366  1  0.355430  0.916110  0.124460  1.0  -0.1229
  C  C367  1  0.369500  0.916280  0.078840  1.0  -0.1007
  C  C368  1  0.367330  0.844670  0.068820  1.0  -0.1835
  C  C369  1  0.349300  0.774580  0.103340  1.0  -0.0668
  C  C370  1  0.387660  0.987980  0.042660  1.0  0.6869
  C  C371  1  0.525560  0.288720  0.434320  1.0  0.1567
  C  C372  1  0.564820  0.361140  0.402640  1.0  -0.2487
  C  C373  1  0.519860  0.407600  0.389480  1.0  0.226
  C  C374  1  0.437440  0.378560  0.410480  1.0  -0.2469
  C  C375  1  0.404330  0.306830  0.442440  1.0  0.1709
  C  C376  1  0.473230  0.532850  0.321960  1.0  0.2104
  C  C377  1  0.465300  0.481080  0.294360  1.0  -0.2165
  C  C378  1  0.419770  0.484390  0.264840  1.0  0.1447
  C  C379  1  0.383110  0.586270  0.287420  1.0  0.1372
  C  C380  1  0.427680  0.584400  0.317520  1.0  -0.2514
  C  C381  1  0.326350  0.076030  0.434820  1.0  0.1488
  C  C382  1  0.323560  0.035260  0.403580  1.0  -0.2026
  C  C383  1  0.376750  0.994390  0.394260  1.0  0.2749
  C  C384  1  0.428950  0.994870  0.420180  1.0  -0.2169
  C  C385  1  0.429980  0.036440  0.451580  1.0  0.162
  C  C386  1  0.496850  0.934870  0.327480  1.0  0.2232
  C  C387  1  0.528870  0.016430  0.298700  1.0  -0.2454
  C  C388  1  0.607080  0.043220  0.268500  1.0  0.1442
  C  C389  1  0.620480  0.924600  0.295120  1.0  0.1784
  C  C390  1  0.541910  0.887090  0.325600  1.0  -0.1664
  C  C391  1  0.875210  0.984650  0.278540  1.0  0.1637
  C  C392  1  0.914560  0.980420  0.310820  1.0  -0.1562
  C  C393  1  0.907140  0.019300  0.341360  1.0  0.3051
  C  C394  1  0.857060  0.063620  0.338720  1.0  -0.2076
  C  C395  1  0.821980  0.068740  0.307280  1.0  0.1394
  C  C396  1  0.971940  0.900180  0.409680  1.0  0.2992
  C  C397  1  0.029460  0.863680  0.412860  1.0  -0.2092
  C  C398  1  0.001470  0.789610  0.445520  1.0  0.1985
  C  C399  1  0.880780  0.790880  0.465340  1.0  0.1642
  C  C400  1  0.894330  0.862070  0.436600  1.0  -0.2204
  C  C401  1  0.432710  0.540910  0.679780  1.0  0.5165
  C  C402  1  0.517360  0.560380  0.652460  1.0  -0.0206
  C  C403  1  0.534240  0.544640  0.610720  1.0  -0.1051
  C  C404  1  0.609540  0.568240  0.584020  1.0  -0.1216
  C  C405  1  0.673950  0.604070  0.597660  1.0  -0.0822
  C  C406  1  0.656910  0.620630  0.639860  1.0  -0.1188
  C  C407  1  0.575500  0.597180  0.665920  1.0  -0.1014
  C  C408  1  0.761220  0.627200  0.567780  1.0  0.6179
  C  C409  1  0.161240  0.534920  0.694440  1.0  0.6421
  C  C410  1  0.124320  0.559800  0.656660  1.0  -0.1459
  C  C411  1  0.169890  0.595070  0.612040  1.0  -0.1057
  C  C412  1  0.135110  0.617870  0.580020  1.0  -0.0752
  C  C413  1  0.052700  0.604120  0.590380  1.0  -0.1589
  C  C414  1  0.005060  0.565380  0.634360  1.0  -0.0537
  C  C415  1  0.041990  0.544570  0.669040  1.0  -0.0252
  C  C416  1  0.008770  0.626270  0.555360  1.0  0.6762
  C  C417  1  0.815170  0.601250  0.944180  1.0  0.1295
  C  C418  1  0.773110  0.607110  0.911380  1.0  -0.1996
  C  C419  1  0.745310  0.669710  0.901780  1.0  0.2659
  C  C420  1  0.762790  0.729750  0.924260  1.0  -0.2272
  C  C421  1  0.805150  0.721770  0.954680  1.0  0.1744
  C  C422  1  0.795390  0.898170  0.771040  1.0  0.1448
  C  C423  1  0.769800  0.824740  0.802460  1.0  -0.2379
  C  C424  1  0.696230  0.798890  0.832080  1.0  0.2729
  C  C425  1  0.647990  0.847010  0.829000  1.0  -0.1339
  C  C426  1  0.677880  0.922180  0.792540  1.0  0.1567
  C  C427  1  0.948760  0.075380  0.683000  1.0  0.6793
  C  C428  1  0.021860  0.086460  0.647420  1.0  -0.1364
  C  C429  1  0.093280  0.091100  0.657420  1.0  -0.045
  C  C430  1  0.166110  0.105430  0.624460  1.0  -0.1234
  C  C431  1  0.166280  0.119500  0.578840  1.0  -0.1006
  C  C432  1  0.094670  0.117330  0.568820  1.0  -0.1841
  C  C433  1  0.024580  0.099300  0.603340  1.0  -0.0662
  C  C434  1  0.237980  0.137660  0.542660  1.0  0.6886
  C  C435  1  0.538720  0.275560  0.934320  1.0  0.1546
  C  C436  1  0.611140  0.314820  0.902640  1.0  -0.2493
  C  C437  1  0.657600  0.269860  0.889480  1.0  0.2271
  C  C438  1  0.628560  0.187440  0.910480  1.0  -0.2451
  C  C439  1  0.556830  0.154330  0.942440  1.0  0.1683
  C  C440  1  0.782850  0.223230  0.821960  1.0  0.2109
  C  C441  1  0.731080  0.215300  0.794360  1.0  -0.2167
  C  C442  1  0.734390  0.169770  0.764840  1.0  0.1452
  C  C443  1  0.836270  0.133110  0.787420  1.0  0.1381
  C  C444  1  0.834400  0.177680  0.817520  1.0  -0.249
  C  C445  1  0.326030  0.076350  0.934820  1.0  0.1489
  C  C446  1  0.285260  0.073560  0.903580  1.0  -0.2036
  C  C447  1  0.244390  0.126750  0.894260  1.0  0.2762
  C  C448  1  0.244870  0.178950  0.920180  1.0  -0.219
  C  C449  1  0.286440  0.179980  0.951580  1.0  0.1587
  C  C450  1  0.184870  0.246850  0.827480  1.0  0.2233
  C  C451  1  0.266430  0.278870  0.798700  1.0  -0.2439
  C  C452  1  0.293220  0.357080  0.768500  1.0  0.1424
  C  C453  1  0.174600  0.370480  0.795120  1.0  0.181
  C  C454  1  0.137090  0.291910  0.825600  1.0  -0.1686
  C  C455  1  0.234650  0.625210  0.778540  1.0  0.1647
  C  C456  1  0.230420  0.664560  0.810820  1.0  -0.1562
  C  C457  1  0.269300  0.657140  0.841360  1.0  0.3057
  C  C458  1  0.313620  0.607060  0.838720  1.0  -0.2043
  C  C459  1  0.318740  0.571980  0.807280  1.0  0.1402
  C  C460  1  0.150180  0.721940  0.909680  1.0  0.3005
  C  C461  1  0.113680  0.779460  0.912860  1.0  -0.2083
  C  C462  1  0.039610  0.751470  0.945520  1.0  0.1981
  C  C463  1  0.040880  0.630780  0.965340  1.0  0.1633
  C  C464  1  0.112070  0.644330  0.936600  1.0  -0.2207
  C  C465  1  0.790910  0.182710  0.179780  1.0  0.5195
  C  C466  1  0.810380  0.267360  0.152460  1.0  -0.0147
  C  C467  1  0.794640  0.284240  0.110720  1.0  -0.1076
  C  C468  1  0.818240  0.359540  0.084020  1.0  -0.1207
  C  C469  1  0.854070  0.423950  0.097660  1.0  -0.0811
  C  C470  1  0.870630  0.406910  0.139860  1.0  -0.1184
  C  C471  1  0.847180  0.325500  0.165920  1.0  -0.0987
  C  C472  1  0.877200  0.511220  0.067780  1.0  0.6195
  C  C473  1  0.784920  0.911240  0.194440  1.0  0.6419
  C  C474  1  0.809800  0.874320  0.156660  1.0  -0.1485
  C  C475  1  0.845070  0.919890  0.112040  1.0  -0.105
  C  C476  1  0.867870  0.885110  0.080020  1.0  -0.0744
  C  C477  1  0.854120  0.802700  0.090380  1.0  -0.1627
  C  C478  1  0.815380  0.755060  0.134360  1.0  -0.0531
  C  C479  1  0.794570  0.791990  0.169040  1.0  -0.0255
  C  C480  1  0.876270  0.758770  0.055360  1.0  0.6807
  N  N481  1  0.766520  0.461700  0.734260  1.0  -0.3261
  N  N482  1  0.778050  0.340810  0.634540  1.0  -0.247
  N  N483  1  0.824270  0.288530  0.631800  1.0  -0.2995
  N  N484  1  0.047120  0.374400  0.533180  1.0  -0.3523
  N  N485  1  0.715480  0.902860  0.544320  1.0  -0.3591
  N  N486  1  0.839820  0.914480  0.642300  1.0  -0.2969
  N  N487  1  0.887410  0.868650  0.647940  1.0  -0.204
  N  N488  1  0.794380  0.635560  0.741260  1.0  -0.3581
  N  N489  1  0.538290  0.841710  0.540080  1.0  -0.3779
  N  N490  1  0.317670  0.735310  0.638360  1.0  -0.3045
  N  N491  1  0.261080  0.777240  0.644680  1.0  -0.3212
  N  N492  1  0.261270  0.919510  0.732160  1.0  -0.3088
  N  N493  1  0.301310  0.103030  0.725020  1.0  -0.3454
  N  N494  1  0.389420  0.315300  0.627280  1.0  -0.3066
  N  N495  1  0.355370  0.377410  0.620420  1.0  -0.2608
  N  N496  1  0.224340  0.402040  0.527960  1.0  -0.3147
  N  N497  1  0.711700  0.516520  0.234260  1.0  -0.3256
  N  N498  1  0.590810  0.528050  0.134540  1.0  -0.2468
  N  N499  1  0.538530  0.574270  0.131800  1.0  -0.3016
  N  N500  1  0.624400  0.797120  0.033180  1.0  -0.3513
  N  N501  1  0.152860  0.465480  0.044320  1.0  -0.361
  N  N502  1  0.164480  0.589820  0.142300  1.0  -0.2973
  N  N503  1  0.118650  0.637410  0.147940  1.0  -0.202
  N  N504  1  0.885560  0.544380  0.241260  1.0  -0.3602
  N  N505  1  0.091710  0.288290  0.040080  1.0  -0.3782
  N  N506  1  0.985310  0.067670  0.138360  1.0  -0.3061
  N  N507  1  0.027240  0.011080  0.144680  1.0  -0.3192
  N  N508  1  0.169510  0.011270  0.232160  1.0  -0.3069
  N  N509  1  0.353030  0.051310  0.225020  1.0  -0.3471
  N  N510  1  0.565300  0.139420  0.127280  1.0  -0.308
  N  N511  1  0.627410  0.105370  0.120420  1.0  -0.2633
  N  N512  1  0.652040  0.974340  0.027960  1.0  -0.3147
  N  N513  1  0.195960  0.500780  0.265740  1.0  -0.3268
  N  N514  1  0.975350  0.412590  0.365460  1.0  -0.2436
  N  N515  1  0.920330  0.456070  0.368200  1.0  -0.3008
  N  N516  1  0.907580  0.580300  0.466820  1.0  -0.3523
  N  N517  1  0.447180  0.259800  0.455680  1.0  -0.3556
  N  N518  1  0.556780  0.482120  0.357700  1.0  -0.2971
  N  N519  1  0.516590  0.535350  0.352060  1.0  -0.2065
  N  N520  1  0.376820  0.535640  0.258740  1.0  -0.3606
  N  N521  1  0.381790  0.078370  0.459920  1.0  -0.3804
  N  N522  1  0.373670  0.956030  0.361640  1.0  -0.3044
  N  N523  1  0.421920  0.905760  0.355320  1.0  -0.315
  N  N524  1  0.651670  0.993430  0.267840  1.0  -0.3082
  N  N525  1  0.828050  0.026330  0.274980  1.0  -0.3487
  N  N526  1  0.942580  0.016700  0.372720  1.0  -0.3102
  N  N527  1  0.997830  0.975790  0.379580  1.0  -0.2617
  N  N528  1  0.930000  0.752300  0.472040  1.0  -0.3122
  N  N529  1  0.750780  0.945960  0.765740  1.0  -0.3246
  N  N530  1  0.662590  0.725350  0.865460  1.0  -0.2489
  N  N531  1  0.706070  0.670330  0.868200  1.0  -0.3013
  N  N532  1  0.830300  0.657580  0.966820  1.0  -0.3513
  N  N533  1  0.509800  0.197180  0.955680  1.0  -0.3564
  N  N534  1  0.732120  0.306780  0.857700  1.0  -0.2957
  N  N535  1  0.785350  0.266590  0.852060  1.0  -0.2049
  N  N536  1  0.785640  0.126820  0.758740  1.0  -0.3623
  N  N537  1  0.328370  0.131790  0.959920  1.0  -0.379
  N  N538  1  0.206030  0.123670  0.861640  1.0  -0.3034
  N  N539  1  0.155760  0.171920  0.855320  1.0  -0.3172
  N  N540  1  0.243430  0.401670  0.767840  1.0  -0.308
  N  N541  1  0.276330  0.578050  0.774980  1.0  -0.347
  N  N542  1  0.266700  0.692580  0.872720  1.0  -0.3068
  N  N543  1  0.225790  0.747830  0.879580  1.0  -0.2608
  N  N544  1  0.002300  0.680000  0.972040  1.0  -0.3127
  O  O545  1  0.923410  0.549050  0.778220  1.0  -0.5927
  O  O546  1  0.804440  0.481400  0.827900  1.0  -0.6357
  O  O547  1  0.106570  0.443770  0.945660  1.0  -0.6119
  O  O548  1  0.988550  0.405430  0.997600  1.0  -0.5873
  O  O549  1  0.273760  0.125260  0.287780  1.0  -0.5754
  O  O550  1  0.159040  0.045740  0.329220  1.0  -0.6821
  O  O551  1  0.130940  0.311940  0.461800  1.0  -0.5769
  O  O552  1  0.258750  0.389690  0.425460  1.0  -0.6553
  O  O553  1  0.244170  0.923810  0.318400  1.0  -0.5873
  O  O554  1  0.227130  0.853750  0.267820  1.0  -0.5275
  O  O555  1  0.158880  0.499360  0.437760  1.0  -0.5684
  O  O556  1  0.200160  0.572480  0.480760  1.0  -0.5988
  O  O557  1  0.799050  0.673410  0.278220  1.0  -0.5928
  O  O558  1  0.731400  0.554440  0.327900  1.0  -0.6373
  O  O559  1  0.693770  0.856570  0.445660  1.0  -0.6177
  O  O560  1  0.655430  0.738550  0.497600  1.0  -0.5894
  O  O561  1  0.375260  0.023760  0.787780  1.0  -0.5762
  O  O562  1  0.295740  0.909040  0.829220  1.0  -0.682
  O  O563  1  0.561940  0.880940  0.961800  1.0  -0.5744
  O  O564  1  0.639690  0.008750  0.925460  1.0  -0.6533
  O  O565  1  0.173810  0.994170  0.818400  1.0  -0.5879
  O  O566  1  0.103750  0.977130  0.767820  1.0  -0.5268
  O  O567  1  0.749360  0.908880  0.937760  1.0  -0.5672
  O  O568  1  0.822480  0.950160  0.980760  1.0  -0.5982
  O  O569  1  0.327270  0.701630  0.221780  1.0  -0.5886
  O  O570  1  0.309300  0.632340  0.172100  1.0  -0.6364
  O  O571  1  0.389430  0.052230  0.054340  1.0  -0.616
  O  O572  1  0.403030  0.986150  0.002400  1.0  -0.5905
  O  O573  1  0.413040  0.561540  0.712220  1.0  -0.5776
  O  O574  1  0.374960  0.488260  0.670780  1.0  -0.6822
  O  O575  1  0.773740  0.592740  0.538200  1.0  -0.5771
  O  O576  1  0.815150  0.684210  0.574540  1.0  -0.655
  O  O577  1  0.242210  0.562570  0.681600  1.0  -0.5877
  O  O578  1  0.121570  0.494950  0.732180  1.0  -0.5292
  O  O579  1  0.937120  0.596640  0.562240  1.0  -0.5667
  O  O580  1  0.053240  0.680920  0.519240  1.0  -0.593
  O  O581  1  0.951630  0.077270  0.721780  1.0  -0.5882
  O  O582  1  0.882340  0.059300  0.672100  1.0  -0.6359
  O  O583  1  0.302230  0.139430  0.554340  1.0  -0.6137
  O  O584  1  0.236150  0.153030  0.502400  1.0  -0.5855
  O  O585  1  0.811540  0.163040  0.212220  1.0  -0.5735
  O  O586  1  0.738260  0.124960  0.170780  1.0  -0.6804
  O  O587  1  0.842740  0.523740  0.038200  1.0  -0.5772
  O  O588  1  0.934210  0.565150  0.074540  1.0  -0.6568
  O  O589  1  0.812570  0.992210  0.181600  1.0  -0.5884
  O  O590  1  0.744950  0.871570  0.232180  1.0  -0.5296
  O  O591  1  0.846640  0.687120  0.062240  1.0  -0.5679
  O  O592  1  0.930920  0.803240  0.019240  1.0  -0.5959
