# generated using pymatgen
data_Zn4H18C36O13
_symmetry_space_group_name_H-M   'P 1'
_cell_length_a   18.07840000
_cell_length_b   18.75380000
_cell_length_c   25.80110000
_cell_angle_alpha   90.00000000
_cell_angle_beta   108.99200000
_cell_angle_gamma   90.00000000
_symmetry_Int_Tables_number   1
_chemical_formula_structural   Zn4H18C36O13
_chemical_formula_sum   'Zn32 H144 C288 O104'
_cell_volume   8271.38876728
_cell_formula_units_Z   8
loop_
 _symmetry_equiv_pos_site_id
 _symmetry_equiv_pos_as_xyz
  1  'x, y, z'
loop_
 _atom_site_type_symbol
 _atom_site_label
 _atom_site_symmetry_multiplicity
 _atom_site_fract_x
 _atom_site_fract_y
 _atom_site_fract_z
 _atom_site_occupancy
 _atom_site_charge
  Zn  Zn1  1  0.486410  0.666140  0.638990  1.0  1.0627
  Zn  Zn2  1  0.465040  0.746610  0.530210  1.0  1.0394
  Zn  Zn3  1  0.485630  0.837230  0.635840  1.0  1.0036
  Zn  Zn4  1  0.327230  0.750050  0.571590  1.0  0.9406
  Zn  Zn5  1  0.182150  0.663810  0.570890  1.0  1.0394
  Zn  Zn6  1  0.180190  0.831860  0.570820  1.0  1.0463
  Zn  Zn7  1  0.276440  0.747590  0.683870  1.0  1.0515
  Zn  Zn8  1  0.123900  0.750580  0.729220  1.0  0.8496
  Zn  Zn9  1  0.013590  0.166140  0.861010  1.0  1.0623
  Zn  Zn10  1  0.034960  0.246610  0.969790  1.0  1.0398
  Zn  Zn11  1  0.014370  0.337230  0.864160  1.0  1.0035
  Zn  Zn12  1  0.172770  0.250050  0.928410  1.0  0.941
  Zn  Zn13  1  0.317850  0.163810  0.929110  1.0  1.0397
  Zn  Zn14  1  0.319810  0.331860  0.929180  1.0  1.0464
  Zn  Zn15  1  0.223560  0.247590  0.816130  1.0  1.0516
  Zn  Zn16  1  0.376100  0.250580  0.770780  1.0  0.8545
  Zn  Zn17  1  0.513590  0.333860  0.361010  1.0  1.062
  Zn  Zn18  1  0.534960  0.253390  0.469790  1.0  1.0402
  Zn  Zn19  1  0.514370  0.162770  0.364160  1.0  1.0037
  Zn  Zn20  1  0.672770  0.249950  0.428410  1.0  0.941
  Zn  Zn21  1  0.817850  0.336190  0.429110  1.0  1.0419
  Zn  Zn22  1  0.819810  0.168140  0.429180  1.0  1.0466
  Zn  Zn23  1  0.723570  0.252410  0.316130  1.0  1.0515
  Zn  Zn24  1  0.876100  0.249420  0.270780  1.0  0.8545
  Zn  Zn25  1  0.986410  0.833860  0.138990  1.0  1.0622
  Zn  Zn26  1  0.965040  0.753390  0.030210  1.0  1.0398
  Zn  Zn27  1  0.985630  0.662770  0.135840  1.0  1.0039
  Zn  Zn28  1  0.827230  0.749950  0.071590  1.0  0.9405
  Zn  Zn29  1  0.682150  0.836190  0.070890  1.0  1.0422
  Zn  Zn30  1  0.680190  0.668140  0.070820  1.0  1.0463
  Zn  Zn31  1  0.776430  0.752410  0.183870  1.0  1.0514
  Zn  Zn32  1  0.623900  0.749420  0.229220  1.0  0.8496
  H  H33  1  0.567100  0.012300  0.564500  1.0  0.1159
  H  H34  1  0.622300  0.100300  0.526400  1.0  0.1124
  H  H35  1  0.648000  0.799800  0.506400  1.0  0.1169
  H  H36  1  0.727000  0.771300  0.456600  1.0  0.1127
  H  H37  1  0.789100  0.860200  0.423000  1.0  0.1112
  H  H38  1  0.772700  0.977100  0.440700  1.0  0.1167
  H  H39  1  0.687300  0.590200  0.644300  1.0  0.1169
  H  H40  1  0.800700  0.540800  0.697300  1.0  0.1131
  H  H41  1  0.862800  0.453200  0.663000  1.0  0.1139
  H  H42  1  0.811100  0.416500  0.574500  1.0  0.1111
  H  H43  1  0.588500  0.473100  0.430100  1.0  0.1068
  H  H44  1  0.530500  0.563700  0.462900  1.0  0.1173
  H  H45  1  0.159300  0.751300  0.410900  1.0  0.1103
  H  H46  1  0.071800  0.750800  0.322400  1.0  0.1157
  H  H47  1  0.405800  0.752200  0.386400  1.0  0.1146
  H  H48  1  0.445800  0.753700  0.311400  1.0  0.12
  H  H49  1  0.356500  0.750400  0.224000  1.0  0.1211
  H  H50  1  0.225200  0.749500  0.211300  1.0  0.1232
  H  H51  1  0.301500  0.002100  0.669100  1.0  0.1176
  H  H52  1  0.282200  0.092900  0.724200  1.0  0.1003
  H  H53  1  0.469200  0.845600  0.788900  1.0  0.1121
  H  H54  1  0.538100  0.844900  0.879900  1.0  0.1154
  H  H55  1  0.526300  0.938600  0.935600  1.0  0.1094
  H  H56  1  0.443600  0.031000  0.900600  1.0  0.1154
  H  H57  1  0.404900  0.668400  0.845000  1.0  0.1081
  H  H58  1  0.503400  0.666667  0.928100  1.0  0.1075
  H  H59  1  0.240600  0.850600  0.860400  1.0  0.1215
  H  H60  1  0.246100  0.936500  0.924600  1.0  0.1134
  H  H61  1  0.351600  0.942200  0.004900  1.0  0.1143
  H  H62  1  0.451300  0.862400  0.021700  1.0  0.1199
  H  H63  1  0.228400  0.911300  0.772100  1.0  0.0966
  H  H64  1  0.212000  0.003400  0.827200  1.0  0.1107
  H  H65  1  0.036000  0.947900  0.603700  1.0  0.1177
  H  H66  1  0.928400  0.020300  0.573800  1.0  0.1185
  H  H67  1  0.905100  0.106400  0.631900  1.0  0.121
  H  H68  1  0.991300  0.121100  0.718500  1.0  0.1193
  H  H69  1  0.932900  0.512300  0.935500  1.0  0.1161
  H  H70  1  0.877700  0.600300  0.973600  1.0  0.113
  H  H71  1  0.852000  0.299800  0.993600  1.0  0.1171
  H  H72  1  0.773000  0.271300  0.043400  1.0  0.1121
  H  H73  1  0.710900  0.360200  0.077000  1.0  0.1113
  H  H74  1  0.727300  0.477100  0.059300  1.0  0.1168
  H  H75  1  0.812700  0.090200  0.855700  1.0  0.117
  H  H76  1  0.699300  0.040800  0.802700  1.0  0.1127
  H  H77  1  0.637200  0.953200  0.837000  1.0  0.1142
  H  H78  1  0.688900  0.916500  0.925500  1.0  0.1117
  H  H79  1  0.911500  0.973100  0.069900  1.0  0.1067
  H  H80  1  0.969500  0.063700  0.037100  1.0  0.1179
  H  H81  1  0.340700  0.251300  0.089100  1.0  0.1104
  H  H82  1  0.428200  0.250800  0.177600  1.0  0.1156
  H  H83  1  0.094200  0.252200  0.113600  1.0  0.1149
  H  H84  1  0.054200  0.253700  0.188600  1.0  0.1204
  H  H85  1  0.143500  0.250400  0.276000  1.0  0.121
  H  H86  1  0.274800  0.249500  0.288700  1.0  0.1232
  H  H87  1  0.198500  0.502100  0.830900  1.0  0.1178
  H  H88  1  0.217800  0.592900  0.775800  1.0  0.0999
  H  H89  1  0.030800  0.345600  0.711100  1.0  0.1121
  H  H90  1  0.961900  0.344900  0.620100  1.0  0.1151
  H  H91  1  0.973700  0.438600  0.564400  1.0  0.1105
  H  H92  1  0.056400  0.531000  0.599400  1.0  0.1159
  H  H93  1  0.095100  0.168400  0.655000  1.0  0.1081
  H  H94  1  0.996600  0.166600  0.571900  1.0  0.1068
  H  H95  1  0.259400  0.350600  0.639600  1.0  0.1226
  H  H96  1  0.253900  0.436500  0.575400  1.0  0.1133
  H  H97  1  0.148400  0.442200  0.495100  1.0  0.1144
  H  H98  1  0.048700  0.362400  0.478300  1.0  0.1191
  H  H99  1  0.271600  0.411300  0.727900  1.0  0.0968
  H  H100  1  0.288000  0.503400  0.672800  1.0  0.1107
  H  H101  1  0.464000  0.447900  0.896300  1.0  0.1183
  H  H102  1  0.571600  0.520300  0.926200  1.0  0.1186
  H  H103  1  0.594900  0.606400  0.868100  1.0  0.1211
  H  H104  1  0.508700  0.621100  0.781500  1.0  0.1186
  H  H105  1  0.432900  0.987700  0.435500  1.0  0.116
  H  H106  1  0.377700  0.899700  0.473600  1.0  0.1128
  H  H107  1  0.352000  0.200200  0.493600  1.0  0.1173
  H  H108  1  0.273000  0.228700  0.543400  1.0  0.1119
  H  H109  1  0.210900  0.139800  0.577000  1.0  0.1114
  H  H110  1  0.227300  0.022900  0.559300  1.0  0.1167
  H  H111  1  0.312700  0.409800  0.355700  1.0  0.1168
  H  H112  1  0.199300  0.459200  0.302700  1.0  0.1126
  H  H113  1  0.137200  0.546800  0.337000  1.0  0.1136
  H  H114  1  0.188900  0.583500  0.425500  1.0  0.1118
  H  H115  1  0.411500  0.526900  0.569900  1.0  0.1071
  H  H116  1  0.469500  0.436300  0.537100  1.0  0.1179
  H  H117  1  0.840700  0.248700  0.589100  1.0  0.1103
  H  H118  1  0.928200  0.249200  0.677600  1.0  0.1156
  H  H119  1  0.594200  0.247800  0.613600  1.0  0.1151
  H  H120  1  0.554200  0.246300  0.688600  1.0  0.1203
  H  H121  1  0.643500  0.249600  0.776000  1.0  0.1211
  H  H122  1  0.774800  0.250500  0.788700  1.0  0.123
  H  H123  1  0.698500  0.997900  0.330900  1.0  0.1182
  H  H124  1  0.717800  0.907100  0.275800  1.0  0.1003
  H  H125  1  0.530800  0.154400  0.211100  1.0  0.1119
  H  H126  1  0.461900  0.155100  0.120100  1.0  0.1156
  H  H127  1  0.473700  0.061400  0.064400  1.0  0.1101
  H  H128  1  0.556400  0.969000  0.099400  1.0  0.1156
  H  H129  1  0.595100  0.331600  0.155000  1.0  0.1074
  H  H130  1  0.496600  0.333400  0.071900  1.0  0.1071
  H  H131  1  0.759400  0.149400  0.139600  1.0  0.1226
  H  H132  1  0.753900  0.063500  0.075400  1.0  0.1139
  H  H133  1  0.648400  0.057800  0.995100  1.0  0.115
  H  H134  1  0.548700  0.137600  0.978300  1.0  0.1192
  H  H135  1  0.771600  0.088700  0.227900  1.0  0.0975
  H  H136  1  0.788000  0.996600  0.172800  1.0  0.1111
  H  H137  1  0.964000  0.052100  0.396300  1.0  0.1184
  H  H138  1  0.071600  0.979700  0.426200  1.0  0.1185
  H  H139  1  0.094900  0.893600  0.368100  1.0  0.121
  H  H140  1  0.008700  0.878900  0.281500  1.0  0.1189
  H  H141  1  0.067100  0.487700  0.064500  1.0  0.1159
  H  H142  1  0.122300  0.399700  0.026400  1.0  0.1127
  H  H143  1  0.148000  0.700200  0.006400  1.0  0.1174
  H  H144  1  0.227000  0.728700  0.956600  1.0  0.1125
  H  H145  1  0.289100  0.639800  0.923000  1.0  0.1112
  H  H146  1  0.272700  0.522900  0.940700  1.0  0.1173
  H  H147  1  0.187300  0.909800  0.144300  1.0  0.1172
  H  H148  1  0.300700  0.959200  0.197300  1.0  0.1132
  H  H149  1  0.362800  0.046800  0.163000  1.0  0.1149
  H  H150  1  0.311100  0.083500  0.074500  1.0  0.1113
  H  H151  1  0.088500  0.026900  0.930100  1.0  0.1071
  H  H152  1  0.030500  0.936300  0.962900  1.0  0.1172
  H  H153  1  0.659300  0.748700  0.910900  1.0  0.1104
  H  H154  1  0.571800  0.749200  0.822400  1.0  0.1157
  H  H155  1  0.905800  0.747800  0.886400  1.0  0.1146
  H  H156  1  0.945800  0.746300  0.811400  1.0  0.1198
  H  H157  1  0.856500  0.749600  0.724000  1.0  0.1212
  H  H158  1  0.725200  0.750500  0.711300  1.0  0.1233
  H  H159  1  0.801500  0.497900  0.169100  1.0  0.1174
  H  H160  1  0.782200  0.407100  0.224200  1.0  0.1001
  H  H161  1  0.969200  0.654400  0.288900  1.0  0.1119
  H  H162  1  0.038100  0.655100  0.379900  1.0  0.1152
  H  H163  1  0.026300  0.561400  0.435600  1.0  0.1093
  H  H164  1  0.943600  0.469000  0.400600  1.0  0.1155
  H  H165  1  0.904900  0.831600  0.345000  1.0  0.1075
  H  H166  1  0.003400  0.833400  0.428100  1.0  0.107
  H  H167  1  0.740600  0.649400  0.360400  1.0  0.1216
  H  H168  1  0.746100  0.563500  0.424600  1.0  0.1138
  H  H169  1  0.851600  0.557800  0.504900  1.0  0.115
  H  H170  1  0.951300  0.637600  0.521700  1.0  0.1197
  H  H171  1  0.728400  0.588700  0.272100  1.0  0.0965
  H  H172  1  0.712000  0.496600  0.327200  1.0  0.1111
  H  H173  1  0.536000  0.552100  0.103700  1.0  0.118
  H  H174  1  0.428400  0.479700  0.073800  1.0  0.1186
  H  H175  1  0.405100  0.393600  0.131900  1.0  0.1206
  H  H176  1  0.491300  0.378900  0.218500  1.0  0.1192
  C  C177  1  0.558130  0.877440  0.552920  1.0  0.7244
  C  C178  1  0.607220  0.929090  0.533880  1.0  -0.1373
  C  C179  1  0.597600  0.999510  0.543080  1.0  -0.038
  C  C180  1  0.632300  0.052580  0.521290  1.0  -0.1248
  C  C181  1  0.681310  0.034920  0.492090  1.0  -0.1058
  C  C182  1  0.696440  0.962350  0.483810  1.0  0.0611
  C  C183  1  0.657940  0.907870  0.503970  1.0  0.0548
  C  C184  1  0.671900  0.836100  0.493050  1.0  -0.1221
  C  C185  1  0.719400  0.818900  0.463510  1.0  -0.1135
  C  C186  1  0.757000  0.872500  0.443350  1.0  -0.1106
  C  C187  1  0.746700  0.942100  0.453590  1.0  -0.1072
  C  C188  1  0.558810  0.618800  0.557720  1.0  0.7308
  C  C189  1  0.605500  0.563960  0.539420  1.0  -0.124
  C  C190  1  0.675700  0.533900  0.574260  1.0  0.0623
  C  C191  1  0.711200  0.555300  0.629600  1.0  -0.1392
  C  C192  1  0.778700  0.525900  0.661100  1.0  -0.1071
  C  C193  1  0.816400  0.473200  0.640440  1.0  -0.1202
  C  C194  1  0.785600  0.451400  0.587850  1.0  -0.0839
  C  C195  1  0.714800  0.481090  0.552610  1.0  0.0547
  C  C196  1  0.679500  0.458620  0.497150  1.0  -0.0883
  C  C197  1  0.611600  0.488800  0.465920  1.0  -0.0935
  C  C198  1  0.575600  0.542200  0.486000  1.0  -0.0747
  C  C199  1  0.307230  0.749120  0.451360  1.0  0.7159
  C  C200  1  0.257270  0.749770  0.391750  1.0  -0.1228
  C  C201  1  0.178450  0.750400  0.381550  1.0  -0.0829
  C  C202  1  0.125300  0.749800  0.328020  1.0  -0.0944
  C  C203  1  0.151770  0.747600  0.283910  1.0  -0.1116
  C  C204  1  0.233410  0.748900  0.292580  1.0  0.0317
  C  C205  1  0.287550  0.750300  0.346460  1.0  0.0503
  C  C206  1  0.368600  0.751700  0.351600  1.0  -0.1114
  C  C207  1  0.392600  0.752300  0.306740  1.0  -0.1027
  C  C208  1  0.339000  0.750700  0.254190  1.0  -0.1063
  C  C209  1  0.260900  0.749700  0.246610  1.0  -0.1161
  C  C210  1  0.105830  0.105320  0.807430  1.0  0.697
  C  C211  1  0.710900  0.095780  0.466090  1.0  0.7336
  C  C212  1  0.092950  0.747500  0.227040  1.0  0.7206
  C  C213  1  0.544830  0.754800  0.006870  1.0  0.6986
  C  C214  1  0.332300  0.112480  0.829040  1.0  0.7209
  C  C215  1  0.391370  0.888490  0.692300  1.0  0.6936
  C  C216  1  0.373580  0.943490  0.729250  1.0  -0.092
  C  C217  1  0.326400  0.000140  0.706760  1.0  -0.0669
  C  C218  1  0.315270  0.055170  0.740060  1.0  -0.0811
  C  C219  1  0.352250  0.054560  0.795710  1.0  -0.1523
  C  C220  1  0.403640  0.996940  0.820730  1.0  0.0562
  C  C221  1  0.413060  0.940330  0.786850  1.0  0.0427
  C  C222  1  0.463900  0.883370  0.810780  1.0  -0.059
  C  C223  1  0.504800  0.882800  0.864870  1.0  -0.095
  C  C224  1  0.497300  0.939100  0.898500  1.0  -0.0891
  C  C225  1  0.448200  0.994300  0.877550  1.0  -0.1252
  C  C226  1  0.287010  0.749250  0.803440  1.0  0.7224
  C  C227  1  0.346250  0.751220  0.860060  1.0  -0.0588
  C  C228  1  0.405200  0.702500  0.871300  1.0  -0.1202
  C  C229  1  0.465600  0.702300  0.920890  1.0  -0.077
  C  C230  1  0.470680  0.754110  0.959610  1.0  -0.113
  C  C231  1  0.409460  0.806020  0.950470  1.0  0.0523
  C  C232  1  0.345260  0.802680  0.900790  1.0  0.0379
  C  C233  1  0.283500  0.852600  0.892270  1.0  -0.0965
  C  C234  1  0.286600  0.903700  0.930730  1.0  -0.0671
  C  C235  1  0.350200  0.907000  0.979160  1.0  -0.0761
  C  C236  1  0.409700  0.859600  0.989040  1.0  -0.1064
  C  C237  1  0.164300  0.883010  0.670350  1.0  0.7197
  C  C238  1  0.142950  0.938820  0.703950  1.0  -0.107
  C  C239  1  0.189070  0.944690  0.757620  1.0  -0.0928
  C  C240  1  0.178600  0.999540  0.791270  1.0  -0.0844
  C  C241  1  0.118900  0.047680  0.770980  1.0  -0.0807
  C  C242  1  0.066600  0.040690  0.716580  1.0  0.0302
  C  C243  1  0.079600  0.987040  0.681710  1.0  0.0593
  C  C244  1  0.026900  0.981600  0.627380  1.0  -0.1158
  C  C245  1  0.962900  0.025200  0.609320  1.0  -0.1051
  C  C246  1  0.949100  0.077400  0.644180  1.0  -0.1126
  C  C247  1  0.000200  0.085500  0.696160  1.0  -0.0766
  C  C248  1  0.712000  0.402190  0.469960  1.0  0.7094
  C  C249  1  0.941870  0.377440  0.947080  1.0  0.7217
  C  C250  1  0.892780  0.429090  0.966120  1.0  -0.1402
  C  C251  1  0.902400  0.499510  0.956920  1.0  -0.0374
  C  C252  1  0.867700  0.552580  0.978710  1.0  -0.1242
  C  C253  1  0.818690  0.534920  0.007910  1.0  -0.1058
  C  C254  1  0.803560  0.462350  0.016190  1.0  0.0621
  C  C255  1  0.842060  0.407870  0.996030  1.0  0.0542
  C  C256  1  0.828100  0.336100  0.006950  1.0  -0.122
  C  C257  1  0.780600  0.318900  0.036490  1.0  -0.1142
  C  C258  1  0.743000  0.372500  0.056650  1.0  -0.1115
  C  C259  1  0.753300  0.442100  0.046410  1.0  -0.1075
  C  C260  1  0.941190  0.118800  0.942280  1.0  0.7297
  C  C261  1  0.894500  0.063960  0.960580  1.0  -0.125
  C  C262  1  0.824300  0.033900  0.925740  1.0  0.0615
  C  C263  1  0.788800  0.055300  0.870400  1.0  -0.1398
  C  C264  1  0.721300  0.025900  0.838900  1.0  -0.1084
  C  C265  1  0.683600  0.973200  0.859560  1.0  -0.1193
  C  C266  1  0.714400  0.951400  0.912150  1.0  -0.0849
  C  C267  1  0.785200  0.981090  0.947390  1.0  0.0549
  C  C268  1  0.820500  0.958620  0.002850  1.0  -0.0882
  C  C269  1  0.888400  0.988800  0.034080  1.0  -0.0915
  C  C270  1  0.924400  0.042200  0.014000  1.0  -0.0734
  C  C271  1  0.192770  0.249120  0.048640  1.0  0.7163
  C  C272  1  0.242730  0.249770  0.108250  1.0  -0.1256
  C  C273  1  0.321550  0.250400  0.118450  1.0  -0.0835
  C  C274  1  0.374700  0.249800  0.171980  1.0  -0.096
  C  C275  1  0.348230  0.247600  0.216090  1.0  -0.111
  C  C276  1  0.266590  0.248900  0.207420  1.0  0.0309
  C  C277  1  0.212450  0.250300  0.153540  1.0  0.0505
  C  C278  1  0.131400  0.251700  0.148400  1.0  -0.1137
  C  C279  1  0.107400  0.252300  0.193260  1.0  -0.1052
  C  C280  1  0.161000  0.250700  0.245810  1.0  -0.1058
  C  C281  1  0.239100  0.249700  0.253390  1.0  -0.1157
  C  C282  1  0.394170  0.605320  0.692570  1.0  0.6975
  C  C283  1  0.789100  0.595780  0.033910  1.0  0.7344
  C  C284  1  0.407050  0.247500  0.272960  1.0  0.7206
  C  C285  1  0.955170  0.254800  0.493130  1.0  0.6998
  C  C286  1  0.167700  0.612480  0.670960  1.0  0.722
  C  C287  1  0.108630  0.388490  0.807700  1.0  0.6929
  C  C288  1  0.126420  0.443490  0.770750  1.0  -0.0913
  C  C289  1  0.173600  0.500140  0.793240  1.0  -0.0671
  C  C290  1  0.184730  0.555170  0.759940  1.0  -0.0807
  C  C291  1  0.147750  0.554560  0.704290  1.0  -0.1527
  C  C292  1  0.096360  0.496940  0.679270  1.0  0.0553
  C  C293  1  0.086940  0.440330  0.713150  1.0  0.0434
  C  C294  1  0.036100  0.383370  0.689220  1.0  -0.0591
  C  C295  1  0.995200  0.382800  0.635130  1.0  -0.0924
  C  C296  1  0.002700  0.439100  0.601500  1.0  -0.087
  C  C297  1  0.051800  0.494300  0.622450  1.0  -0.1235
  C  C298  1  0.212990  0.249250  0.696560  1.0  0.7239
  C  C299  1  0.153750  0.251220  0.639940  1.0  -0.0572
  C  C300  1  0.094800  0.202500  0.628700  1.0  -0.1211
  C  C301  1  0.034400  0.202300  0.579110  1.0  -0.0708
  C  C302  1  0.029320  0.254110  0.540390  1.0  -0.1151
  C  C303  1  0.090540  0.306020  0.549530  1.0  0.0512
  C  C304  1  0.154740  0.302680  0.599210  1.0  0.0367
  C  C305  1  0.216500  0.352600  0.607730  1.0  -0.0954
  C  C306  1  0.213400  0.403700  0.569270  1.0  -0.0673
  C  C307  1  0.149800  0.407000  0.520840  1.0  -0.0749
  C  C308  1  0.090300  0.359600  0.510960  1.0  -0.1066
  C  C309  1  0.335700  0.383010  0.829650  1.0  0.7191
  C  C310  1  0.357050  0.438820  0.796050  1.0  -0.1074
  C  C311  1  0.310930  0.444690  0.742380  1.0  -0.0903
  C  C312  1  0.321400  0.499540  0.708730  1.0  -0.0829
  C  C313  1  0.381100  0.547680  0.729020  1.0  -0.0805
  C  C314  1  0.433400  0.540690  0.783420  1.0  0.0302
  C  C315  1  0.420400  0.487040  0.818290  1.0  0.0589
  C  C316  1  0.473100  0.481600  0.872620  1.0  -0.118
  C  C317  1  0.537100  0.525200  0.890680  1.0  -0.1041
  C  C318  1  0.550900  0.577400  0.855820  1.0  -0.1118
  C  C319  1  0.499800  0.585500  0.803840  1.0  -0.0769
  C  C320  1  0.788000  0.902190  0.030040  1.0  0.7102
  C  C321  1  0.441870  0.122560  0.447080  1.0  0.7223
  C  C322  1  0.392780  0.070910  0.466120  1.0  -0.1389
  C  C323  1  0.402400  0.000490  0.456920  1.0  -0.0372
  C  C324  1  0.367700  0.947420  0.478710  1.0  -0.1247
  C  C325  1  0.318690  0.965080  0.507910  1.0  -0.1057
  C  C326  1  0.303560  0.037650  0.516190  1.0  0.0629
  C  C327  1  0.342060  0.092130  0.496030  1.0  0.0547
  C  C328  1  0.328100  0.163900  0.506950  1.0  -0.1221
  C  C329  1  0.280600  0.181100  0.536490  1.0  -0.1149
  C  C330  1  0.243000  0.127500  0.556650  1.0  -0.1121
  C  C331  1  0.253300  0.057900  0.546410  1.0  -0.1086
  C  C332  1  0.441190  0.381200  0.442280  1.0  0.7306
  C  C333  1  0.394500  0.436040  0.460580  1.0  -0.1252
  C  C334  1  0.324300  0.466100  0.425740  1.0  0.0616
  C  C335  1  0.288800  0.444700  0.370400  1.0  -0.1402
  C  C336  1  0.221300  0.474100  0.338900  1.0  -0.1081
  C  C337  1  0.183600  0.526800  0.359560  1.0  -0.1196
  C  C338  1  0.214400  0.548600  0.412150  1.0  -0.0854
  C  C339  1  0.285200  0.518910  0.447390  1.0  0.0543
  C  C340  1  0.320500  0.541380  0.502850  1.0  -0.0881
  C  C341  1  0.388400  0.511200  0.534080  1.0  -0.0916
  C  C342  1  0.424400  0.457800  0.514000  1.0  -0.0736
  C  C343  1  0.692770  0.250880  0.548640  1.0  0.7161
  C  C344  1  0.742730  0.250230  0.608250  1.0  -0.1259
  C  C345  1  0.821550  0.249600  0.618450  1.0  -0.0833
  C  C346  1  0.874700  0.250200  0.671980  1.0  -0.0961
  C  C347  1  0.848230  0.252400  0.716090  1.0  -0.1111
  C  C348  1  0.766590  0.251100  0.707420  1.0  0.0308
  C  C349  1  0.712450  0.249700  0.653540  1.0  0.0512
  C  C350  1  0.631400  0.248300  0.648400  1.0  -0.1138
  C  C351  1  0.607400  0.247700  0.693260  1.0  -0.1051
  C  C352  1  0.661000  0.249300  0.745810  1.0  -0.106
  C  C353  1  0.739100  0.250300  0.753390  1.0  -0.1155
  C  C354  1  0.894170  0.894680  0.192570  1.0  0.6965
  C  C355  1  0.289100  0.904220  0.533910  1.0  0.7343
  C  C356  1  0.907050  0.252500  0.772960  1.0  0.7205
  C  C357  1  0.455170  0.245200  0.993130  1.0  0.7002
  C  C358  1  0.667700  0.887520  0.170960  1.0  0.7205
  C  C359  1  0.608630  0.111510  0.307700  1.0  0.6923
  C  C360  1  0.626420  0.056510  0.270750  1.0  -0.0923
  C  C361  1  0.673600  0.999860  0.293240  1.0  -0.0669
  C  C362  1  0.684730  0.944830  0.259940  1.0  -0.082
  C  C363  1  0.647750  0.945440  0.204290  1.0  -0.1527
  C  C364  1  0.596360  0.003060  0.179270  1.0  0.0544
  C  C365  1  0.586940  0.059670  0.213150  1.0  0.0431
  C  C366  1  0.536100  0.116630  0.189220  1.0  -0.0597
  C  C367  1  0.495200  0.117200  0.135130  1.0  -0.092
  C  C368  1  0.502700  0.060900  0.101500  1.0  -0.0881
  C  C369  1  0.551800  0.005700  0.122450  1.0  -0.1231
  C  C370  1  0.712990  0.250750  0.196560  1.0  0.7233
  C  C371  1  0.653750  0.248780  0.139940  1.0  -0.0577
  C  C372  1  0.594800  0.297500  0.128700  1.0  -0.1211
  C  C373  1  0.534400  0.297700  0.079110  1.0  -0.0714
  C  C374  1  0.529320  0.245890  0.040390  1.0  -0.1157
  C  C375  1  0.590540  0.193980  0.049530  1.0  0.0517
  C  C376  1  0.654740  0.197320  0.099210  1.0  0.037
  C  C377  1  0.716500  0.147400  0.107730  1.0  -0.095
  C  C378  1  0.713400  0.096300  0.069270  1.0  -0.0671
  C  C379  1  0.649800  0.093000  0.020840  1.0  -0.0744
  C  C380  1  0.590300  0.140400  0.010960  1.0  -0.1065
  C  C381  1  0.835700  0.116990  0.329650  1.0  0.7182
  C  C382  1  0.857050  0.061180  0.296050  1.0  -0.1074
  C  C383  1  0.810930  0.055310  0.242380  1.0  -0.0899
  C  C384  1  0.821400  0.000460  0.208730  1.0  -0.0835
  C  C385  1  0.881100  0.952320  0.229020  1.0  -0.0816
  C  C386  1  0.933400  0.959310  0.283420  1.0  0.0306
  C  C387  1  0.920400  0.012960  0.318290  1.0  0.06
  C  C388  1  0.973100  0.018400  0.372620  1.0  -0.117
  C  C389  1  0.037100  0.974800  0.390680  1.0  -0.1041
  C  C390  1  0.050900  0.922600  0.355820  1.0  -0.1121
  C  C391  1  0.999800  0.914500  0.303840  1.0  -0.0763
  C  C392  1  0.288000  0.597810  0.530040  1.0  0.7099
  C  C393  1  0.058130  0.622560  0.052920  1.0  0.7239
  C  C394  1  0.107220  0.570910  0.033880  1.0  -0.1376
  C  C395  1  0.097600  0.500490  0.043080  1.0  -0.0375
  C  C396  1  0.132300  0.447420  0.021290  1.0  -0.1244
  C  C397  1  0.181310  0.465080  0.992090  1.0  -0.1063
  C  C398  1  0.196440  0.537650  0.983810  1.0  0.062
  C  C399  1  0.157940  0.592130  0.003970  1.0  0.0551
  C  C400  1  0.171900  0.663900  0.993050  1.0  -0.1217
  C  C401  1  0.219400  0.681100  0.963510  1.0  -0.1136
  C  C402  1  0.257000  0.627500  0.943350  1.0  -0.1107
  C  C403  1  0.246700  0.557900  0.953590  1.0  -0.1084
  C  C404  1  0.058810  0.881200  0.057720  1.0  0.7316
  C  C405  1  0.105500  0.936040  0.039420  1.0  -0.124
  C  C406  1  0.175700  0.966100  0.074260  1.0  0.0623
  C  C407  1  0.211200  0.944700  0.129600  1.0  -0.1397
  C  C408  1  0.278700  0.974100  0.161100  1.0  -0.1064
  C  C409  1  0.316400  0.026800  0.140440  1.0  -0.12
  C  C410  1  0.285600  0.048600  0.087850  1.0  -0.0849
  C  C411  1  0.214800  0.018910  0.052610  1.0  0.054
  C  C412  1  0.179500  0.041380  0.997150  1.0  -0.088
  C  C413  1  0.111600  0.011200  0.965920  1.0  -0.0936
  C  C414  1  0.075600  0.957800  0.986000  1.0  -0.0744
  C  C415  1  0.807230  0.750880  0.951360  1.0  0.7159
  C  C416  1  0.757270  0.750230  0.891750  1.0  -0.1222
  C  C417  1  0.678450  0.749600  0.881550  1.0  -0.0828
  C  C418  1  0.625300  0.750200  0.828020  1.0  -0.0941
  C  C419  1  0.651770  0.752400  0.783910  1.0  -0.1117
  C  C420  1  0.733410  0.751100  0.792580  1.0  0.0314
  C  C421  1  0.787550  0.749700  0.846460  1.0  0.0504
  C  C422  1  0.868600  0.748300  0.851600  1.0  -0.1113
  C  C423  1  0.892600  0.747700  0.806740  1.0  -0.1025
  C  C424  1  0.839000  0.749300  0.754190  1.0  -0.1066
  C  C425  1  0.760900  0.750300  0.746610  1.0  -0.1158
  C  C426  1  0.605830  0.394680  0.307430  1.0  0.6964
  C  C427  1  0.210900  0.404220  0.966090  1.0  0.7334
  C  C428  1  0.592950  0.752500  0.727040  1.0  0.7208
  C  C429  1  0.044830  0.745200  0.506870  1.0  0.6988
  C  C430  1  0.832300  0.387520  0.329040  1.0  0.7219
  C  C431  1  0.891370  0.611510  0.192300  1.0  0.6934
  C  C432  1  0.873580  0.556510  0.229250  1.0  -0.092
  C  C433  1  0.826400  0.499860  0.206760  1.0  -0.0667
  C  C434  1  0.815270  0.444830  0.240060  1.0  -0.0823
  C  C435  1  0.852250  0.445440  0.295710  1.0  -0.1516
  C  C436  1  0.903640  0.503060  0.320730  1.0  0.0552
  C  C437  1  0.913060  0.559670  0.286850  1.0  0.042
  C  C438  1  0.963900  0.616630  0.310780  1.0  -0.0606
  C  C439  1  0.004800  0.617200  0.364870  1.0  -0.0944
  C  C440  1  0.997300  0.560900  0.398500  1.0  -0.0895
  C  C441  1  0.948200  0.505700  0.377550  1.0  -0.1258
  C  C442  1  0.787010  0.750750  0.303440  1.0  0.7222
  C  C443  1  0.846250  0.748780  0.360060  1.0  -0.0589
  C  C444  1  0.905200  0.797500  0.371300  1.0  -0.1201
  C  C445  1  0.965600  0.797700  0.420890  1.0  -0.0712
  C  C446  1  0.970680  0.745890  0.459610  1.0  -0.112
  C  C447  1  0.909460  0.693980  0.450470  1.0  0.0523
  C  C448  1  0.845260  0.697320  0.400790  1.0  0.0383
  C  C449  1  0.783500  0.647400  0.392270  1.0  -0.0961
  C  C450  1  0.786600  0.596300  0.430730  1.0  -0.0672
  C  C451  1  0.850200  0.593000  0.479160  1.0  -0.0762
  C  C452  1  0.909700  0.640400  0.489040  1.0  -0.1063
  C  C453  1  0.664300  0.616990  0.170350  1.0  0.7202
  C  C454  1  0.642950  0.561180  0.203950  1.0  -0.1074
  C  C455  1  0.689070  0.555310  0.257620  1.0  -0.091
  C  C456  1  0.678600  0.500460  0.291270  1.0  -0.0844
  C  C457  1  0.618900  0.452320  0.270980  1.0  -0.0809
  C  C458  1  0.566600  0.459310  0.216580  1.0  0.03
  C  C459  1  0.579600  0.512960  0.181710  1.0  0.0603
  C  C460  1  0.526900  0.518400  0.127380  1.0  -0.116
  C  C461  1  0.462900  0.474800  0.109320  1.0  -0.1044
  C  C462  1  0.449100  0.422600  0.144180  1.0  -0.1126
  C  C463  1  0.500200  0.414500  0.196160  1.0  -0.0763
  C  C464  1  0.212000  0.097810  0.969960  1.0  0.7093
  O  O465  1  0.544080  0.891740  0.595940  1.0  -0.6017
  O  O466  1  0.531240  0.825010  0.522310  1.0  -0.572
  O  O467  1  0.527500  0.665830  0.523580  1.0  -0.583
  O  O468  1  0.551820  0.612330  0.604190  1.0  -0.5777
  O  O469  1  0.066100  0.805970  0.208970  1.0  -0.5778
  O  O470  1  0.074910  0.690500  0.203410  1.0  -0.5909
  O  O471  1  0.442180  0.750280  0.598380  1.0  -1.1136
  O  O472  1  0.054180  0.088140  0.829240  1.0  -0.5883
  O  O473  1  0.140710  0.162950  0.814860  1.0  -0.6368
  O  O474  1  0.380220  0.750190  0.462140  1.0  -0.599
  O  O475  1  0.274040  0.749120  0.486540  1.0  -0.5778
  O  O476  1  0.663540  0.361420  0.437910  1.0  -0.5812
  O  O477  1  0.784900  0.399580  0.478390  1.0  -0.5732
  O  O478  1  0.661190  0.139100  0.439380  1.0  -0.5849
  O  O479  1  0.783500  0.099350  0.473380  1.0  -0.5748
  O  O480  1  0.241430  0.748470  0.601700  1.0  -1.1224
  O  O481  1  0.575940  0.695400  0.023020  1.0  -0.6169
  O  O482  1  0.573940  0.814050  0.025750  1.0  -0.5783
  O  O483  1  0.327890  0.095060  0.875010  1.0  -0.5882
  O  O484  1  0.318050  0.174730  0.809430  1.0  -0.6864
  O  O485  1  0.184990  0.821980  0.691210  1.0  -0.6666
  O  O486  1  0.163890  0.900160  0.623180  1.0  -0.57
  O  O487  1  0.315460  0.747890  0.765420  1.0  -0.5935
  O  O488  1  0.215660  0.747870  0.798890  1.0  -0.5804
  O  O489  1  0.359400  0.829340  0.683410  1.0  -0.6236
  O  O490  1  0.443300  0.908650  0.672540  1.0  -0.5819
  O  O491  1  0.955920  0.391740  0.904060  1.0  -0.6027
  O  O492  1  0.968760  0.325010  0.977690  1.0  -0.5718
  O  O493  1  0.972500  0.165830  0.976420  1.0  -0.5838
  O  O494  1  0.948180  0.112330  0.895810  1.0  -0.5777
  O  O495  1  0.433900  0.305970  0.291030  1.0  -0.5773
  O  O496  1  0.425090  0.190500  0.296590  1.0  -0.5931
  O  O497  1  0.057820  0.250280  0.901620  1.0  -1.1134
  O  O498  1  0.445820  0.588140  0.670760  1.0  -0.5878
  O  O499  1  0.359290  0.662950  0.685140  1.0  -0.6362
  O  O500  1  0.119780  0.250190  0.037860  1.0  -0.5997
  O  O501  1  0.225960  0.249120  0.013460  1.0  -0.579
  O  O502  1  0.836460  0.861420  0.062090  1.0  -0.5806
  O  O503  1  0.715100  0.899580  0.021610  1.0  -0.5744
  O  O504  1  0.838810  0.639100  0.060620  1.0  -0.5845
  O  O505  1  0.716500  0.599350  0.026620  1.0  -0.5757
  O  O506  1  0.258570  0.248470  0.898300  1.0  -1.1215
  O  O507  1  0.924060  0.195400  0.476980  1.0  -0.6171
  O  O508  1  0.926060  0.314050  0.474250  1.0  -0.5786
  O  O509  1  0.172110  0.595060  0.624990  1.0  -0.5896
  O  O510  1  0.181950  0.674730  0.690570  1.0  -0.6872
  O  O511  1  0.315010  0.321980  0.808790  1.0  -0.6647
  O  O512  1  0.336110  0.400160  0.876820  1.0  -0.5686
  O  O513  1  0.184540  0.247890  0.734580  1.0  -0.5939
  O  O514  1  0.284340  0.247870  0.701110  1.0  -0.5795
  O  O515  1  0.140600  0.329340  0.816590  1.0  -0.6233
  O  O516  1  0.056700  0.408650  0.827460  1.0  -0.5812
  O  O517  1  0.455920  0.108260  0.404060  1.0  -0.6019
  O  O518  1  0.468760  0.174990  0.477690  1.0  -0.5714
  O  O519  1  0.472500  0.334170  0.476420  1.0  -0.5842
  O  O520  1  0.448180  0.387670  0.395810  1.0  -0.5779
  O  O521  1  0.933900  0.194030  0.791030  1.0  -0.5772
  O  O522  1  0.925090  0.309500  0.796590  1.0  -0.5932
  O  O523  1  0.557820  0.249720  0.401620  1.0  -1.113
  O  O524  1  0.945820  0.911860  0.170760  1.0  -0.5881
  O  O525  1  0.859290  0.837050  0.185140  1.0  -0.6368
  O  O526  1  0.619780  0.249810  0.537860  1.0  -0.5994
  O  O527  1  0.725960  0.250880  0.513460  1.0  -0.579
  O  O528  1  0.336460  0.638580  0.562090  1.0  -0.5805
  O  O529  1  0.215100  0.600420  0.521610  1.0  -0.5746
  O  O530  1  0.338810  0.860900  0.560620  1.0  -0.5847
  O  O531  1  0.216500  0.900650  0.526620  1.0  -0.5755
  O  O532  1  0.758570  0.251530  0.398300  1.0  -1.1216
  O  O533  1  0.424060  0.304600  0.976980  1.0  -0.6166
  O  O534  1  0.426060  0.185950  0.974250  1.0  -0.5787
  O  O535  1  0.672110  0.904940  0.124990  1.0  -0.5898
  O  O536  1  0.681950  0.825270  0.190570  1.0  -0.685
  O  O537  1  0.815010  0.178020  0.308790  1.0  -0.6641
  O  O538  1  0.836110  0.099840  0.376820  1.0  -0.5684
  O  O539  1  0.684540  0.252110  0.234580  1.0  -0.5938
  O  O540  1  0.784340  0.252130  0.201110  1.0  -0.5796
  O  O541  1  0.640600  0.170660  0.316590  1.0  -0.6243
  O  O542  1  0.556700  0.091350  0.327460  1.0  -0.5802
  O  O543  1  0.044080  0.608260  0.095940  1.0  -0.6013
  O  O544  1  0.031240  0.674990  0.022310  1.0  -0.5709
  O  O545  1  0.027500  0.834170  0.023580  1.0  -0.5833
  O  O546  1  0.051820  0.887670  0.104190  1.0  -0.5781
  O  O547  1  0.566100  0.694030  0.708970  1.0  -0.5783
  O  O548  1  0.574910  0.809500  0.703410  1.0  -0.5908
  O  O549  1  0.942180  0.749720  0.098380  1.0  -1.1133
  O  O550  1  0.554180  0.411860  0.329240  1.0  -0.5893
  O  O551  1  0.640710  0.337050  0.314860  1.0  -0.6368
  O  O552  1  0.880220  0.749810  0.962140  1.0  -0.5987
  O  O553  1  0.774040  0.750880  0.986540  1.0  -0.5776
  O  O554  1  0.163540  0.138580  0.937910  1.0  -0.581
  O  O555  1  0.284900  0.100420  0.978390  1.0  -0.5733
  O  O556  1  0.161190  0.360900  0.939380  1.0  -0.5852
  O  O557  1  0.283500  0.400650  0.973380  1.0  -0.5749
  O  O558  1  0.741430  0.751530  0.101700  1.0  -1.1225
  O  O559  1  0.075940  0.804600  0.523020  1.0  -0.6169
  O  O560  1  0.073940  0.685950  0.525750  1.0  -0.5793
  O  O561  1  0.827890  0.404940  0.375010  1.0  -0.5882
  O  O562  1  0.818050  0.325270  0.309430  1.0  -0.6854
  O  O563  1  0.684990  0.678020  0.191210  1.0  -0.6662
  O  O564  1  0.663890  0.599840  0.123180  1.0  -0.5698
  O  O565  1  0.815460  0.752110  0.265420  1.0  -0.5933
  O  O566  1  0.715660  0.752130  0.298890  1.0  -0.5811
  O  O567  1  0.859400  0.670660  0.183410  1.0  -0.6248
  O  O568  1  0.943300  0.591350  0.172540  1.0  -0.5818
