# generated using pymatgen
data_Zn2H17C26(NO2)4
_symmetry_space_group_name_H-M   'P 1'
_cell_length_a   10.90280000
_cell_length_b   10.94530000
_cell_length_c   15.85330000
_cell_angle_alpha   88.15900000
_cell_angle_beta   80.54200000
_cell_angle_gamma   85.31400000
_symmetry_Int_Tables_number   1
_chemical_formula_structural   Zn2H17C26(NO2)4
_chemical_formula_sum   'Zn4 H34 C52 N8 O16'
_cell_volume   1859.55288580
_cell_formula_units_Z   2
loop_
 _symmetry_equiv_pos_site_id
 _symmetry_equiv_pos_as_xyz
  1  'x, y, z'
loop_
 _atom_site_type_symbol
 _atom_site_label
 _atom_site_symmetry_multiplicity
 _atom_site_fract_x
 _atom_site_fract_y
 _atom_site_fract_z
 _atom_site_occupancy
 _atom_site_charge
  Zn  Zn1  1  0.717580  0.842280  0.593700  1.0  0.9451
  Zn  Zn2  1  0.670300  0.837130  0.784760  1.0  0.9237
  Zn  Zn3  1  0.282420  0.157720  0.406300  1.0  0.9418
  Zn  Zn4  1  0.329700  0.162870  0.215240  1.0  0.9234
  H  H5  1  0.730000  0.448200  0.567900  1.0  0.1089
  H  H6  1  0.726100  0.238800  0.567000  1.0  0.0944
  H  H7  1  0.652600  0.231100  0.820100  1.0  0.1036
  H  H8  1  0.660400  0.439200  0.820800  1.0  0.1044
  H  H9  1  0.267300  0.818900  0.815400  1.0  0.1113
  H  H10  1  0.057800  0.810400  0.811300  1.0  0.1017
  H  H11  1  0.122900  0.859300  0.556700  1.0  0.109
  H  H12  1  0.330200  0.868300  0.560700  1.0  0.0996
  H  H13  1  0.580300  0.830300  0.311000  1.0  0.1285
  H  H14  1  0.564000  0.840500  0.455700  1.0  0.0729
  H  H15  1  0.921800  0.839000  0.443500  1.0  0.0821
  H  H16  1  0.951600  0.830700  0.296900  1.0  0.1488
  H  H17  1  0.805500  0.731100  0.919400  1.0  0.0762
  H  H18  1  0.820400  0.756400  0.061300  1.0  0.1221
  H  H19  1  0.516200  0.960600  0.934900  1.0  0.072
  H  H20  1  0.866900  0.805400  0.168600  1.0  0.2016
  H  H21  1  0.611800  0.949700  0.195700  1.0  0.2754
  H  H22  1  0.270000  0.551800  0.432100  1.0  0.1085
  H  H23  1  0.273900  0.761200  0.433000  1.0  0.0955
  H  H24  1  0.347400  0.768900  0.179900  1.0  0.1048
  H  H25  1  0.339600  0.560800  0.179200  1.0  0.1042
  H  H26  1  0.732700  0.181100  0.184600  1.0  0.1095
  H  H27  1  0.942200  0.189600  0.188700  1.0  0.1015
  H  H28  1  0.877100  0.140700  0.443300  1.0  0.108
  H  H29  1  0.669800  0.131700  0.439300  1.0  0.0997
  H  H30  1  0.419700  0.169700  0.689000  1.0  0.1287
  H  H31  1  0.436000  0.159500  0.544300  1.0  0.0717
  H  H32  1  0.078200  0.161000  0.556500  1.0  0.0835
  H  H33  1  0.048400  0.169300  0.703100  1.0  0.1482
  H  H34  1  0.194500  0.268900  0.080600  1.0  0.0762
  H  H35  1  0.179600  0.243600  0.938700  1.0  0.121
  H  H36  1  0.483800  0.039400  0.065100  1.0  0.0736
  H  H37  1  0.133100  0.194600  0.831400  1.0  0.2354
  H  H38  1  0.388200  0.050300  0.804300  1.0  0.2763
  C  C39  1  0.696900  0.604600  0.693600  1.0  0.703
  C  C40  1  0.694700  0.466700  0.694500  1.0  -0.1127
  C  C41  1  0.714600  0.404800  0.619400  1.0  -0.0504
  C  C42  1  0.712300  0.278900  0.619000  1.0  -0.0581
  C  C43  1  0.690200  0.212500  0.692900  1.0  -0.1385
  C  C44  1  0.669300  0.274400  0.768600  1.0  -0.0802
  C  C45  1  0.673000  0.399300  0.768800  1.0  -0.0621
  C  C46  1  0.688000  0.075400  0.692100  1.0  0.6798
  C  C47  1  0.458100  0.847100  0.690600  1.0  0.6739
  C  C48  1  0.320700  0.843600  0.688400  1.0  -0.1448
  C  C49  1  0.238200  0.827100  0.763400  1.0  -0.0484
  C  C50  1  0.112600  0.822800  0.760900  1.0  -0.0551
  C  C51  1  0.067100  0.836800  0.683900  1.0  -0.1307
  C  C52  1  0.151400  0.852100  0.608900  1.0  -0.0447
  C  C53  1  0.275300  0.856500  0.611200  1.0  -0.0545
  C  C54  1  0.930800  0.833900  0.682500  1.0  0.6882
  C  C55  1  0.767000  0.833600  0.288800  1.0  0.2452
  C  C56  1  0.651000  0.833200  0.336400  1.0  -0.2715
  C  C57  1  0.643200  0.837500  0.423000  1.0  0.1884
  C  C58  1  0.852600  0.836900  0.416500  1.0  0.1801
  C  C59  1  0.871700  0.833300  0.328600  1.0  -0.2623
  C  C60  1  0.744400  0.782600  0.951400  1.0  0.2055
  C  C61  1  0.755900  0.798000  0.037500  1.0  -0.3108
  C  C62  1  0.667500  0.876200  0.085300  1.0  0.2533
  C  C63  1  0.586500  0.941500  0.042300  1.0  -0.1048
  C  C64  1  0.578200  0.917800  0.960300  1.0  0.0734
  C  C65  1  0.303100  0.395400  0.306400  1.0  0.7026
  C  C66  1  0.305300  0.533300  0.305500  1.0  -0.113
  C  C67  1  0.285400  0.595200  0.380600  1.0  -0.0503
  C  C68  1  0.287700  0.721100  0.381000  1.0  -0.0558
  C  C69  1  0.309800  0.787500  0.307100  1.0  -0.1369
  C  C70  1  0.330700  0.725600  0.231400  1.0  -0.0778
  C  C71  1  0.327000  0.600700  0.231200  1.0  -0.06
  C  C72  1  0.312000  0.924600  0.307900  1.0  0.6796
  C  C73  1  0.541900  0.152900  0.309400  1.0  0.6743
  C  C74  1  0.679300  0.156400  0.311600  1.0  -0.1443
  C  C75  1  0.761800  0.172900  0.236600  1.0  -0.0537
  C  C76  1  0.887400  0.177200  0.239100  1.0  -0.0558
  C  C77  1  0.932900  0.163200  0.316100  1.0  -0.1314
  C  C78  1  0.848600  0.147900  0.391100  1.0  -0.0395
  C  C79  1  0.724700  0.143500  0.388800  1.0  -0.0548
  C  C80  1  0.069200  0.166100  0.317500  1.0  0.6885
  C  C81  1  0.233000  0.166400  0.711200  1.0  0.2439
  C  C82  1  0.349000  0.166800  0.663600  1.0  -0.2699
  C  C83  1  0.356800  0.162500  0.577000  1.0  0.193
  C  C84  1  0.147400  0.163100  0.583500  1.0  0.1826
  C  C85  1  0.128300  0.166700  0.671400  1.0  -0.2521
  C  C86  1  0.255600  0.217400  0.048600  1.0  0.2063
  C  C87  1  0.244100  0.202000  0.962500  1.0  -0.3088
  C  C88  1  0.332500  0.123800  0.914700  1.0  0.2527
  C  C89  1  0.413500  0.058500  0.957700  1.0  -0.1051
  C  C90  1  0.421800  0.082200  0.039700  1.0  0.0941
  N  N91  1  0.659300  0.831900  0.912820  1.0  -0.3235
  N  N92  1  0.740500  0.837600  0.464850  1.0  -0.3315
  N  N93  1  0.776600  0.868100  0.199900  1.0  -0.3098
  N  N94  1  0.672500  0.906900  0.166200  1.0  -0.1572
  N  N95  1  0.340700  0.168100  0.087180  1.0  -0.3251
  N  N96  1  0.259500  0.162400  0.535150  1.0  -0.3345
  N  N97  1  0.223400  0.131900  0.800100  1.0  -0.3084
  N  N98  1  0.327500  0.093100  0.833800  1.0  -0.1694
  O  O99  1  0.859800  0.826000  0.752220  1.0  -0.6101
  O  O100  1  0.897400  0.839500  0.610310  1.0  -0.5855
  O  O101  1  0.491200  0.851800  0.762640  1.0  -0.5987
  O  O102  1  0.530400  0.844600  0.620530  1.0  -0.5865
  O  O103  1  0.673000  0.655100  0.764940  1.0  -0.601
  O  O104  1  0.721900  0.658000  0.623750  1.0  -0.5929
  O  O105  1  0.674100  0.020700  0.763450  1.0  -0.592
  O  O106  1  0.700500  0.026200  0.621280  1.0  -0.5851
  O  O107  1  0.140200  0.174000  0.247780  1.0  -0.6112
  O  O108  1  0.102600  0.160500  0.389690  1.0  -0.5852
  O  O109  1  0.508800  0.148200  0.237360  1.0  -0.5976
  O  O110  1  0.469600  0.155400  0.379470  1.0  -0.586
  O  O111  1  0.327000  0.344900  0.235060  1.0  -0.5995
  O  O112  1  0.278100  0.342000  0.376250  1.0  -0.5938
  O  O113  1  0.325900  0.979300  0.236550  1.0  -0.593
  O  O114  1  0.299500  0.973800  0.378720  1.0  -0.5847
