# generated using pymatgen
data_CoH22C32(N2O3)2
_symmetry_space_group_name_H-M   'P 1'
_cell_length_a   16.13000000
_cell_length_b   16.87870000
_cell_length_c   16.87870000
_cell_angle_alpha   92.37650000
_cell_angle_beta   100.83800000
_cell_angle_gamma   79.16200000
_symmetry_Int_Tables_number   1
_chemical_formula_structural   CoH22C32(N2O3)2
_chemical_formula_sum   'Co4 H88 C128 N16 O24'
_cell_volume   4432.72276857
_cell_formula_units_Z   4
loop_
 _symmetry_equiv_pos_site_id
 _symmetry_equiv_pos_as_xyz
  1  'x, y, z'
loop_
 _atom_site_type_symbol
 _atom_site_label
 _atom_site_symmetry_multiplicity
 _atom_site_fract_x
 _atom_site_fract_y
 _atom_site_fract_z
 _atom_site_occupancy
 _atom_site_charge
  Co  Co1  1  0.236660  0.237460  0.782140  1.0  0.8426
  Co  Co2  1  0.263340  0.782140  0.237460  1.0  0.8435
  Co  Co3  1  0.763340  0.762540  0.217860  1.0  0.8424
  Co  Co4  1  0.736660  0.217860  0.762540  1.0  0.844
  H  H5  1  0.414600  0.485500  0.054900  1.0  0.2954
  H  H6  1  0.488100  0.151100  0.679500  1.0  0.103
  H  H7  1  0.528100  0.396600  0.417000  1.0  0.3098
  H  H8  1  0.570200  0.070900  0.597300  1.0  0.1008
  H  H9  1  0.359800  0.995300  0.476900  1.0  0.0952
  H  H10  1  0.277900  0.070000  0.562200  1.0  0.1053
  H  H11  1  0.992800  0.164900  0.843900  1.0  0.0982
  H  H12  1  0.920800  0.099600  0.918800  1.0  0.1061
  H  H13  1  0.349400  0.360900  0.820900  1.0  0.0698
  H  H14  1  0.236500  0.263400  0.964800  1.0  0.079
  H  H15  1  0.291100  0.338100  0.072700  1.0  0.1446
  H  H16  1  0.416200  0.429600  0.923200  1.0  0.1264
  H  H17  1  0.419700  0.589800  0.133000  1.0  0.1179
  H  H18  1  0.492100  0.670400  0.220200  1.0  0.1003
  H  H19  1  0.572100  0.623400  0.345000  1.0  0.118
  H  H20  1  0.487100  0.410400  0.296800  1.0  0.108
  H  H21  1  0.589800  0.230500  0.624700  1.0  0.0753
  H  H22  1  0.523800  0.302700  0.511500  1.0  0.1317
  H  H23  1  0.704100  0.439600  0.557800  1.0  0.1331
  H  H24  1  0.761900  0.366100  0.671500  1.0  0.0744
  H  H25  1  0.135400  0.945200  0.003800  1.0  0.1208
  H  H26  1  0.208100  0.015200  0.932400  1.0  0.1039
  H  H27  1  0.085400  0.054900  0.485500  1.0  0.2967
  H  H28  1  0.011900  0.679500  0.151100  1.0  0.1027
  H  H29  1  0.971900  0.417000  0.396600  1.0  0.3114
  H  H30  1  0.929800  0.597300  0.070900  1.0  0.1024
  H  H31  1  0.140200  0.476900  0.995300  1.0  0.0962
  H  H32  1  0.222100  0.562200  0.070000  1.0  0.1072
  H  H33  1  0.507200  0.843900  0.164900  1.0  0.0983
  H  H34  1  0.579200  0.918800  0.099600  1.0  0.1045
  H  H35  1  0.150600  0.820900  0.360900  1.0  0.0704
  H  H36  1  0.263500  0.964800  0.263400  1.0  0.0784
  H  H37  1  0.208900  0.072700  0.338100  1.0  0.1422
  H  H38  1  0.083800  0.923200  0.429600  1.0  0.1269
  H  H39  1  0.080300  0.133000  0.589800  1.0  0.117
  H  H40  1  0.007900  0.220200  0.670400  1.0  0.1011
  H  H41  1  0.927900  0.345000  0.623400  1.0  0.1179
  H  H42  1  0.012900  0.296800  0.410400  1.0  0.1095
  H  H43  1  0.910200  0.624700  0.230500  1.0  0.0756
  H  H44  1  0.976200  0.511500  0.302700  1.0  0.1313
  H  H45  1  0.795900  0.557800  0.439600  1.0  0.1357
  H  H46  1  0.738100  0.671500  0.366100  1.0  0.0752
  H  H47  1  0.364600  0.003800  0.945200  1.0  0.1196
  H  H48  1  0.291900  0.932400  0.015200  1.0  0.1042
  H  H49  1  0.585400  0.514500  0.945100  1.0  0.2955
  H  H50  1  0.511900  0.848900  0.320500  1.0  0.1031
  H  H51  1  0.471900  0.603400  0.583000  1.0  0.3093
  H  H52  1  0.429800  0.929100  0.402700  1.0  0.103
  H  H53  1  0.640200  0.004700  0.523100  1.0  0.0972
  H  H54  1  0.722100  0.930000  0.437800  1.0  0.1058
  H  H55  1  0.007200  0.835100  0.156100  1.0  0.0986
  H  H56  1  0.079200  0.900400  0.081200  1.0  0.1058
  H  H57  1  0.650600  0.639100  0.179100  1.0  0.07
  H  H58  1  0.763500  0.736600  0.035200  1.0  0.0795
  H  H59  1  0.708900  0.661900  0.927300  1.0  0.1434
  H  H60  1  0.583800  0.570400  0.076800  1.0  0.1266
  H  H61  1  0.580300  0.410200  0.867000  1.0  0.1179
  H  H62  1  0.507900  0.329600  0.779800  1.0  0.1006
  H  H63  1  0.427900  0.376600  0.655000  1.0  0.1179
  H  H64  1  0.512900  0.589600  0.703200  1.0  0.111
  H  H65  1  0.410200  0.769500  0.375300  1.0  0.0749
  H  H66  1  0.476200  0.697300  0.488500  1.0  0.131
  H  H67  1  0.295900  0.560400  0.442200  1.0  0.1346
  H  H68  1  0.238100  0.633900  0.328500  1.0  0.074
  H  H69  1  0.864600  0.054800  0.996200  1.0  0.1209
  H  H70  1  0.791900  0.984800  0.067600  1.0  0.1042
  H  H71  1  0.914600  0.945100  0.514500  1.0  0.2966
  H  H72  1  0.988100  0.320500  0.848900  1.0  0.1026
  H  H73  1  0.028100  0.583000  0.603400  1.0  0.3092
  H  H74  1  0.070200  0.402700  0.929100  1.0  0.1016
  H  H75  1  0.859800  0.523100  0.004700  1.0  0.0954
  H  H76  1  0.777900  0.437800  0.930000  1.0  0.107
  H  H77  1  0.492800  0.156100  0.835100  1.0  0.098
  H  H78  1  0.420800  0.081200  0.900400  1.0  0.1058
  H  H79  1  0.849400  0.179100  0.639100  1.0  0.0705
  H  H80  1  0.736500  0.035200  0.736600  1.0  0.0787
  H  H81  1  0.791100  0.927300  0.661900  1.0  0.1424
  H  H82  1  0.916200  0.076800  0.570400  1.0  0.1269
  H  H83  1  0.919700  0.867000  0.410200  1.0  0.1176
  H  H84  1  0.992100  0.779800  0.329600  1.0  0.1004
  H  H85  1  0.072100  0.655000  0.376600  1.0  0.1178
  H  H86  1  0.987100  0.703200  0.589600  1.0  0.1091
  H  H87  1  0.089800  0.375300  0.769500  1.0  0.0752
  H  H88  1  0.023800  0.488500  0.697300  1.0  0.1314
  H  H89  1  0.204100  0.442200  0.560400  1.0  0.1353
  H  H90  1  0.261900  0.328500  0.633900  1.0  0.0749
  H  H91  1  0.635400  0.996200  0.054800  1.0  0.1197
  H  H92  1  0.708100  0.067600  0.984800  1.0  0.105
  C  C93  1  0.321440  0.163950  0.685650  1.0  0.6404
  C  C94  1  0.375000  0.117040  0.630400  1.0  -0.1329
  C  C95  1  0.461800  0.118190  0.639090  1.0  -0.0412
  C  C96  1  0.510130  0.071560  0.589040  1.0  -0.1132
  C  C97  1  0.473430  0.025470  0.526910  1.0  0.0207
  C  C98  1  0.386700  0.026420  0.518820  1.0  -0.116
  C  C99  1  0.337600  0.071000  0.569400  1.0  -0.0692
  C  C100  1  0.161300  0.158220  0.855220  1.0  0.6301
  C  C101  1  0.023800  0.122940  0.879560  1.0  -0.0675
  C  C102  1  0.979900  0.078740  0.919580  1.0  -0.0972
  C  C103  1  0.338900  0.354400  0.873600  1.0  0.2016
  C  C104  1  0.272600  0.299330  0.956030  1.0  0.1877
  C  C105  1  0.305100  0.343660  0.021340  1.0  -0.2542
  C  C106  1  0.358100  0.395890  0.010750  1.0  0.3016
  C  C107  1  0.376700  0.397700  0.933500  1.0  -0.2804
  C  C108  1  0.405700  0.433240  0.151720  1.0  0.5578
  C  C109  1  0.450100  0.490880  0.205140  1.0  -0.126
  C  C110  1  0.450200  0.569420  0.183980  1.0  -0.0669
  C  C111  1  0.493200  0.616610  0.235470  1.0  -0.068
  C  C112  1  0.539700  0.589630  0.310710  1.0  -0.0565
  C  C113  1  0.537500  0.511730  0.334770  1.0  -0.1674
  C  C114  1  0.490700  0.462880  0.280880  1.0  -0.0454
  C  C115  1  0.613700  0.274430  0.611370  1.0  0.1821
  C  C116  1  0.574500  0.316620  0.542980  1.0  -0.2917
  C  C117  1  0.608000  0.379180  0.519260  1.0  0.3178
  C  C118  1  0.678500  0.396330  0.569790  1.0  -0.2676
  C  C119  1  0.712700  0.351770  0.637870  1.0  0.1978
  C  C120  1  0.587300  0.485350  0.416530  1.0  0.5407
  C  C121  1  0.107800  0.106600  0.891000  1.0  -0.096
  C  C122  1  0.013400  0.009200  0.959200  1.0  -0.0012
  C  C123  1  0.105000  0.988900  0.970300  1.0  -0.1214
  C  C124  1  0.148600  0.033700  0.931700  1.0  -0.09
  C  C125  1  0.178560  0.685650  0.163950  1.0  0.6384
  C  C126  1  0.125000  0.630400  0.117040  1.0  -0.1311
  C  C127  1  0.038200  0.639090  0.118190  1.0  -0.0411
  C  C128  1  0.989870  0.589040  0.071560  1.0  -0.1122
  C  C129  1  0.026570  0.526910  0.025470  1.0  0.0212
  C  C130  1  0.113300  0.518820  0.026420  1.0  -0.118
  C  C131  1  0.162400  0.569400  0.071000  1.0  -0.0692
  C  C132  1  0.338700  0.855220  0.158220  1.0  0.631
  C  C133  1  0.476200  0.879560  0.122940  1.0  -0.0671
  C  C134  1  0.520100  0.919580  0.078740  1.0  -0.0971
  C  C135  1  0.161100  0.873600  0.354400  1.0  0.1999
  C  C136  1  0.227400  0.956030  0.299330  1.0  0.189
  C  C137  1  0.194900  0.021340  0.343660  1.0  -0.2575
  C  C138  1  0.141900  0.010750  0.395890  1.0  0.3034
  C  C139  1  0.123300  0.933500  0.397700  1.0  -0.2838
  C  C140  1  0.094300  0.151720  0.433240  1.0  0.5612
  C  C141  1  0.049900  0.205140  0.490880  1.0  -0.1289
  C  C142  1  0.049800  0.183980  0.569420  1.0  -0.0664
  C  C143  1  0.006800  0.235470  0.616610  1.0  -0.0688
  C  C144  1  0.960300  0.310710  0.589630  1.0  -0.0563
  C  C145  1  0.962500  0.334770  0.511730  1.0  -0.1663
  C  C146  1  0.009300  0.280880  0.462880  1.0  -0.0474
  C  C147  1  0.886300  0.611370  0.274430  1.0  0.1796
  C  C148  1  0.925500  0.542980  0.316620  1.0  -0.288
  C  C149  1  0.892000  0.519260  0.379180  1.0  0.3173
  C  C150  1  0.821500  0.569790  0.396330  1.0  -0.2669
  C  C151  1  0.787300  0.637870  0.351770  1.0  0.1957
  C  C152  1  0.912700  0.416530  0.485350  1.0  0.5433
  C  C153  1  0.392200  0.891000  0.106600  1.0  -0.0984
  C  C154  1  0.486600  0.959200  0.009200  1.0  -0.0021
  C  C155  1  0.395000  0.970300  0.988900  1.0  -0.1221
  C  C156  1  0.351400  0.931700  0.033700  1.0  -0.0916
  C  C157  1  0.678560  0.836050  0.314350  1.0  0.6391
  C  C158  1  0.625000  0.882960  0.369600  1.0  -0.1327
  C  C159  1  0.538200  0.881810  0.360910  1.0  -0.0413
  C  C160  1  0.489870  0.928440  0.410960  1.0  -0.1127
  C  C161  1  0.526570  0.974530  0.473090  1.0  0.0211
  C  C162  1  0.613300  0.973580  0.481180  1.0  -0.1126
  C  C163  1  0.662400  0.929000  0.430600  1.0  -0.0694
  C  C164  1  0.838700  0.841780  0.144780  1.0  0.6314
  C  C165  1  0.976200  0.877060  0.120440  1.0  -0.067
  C  C166  1  0.020100  0.921260  0.080420  1.0  -0.0974
  C  C167  1  0.661100  0.645600  0.126400  1.0  0.2032
  C  C168  1  0.727400  0.700670  0.043970  1.0  0.188
  C  C169  1  0.694900  0.656340  0.978660  1.0  -0.2551
  C  C170  1  0.641900  0.604110  0.989250  1.0  0.3038
  C  C171  1  0.623300  0.602300  0.066500  1.0  -0.2832
  C  C172  1  0.594300  0.566760  0.848280  1.0  0.5569
  C  C173  1  0.549900  0.509120  0.794860  1.0  -0.129
  C  C174  1  0.549800  0.430580  0.816020  1.0  -0.0657
  C  C175  1  0.506800  0.383390  0.764530  1.0  -0.0682
  C  C176  1  0.460300  0.410370  0.689290  1.0  -0.0556
  C  C177  1  0.462500  0.488270  0.665230  1.0  -0.1685
  C  C178  1  0.509300  0.537120  0.719120  1.0  -0.0444
  C  C179  1  0.386300  0.725570  0.388630  1.0  0.1815
  C  C180  1  0.425500  0.683380  0.457020  1.0  -0.2871
  C  C181  1  0.392000  0.620820  0.480740  1.0  0.3177
  C  C182  1  0.321500  0.603670  0.430210  1.0  -0.2688
  C  C183  1  0.287300  0.648230  0.362130  1.0  0.1968
  C  C184  1  0.412700  0.514650  0.583470  1.0  0.5413
  C  C185  1  0.892200  0.893400  0.109000  1.0  -0.0987
  C  C186  1  0.986600  0.990800  0.040800  1.0  -0.0002
  C  C187  1  0.895000  0.011100  0.029700  1.0  -0.1226
  C  C188  1  0.851400  0.966300  0.068300  1.0  -0.092
  C  C189  1  0.821440  0.314350  0.836050  1.0  0.6362
  C  C190  1  0.875000  0.369600  0.882960  1.0  -0.1298
  C  C191  1  0.961800  0.360910  0.881810  1.0  -0.0427
  C  C192  1  0.010130  0.410960  0.928440  1.0  -0.1127
  C  C193  1  0.973430  0.473090  0.974530  1.0  0.0217
  C  C194  1  0.886700  0.481180  0.973580  1.0  -0.1145
  C  C195  1  0.837600  0.430600  0.929000  1.0  -0.0702
  C  C196  1  0.661300  0.144780  0.841780  1.0  0.6295
  C  C197  1  0.523800  0.120440  0.877060  1.0  -0.0679
  C  C198  1  0.479900  0.080420  0.921260  1.0  -0.098
  C  C199  1  0.838900  0.126400  0.645600  1.0  0.2011
  C  C200  1  0.772600  0.043970  0.700670  1.0  0.1896
  C  C201  1  0.805100  0.978660  0.656340  1.0  -0.2592
  C  C202  1  0.858100  0.989250  0.604110  1.0  0.3007
  C  C203  1  0.876700  0.066500  0.602300  1.0  -0.2793
  C  C204  1  0.905700  0.848280  0.566760  1.0  0.5637
  C  C205  1  0.950100  0.794860  0.509120  1.0  -0.1271
  C  C206  1  0.950200  0.816020  0.430580  1.0  -0.0672
  C  C207  1  0.993200  0.764530  0.383390  1.0  -0.0689
  C  C208  1  0.039700  0.689290  0.410370  1.0  -0.0577
  C  C209  1  0.037500  0.665230  0.488270  1.0  -0.1662
  C  C210  1  0.990700  0.719120  0.537120  1.0  -0.0494
  C  C211  1  0.113700  0.388630  0.725570  1.0  0.1813
  C  C212  1  0.074500  0.457020  0.683380  1.0  -0.2912
  C  C213  1  0.108000  0.480740  0.620820  1.0  0.3175
  C  C214  1  0.178500  0.430210  0.603670  1.0  -0.2668
  C  C215  1  0.212700  0.362130  0.648230  1.0  0.1948
  C  C216  1  0.087300  0.583470  0.514650  1.0  0.5417
  C  C217  1  0.607800  0.109000  0.893400  1.0  -0.0962
  C  C218  1  0.513400  0.040800  0.990800  1.0  0.0025
  C  C219  1  0.605000  0.029700  0.011100  1.0  -0.1231
  C  C220  1  0.648600  0.068300  0.966300  1.0  -0.09
  N  N221  1  0.288180  0.303450  0.881870  1.0  -0.3474
  N  N222  1  0.395700  0.444280  0.070780  1.0  -0.4324
  N  N223  1  0.682980  0.290790  0.660450  1.0  -0.3627
  N  N224  1  0.569300  0.418050  0.446910  1.0  -0.4305
  N  N225  1  0.211820  0.881870  0.303450  1.0  -0.346
  N  N226  1  0.104300  0.070780  0.444280  1.0  -0.4295
  N  N227  1  0.817020  0.660450  0.290790  1.0  -0.3644
  N  N228  1  0.930700  0.446910  0.418050  1.0  -0.4305
  N  N229  1  0.711820  0.696550  0.118130  1.0  -0.3451
  N  N230  1  0.604300  0.555720  0.929220  1.0  -0.4316
  N  N231  1  0.317020  0.709210  0.339550  1.0  -0.3654
  N  N232  1  0.430700  0.581950  0.553090  1.0  -0.4305
  N  N233  1  0.788180  0.118130  0.696550  1.0  -0.345
  N  N234  1  0.895700  0.929220  0.555720  1.0  -0.4305
  N  N235  1  0.182980  0.339550  0.709210  1.0  -0.3623
  N  N236  1  0.069300  0.553090  0.581950  1.0  -0.4306
  O  O237  1  0.353980  0.213820  0.735040  1.0  -0.5752
  O  O238  1  0.247070  0.152750  0.684250  1.0  -0.5584
  O  O239  1  0.122790  0.219870  0.815830  1.0  -0.5627
  O  O240  1  0.241130  0.134830  0.861170  1.0  -0.5545
  O  O241  1  0.382200  0.378910  0.180070  1.0  -0.4793
  O  O242  1  0.639800  0.521040  0.452700  1.0  -0.4716
  O  O243  1  0.146020  0.735040  0.213820  1.0  -0.5765
  O  O244  1  0.252930  0.684250  0.152750  1.0  -0.5556
  O  O245  1  0.377210  0.815830  0.219870  1.0  -0.5624
  O  O246  1  0.258870  0.861170  0.134830  1.0  -0.5558
  O  O247  1  0.117800  0.180070  0.378910  1.0  -0.4777
  O  O248  1  0.860200  0.452700  0.521040  1.0  -0.4711
  O  O249  1  0.646020  0.786180  0.264960  1.0  -0.5761
  O  O250  1  0.752930  0.847250  0.315750  1.0  -0.5563
  O  O251  1  0.877210  0.780130  0.184170  1.0  -0.5616
  O  O252  1  0.758870  0.865170  0.138830  1.0  -0.5544
  O  O253  1  0.617800  0.621090  0.819930  1.0  -0.4777
  O  O254  1  0.360200  0.478960  0.547300  1.0  -0.4703
  O  O255  1  0.853980  0.264960  0.786180  1.0  -0.5769
  O  O256  1  0.747070  0.315750  0.847250  1.0  -0.5572
  O  O257  1  0.622790  0.184170  0.780130  1.0  -0.5629
  O  O258  1  0.741130  0.138830  0.865170  1.0  -0.5557
  O  O259  1  0.882200  0.819930  0.621090  1.0  -0.4756
  O  O260  1  0.139800  0.547300  0.478960  1.0  -0.4691
