# generated using pymatgen
data_CoH20C30(N2O3)2
_symmetry_space_group_name_H-M   'P 1'
_cell_length_a   15.10560000
_cell_length_b   15.10560000
_cell_length_c   16.13640000
_cell_angle_alpha   85.64840000
_cell_angle_beta   85.64840000
_cell_angle_gamma   85.62720000
_symmetry_Int_Tables_number   1
_chemical_formula_structural   CoH20C30(N2O3)2
_chemical_formula_sum   'Co4 H80 C120 N16 O24'
_cell_volume   3651.58005076
_cell_formula_units_Z   4
loop_
 _symmetry_equiv_pos_site_id
 _symmetry_equiv_pos_as_xyz
  1  'x, y, z'
loop_
 _atom_site_type_symbol
 _atom_site_label
 _atom_site_symmetry_multiplicity
 _atom_site_fract_x
 _atom_site_fract_y
 _atom_site_fract_z
 _atom_site_occupancy
 _atom_site_charge
  Co  Co1  1  0.801200  0.772340  0.754730  1.0  0.6194
  Co  Co2  1  0.227660  0.198800  0.745270  1.0  0.6195
  Co  Co3  1  0.198800  0.227660  0.245270  1.0  0.6159
  Co  Co4  1  0.772340  0.801200  0.254730  1.0  0.6188
  H  H5  1  0.526900  0.075500  0.575500  1.0  0.3022
  H  H6  1  0.614600  0.417800  0.404600  1.0  0.3124
  H  H7  1  0.892700  0.928700  0.117800  1.0  0.1148
  H  H8  1  0.834600  0.856200  0.017200  1.0  0.1015
  H  H9  1  0.005500  0.961300  0.841400  1.0  0.1133
  H  H10  1  0.042900  0.400500  0.633300  1.0  0.0998
  H  H11  1  0.969700  0.504500  0.712400  1.0  0.1063
  H  H12  1  0.902200  0.651600  0.507300  1.0  0.1058
  H  H13  1  0.584600  0.331200  0.505100  1.0  0.1092
  H  H14  1  0.341800  0.377600  0.426800  1.0  0.1097
  H  H15  1  0.298000  0.250400  0.506700  1.0  0.1057
  H  H16  1  0.402300  0.158700  0.575500  1.0  0.1193
  H  H17  1  0.784800  0.981000  0.755400  1.0  0.0811
  H  H18  1  0.698600  0.098800  0.701400  1.0  0.1386
  H  H19  1  0.583500  0.930500  0.576000  1.0  0.1186
  H  H20  1  0.669700  0.818500  0.634300  1.0  0.071
  H  H21  1  0.803900  0.623100  0.339100  1.0  0.0729
  H  H22  1  0.738100  0.498900  0.390500  1.0  0.1404
  H  H23  1  0.514900  0.600300  0.295500  1.0  0.1418
  H  H24  1  0.588700  0.722700  0.245000  1.0  0.0818
  H  H25  1  0.924500  0.473100  0.924500  1.0  0.3009
  H  H26  1  0.582200  0.385400  0.095400  1.0  0.312
  H  H27  1  0.071300  0.107300  0.382200  1.0  0.1146
  H  H28  1  0.143800  0.165400  0.482800  1.0  0.1009
  H  H29  1  0.038700  0.994500  0.658600  1.0  0.1122
  H  H30  1  0.599500  0.957100  0.866700  1.0  0.0996
  H  H31  1  0.495500  0.030300  0.787600  1.0  0.105
  H  H32  1  0.348400  0.097800  0.992700  1.0  0.1051
  H  H33  1  0.668800  0.415400  0.994900  1.0  0.1097
  H  H34  1  0.622400  0.658200  0.073200  1.0  0.1096
  H  H35  1  0.749600  0.702000  0.993300  1.0  0.1053
  H  H36  1  0.841300  0.597700  0.924500  1.0  0.1195
  H  H37  1  0.019000  0.215200  0.744600  1.0  0.0814
  H  H38  1  0.901200  0.301400  0.798600  1.0  0.139
  H  H39  1  0.069500  0.416500  0.924000  1.0  0.1179
  H  H40  1  0.181500  0.330300  0.865700  1.0  0.0701
  H  H41  1  0.376900  0.196100  0.160900  1.0  0.0726
  H  H42  1  0.501100  0.261900  0.109500  1.0  0.1422
  H  H43  1  0.399700  0.485100  0.204500  1.0  0.1355
  H  H44  1  0.277300  0.411300  0.255000  1.0  0.0815
  H  H45  1  0.473100  0.924500  0.424500  1.0  0.3016
  H  H46  1  0.385400  0.582200  0.595400  1.0  0.3118
  H  H47  1  0.107300  0.071300  0.882200  1.0  0.1145
  H  H48  1  0.165400  0.143800  0.982800  1.0  0.1014
  H  H49  1  0.994500  0.038700  0.158600  1.0  0.1137
  H  H50  1  0.957100  0.599500  0.366700  1.0  0.0997
  H  H51  1  0.030300  0.495500  0.287600  1.0  0.1055
  H  H52  1  0.097800  0.348400  0.492700  1.0  0.1079
  H  H53  1  0.415400  0.668800  0.494900  1.0  0.1083
  H  H54  1  0.658200  0.622400  0.573200  1.0  0.1098
  H  H55  1  0.702000  0.749600  0.493300  1.0  0.1057
  H  H56  1  0.597700  0.841300  0.424500  1.0  0.1196
  H  H57  1  0.215200  0.019000  0.244600  1.0  0.0813
  H  H58  1  0.301400  0.901200  0.298600  1.0  0.1356
  H  H59  1  0.416500  0.069500  0.424000  1.0  0.1181
  H  H60  1  0.330300  0.181500  0.365700  1.0  0.07
  H  H61  1  0.196100  0.376900  0.660900  1.0  0.0725
  H  H62  1  0.261900  0.501100  0.609500  1.0  0.1449
  H  H63  1  0.485100  0.399700  0.704500  1.0  0.14
  H  H64  1  0.411300  0.277300  0.755000  1.0  0.0814
  H  H65  1  0.075500  0.526900  0.075500  1.0  0.3019
  H  H66  1  0.417800  0.614600  0.904600  1.0  0.3112
  H  H67  1  0.928700  0.892700  0.617800  1.0  0.1152
  H  H68  1  0.856200  0.834600  0.517200  1.0  0.1014
  H  H69  1  0.961300  0.005500  0.341400  1.0  0.1136
  H  H70  1  0.400500  0.042900  0.133300  1.0  0.0995
  H  H71  1  0.504500  0.969700  0.212400  1.0  0.1056
  H  H72  1  0.651600  0.902200  0.007300  1.0  0.1073
  H  H73  1  0.331200  0.584600  0.005100  1.0  0.1086
  H  H74  1  0.377600  0.341800  0.926800  1.0  0.1097
  H  H75  1  0.250400  0.298000  0.006700  1.0  0.1057
  H  H76  1  0.158700  0.402300  0.075500  1.0  0.1199
  H  H77  1  0.981000  0.784800  0.255400  1.0  0.081
  H  H78  1  0.098800  0.698600  0.201400  1.0  0.1392
  H  H79  1  0.930500  0.583500  0.076000  1.0  0.1183
  H  H80  1  0.818500  0.669700  0.134300  1.0  0.0704
  H  H81  1  0.623100  0.803900  0.839100  1.0  0.0722
  H  H82  1  0.498900  0.738100  0.890500  1.0  0.1426
  H  H83  1  0.600300  0.514900  0.795500  1.0  0.1361
  H  H84  1  0.722700  0.588700  0.745000  1.0  0.0815
  C  C85  1  0.878300  0.853300  0.853800  1.0  0.6352
  C  C86  1  0.914600  0.936800  0.062500  1.0  -0.116
  C  C87  1  0.880900  0.892900  0.002900  1.0  -0.0413
  C  C88  1  0.916400  0.902800  0.918700  1.0  -0.1552
  C  C89  1  0.982500  0.956100  0.896500  1.0  -0.0918
  C  C90  1  0.018300  0.006300  0.959300  1.0  0.0263
  C  C91  1  0.880700  0.656900  0.669400  1.0  0.6236
  C  C92  1  0.015700  0.451300  0.607200  1.0  -0.1129
  C  C93  1  0.971700  0.512900  0.654600  1.0  -0.0569
  C  C94  1  0.929000  0.589400  0.616300  1.0  -0.1196
  C  C95  1  0.931600  0.601200  0.532200  1.0  -0.0785
  C  C96  1  0.978300  0.537900  0.481400  1.0  0.0397
  C  C97  1  0.572600  0.183600  0.596600  1.0  0.5246
  C  C98  1  0.491300  0.449100  0.406700  1.0  0.5316
  C  C99  1  0.501900  0.235900  0.547900  1.0  -0.1095
  C  C100  1  0.527100  0.313900  0.502900  1.0  -0.0683
  C  C101  1  0.468700  0.364900  0.456200  1.0  -0.1438
  C  C102  1  0.382800  0.342200  0.457200  1.0  -0.0382
  C  C103  1  0.356800  0.265200  0.504400  1.0  -0.0692
  C  C104  1  0.418500  0.211500  0.547200  1.0  -0.0621
  C  C105  1  0.741900  0.970100  0.719800  1.0  0.1797
  C  C106  1  0.690600  0.041600  0.687100  1.0  -0.2576
  C  C107  1  0.627700  0.028100  0.633400  1.0  0.3136
  C  C108  1  0.623200  0.943000  0.614200  1.0  -0.2775
  C  C109  1  0.675200  0.876000  0.649300  1.0  0.1755
  C  C110  1  0.744400  0.619000  0.330000  1.0  0.1774
  C  C111  1  0.705100  0.544500  0.362200  1.0  -0.2848
  C  C112  1  0.616600  0.537400  0.352400  1.0  0.3079
  C  C113  1  0.574000  0.603800  0.306300  1.0  -0.2604
  C  C114  1  0.619400  0.677200  0.275400  1.0  0.1868
  C  C115  1  0.146700  0.121700  0.646200  1.0  0.6355
  C  C116  1  0.063200  0.085400  0.437500  1.0  -0.1141
  C  C117  1  0.107100  0.119100  0.497100  1.0  -0.0411
  C  C118  1  0.097200  0.083600  0.581300  1.0  -0.1569
  C  C119  1  0.043900  0.017500  0.603500  1.0  -0.0888
  C  C120  1  0.993700  0.981700  0.540700  1.0  0.0235
  C  C121  1  0.343100  0.119300  0.830600  1.0  0.6216
  C  C122  1  0.548700  0.984300  0.892800  1.0  -0.1128
  C  C123  1  0.487100  0.028300  0.845400  1.0  -0.0575
  C  C124  1  0.410600  0.071000  0.883700  1.0  -0.1186
  C  C125  1  0.398800  0.068400  0.967800  1.0  -0.0769
  C  C126  1  0.462100  0.021700  0.018600  1.0  0.0407
  C  C127  1  0.816400  0.427400  0.903400  1.0  0.5195
  C  C128  1  0.550900  0.508700  0.093300  1.0  0.5278
  C  C129  1  0.764100  0.498100  0.952100  1.0  -0.1094
  C  C130  1  0.686100  0.472900  0.997100  1.0  -0.0597
  C  C131  1  0.635100  0.531300  0.043800  1.0  -0.1414
  C  C132  1  0.657800  0.617200  0.042800  1.0  -0.04
  C  C133  1  0.734800  0.643200  0.995600  1.0  -0.0665
  C  C134  1  0.788500  0.581500  0.952800  1.0  -0.0599
  C  C135  1  0.029900  0.258100  0.780200  1.0  0.1815
  C  C136  1  0.958400  0.309400  0.812900  1.0  -0.2508
  C  C137  1  0.971900  0.372300  0.866600  1.0  0.3132
  C  C138  1  0.057000  0.376800  0.885800  1.0  -0.2751
  C  C139  1  0.124000  0.324800  0.850700  1.0  0.1734
  C  C140  1  0.381000  0.255600  0.170000  1.0  0.1799
  C  C141  1  0.455500  0.294900  0.137800  1.0  -0.2875
  C  C142  1  0.462600  0.383400  0.147600  1.0  0.3072
  C  C143  1  0.396200  0.426000  0.193700  1.0  -0.2571
  C  C144  1  0.322800  0.380600  0.224600  1.0  0.1867
  C  C145  1  0.121700  0.146700  0.146200  1.0  0.6359
  C  C146  1  0.085400  0.063200  0.937500  1.0  -0.1052
  C  C147  1  0.119100  0.107100  0.997100  1.0  -0.041
  C  C148  1  0.083600  0.097200  0.081300  1.0  -0.1553
  C  C149  1  0.017500  0.043900  0.103500  1.0  -0.09
  C  C150  1  0.981700  0.993700  0.040700  1.0  0.0261
  C  C151  1  0.119300  0.343100  0.330600  1.0  0.6239
  C  C152  1  0.984300  0.548700  0.392800  1.0  -0.1038
  C  C153  1  0.028300  0.487100  0.345400  1.0  -0.0585
  C  C154  1  0.071000  0.410600  0.383700  1.0  -0.1196
  C  C155  1  0.068400  0.398800  0.467800  1.0  -0.0763
  C  C156  1  0.021700  0.462100  0.518600  1.0  0.04
  C  C157  1  0.427400  0.816400  0.403400  1.0  0.5245
  C  C158  1  0.508700  0.550900  0.593300  1.0  0.5316
  C  C159  1  0.498100  0.764100  0.452100  1.0  -0.1116
  C  C160  1  0.472900  0.686100  0.497100  1.0  -0.0561
  C  C161  1  0.531300  0.635100  0.543800  1.0  -0.1377
  C  C162  1  0.617200  0.657800  0.542800  1.0  -0.0379
  C  C163  1  0.643200  0.734800  0.495600  1.0  -0.0692
  C  C164  1  0.581500  0.788500  0.452800  1.0  -0.062
  C  C165  1  0.258100  0.029900  0.280200  1.0  0.1799
  C  C166  1  0.309400  0.958400  0.312900  1.0  -0.2555
  C  C167  1  0.372300  0.971900  0.366600  1.0  0.3129
  C  C168  1  0.376800  0.057000  0.385800  1.0  -0.2757
  C  C169  1  0.324800  0.124000  0.350700  1.0  0.1757
  C  C170  1  0.255600  0.381000  0.670000  1.0  0.1784
  C  C171  1  0.294900  0.455500  0.637800  1.0  -0.2877
  C  C172  1  0.383400  0.462600  0.647600  1.0  0.3078
  C  C173  1  0.426000  0.396200  0.693700  1.0  -0.2587
  C  C174  1  0.380600  0.322800  0.724600  1.0  0.1881
  C  C175  1  0.853300  0.878300  0.353800  1.0  0.6345
  C  C176  1  0.936800  0.914600  0.562500  1.0  -0.1061
  C  C177  1  0.892900  0.880900  0.502900  1.0  -0.0411
  C  C178  1  0.902800  0.916400  0.418700  1.0  -0.156
  C  C179  1  0.956100  0.982500  0.396500  1.0  -0.0893
  C  C180  1  0.006300  0.018300  0.459300  1.0  0.0245
  C  C181  1  0.656900  0.880700  0.169400  1.0  0.6213
  C  C182  1  0.451300  0.015700  0.107200  1.0  -0.1023
  C  C183  1  0.512900  0.971700  0.154600  1.0  -0.0597
  C  C184  1  0.589400  0.929000  0.116300  1.0  -0.1187
  C  C185  1  0.601200  0.931600  0.032200  1.0  -0.076
  C  C186  1  0.537900  0.978300  0.981400  1.0  0.0405
  C  C187  1  0.183600  0.572600  0.096600  1.0  0.5195
  C  C188  1  0.449100  0.491300  0.906700  1.0  0.5289
  C  C189  1  0.235900  0.501900  0.047900  1.0  -0.1103
  C  C190  1  0.313900  0.527100  0.002900  1.0  -0.0603
  C  C191  1  0.364900  0.468700  0.956200  1.0  -0.1434
  C  C192  1  0.342200  0.382800  0.957200  1.0  -0.0406
  C  C193  1  0.265200  0.356800  0.004400  1.0  -0.0674
  C  C194  1  0.211500  0.418500  0.047200  1.0  -0.0607
  C  C195  1  0.970100  0.741900  0.219800  1.0  0.1818
  C  C196  1  0.041600  0.690600  0.187100  1.0  -0.2556
  C  C197  1  0.028100  0.627700  0.133400  1.0  0.3127
  C  C198  1  0.943000  0.623200  0.114200  1.0  -0.2774
  C  C199  1  0.876000  0.675200  0.149300  1.0  0.1743
  C  C200  1  0.619000  0.744400  0.830000  1.0  0.1793
  C  C201  1  0.544500  0.705100  0.862200  1.0  -0.2893
  C  C202  1  0.537400  0.616600  0.852400  1.0  0.3078
  C  C203  1  0.603800  0.574000  0.806300  1.0  -0.257
  C  C204  1  0.677200  0.619400  0.775400  1.0  0.1864
  N  N205  1  0.733900  0.887500  0.703900  1.0  -0.3001
  N  N206  1  0.570400  0.094200  0.599000  1.0  -0.4087
  N  N207  1  0.703600  0.686000  0.286700  1.0  -0.3266
  N  N208  1  0.578100  0.461900  0.390100  1.0  -0.4178
  N  N209  1  0.112500  0.266100  0.796100  1.0  -0.3017
  N  N210  1  0.905800  0.429600  0.901000  1.0  -0.4093
  N  N211  1  0.314000  0.296400  0.213300  1.0  -0.3265
  N  N212  1  0.538100  0.421900  0.109900  1.0  -0.4163
  N  N213  1  0.266100  0.112500  0.296100  1.0  -0.3013
  N  N214  1  0.429600  0.905800  0.401000  1.0  -0.4082
  N  N215  1  0.296400  0.314000  0.713300  1.0  -0.3256
  N  N216  1  0.421900  0.538100  0.609900  1.0  -0.4154
  N  N217  1  0.887500  0.733900  0.203900  1.0  -0.3017
  N  N218  1  0.094200  0.570400  0.099000  1.0  -0.4087
  N  N219  1  0.686000  0.703600  0.786700  1.0  -0.3276
  N  N220  1  0.461900  0.578100  0.890100  1.0  -0.417
  O  O221  1  0.913500  0.849300  0.782000  1.0  -0.5439
  O  O222  1  0.806600  0.816400  0.873800  1.0  -0.5259
  O  O223  1  0.886700  0.650500  0.747400  1.0  -0.5554
  O  O224  1  0.833000  0.719200  0.637700  1.0  -0.5246
  O  O225  1  0.627600  0.220800  0.632600  1.0  -0.4707
  O  O226  1  0.433300  0.503700  0.382600  1.0  -0.4894
  O  O227  1  0.150700  0.086500  0.718000  1.0  -0.5438
  O  O228  1  0.183600  0.193400  0.626200  1.0  -0.5269
  O  O229  1  0.349500  0.113300  0.752600  1.0  -0.5518
  O  O230  1  0.280800  0.167000  0.862300  1.0  -0.5205
  O  O231  1  0.779200  0.372400  0.867400  1.0  -0.4702
  O  O232  1  0.496300  0.566700  0.117400  1.0  -0.4906
  O  O233  1  0.086500  0.150700  0.218000  1.0  -0.5437
  O  O234  1  0.193400  0.183600  0.126200  1.0  -0.5266
  O  O235  1  0.113300  0.349500  0.252600  1.0  -0.5532
  O  O236  1  0.167000  0.280800  0.362300  1.0  -0.5209
  O  O237  1  0.372400  0.779200  0.367400  1.0  -0.4727
  O  O238  1  0.566700  0.496300  0.617400  1.0  -0.4899
  O  O239  1  0.849300  0.913500  0.282000  1.0  -0.5433
  O  O240  1  0.816400  0.806600  0.373800  1.0  -0.5274
  O  O241  1  0.650500  0.886700  0.247400  1.0  -0.5526
  O  O242  1  0.719200  0.833000  0.137700  1.0  -0.5204
  O  O243  1  0.220800  0.627600  0.132600  1.0  -0.47
  O  O244  1  0.503700  0.433300  0.882600  1.0  -0.4898
