# generated using pymatgen
data_Nd3H11(C17O10)2
_symmetry_space_group_name_H-M   'P 1'
_cell_length_a   9.39800000
_cell_length_b   15.30700000
_cell_length_c   16.75100000
_cell_angle_alpha   68.75600000
_cell_angle_beta   79.32200000
_cell_angle_gamma   89.27600000
_symmetry_Int_Tables_number   1
_chemical_formula_structural   Nd3H11(C17O10)2
_chemical_formula_sum   'Nd6 H22 C68 O40'
_cell_volume   2203.16558830
_cell_formula_units_Z   2
loop_
 _symmetry_equiv_pos_site_id
 _symmetry_equiv_pos_as_xyz
  1  'x, y, z'
loop_
 _atom_site_type_symbol
 _atom_site_label
 _atom_site_symmetry_multiplicity
 _atom_site_fract_x
 _atom_site_fract_y
 _atom_site_fract_z
 _atom_site_occupancy
 _atom_site_charge
  Nd  Nd1  1  0.000580  0.822580  0.109120  1.0  2.1488
  Nd  Nd2  1  0.415560  0.328230  0.107910  1.0  2.2736
  Nd  Nd3  1  0.116380  0.261220  0.521650  1.0  2.1049
  Nd  Nd4  1  0.999420  0.177420  0.890880  1.0  2.1478
  Nd  Nd5  1  0.584440  0.671770  0.892090  1.0  2.2752
  Nd  Nd6  1  0.883620  0.738780  0.478350  1.0  2.1039
  H  H7  1  0.787200  0.987500  0.542500  1.0  0.3678
  H  H8  1  0.638400  0.009500  0.115400  1.0  0.1069
  H  H9  1  0.234000  0.997200  0.250000  1.0  0.1056
  H  H10  1  0.490000  0.726100  0.120900  1.0  0.1058
  H  H11  1  0.360200  0.463800  0.287800  1.0  0.1038
  H  H12  1  0.316700  0.679400  0.372300  1.0  0.1122
  H  H13  1  0.087500  0.485100  0.255300  1.0  0.0987
  H  H14  1  0.781300  0.515900  0.111100  1.0  0.1113
  H  H15  1  0.937700  0.223400  0.116600  1.0  0.1041
  H  H16  1  0.900700  0.959300  0.291100  1.0  0.1094
  H  H17  1  0.873400  0.175400  0.373400  1.0  0.1076
  H  H18  1  0.212800  0.012500  0.457500  1.0  0.3686
  H  H19  1  0.361600  0.990500  0.884600  1.0  0.1069
  H  H20  1  0.766000  0.002800  0.750000  1.0  0.1052
  H  H21  1  0.510000  0.273900  0.879100  1.0  0.1063
  H  H22  1  0.639800  0.536200  0.712200  1.0  0.1042
  H  H23  1  0.683300  0.320600  0.627700  1.0  0.1131
  H  H24  1  0.912500  0.514900  0.744700  1.0  0.0983
  H  H25  1  0.218700  0.484100  0.888900  1.0  0.1114
  H  H26  1  0.062300  0.776600  0.883400  1.0  0.1042
  H  H27  1  0.099300  0.040700  0.708900  1.0  0.1091
  H  H28  1  0.126600  0.824600  0.626600  1.0  0.1073
  C  C29  1  0.149400  0.824600  0.291100  1.0  0.7066
  C  C30  1  0.300500  0.870600  0.250500  1.0  -0.0772
  C  C31  1  0.420300  0.823500  0.224500  1.0  -0.027
  C  C32  1  0.547900  0.877100  0.175300  1.0  -0.0869
  C  C33  1  0.554600  0.974600  0.150700  1.0  -0.0609
  C  C34  1  0.439300  0.019800  0.177900  1.0  -0.142
  C  C35  1  0.311300  0.967400  0.229700  1.0  -0.0467
  C  C36  1  0.687100  0.835600  0.149600  1.0  0.6622
  C  C37  1  0.443800  0.125300  0.151000  1.0  0.7113
  C  C38  1  0.405100  0.719300  0.243400  1.0  -0.0118
  C  C39  1  0.448600  0.684900  0.176600  1.0  -0.0349
  C  C40  1  0.430600  0.589900  0.192400  1.0  -0.1678
  C  C41  1  0.370300  0.527700  0.276800  1.0  -0.0078
  C  C42  1  0.325800  0.560300  0.343500  1.0  -0.1517
  C  C43  1  0.344600  0.657100  0.327200  1.0  -0.0579
  C  C44  1  0.472700  0.550900  0.120800  1.0  0.761
  C  C45  1  0.259700  0.492400  0.433500  1.0  0.6521
  C  C46  1  0.948500  0.621200  0.158100  1.0  0.7109
  C  C47  1  0.934800  0.517800  0.180500  1.0  -0.1391
  C  C48  1  0.023400  0.459600  0.232400  1.0  -0.0363
  C  C49  1  0.017000  0.362800  0.250300  1.0  -0.0912
  C  C50  1  0.915200  0.321300  0.221600  1.0  -0.0089
  C  C51  1  0.824400  0.380400  0.170500  1.0  -0.0888
  C  C52  1  0.837900  0.477500  0.148200  1.0  -0.0207
  C  C53  1  0.133100  0.306600  0.294900  1.0  0.7062
  C  C54  1  0.701900  0.341500  0.144500  1.0  0.6475
  C  C55  1  0.908100  0.218200  0.241400  1.0  0.063
  C  C56  1  0.924500  0.182000  0.174300  1.0  -0.0397
  C  C57  1  0.921500  0.087100  0.192100  1.0  -0.1565
  C  C58  1  0.901600  0.023600  0.278600  1.0  -0.0131
  C  C59  1  0.883600  0.058200  0.344700  1.0  -0.1342
  C  C60  1  0.886300  0.153800  0.327400  1.0  -0.0421
  C  C61  1  0.945700  0.048500  0.118900  1.0  0.7286
  C  C62  1  0.859000  0.989800  0.438300  1.0  0.6552
  C  C63  1  0.850600  0.175400  0.708900  1.0  0.7064
  C  C64  1  0.699500  0.129400  0.749500  1.0  -0.0783
  C  C65  1  0.579700  0.176500  0.775500  1.0  -0.0273
  C  C66  1  0.452100  0.122900  0.824700  1.0  -0.0874
  C  C67  1  0.445400  0.025400  0.849300  1.0  -0.0614
  C  C68  1  0.560700  0.980200  0.822100  1.0  -0.1425
  C  C69  1  0.688700  0.032600  0.770300  1.0  -0.0458
  C  C70  1  0.312900  0.164400  0.850400  1.0  0.6611
  C  C71  1  0.556200  0.874700  0.849000  1.0  0.712
  C  C72  1  0.594900  0.280700  0.756600  1.0  -0.0119
  C  C73  1  0.551400  0.315100  0.823400  1.0  -0.0361
  C  C74  1  0.569400  0.410100  0.807600  1.0  -0.1662
  C  C75  1  0.629700  0.472300  0.723200  1.0  -0.0092
  C  C76  1  0.674200  0.439700  0.656500  1.0  -0.1529
  C  C77  1  0.655400  0.342900  0.672800  1.0  -0.0563
  C  C78  1  0.527300  0.449100  0.879200  1.0  0.7624
  C  C79  1  0.740300  0.507600  0.566500  1.0  0.6531
  C  C80  1  0.051500  0.378800  0.841900  1.0  0.7114
  C  C81  1  0.065200  0.482200  0.819500  1.0  -0.141
  C  C82  1  0.976600  0.540400  0.767600  1.0  -0.0355
  C  C83  1  0.983000  0.637200  0.749700  1.0  -0.0914
  C  C84  1  0.084800  0.678700  0.778400  1.0  -0.0086
  C  C85  1  0.175600  0.619600  0.829500  1.0  -0.089
  C  C86  1  0.162100  0.522500  0.851800  1.0  -0.0196
  C  C87  1  0.866900  0.693400  0.705100  1.0  0.7065
  C  C88  1  0.298100  0.658500  0.855500  1.0  0.65
  C  C89  1  0.091900  0.781800  0.758600  1.0  0.064
  C  C90  1  0.075500  0.818000  0.825700  1.0  -0.0382
  C  C91  1  0.078500  0.912900  0.807900  1.0  -0.156
  C  C92  1  0.098400  0.976400  0.721400  1.0  -0.0143
  C  C93  1  0.116400  0.941800  0.655300  1.0  -0.1348
  C  C94  1  0.113700  0.846200  0.672600  1.0  -0.0414
  C  C95  1  0.054300  0.951500  0.881100  1.0  0.7275
  C  C96  1  0.141000  0.010200  0.561700  1.0  0.653
  O  O97  1  0.082200  0.802000  0.242400  1.0  -0.7111
  O  O98  1  0.100200  0.816000  0.367900  1.0  -0.716
  O  O99  1  0.748400  0.864400  0.071100  1.0  -0.624
  O  O100  1  0.747400  0.779100  0.208500  1.0  -0.6703
  O  O101  1  0.532800  0.177400  0.086400  1.0  -0.647
  O  O102  1  0.350100  0.159700  0.194400  1.0  -0.6945
  O  O103  1  0.514100  0.609500  0.045500  1.0  -0.7536
  O  O104  1  0.463000  0.465500  0.139900  1.0  -0.6693
  O  O105  1  0.236500  0.408400  0.439300  1.0  -0.7213
  O  O106  1  0.231900  0.518300  0.495300  1.0  -0.4668
  O  O107  1  0.009200  0.652900  0.203700  1.0  -0.691
  O  O108  1  0.907300  0.676100  0.090700  1.0  -0.6468
  O  O109  1  0.248900  0.304200  0.247100  1.0  -0.6971
  O  O110  1  0.106200  0.264800  0.376200  1.0  -0.7446
  O  O111  1  0.691500  0.370600  0.065000  1.0  -0.6357
  O  O112  1  0.607200  0.287000  0.202900  1.0  -0.6205
  O  O113  1  0.984300  0.107000  0.043200  1.0  -0.7553
  O  O114  1  0.928500  0.961500  0.139000  1.0  -0.7304
  O  O115  1  0.824300  0.027800  0.495600  1.0  -0.5038
  O  O116  1  0.868500  0.906100  0.456000  1.0  -0.6192
  O  O117  1  0.917800  0.198000  0.757600  1.0  -0.7118
  O  O118  1  0.899800  0.184000  0.632100  1.0  -0.7166
  O  O119  1  0.251600  0.135600  0.928900  1.0  -0.6236
  O  O120  1  0.252600  0.220900  0.791500  1.0  -0.6697
  O  O121  1  0.467200  0.822600  0.913600  1.0  -0.6446
  O  O122  1  0.649900  0.840300  0.805600  1.0  -0.6962
  O  O123  1  0.485900  0.390500  0.954500  1.0  -0.7529
  O  O124  1  0.537000  0.534500  0.860100  1.0  -0.6711
  O  O125  1  0.763500  0.591600  0.560700  1.0  -0.724
  O  O126  1  0.768100  0.481700  0.504700  1.0  -0.4659
  O  O127  1  0.990800  0.347100  0.796300  1.0  -0.6921
  O  O128  1  0.092700  0.323900  0.909300  1.0  -0.6453
  O  O129  1  0.751100  0.695800  0.752900  1.0  -0.6988
  O  O130  1  0.893800  0.735200  0.623800  1.0  -0.7466
  O  O131  1  0.308500  0.629400  0.935000  1.0  -0.6365
  O  O132  1  0.392800  0.713000  0.797100  1.0  -0.6219
  O  O133  1  0.015700  0.893000  0.956800  1.0  -0.7567
  O  O134  1  0.071500  0.038500  0.861000  1.0  -0.7306
  O  O135  1  0.175700  0.972200  0.504400  1.0  -0.5052
  O  O136  1  0.131500  0.093900  0.544000  1.0  -0.6171
