# generated using pymatgen
data_Pr3H11(C17O10)2
_symmetry_space_group_name_H-M   'P 1'
_cell_length_a   9.41700000
_cell_length_b   15.28900000
_cell_length_c   16.75000000
_cell_angle_alpha   68.97800000
_cell_angle_beta   79.29100000
_cell_angle_gamma   89.35900000
_symmetry_Int_Tables_number   1
_chemical_formula_structural   Pr3H11(C17O10)2
_chemical_formula_sum   'Pr6 H22 C68 O40'
_cell_volume   2207.84165252
_cell_formula_units_Z   2
loop_
 _symmetry_equiv_pos_site_id
 _symmetry_equiv_pos_as_xyz
  1  'x, y, z'
loop_
 _atom_site_type_symbol
 _atom_site_label
 _atom_site_symmetry_multiplicity
 _atom_site_fract_x
 _atom_site_fract_y
 _atom_site_fract_z
 _atom_site_occupancy
 _atom_site_charge
  Pr  Pr1  1  0.083830  0.172150  0.892280  1.0  2.1956
  Pr  Pr2  1  0.383270  0.238490  0.478170  1.0  1.9966
  Pr  Pr3  1  0.500940  0.322360  0.109050  1.0  2.0958
  Pr  Pr4  1  0.916170  0.827850  0.107720  1.0  2.1941
  Pr  Pr5  1  0.616730  0.761510  0.521830  1.0  1.997
  Pr  Pr6  1  0.499060  0.677640  0.890950  1.0  2.0947
  H  H7  1  0.703600  0.511100  0.457200  1.0  0.3825
  H  H8  1  0.717300  0.985500  0.888400  1.0  0.1149
  H  H9  1  0.411100  0.016100  0.744400  1.0  0.1069
  H  H10  1  0.625500  0.324200  0.626500  1.0  0.1117
  H  H11  1  0.597800  0.539600  0.709400  1.0  0.1033
  H  H12  1  0.560700  0.277500  0.883600  1.0  0.1109
  H  H13  1  0.136300  0.508100  0.112900  1.0  0.1119
  H  H14  1  0.734300  0.495700  0.249300  1.0  0.1085
  H  H15  1  0.986300  0.226500  0.121400  1.0  0.1129
  H  H16  1  0.856700  0.965300  0.287300  1.0  0.0999
  H  H17  1  0.819300  0.179200  0.371600  1.0  0.1152
  H  H18  1  0.296400  0.488900  0.542800  1.0  0.3821
  H  H19  1  0.282700  0.014500  0.111600  1.0  0.1147
  H  H20  1  0.588900  0.983900  0.255600  1.0  0.1072
  H  H21  1  0.374500  0.675800  0.373500  1.0  0.1121
  H  H22  1  0.402200  0.460400  0.290600  1.0  0.1033
  H  H23  1  0.439300  0.722500  0.116400  1.0  0.1099
  H  H24  1  0.863700  0.491900  0.887100  1.0  0.1117
  H  H25  1  0.265700  0.504300  0.750700  1.0  0.109
  H  H26  1  0.013700  0.773500  0.878600  1.0  0.1131
  H  H27  1  0.143300  0.034700  0.712700  1.0  0.1003
  H  H28  1  0.180700  0.820800  0.628400  1.0  0.1162
  C  C29  1  0.365400  0.193400  0.704500  1.0  0.6957
  C  C30  1  0.481600  0.137400  0.749900  1.0  -0.0878
  C  C31  1  0.583300  0.179300  0.778300  1.0  -0.0042
  C  C32  1  0.674800  0.119800  0.829300  1.0  -0.0769
  C  C33  1  0.661000  0.023800  0.851300  1.0  -0.0481
  C  C34  1  0.564300  0.982900  0.818900  1.0  -0.1376
  C  C35  1  0.475400  0.041600  0.767400  1.0  -0.031
  C  C36  1  0.794500  0.158300  0.855000  1.0  0.6435
  C  C37  1  0.551400  0.879000  0.843200  1.0  0.74
  C  C38  1  0.590300  0.282000  0.758700  1.0  0.0589
  C  C39  1  0.612500  0.346300  0.672200  1.0  -0.067
  C  C40  1  0.615300  0.441000  0.654400  1.0  -0.1479
  C  C41  1  0.596600  0.475100  0.722100  1.0  -0.0028
  C  C42  1  0.576300  0.414500  0.808000  1.0  -0.1721
  C  C43  1  0.573700  0.318600  0.825900  1.0  -0.0492
  C  C44  1  0.639500  0.509700  0.563500  1.0  0.6381
  C  C45  1  0.554600  0.450300  0.880800  1.0  0.7489
  C  C46  1  0.649000  0.324800  0.291200  1.0  0.6797
  C  C47  1  0.801200  0.369900  0.250000  1.0  -0.0844
  C  C48  1  0.918600  0.322000  0.224100  1.0  0.0108
  C  C49  1  0.048200  0.376600  0.175400  1.0  -0.0717
  C  C50  1  0.053700  0.473400  0.149800  1.0  -0.0427
  C  C51  1  0.938700  0.520400  0.177900  1.0  -0.1231
  C  C52  1  0.812200  0.466400  0.229100  1.0  -0.0311
  C  C53  1  0.186900  0.335900  0.150200  1.0  0.641
  C  C54  1  0.942800  0.624600  0.151200  1.0  0.7336
  C  C55  1  0.905300  0.219200  0.243500  1.0  -0.0233
  C  C56  1  0.947000  0.185000  0.177200  1.0  -0.0569
  C  C57  1  0.931100  0.088500  0.192800  1.0  -0.1695
  C  C58  1  0.869100  0.029200  0.276000  1.0  -0.0094
  C  C59  1  0.825700  0.061800  0.341700  1.0  -0.1561
  C  C60  1  0.845900  0.157200  0.326200  1.0  -0.0531
  C  C61  1  0.971900  0.050500  0.121300  1.0  0.742
  C  C62  1  0.760400  0.991700  0.433300  1.0  0.7057
  C  C63  1  0.634600  0.806600  0.295500  1.0  0.6949
  C  C64  1  0.518400  0.862600  0.250100  1.0  -0.0883
  C  C65  1  0.416700  0.820700  0.221700  1.0  -0.0041
  C  C66  1  0.325200  0.880200  0.170700  1.0  -0.0764
  C  C67  1  0.339000  0.976200  0.148700  1.0  -0.0488
  C  C68  1  0.435700  0.017100  0.181100  1.0  -0.1361
  C  C69  1  0.524600  0.958400  0.232600  1.0  -0.032
  C  C70  1  0.205500  0.841700  0.145000  1.0  0.6422
  C  C71  1  0.448600  0.121000  0.156800  1.0  0.7399
  C  C72  1  0.409700  0.718000  0.241300  1.0  0.058
  C  C73  1  0.387500  0.653700  0.327800  1.0  -0.0667
  C  C74  1  0.384700  0.559000  0.345600  1.0  -0.1478
  C  C75  1  0.403400  0.524900  0.277900  1.0  -0.0036
  C  C76  1  0.423700  0.585500  0.192000  1.0  -0.1733
  C  C77  1  0.426300  0.681400  0.174100  1.0  -0.0499
  C  C78  1  0.360500  0.490300  0.436500  1.0  0.6392
  C  C79  1  0.445400  0.549700  0.119200  1.0  0.7519
  C  C80  1  0.351000  0.675200  0.708800  1.0  0.6781
  C  C81  1  0.198800  0.630100  0.750000  1.0  -0.0859
  C  C82  1  0.081400  0.678000  0.775900  1.0  0.011
  C  C83  1  0.951800  0.623400  0.824600  1.0  -0.0719
  C  C84  1  0.946300  0.526600  0.850200  1.0  -0.0424
  C  C85  1  0.061300  0.479600  0.822100  1.0  -0.1245
  C  C86  1  0.187800  0.533600  0.770900  1.0  -0.0307
  C  C87  1  0.813100  0.664100  0.849800  1.0  0.6398
  C  C88  1  0.057200  0.375400  0.848800  1.0  0.7347
  C  C89  1  0.094700  0.780800  0.756500  1.0  -0.0235
  C  C90  1  0.053000  0.815000  0.822800  1.0  -0.0581
  C  C91  1  0.068900  0.911500  0.807200  1.0  -0.168
  C  C92  1  0.130900  0.970800  0.724000  1.0  -0.0092
  C  C93  1  0.174300  0.938200  0.658300  1.0  -0.1582
  C  C94  1  0.154100  0.842800  0.673800  1.0  -0.0501
  C  C95  1  0.028100  0.949500  0.878700  1.0  0.7404
  C  C96  1  0.239600  0.008300  0.566700  1.0  0.711
  O  O97  1  0.250600  0.195600  0.753200  1.0  -0.6997
  O  O98  1  0.392500  0.235300  0.623600  1.0  -0.7372
  O  O99  1  0.891300  0.213900  0.796700  1.0  -0.6128
  O  O100  1  0.805100  0.128800  0.935300  1.0  -0.6164
  O  O101  1  0.492100  0.848600  0.795700  1.0  -0.6902
  O  O102  1  0.589800  0.826600  0.909300  1.0  -0.6295
  O  O103  1  0.672300  0.470500  0.505000  1.0  -0.5038
  O  O104  1  0.633000  0.593500  0.544000  1.0  -0.5765
  O  O105  1  0.573000  0.538300  0.861800  1.0  -0.7233
  O  O106  1  0.516700  0.392800  0.956900  1.0  -0.7477
  O  O107  1  0.599100  0.316500  0.367100  1.0  -0.6956
  O  O108  1  0.583900  0.301400  0.242700  1.0  -0.6846
  O  O109  1  0.245800  0.278800  0.207700  1.0  -0.6352
  O  O110  1  0.247800  0.364100  0.071200  1.0  -0.6756
  O  O111  1  0.032000  0.675300  0.087300  1.0  -0.6143
  O  O112  1  0.849600  0.658400  0.195000  1.0  -0.695
  O  O113  1  0.013700  0.109800  0.044500  1.0  -0.7426
  O  O114  1  0.964100  0.965500  0.140900  1.0  -0.6472
  O  O115  1  0.735200  0.908800  0.439000  1.0  -0.7313
  O  O116  1  0.734700  0.019400  0.495500  1.0  -0.5023
  O  O117  1  0.749400  0.804400  0.246800  1.0  -0.6985
  O  O118  1  0.607500  0.764700  0.376400  1.0  -0.7356
  O  O119  1  0.108700  0.786100  0.203300  1.0  -0.6136
  O  O120  1  0.194900  0.871200  0.064700  1.0  -0.6156
  O  O121  1  0.507900  0.151400  0.204300  1.0  -0.6909
  O  O122  1  0.410200  0.173400  0.090700  1.0  -0.6312
  O  O123  1  0.327700  0.529500  0.495000  1.0  -0.5035
  O  O124  1  0.367000  0.406500  0.456000  1.0  -0.5781
  O  O125  1  0.427000  0.461700  0.138200  1.0  -0.7235
  O  O126  1  0.483300  0.607200  0.043100  1.0  -0.7457
  O  O127  1  0.400900  0.683500  0.632900  1.0  -0.6951
  O  O128  1  0.416100  0.698600  0.757300  1.0  -0.6846
  O  O129  1  0.754200  0.721200  0.792300  1.0  -0.6321
  O  O130  1  0.752200  0.635900  0.928800  1.0  -0.6753
  O  O131  1  0.968000  0.324700  0.912700  1.0  -0.6114
  O  O132  1  0.150400  0.341600  0.805000  1.0  -0.6954
  O  O133  1  0.986300  0.890200  0.955500  1.0  -0.7428
  O  O134  1  0.035900  0.034500  0.859100  1.0  -0.65
  O  O135  1  0.264800  0.091200  0.561000  1.0  -0.7327
  O  O136  1  0.265300  0.980600  0.504500  1.0  -0.4995
