# generated using pymatgen
data_KNa2Cd3H24(C2O)24
_symmetry_space_group_name_H-M   'P 1'
_cell_length_a   18.98950000
_cell_length_b   28.48100000
_cell_length_c   16.95870000
_cell_angle_alpha   90.00000000
_cell_angle_beta   119.89600000
_cell_angle_gamma   90.00000000
_symmetry_Int_Tables_number   1
_chemical_formula_structural   KNa2Cd3H24(C2O)24
_chemical_formula_sum   'K4 Na8 Cd12 H96 C192 O96'
_cell_volume   7951.44626618
_cell_formula_units_Z   4
loop_
 _symmetry_equiv_pos_site_id
 _symmetry_equiv_pos_as_xyz
  1  'x, y, z'
loop_
 _atom_site_type_symbol
 _atom_site_label
 _atom_site_symmetry_multiplicity
 _atom_site_fract_x
 _atom_site_fract_y
 _atom_site_fract_z
 _atom_site_occupancy
 _atom_site_charge
  K  K1  1  0.500000  0.663010  0.250000  1.0  0.9809
  K  K2  1  0.000000  0.163010  0.250000  1.0  0.9809
  K  K3  1  0.500000  0.336990  0.750000  1.0  0.9812
  K  K4  1  0.000000  0.836990  0.750000  1.0  0.9812
  Na  Na5  1  0.202350  0.608640  0.281820  1.0  0.9686
  Na  Na6  1  0.702350  0.108640  0.281820  1.0  0.9686
  Na  Na7  1  0.797650  0.608640  0.218180  1.0  0.9677
  Na  Na8  1  0.297650  0.108640  0.218180  1.0  0.9677
  Na  Na9  1  0.797650  0.391360  0.718180  1.0  0.9683
  Na  Na10  1  0.297650  0.891360  0.718180  1.0  0.9683
  Na  Na11  1  0.202350  0.391360  0.781820  1.0  0.9691
  Na  Na12  1  0.702350  0.891360  0.781820  1.0  0.9691
  Cd  Cd13  1  0.400330  0.630520  0.372250  1.0  1.0357
  Cd  Cd14  1  0.900330  0.130520  0.372250  1.0  1.0357
  Cd  Cd15  1  0.599670  0.630520  0.127750  1.0  1.0364
  Cd  Cd16  1  0.099670  0.130520  0.127750  1.0  1.0364
  Cd  Cd17  1  0.599670  0.369480  0.627750  1.0  1.0364
  Cd  Cd18  1  0.099670  0.869480  0.627750  1.0  1.0364
  Cd  Cd19  1  0.400330  0.369480  0.872250  1.0  1.0357
  Cd  Cd20  1  0.900330  0.869480  0.872250  1.0  1.0357
  Cd  Cd21  1  0.000000  0.632470  0.250000  1.0  1.0572
  Cd  Cd22  1  0.500000  0.132470  0.250000  1.0  1.0572
  Cd  Cd23  1  0.000000  0.367530  0.750000  1.0  1.0564
  Cd  Cd24  1  0.500000  0.867530  0.750000  1.0  1.0564
  H  H25  1  0.880700  0.762800  0.027100  1.0  0.1137
  H  H26  1  0.283800  0.756600  0.099100  1.0  0.1224
  H  H27  1  0.152900  0.708400  0.210000  1.0  0.1179
  H  H28  1  0.174300  0.802400  0.999000  1.0  0.1238
  H  H29  1  0.250000  0.494000  0.122000  1.0  0.1236
  H  H30  1  0.724500  0.690900  0.076900  1.0  0.1195
  H  H31  1  0.463900  0.505000  0.063900  1.0  0.1175
  H  H32  1  0.453900  0.558100  0.164200  1.0  0.1103
  H  H33  1  0.044500  0.755300  0.110900  1.0  0.1196
  H  H34  1  0.260400  0.441400  0.024400  1.0  0.1177
  H  H35  1  0.888500  0.512000  0.019400  1.0  0.1305
  H  H36  1  0.119300  0.542000  0.085400  1.0  0.117
  H  H37  1  0.380700  0.262800  0.027100  1.0  0.1137
  H  H38  1  0.783800  0.256600  0.099100  1.0  0.1224
  H  H39  1  0.652900  0.208400  0.210000  1.0  0.1179
  H  H40  1  0.674300  0.302400  0.999000  1.0  0.1238
  H  H41  1  0.750000  0.994000  0.122000  1.0  0.1236
  H  H42  1  0.224500  0.190900  0.076900  1.0  0.1195
  H  H43  1  0.963900  0.005000  0.063900  1.0  0.1175
  H  H44  1  0.953900  0.058100  0.164200  1.0  0.1103
  H  H45  1  0.544500  0.255300  0.110900  1.0  0.1196
  H  H46  1  0.760400  0.941400  0.024400  1.0  0.1177
  H  H47  1  0.388500  0.012000  0.019400  1.0  0.1305
  H  H48  1  0.619300  0.042000  0.085400  1.0  0.117
  H  H49  1  0.119300  0.762800  0.472900  1.0  0.1128
  H  H50  1  0.716200  0.756600  0.400900  1.0  0.122
  H  H51  1  0.847100  0.708400  0.290000  1.0  0.1178
  H  H52  1  0.825700  0.802400  0.501000  1.0  0.1238
  H  H53  1  0.750000  0.494000  0.378000  1.0  0.1232
  H  H54  1  0.275500  0.690900  0.423100  1.0  0.1186
  H  H55  1  0.536100  0.505000  0.436100  1.0  0.1177
  H  H56  1  0.546100  0.558100  0.335800  1.0  0.1102
  H  H57  1  0.955500  0.755300  0.389100  1.0  0.1203
  H  H58  1  0.739600  0.441400  0.475600  1.0  0.118
  H  H59  1  0.111500  0.512000  0.480600  1.0  0.1299
  H  H60  1  0.880700  0.542000  0.414600  1.0  0.1169
  H  H61  1  0.619300  0.262800  0.472900  1.0  0.1128
  H  H62  1  0.216200  0.256600  0.400900  1.0  0.122
  H  H63  1  0.347100  0.208400  0.290000  1.0  0.1178
  H  H64  1  0.325700  0.302400  0.501000  1.0  0.1238
  H  H65  1  0.250000  0.994000  0.378000  1.0  0.1232
  H  H66  1  0.775500  0.190900  0.423100  1.0  0.1186
  H  H67  1  0.036100  0.005000  0.436100  1.0  0.1177
  H  H68  1  0.046100  0.058100  0.335800  1.0  0.1102
  H  H69  1  0.455500  0.255300  0.389100  1.0  0.1203
  H  H70  1  0.239600  0.941400  0.475600  1.0  0.118
  H  H71  1  0.611500  0.012000  0.480600  1.0  0.1299
  H  H72  1  0.380700  0.042000  0.414600  1.0  0.1169
  H  H73  1  0.119300  0.237200  0.972900  1.0  0.1132
  H  H74  1  0.716200  0.243400  0.900900  1.0  0.1223
  H  H75  1  0.847100  0.291600  0.790000  1.0  0.1176
  H  H76  1  0.825700  0.197600  0.001000  1.0  0.1237
  H  H77  1  0.750000  0.506000  0.878000  1.0  0.1232
  H  H78  1  0.275500  0.309100  0.923100  1.0  0.1187
  H  H79  1  0.536100  0.495000  0.936100  1.0  0.1178
  H  H80  1  0.546100  0.441900  0.835800  1.0  0.1107
  H  H81  1  0.955500  0.244700  0.889100  1.0  0.1202
  H  H82  1  0.739600  0.558600  0.975600  1.0  0.1179
  H  H83  1  0.111500  0.488000  0.980600  1.0  0.1301
  H  H84  1  0.880700  0.458000  0.914600  1.0  0.1171
  H  H85  1  0.619300  0.737200  0.972900  1.0  0.1132
  H  H86  1  0.216200  0.743400  0.900900  1.0  0.1223
  H  H87  1  0.347100  0.791600  0.790000  1.0  0.1176
  H  H88  1  0.325700  0.697600  0.001000  1.0  0.1237
  H  H89  1  0.250000  0.006000  0.878000  1.0  0.1232
  H  H90  1  0.775500  0.809100  0.923100  1.0  0.1187
  H  H91  1  0.036100  0.995000  0.936100  1.0  0.1178
  H  H92  1  0.046100  0.941900  0.835800  1.0  0.1107
  H  H93  1  0.455500  0.744700  0.889100  1.0  0.1202
  H  H94  1  0.239600  0.058600  0.975600  1.0  0.1179
  H  H95  1  0.611500  0.988000  0.980600  1.0  0.1301
  H  H96  1  0.380700  0.958000  0.914600  1.0  0.1171
  H  H97  1  0.880700  0.237200  0.527100  1.0  0.114
  H  H98  1  0.283800  0.243400  0.599100  1.0  0.1222
  H  H99  1  0.152900  0.291600  0.710000  1.0  0.1176
  H  H100  1  0.174300  0.197600  0.499000  1.0  0.1233
  H  H101  1  0.250000  0.506000  0.622000  1.0  0.1236
  H  H102  1  0.724500  0.309100  0.576900  1.0  0.1189
  H  H103  1  0.463900  0.495000  0.563900  1.0  0.1176
  H  H104  1  0.453900  0.441900  0.664200  1.0  0.1103
  H  H105  1  0.044500  0.244700  0.610900  1.0  0.1196
  H  H106  1  0.260400  0.558600  0.524400  1.0  0.1177
  H  H107  1  0.888500  0.488000  0.519400  1.0  0.1305
  H  H108  1  0.119300  0.458000  0.585400  1.0  0.1172
  H  H109  1  0.380700  0.737200  0.527100  1.0  0.114
  H  H110  1  0.783800  0.743400  0.599100  1.0  0.1222
  H  H111  1  0.652900  0.791600  0.710000  1.0  0.1176
  H  H112  1  0.674300  0.697600  0.499000  1.0  0.1233
  H  H113  1  0.750000  0.006000  0.622000  1.0  0.1236
  H  H114  1  0.224500  0.809100  0.576900  1.0  0.1189
  H  H115  1  0.963900  0.995000  0.563900  1.0  0.1176
  H  H116  1  0.953900  0.941900  0.664200  1.0  0.1103
  H  H117  1  0.544500  0.744700  0.610900  1.0  0.1196
  H  H118  1  0.760400  0.058600  0.524400  1.0  0.1177
  H  H119  1  0.388500  0.988000  0.519400  1.0  0.1305
  H  H120  1  0.619300  0.958000  0.585400  1.0  0.1172
  C  C121  1  0.346900  0.564000  0.221000  1.0  0.7632
  C  C122  1  0.827200  0.757500  0.016200  1.0  -0.0338
  C  C123  1  0.301500  0.699700  0.233300  1.0  0.7602
  C  C124  1  0.352300  0.530100  0.154600  1.0  -0.1148
  C  C125  1  0.813900  0.722400  0.062500  1.0  -0.1308
  C  C126  1  0.235200  0.756500  0.102300  1.0  -0.0533
  C  C127  1  0.373100  0.432500  0.975000  1.0  0.7327
  C  C128  1  0.158000  0.728100  0.168000  1.0  -0.0274
  C  C129  1  0.027800  0.813500  0.981300  1.0  0.7254
  C  C130  1  0.098800  0.783500  0.045000  1.0  -0.1134
  C  C131  1  0.169900  0.783500  0.042500  1.0  -0.0232
  C  C132  1  0.294600  0.496200  0.111500  1.0  -0.0536
  C  C133  1  0.735000  0.715000  0.045600  1.0  -0.0703
  C  C134  1  0.420400  0.502300  0.076200  1.0  -0.0511
  C  C135  1  0.414600  0.534000  0.136300  1.0  -0.0313
  C  C136  1  0.230100  0.729200  0.166700  1.0  -0.1076
  C  C137  1  0.363500  0.467500  0.035300  1.0  -0.1217
  C  C138  1  0.881900  0.691900  0.129100  1.0  0.7372
  C  C139  1  0.093300  0.755600  0.108400  1.0  -0.0472
  C  C140  1  0.300600  0.465100  0.053000  1.0  -0.0475
  C  C141  1  0.005200  0.532800  0.062800  1.0  -0.1101
  C  C142  1  0.933900  0.507100  0.011300  1.0  -0.0516
  C  C143  1  0.070400  0.524800  0.050300  1.0  -0.0073
  C  C144  1  0.009600  0.568600  0.130400  1.0  0.7398
  C  C145  1  0.846900  0.064000  0.221000  1.0  0.7632
  C  C146  1  0.327200  0.257500  0.016200  1.0  -0.0338
  C  C147  1  0.801500  0.199700  0.233300  1.0  0.7602
  C  C148  1  0.852300  0.030100  0.154600  1.0  -0.1148
  C  C149  1  0.313900  0.222400  0.062500  1.0  -0.1308
  C  C150  1  0.735200  0.256500  0.102300  1.0  -0.0533
  C  C151  1  0.873100  0.932500  0.975000  1.0  0.7327
  C  C152  1  0.658000  0.228100  0.168000  1.0  -0.0274
  C  C153  1  0.527800  0.313500  0.981300  1.0  0.7254
  C  C154  1  0.598800  0.283500  0.045000  1.0  -0.1134
  C  C155  1  0.669900  0.283500  0.042500  1.0  -0.0232
  C  C156  1  0.794600  0.996200  0.111500  1.0  -0.0536
  C  C157  1  0.235000  0.215000  0.045600  1.0  -0.0703
  C  C158  1  0.920400  0.002300  0.076200  1.0  -0.0511
  C  C159  1  0.914600  0.034000  0.136300  1.0  -0.0313
  C  C160  1  0.730100  0.229200  0.166700  1.0  -0.1076
  C  C161  1  0.863500  0.967500  0.035300  1.0  -0.1217
  C  C162  1  0.381900  0.191900  0.129100  1.0  0.7372
  C  C163  1  0.593300  0.255600  0.108400  1.0  -0.0472
  C  C164  1  0.800600  0.965100  0.053000  1.0  -0.0475
  C  C165  1  0.505200  0.032800  0.062800  1.0  -0.1101
  C  C166  1  0.433900  0.007100  0.011300  1.0  -0.0516
  C  C167  1  0.570400  0.024800  0.050300  1.0  -0.0073
  C  C168  1  0.509600  0.068600  0.130400  1.0  0.7398
  C  C169  1  0.653100  0.564000  0.279000  1.0  0.7641
  C  C170  1  0.172800  0.757500  0.483800  1.0  -0.0331
  C  C171  1  0.698500  0.699700  0.266700  1.0  0.7619
  C  C172  1  0.647700  0.530100  0.345400  1.0  -0.1152
  C  C173  1  0.186100  0.722400  0.437500  1.0  -0.13
  C  C174  1  0.764800  0.756500  0.397700  1.0  -0.0546
  C  C175  1  0.626900  0.432500  0.525000  1.0  0.7326
  C  C176  1  0.842000  0.728100  0.332000  1.0  -0.0282
  C  C177  1  0.972200  0.813500  0.518700  1.0  0.7265
  C  C178  1  0.901200  0.783500  0.455000  1.0  -0.1137
  C  C179  1  0.830100  0.783500  0.457500  1.0  -0.0233
  C  C180  1  0.705400  0.496200  0.388500  1.0  -0.0552
  C  C181  1  0.265000  0.715000  0.454400  1.0  -0.0718
  C  C182  1  0.579600  0.502300  0.423800  1.0  -0.0509
  C  C183  1  0.585400  0.534000  0.363700  1.0  -0.0325
  C  C184  1  0.769900  0.729200  0.333333  1.0  -0.1081
  C  C185  1  0.636500  0.467500  0.464700  1.0  -0.1206
  C  C186  1  0.118100  0.691900  0.370900  1.0  0.7363
  C  C187  1  0.906700  0.755600  0.391600  1.0  -0.0469
  C  C188  1  0.699400  0.465100  0.447000  1.0  -0.0487
  C  C189  1  0.994800  0.532800  0.437200  1.0  -0.1101
  C  C190  1  0.066100  0.507100  0.488700  1.0  -0.0497
  C  C191  1  0.929600  0.524800  0.449700  1.0  -0.0081
  C  C192  1  0.990400  0.568600  0.369600  1.0  0.7393
  C  C193  1  0.153100  0.064000  0.279000  1.0  0.7641
  C  C194  1  0.672800  0.257500  0.483800  1.0  -0.0331
  C  C195  1  0.198500  0.199700  0.266700  1.0  0.7619
  C  C196  1  0.147700  0.030100  0.345400  1.0  -0.1152
  C  C197  1  0.686100  0.222400  0.437500  1.0  -0.13
  C  C198  1  0.264800  0.256500  0.397700  1.0  -0.0546
  C  C199  1  0.126900  0.932500  0.525000  1.0  0.7326
  C  C200  1  0.342000  0.228100  0.332000  1.0  -0.0282
  C  C201  1  0.472200  0.313500  0.518700  1.0  0.7265
  C  C202  1  0.401200  0.283500  0.455000  1.0  -0.1137
  C  C203  1  0.330100  0.283500  0.457500  1.0  -0.0233
  C  C204  1  0.205400  0.996200  0.388500  1.0  -0.0552
  C  C205  1  0.765000  0.215000  0.454400  1.0  -0.0718
  C  C206  1  0.079600  0.002300  0.423800  1.0  -0.0509
  C  C207  1  0.085400  0.034000  0.363700  1.0  -0.0325
  C  C208  1  0.269900  0.229200  0.333333  1.0  -0.1081
  C  C209  1  0.136500  0.967500  0.464700  1.0  -0.1206
  C  C210  1  0.618100  0.191900  0.370900  1.0  0.7363
  C  C211  1  0.406700  0.255600  0.391600  1.0  -0.0469
  C  C212  1  0.199400  0.965100  0.447000  1.0  -0.0487
  C  C213  1  0.494800  0.032800  0.437200  1.0  -0.1101
  C  C214  1  0.566100  0.007100  0.488700  1.0  -0.0497
  C  C215  1  0.429600  0.024800  0.449700  1.0  -0.0081
  C  C216  1  0.490400  0.068600  0.369600  1.0  0.7393
  C  C217  1  0.653100  0.436000  0.779000  1.0  0.7636
  C  C218  1  0.172800  0.242500  0.983800  1.0  -0.0333
  C  C219  1  0.698500  0.300300  0.766700  1.0  0.7622
  C  C220  1  0.647700  0.469900  0.845400  1.0  -0.1155
  C  C221  1  0.186100  0.277600  0.937500  1.0  -0.13
  C  C222  1  0.764800  0.243500  0.897700  1.0  -0.0552
  C  C223  1  0.626900  0.567500  0.025000  1.0  0.7327
  C  C224  1  0.842000  0.271900  0.832000  1.0  -0.0274
  C  C225  1  0.972200  0.186500  0.018700  1.0  0.7266
  C  C226  1  0.901200  0.216500  0.955000  1.0  -0.1147
  C  C227  1  0.830100  0.216500  0.957500  1.0  -0.0216
  C  C228  1  0.705400  0.503800  0.888500  1.0  -0.0553
  C  C229  1  0.265000  0.285000  0.954400  1.0  -0.0709
  C  C230  1  0.579600  0.497700  0.923800  1.0  -0.0508
  C  C231  1  0.585400  0.466000  0.863700  1.0  -0.0328
  C  C232  1  0.769900  0.270800  0.833300  1.0  -0.1075
  C  C233  1  0.636500  0.532500  0.964700  1.0  -0.1202
  C  C234  1  0.118100  0.308100  0.870900  1.0  0.7369
  C  C235  1  0.906700  0.244400  0.891600  1.0  -0.047
  C  C236  1  0.699400  0.534900  0.947000  1.0  -0.0483
  C  C237  1  0.994800  0.467200  0.937200  1.0  -0.1106
  C  C238  1  0.066100  0.492900  0.988700  1.0  -0.051
  C  C239  1  0.929600  0.475200  0.949700  1.0  -0.0078
  C  C240  1  0.990400  0.431400  0.869600  1.0  0.739
  C  C241  1  0.153100  0.936000  0.779000  1.0  0.7636
  C  C242  1  0.672800  0.742500  0.983800  1.0  -0.0333
  C  C243  1  0.198500  0.800300  0.766700  1.0  0.7622
  C  C244  1  0.147700  0.969900  0.845400  1.0  -0.1155
  C  C245  1  0.686100  0.777600  0.937500  1.0  -0.13
  C  C246  1  0.264800  0.743500  0.897700  1.0  -0.0552
  C  C247  1  0.126900  0.067500  0.025000  1.0  0.7327
  C  C248  1  0.342000  0.771900  0.832000  1.0  -0.0274
  C  C249  1  0.472200  0.686500  0.018700  1.0  0.7266
  C  C250  1  0.401200  0.716500  0.955000  1.0  -0.1147
  C  C251  1  0.330100  0.716500  0.957500  1.0  -0.0216
  C  C252  1  0.205400  0.003800  0.888500  1.0  -0.0553
  C  C253  1  0.765000  0.785000  0.954400  1.0  -0.0709
  C  C254  1  0.079600  0.997700  0.923800  1.0  -0.0508
  C  C255  1  0.085400  0.966000  0.863700  1.0  -0.0328
  C  C256  1  0.269900  0.770800  0.833300  1.0  -0.1075
  C  C257  1  0.136500  0.032500  0.964700  1.0  -0.1202
  C  C258  1  0.618100  0.808100  0.870900  1.0  0.7369
  C  C259  1  0.406700  0.744400  0.891600  1.0  -0.047
  C  C260  1  0.199400  0.034900  0.947000  1.0  -0.0483
  C  C261  1  0.494800  0.967200  0.937200  1.0  -0.1106
  C  C262  1  0.566100  0.992900  0.988700  1.0  -0.051
  C  C263  1  0.429600  0.975200  0.949700  1.0  -0.0078
  C  C264  1  0.490400  0.931400  0.869600  1.0  0.739
  C  C265  1  0.346900  0.436000  0.721000  1.0  0.7631
  C  C266  1  0.827200  0.242500  0.516200  1.0  -0.0343
  C  C267  1  0.301500  0.300300  0.733300  1.0  0.7606
  C  C268  1  0.352300  0.469900  0.654600  1.0  -0.1141
  C  C269  1  0.813900  0.277600  0.562500  1.0  -0.131
  C  C270  1  0.235200  0.243500  0.602300  1.0  -0.0532
  C  C271  1  0.373100  0.567500  0.475000  1.0  0.7326
  C  C272  1  0.158000  0.271900  0.668000  1.0  -0.0284
  C  C273  1  0.027800  0.186500  0.481300  1.0  0.7255
  C  C274  1  0.098800  0.216500  0.545000  1.0  -0.1149
  C  C275  1  0.169900  0.216500  0.542500  1.0  -0.0237
  C  C276  1  0.294600  0.503800  0.611500  1.0  -0.0543
  C  C277  1  0.735000  0.285000  0.545600  1.0  -0.07
  C  C278  1  0.420400  0.497700  0.576200  1.0  -0.051
  C  C279  1  0.414600  0.466000  0.636300  1.0  -0.0316
  C  C280  1  0.230100  0.270800  0.666667  1.0  -0.1078
  C  C281  1  0.363500  0.532500  0.535300  1.0  -0.1203
  C  C282  1  0.881900  0.308100  0.629100  1.0  0.7379
  C  C283  1  0.093300  0.244400  0.608400  1.0  -0.047
  C  C284  1  0.300600  0.534900  0.553000  1.0  -0.0482
  C  C285  1  0.005200  0.467200  0.562800  1.0  -0.1096
  C  C286  1  0.933900  0.492900  0.511300  1.0  -0.0523
  C  C287  1  0.070400  0.475200  0.550300  1.0  -0.0069
  C  C288  1  0.009600  0.431400  0.630400  1.0  0.7399
  C  C289  1  0.846900  0.936000  0.721000  1.0  0.7631
  C  C290  1  0.327200  0.742500  0.516200  1.0  -0.0343
  C  C291  1  0.801500  0.800300  0.733300  1.0  0.7606
  C  C292  1  0.852300  0.969900  0.654600  1.0  -0.1141
  C  C293  1  0.313900  0.777600  0.562500  1.0  -0.131
  C  C294  1  0.735200  0.743500  0.602300  1.0  -0.0532
  C  C295  1  0.873100  0.067500  0.475000  1.0  0.7326
  C  C296  1  0.658000  0.771900  0.668000  1.0  -0.0284
  C  C297  1  0.527800  0.686500  0.481300  1.0  0.7255
  C  C298  1  0.598800  0.716500  0.545000  1.0  -0.1149
  C  C299  1  0.669900  0.716500  0.542500  1.0  -0.0237
  C  C300  1  0.794600  0.003800  0.611500  1.0  -0.0543
  C  C301  1  0.235000  0.785000  0.545600  1.0  -0.07
  C  C302  1  0.920400  0.997700  0.576200  1.0  -0.051
  C  C303  1  0.914600  0.966000  0.636300  1.0  -0.0316
  C  C304  1  0.730100  0.770800  0.666667  1.0  -0.1078
  C  C305  1  0.863500  0.032500  0.535300  1.0  -0.1203
  C  C306  1  0.381900  0.808100  0.629100  1.0  0.7379
  C  C307  1  0.593300  0.744400  0.608400  1.0  -0.047
  C  C308  1  0.800600  0.034900  0.553000  1.0  -0.0482
  C  C309  1  0.505200  0.967200  0.562800  1.0  -0.1096
  C  C310  1  0.433900  0.992900  0.511300  1.0  -0.0523
  C  C311  1  0.570400  0.975200  0.550300  1.0  -0.0069
  C  C312  1  0.509600  0.931400  0.630400  1.0  0.7399
  O  O313  1  0.438400  0.431260  0.974000  1.0  -0.5914
  O  O314  1  0.405900  0.591830  0.262300  1.0  -0.6382
  O  O315  1  0.288300  0.562600  0.232000  1.0  -0.7124
  O  O316  1  0.287900  0.671190  0.280400  1.0  -0.6306
  O  O317  1  0.034000  0.838070  0.923000  1.0  -0.6536
  O  O318  1  0.965700  0.814290  0.988900  1.0  -0.5839
  O  O319  1  0.315600  0.404750  0.929600  1.0  -0.6813
  O  O320  1  0.368400  0.705830  0.239700  1.0  -0.6553
  O  O321  1  0.869400  0.663460  0.176400  1.0  -0.625
  O  O322  1  0.947200  0.575400  0.136000  1.0  -0.5914
  O  O323  1  0.950000  0.695700  0.134500  1.0  -0.631
  O  O324  1  0.073400  0.589800  0.177200  1.0  -0.7219
  O  O325  1  0.938400  0.931260  0.974000  1.0  -0.5914
  O  O326  1  0.905900  0.091830  0.262300  1.0  -0.6382
  O  O327  1  0.788300  0.062600  0.232000  1.0  -0.7124
  O  O328  1  0.787900  0.171190  0.280400  1.0  -0.6306
  O  O329  1  0.534000  0.338070  0.923000  1.0  -0.6536
  O  O330  1  0.465700  0.314290  0.988900  1.0  -0.5839
  O  O331  1  0.815600  0.904750  0.929600  1.0  -0.6813
  O  O332  1  0.868400  0.205830  0.239700  1.0  -0.6553
  O  O333  1  0.369400  0.163460  0.176400  1.0  -0.625
  O  O334  1  0.447200  0.075400  0.136000  1.0  -0.5914
  O  O335  1  0.450000  0.195700  0.134500  1.0  -0.631
  O  O336  1  0.573400  0.089800  0.177200  1.0  -0.7219
  O  O337  1  0.561600  0.431260  0.526000  1.0  -0.5907
  O  O338  1  0.594100  0.591830  0.237700  1.0  -0.6388
  O  O339  1  0.711700  0.562600  0.268000  1.0  -0.7121
  O  O340  1  0.712100  0.671190  0.219600  1.0  -0.6313
  O  O341  1  0.966000  0.838070  0.577000  1.0  -0.6544
  O  O342  1  0.034300  0.814290  0.511100  1.0  -0.5848
  O  O343  1  0.684400  0.404750  0.570400  1.0  -0.682
  O  O344  1  0.631600  0.705830  0.260300  1.0  -0.6581
  O  O345  1  0.130600  0.663460  0.323600  1.0  -0.625
  O  O346  1  0.052800  0.575400  0.364000  1.0  -0.5914
  O  O347  1  0.050000  0.695700  0.365500  1.0  -0.6281
  O  O348  1  0.926600  0.589800  0.322800  1.0  -0.7216
  O  O349  1  0.061600  0.931260  0.526000  1.0  -0.5907
  O  O350  1  0.094100  0.091830  0.237700  1.0  -0.6388
  O  O351  1  0.211700  0.062600  0.268000  1.0  -0.7121
  O  O352  1  0.212100  0.171190  0.219600  1.0  -0.6313
  O  O353  1  0.466000  0.338070  0.577000  1.0  -0.6544
  O  O354  1  0.534300  0.314290  0.511100  1.0  -0.5848
  O  O355  1  0.184400  0.904750  0.570400  1.0  -0.682
  O  O356  1  0.131600  0.205830  0.260300  1.0  -0.6581
  O  O357  1  0.630600  0.163460  0.323600  1.0  -0.625
  O  O358  1  0.552800  0.075400  0.364000  1.0  -0.5914
  O  O359  1  0.550000  0.195700  0.365500  1.0  -0.6281
  O  O360  1  0.426600  0.089800  0.322800  1.0  -0.7216
  O  O361  1  0.561600  0.568740  0.026000  1.0  -0.5905
  O  O362  1  0.594100  0.408170  0.737700  1.0  -0.6374
  O  O363  1  0.711700  0.437400  0.768000  1.0  -0.7111
  O  O364  1  0.712100  0.328810  0.719600  1.0  -0.6313
  O  O365  1  0.966000  0.161930  0.077000  1.0  -0.6551
  O  O366  1  0.034300  0.185710  0.011100  1.0  -0.5857
  O  O367  1  0.684400  0.595250  0.070400  1.0  -0.6814
  O  O368  1  0.631600  0.294170  0.760300  1.0  -0.6565
  O  O369  1  0.130600  0.336540  0.823600  1.0  -0.6261
  O  O370  1  0.052800  0.424600  0.864000  1.0  -0.5917
  O  O371  1  0.050000  0.304300  0.865500  1.0  -0.6278
  O  O372  1  0.926600  0.410200  0.822800  1.0  -0.7224
  O  O373  1  0.061600  0.068740  0.026000  1.0  -0.5905
  O  O374  1  0.094100  0.908170  0.737700  1.0  -0.6374
  O  O375  1  0.211700  0.937400  0.768000  1.0  -0.7111
  O  O376  1  0.212100  0.828810  0.719600  1.0  -0.6313
  O  O377  1  0.466000  0.661930  0.077000  1.0  -0.6551
  O  O378  1  0.534300  0.685710  0.011100  1.0  -0.5857
  O  O379  1  0.184400  0.095250  0.070400  1.0  -0.6814
  O  O380  1  0.131600  0.794170  0.760300  1.0  -0.6565
  O  O381  1  0.630600  0.836540  0.823600  1.0  -0.6261
  O  O382  1  0.552800  0.924600  0.864000  1.0  -0.5917
  O  O383  1  0.550000  0.804300  0.865500  1.0  -0.6278
  O  O384  1  0.426600  0.910200  0.822800  1.0  -0.7224
  O  O385  1  0.438400  0.568740  0.474000  1.0  -0.5912
  O  O386  1  0.405900  0.408170  0.762300  1.0  -0.6387
  O  O387  1  0.288300  0.437400  0.732000  1.0  -0.7125
  O  O388  1  0.287900  0.328810  0.780400  1.0  -0.6299
  O  O389  1  0.034000  0.161930  0.423000  1.0  -0.6539
  O  O390  1  0.965700  0.185710  0.488900  1.0  -0.5845
  O  O391  1  0.315600  0.595250  0.429600  1.0  -0.6801
  O  O392  1  0.368400  0.294170  0.739700  1.0  -0.656
  O  O393  1  0.869400  0.336540  0.676400  1.0  -0.6251
  O  O394  1  0.947200  0.424600  0.636000  1.0  -0.5918
  O  O395  1  0.950000  0.304300  0.634500  1.0  -0.631
  O  O396  1  0.073400  0.410200  0.677200  1.0  -0.722
  O  O397  1  0.938400  0.068740  0.474000  1.0  -0.5912
  O  O398  1  0.905900  0.908170  0.762300  1.0  -0.6387
  O  O399  1  0.788300  0.937400  0.732000  1.0  -0.7125
  O  O400  1  0.787900  0.828810  0.780400  1.0  -0.6299
  O  O401  1  0.534000  0.661930  0.423000  1.0  -0.6539
  O  O402  1  0.465700  0.685710  0.488900  1.0  -0.5845
  O  O403  1  0.815600  0.095250  0.429600  1.0  -0.6801
  O  O404  1  0.868400  0.794170  0.739700  1.0  -0.656
  O  O405  1  0.369400  0.836540  0.676400  1.0  -0.6251
  O  O406  1  0.447200  0.924600  0.636000  1.0  -0.5918
  O  O407  1  0.450000  0.804300  0.634500  1.0  -0.631
  O  O408  1  0.573400  0.910200  0.677200  1.0  -0.722
