# generated using pymatgen
data_KCdH8(C2O)8
_symmetry_space_group_name_H-M   'P 1'
_cell_length_a   19.21450000
_cell_length_b   26.40880000
_cell_length_c   17.71740000
_cell_angle_alpha   90.00000000
_cell_angle_beta   118.43100000
_cell_angle_gamma   90.00000000
_symmetry_Int_Tables_number   1
_chemical_formula_structural   KCdH8(C2O)8
_chemical_formula_sum   'K12 Cd12 H96 C192 O96'
_cell_volume   7906.05469967
_cell_formula_units_Z   12
loop_
 _symmetry_equiv_pos_site_id
 _symmetry_equiv_pos_as_xyz
  1  'x, y, z'
loop_
 _atom_site_type_symbol
 _atom_site_label
 _atom_site_symmetry_multiplicity
 _atom_site_fract_x
 _atom_site_fract_y
 _atom_site_fract_z
 _atom_site_occupancy
 _atom_site_charge
  K  K1  1  0.695250  0.407550  0.288580  1.0  0.9522
  K  K2  1  0.195250  0.907550  0.288580  1.0  0.9522
  K  K3  1  0.304750  0.407550  0.211420  1.0  0.9509
  K  K4  1  0.804750  0.907550  0.211420  1.0  0.9509
  K  K5  1  0.304750  0.592450  0.711420  1.0  0.9528
  K  K6  1  0.804750  0.092450  0.711420  1.0  0.9528
  K  K7  1  0.695250  0.592450  0.788580  1.0  0.9541
  K  K8  1  0.195250  0.092450  0.788580  1.0  0.9541
  K  K9  1  0.500000  0.830510  0.250000  1.0  0.954
  K  K10  1  0.000000  0.330510  0.250000  1.0  0.954
  K  K11  1  0.500000  0.169490  0.750000  1.0  0.9536
  K  K12  1  0.000000  0.669490  0.750000  1.0  0.9536
  Cd  Cd13  1  0.898160  0.633200  0.866420  1.0  1.0596
  Cd  Cd14  1  0.398160  0.133200  0.866420  1.0  1.0596
  Cd  Cd15  1  0.101840  0.633200  0.633580  1.0  1.0606
  Cd  Cd16  1  0.601840  0.133200  0.633580  1.0  1.0606
  Cd  Cd17  1  0.101840  0.366800  0.133580  1.0  1.0607
  Cd  Cd18  1  0.601840  0.866800  0.133580  1.0  1.0607
  Cd  Cd19  1  0.898160  0.366800  0.366420  1.0  1.0597
  Cd  Cd20  1  0.398160  0.866800  0.366420  1.0  1.0597
  Cd  Cd21  1  0.500000  0.363500  0.250000  1.0  1.0431
  Cd  Cd22  1  0.000000  0.863500  0.250000  1.0  1.0431
  Cd  Cd23  1  0.500000  0.636500  0.750000  1.0  1.0434
  Cd  Cd24  1  0.000000  0.136500  0.750000  1.0  1.0434
  H  H25  1  0.876100  0.269400  0.524700  1.0  0.1108
  H  H26  1  0.538400  0.747400  0.593200  1.0  0.1156
  H  H27  1  0.958300  0.558100  0.666500  1.0  0.0816
  H  H28  1  0.647800  0.705400  0.698200  1.0  0.1032
  H  H29  1  0.673400  0.802200  0.494500  1.0  0.1233
  H  H30  1  0.966900  0.509100  0.565100  1.0  0.1217
  H  H31  1  0.781500  0.759500  0.598300  1.0  0.1128
  H  H32  1  0.770000  0.435100  0.524700  1.0  0.1191
  H  H33  1  0.768400  0.309800  0.415700  1.0  0.1012
  H  H34  1  0.759900  0.484300  0.625500  1.0  0.1184
  H  H35  1  0.602800  0.551600  0.588000  1.0  0.0974
  H  H36  1  0.613400  0.500400  0.486700  1.0  0.1144
  H  H37  1  0.376100  0.769400  0.524700  1.0  0.1108
  H  H38  1  0.038400  0.247400  0.593200  1.0  0.1156
  H  H39  1  0.458300  0.058100  0.666500  1.0  0.0816
  H  H40  1  0.147800  0.205400  0.698200  1.0  0.1032
  H  H41  1  0.173400  0.302200  0.494500  1.0  0.1233
  H  H42  1  0.466900  0.009100  0.565100  1.0  0.1217
  H  H43  1  0.281500  0.259500  0.598300  1.0  0.1128
  H  H44  1  0.270000  0.935100  0.524700  1.0  0.1191
  H  H45  1  0.268400  0.809800  0.415700  1.0  0.1012
  H  H46  1  0.259900  0.984300  0.625500  1.0  0.1184
  H  H47  1  0.102800  0.051600  0.588000  1.0  0.0974
  H  H48  1  0.113400  0.000400  0.486700  1.0  0.1144
  H  H49  1  0.123900  0.269400  0.975300  1.0  0.1099
  H  H50  1  0.461600  0.747400  0.906800  1.0  0.1162
  H  H51  1  0.041700  0.558100  0.833500  1.0  0.0811
  H  H52  1  0.352200  0.705400  0.801800  1.0  0.103
  H  H53  1  0.326600  0.802200  0.005500  1.0  0.1233
  H  H54  1  0.033100  0.509100  0.934900  1.0  0.1222
  H  H55  1  0.218500  0.759500  0.901700  1.0  0.1128
  H  H56  1  0.230000  0.435100  0.975300  1.0  0.1194
  H  H57  1  0.231600  0.309800  0.084300  1.0  0.1014
  H  H58  1  0.240100  0.484300  0.874500  1.0  0.1178
  H  H59  1  0.397200  0.551600  0.912000  1.0  0.0975
  H  H60  1  0.386600  0.500400  0.013300  1.0  0.1146
  H  H61  1  0.623900  0.769400  0.975300  1.0  0.1099
  H  H62  1  0.961600  0.247400  0.906800  1.0  0.1162
  H  H63  1  0.541700  0.058100  0.833500  1.0  0.0811
  H  H64  1  0.852200  0.205400  0.801800  1.0  0.103
  H  H65  1  0.826600  0.302200  0.005500  1.0  0.1233
  H  H66  1  0.533100  0.009100  0.934900  1.0  0.1222
  H  H67  1  0.718500  0.259500  0.901700  1.0  0.1128
  H  H68  1  0.730000  0.935100  0.975300  1.0  0.1194
  H  H69  1  0.731600  0.809800  0.084300  1.0  0.1014
  H  H70  1  0.740100  0.984300  0.874500  1.0  0.1178
  H  H71  1  0.897200  0.051600  0.912000  1.0  0.0975
  H  H72  1  0.886600  0.000400  0.013300  1.0  0.1146
  H  H73  1  0.123900  0.730600  0.475300  1.0  0.1099
  H  H74  1  0.461600  0.252600  0.406800  1.0  0.1161
  H  H75  1  0.041700  0.441900  0.333500  1.0  0.0812
  H  H76  1  0.352200  0.294600  0.301800  1.0  0.1027
  H  H77  1  0.326600  0.197800  0.505500  1.0  0.1234
  H  H78  1  0.033100  0.490900  0.434900  1.0  0.1223
  H  H79  1  0.218500  0.240500  0.401700  1.0  0.113
  H  H80  1  0.230000  0.564900  0.475300  1.0  0.1195
  H  H81  1  0.231600  0.690200  0.584300  1.0  0.1019
  H  H82  1  0.240100  0.515700  0.374500  1.0  0.1179
  H  H83  1  0.397200  0.448400  0.412000  1.0  0.0977
  H  H84  1  0.386600  0.499600  0.513300  1.0  0.1148
  H  H85  1  0.623900  0.230600  0.475300  1.0  0.1099
  H  H86  1  0.961600  0.752600  0.406800  1.0  0.1161
  H  H87  1  0.541700  0.941900  0.333500  1.0  0.0812
  H  H88  1  0.852200  0.794600  0.301800  1.0  0.1027
  H  H89  1  0.826600  0.697800  0.505500  1.0  0.1234
  H  H90  1  0.533100  0.990900  0.434900  1.0  0.1223
  H  H91  1  0.718500  0.740500  0.401700  1.0  0.113
  H  H92  1  0.730000  0.064900  0.475300  1.0  0.1195
  H  H93  1  0.731600  0.190200  0.584300  1.0  0.1019
  H  H94  1  0.740100  0.015700  0.374500  1.0  0.1179
  H  H95  1  0.897200  0.948400  0.412000  1.0  0.0977
  H  H96  1  0.886600  0.999600  0.513300  1.0  0.1148
  H  H97  1  0.876100  0.730600  0.024700  1.0  0.1107
  H  H98  1  0.538400  0.252600  0.093200  1.0  0.1154
  H  H99  1  0.958300  0.441900  0.166500  1.0  0.0818
  H  H100  1  0.647800  0.294600  0.198200  1.0  0.1029
  H  H101  1  0.673400  0.197800  0.994500  1.0  0.1232
  H  H102  1  0.966900  0.490900  0.065100  1.0  0.1217
  H  H103  1  0.781500  0.240500  0.098300  1.0  0.1125
  H  H104  1  0.770000  0.564900  0.024700  1.0  0.1192
  H  H105  1  0.768400  0.690200  0.915700  1.0  0.1016
  H  H106  1  0.759900  0.515700  0.125500  1.0  0.1184
  H  H107  1  0.602800  0.448400  0.088000  1.0  0.0979
  H  H108  1  0.613400  0.499600  0.986700  1.0  0.1145
  H  H109  1  0.376100  0.230600  0.024700  1.0  0.1107
  H  H110  1  0.038400  0.752600  0.093200  1.0  0.1154
  H  H111  1  0.458300  0.941900  0.166500  1.0  0.0818
  H  H112  1  0.147800  0.794600  0.198200  1.0  0.1029
  H  H113  1  0.173400  0.697800  0.994500  1.0  0.1232
  H  H114  1  0.466900  0.990900  0.065100  1.0  0.1217
  H  H115  1  0.281500  0.740500  0.098300  1.0  0.1125
  H  H116  1  0.270000  0.064900  0.024700  1.0  0.1192
  H  H117  1  0.268400  0.190200  0.915700  1.0  0.1016
  H  H118  1  0.259900  0.015700  0.125500  1.0  0.1184
  H  H119  1  0.102800  0.948400  0.088000  1.0  0.0979
  H  H120  1  0.113400  0.999600  0.986700  1.0  0.1145
  C  C121  1  0.854400  0.557800  0.727200  1.0  0.7591
  C  C122  1  0.796800  0.701900  0.728100  1.0  0.7327
  C  C123  1  0.880500  0.431400  0.474500  1.0  0.7305
  C  C124  1  0.825300  0.261500  0.514700  1.0  -0.0231
  C  C125  1  0.685100  0.274600  0.434900  1.0  -0.1228
  C  C126  1  0.587200  0.750300  0.594600  1.0  -0.0396
  C  C127  1  0.919900  0.533400  0.639300  1.0  -0.0151
  C  C128  1  0.594900  0.779800  0.534800  1.0  -0.1177
  C  C129  1  0.652900  0.724700  0.657300  1.0  -0.0266
  C  C130  1  0.861300  0.529200  0.663200  1.0  -0.0575
  C  C131  1  0.668300  0.782900  0.535600  1.0  -0.0396
  C  C132  1  0.925900  0.503700  0.578000  1.0  -0.106
  C  C133  1  0.732900  0.757200  0.597600  1.0  -0.0293
  C  C134  1  0.726100  0.727900  0.659100  1.0  -0.1285
  C  C135  1  0.870500  0.466000  0.536000  1.0  -0.1164
  C  C136  1  0.808200  0.459600  0.553900  1.0  -0.0805
  C  C137  1  0.525300  0.809400  0.470000  1.0  0.7099
  C  C138  1  0.615700  0.302200  0.367200  1.0  0.747
  C  C139  1  0.760800  0.285900  0.449600  1.0  -0.0259
  C  C140  1  0.802200  0.489400  0.614600  1.0  -0.0849
  C  C141  1  0.560600  0.530900  0.552600  1.0  -0.0056
  C  C142  1  0.505200  0.468800  0.439400  1.0  -0.1405
  C  C143  1  0.515200  0.434600  0.374400  1.0  0.7294
  C  C144  1  0.567300  0.499900  0.491700  1.0  -0.0521
  C  C145  1  0.354400  0.057800  0.727200  1.0  0.7591
  C  C146  1  0.296800  0.201900  0.728100  1.0  0.7327
  C  C147  1  0.380500  0.931400  0.474500  1.0  0.7305
  C  C148  1  0.325300  0.761500  0.514700  1.0  -0.0231
  C  C149  1  0.185100  0.774600  0.434900  1.0  -0.1228
  C  C150  1  0.087200  0.250300  0.594600  1.0  -0.0396
  C  C151  1  0.419900  0.033400  0.639300  1.0  -0.0151
  C  C152  1  0.094900  0.279800  0.534800  1.0  -0.1177
  C  C153  1  0.152900  0.224700  0.657300  1.0  -0.0266
  C  C154  1  0.361300  0.029200  0.663200  1.0  -0.0575
  C  C155  1  0.168300  0.282900  0.535600  1.0  -0.0396
  C  C156  1  0.425900  0.003700  0.578000  1.0  -0.106
  C  C157  1  0.232900  0.257200  0.597600  1.0  -0.0293
  C  C158  1  0.226100  0.227900  0.659100  1.0  -0.1285
  C  C159  1  0.370500  0.966000  0.536000  1.0  -0.1164
  C  C160  1  0.308200  0.959600  0.553900  1.0  -0.0805
  C  C161  1  0.025300  0.309400  0.470000  1.0  0.7099
  C  C162  1  0.115700  0.802200  0.367200  1.0  0.747
  C  C163  1  0.260800  0.785900  0.449600  1.0  -0.0259
  C  C164  1  0.302200  0.989400  0.614600  1.0  -0.0849
  C  C165  1  0.060600  0.030900  0.552600  1.0  -0.0056
  C  C166  1  0.005200  0.968800  0.439400  1.0  -0.1405
  C  C167  1  0.015200  0.934600  0.374400  1.0  0.7294
  C  C168  1  0.067300  0.999900  0.491700  1.0  -0.0521
  C  C169  1  0.145600  0.557800  0.772800  1.0  0.7581
  C  C170  1  0.203200  0.701900  0.771900  1.0  0.7321
  C  C171  1  0.119500  0.431400  0.025500  1.0  0.7304
  C  C172  1  0.174700  0.261500  0.985300  1.0  -0.0232
  C  C173  1  0.314900  0.274600  0.065100  1.0  -0.1225
  C  C174  1  0.412800  0.750300  0.905400  1.0  -0.0386
  C  C175  1  0.080100  0.533400  0.860700  1.0  -0.0131
  C  C176  1  0.405100  0.779800  0.965200  1.0  -0.1179
  C  C177  1  0.347100  0.724700  0.842700  1.0  -0.0263
  C  C178  1  0.138700  0.529200  0.836800  1.0  -0.0573
  C  C179  1  0.331700  0.782900  0.964400  1.0  -0.0411
  C  C180  1  0.074100  0.503700  0.922000  1.0  -0.1062
  C  C181  1  0.267100  0.757200  0.902400  1.0  -0.0295
  C  C182  1  0.273900  0.727900  0.840900  1.0  -0.1282
  C  C183  1  0.129500  0.466000  0.964000  1.0  -0.1157
  C  C184  1  0.191800  0.459600  0.946100  1.0  -0.082
  C  C185  1  0.474700  0.809400  0.030000  1.0  0.7133
  C  C186  1  0.384300  0.302200  0.132800  1.0  0.7465
  C  C187  1  0.239200  0.285900  0.050400  1.0  -0.027
  C  C188  1  0.197800  0.489400  0.885400  1.0  -0.084
  C  C189  1  0.439400  0.530900  0.947400  1.0  -0.0056
  C  C190  1  0.494800  0.468800  0.060600  1.0  -0.1409
  C  C191  1  0.484800  0.434600  0.125600  1.0  0.7297
  C  C192  1  0.432700  0.499900  0.008300  1.0  -0.051
  C  C193  1  0.645600  0.057800  0.772800  1.0  0.7581
  C  C194  1  0.703200  0.201900  0.771900  1.0  0.7321
  C  C195  1  0.619500  0.931400  0.025500  1.0  0.7304
  C  C196  1  0.674700  0.761500  0.985300  1.0  -0.0232
  C  C197  1  0.814900  0.774600  0.065100  1.0  -0.1225
  C  C198  1  0.912800  0.250300  0.905400  1.0  -0.0386
  C  C199  1  0.580100  0.033400  0.860700  1.0  -0.0131
  C  C200  1  0.905100  0.279800  0.965200  1.0  -0.1179
  C  C201  1  0.847100  0.224700  0.842700  1.0  -0.0263
  C  C202  1  0.638700  0.029200  0.836800  1.0  -0.0573
  C  C203  1  0.831700  0.282900  0.964400  1.0  -0.0411
  C  C204  1  0.574100  0.003700  0.922000  1.0  -0.1062
  C  C205  1  0.767100  0.257200  0.902400  1.0  -0.0295
  C  C206  1  0.773900  0.227900  0.840900  1.0  -0.1282
  C  C207  1  0.629500  0.966000  0.964000  1.0  -0.1157
  C  C208  1  0.691800  0.959600  0.946100  1.0  -0.082
  C  C209  1  0.974700  0.309400  0.030000  1.0  0.7133
  C  C210  1  0.884300  0.802200  0.132800  1.0  0.7465
  C  C211  1  0.739200  0.785900  0.050400  1.0  -0.027
  C  C212  1  0.697800  0.989400  0.885400  1.0  -0.084
  C  C213  1  0.939400  0.030900  0.947400  1.0  -0.0056
  C  C214  1  0.994800  0.968800  0.060600  1.0  -0.1409
  C  C215  1  0.984800  0.934600  0.125600  1.0  0.7297
  C  C216  1  0.932700  0.999900  0.008300  1.0  -0.051
  C  C217  1  0.145600  0.442200  0.272800  1.0  0.7574
  C  C218  1  0.203200  0.298100  0.271900  1.0  0.7325
  C  C219  1  0.119500  0.568600  0.525500  1.0  0.7304
  C  C220  1  0.174700  0.738500  0.485300  1.0  -0.0223
  C  C221  1  0.314900  0.725400  0.565100  1.0  -0.1226
  C  C222  1  0.412800  0.249700  0.405400  1.0  -0.0384
  C  C223  1  0.080100  0.466600  0.360700  1.0  -0.014
  C  C224  1  0.405100  0.220200  0.465200  1.0  -0.1182
  C  C225  1  0.347100  0.275300  0.342700  1.0  -0.027
  C  C226  1  0.138700  0.470800  0.336800  1.0  -0.0582
  C  C227  1  0.331700  0.217100  0.464400  1.0  -0.04
  C  C228  1  0.074100  0.496300  0.422000  1.0  -0.1061
  C  C229  1  0.267100  0.242800  0.402400  1.0  -0.0292
  C  C230  1  0.273900  0.272100  0.340900  1.0  -0.1278
  C  C231  1  0.129500  0.534000  0.464000  1.0  -0.1159
  C  C232  1  0.191800  0.540400  0.446100  1.0  -0.0829
  C  C233  1  0.474700  0.190600  0.530000  1.0  0.713
  C  C234  1  0.384300  0.697800  0.632800  1.0  0.7461
  C  C235  1  0.239200  0.714100  0.550400  1.0  -0.0271
  C  C236  1  0.197800  0.510600  0.385400  1.0  -0.084
  C  C237  1  0.439400  0.469100  0.447400  1.0  -0.0051
  C  C238  1  0.494800  0.531200  0.560600  1.0  -0.1416
  C  C239  1  0.484800  0.565400  0.625600  1.0  0.7306
  C  C240  1  0.432700  0.500100  0.508300  1.0  -0.0512
  C  C241  1  0.645600  0.942200  0.272800  1.0  0.7574
  C  C242  1  0.703200  0.798100  0.271900  1.0  0.7325
  C  C243  1  0.619500  0.068600  0.525500  1.0  0.7304
  C  C244  1  0.674700  0.238500  0.485300  1.0  -0.0223
  C  C245  1  0.814900  0.225400  0.565100  1.0  -0.1226
  C  C246  1  0.912800  0.749700  0.405400  1.0  -0.0384
  C  C247  1  0.580100  0.966600  0.360700  1.0  -0.014
  C  C248  1  0.905100  0.720200  0.465200  1.0  -0.1182
  C  C249  1  0.847100  0.775300  0.342700  1.0  -0.027
  C  C250  1  0.638700  0.970800  0.336800  1.0  -0.0582
  C  C251  1  0.831700  0.717100  0.464400  1.0  -0.04
  C  C252  1  0.574100  0.996300  0.422000  1.0  -0.1061
  C  C253  1  0.767100  0.742800  0.402400  1.0  -0.0292
  C  C254  1  0.773900  0.772100  0.340900  1.0  -0.1278
  C  C255  1  0.629500  0.034000  0.464000  1.0  -0.1159
  C  C256  1  0.691800  0.040400  0.446100  1.0  -0.0829
  C  C257  1  0.974700  0.690600  0.530000  1.0  0.713
  C  C258  1  0.884300  0.197800  0.632800  1.0  0.7461
  C  C259  1  0.739200  0.214100  0.550400  1.0  -0.0271
  C  C260  1  0.697800  0.010600  0.385400  1.0  -0.084
  C  C261  1  0.939400  0.969100  0.447400  1.0  -0.0051
  C  C262  1  0.994800  0.031200  0.560600  1.0  -0.1416
  C  C263  1  0.984800  0.065400  0.625600  1.0  0.7306
  C  C264  1  0.932700  0.000100  0.508300  1.0  -0.0512
  C  C265  1  0.854400  0.442200  0.227200  1.0  0.7586
  C  C266  1  0.796800  0.298100  0.228100  1.0  0.7331
  C  C267  1  0.880500  0.568600  0.974500  1.0  0.7306
  C  C268  1  0.825300  0.738500  0.014700  1.0  -0.0226
  C  C269  1  0.685100  0.725400  0.934900  1.0  -0.1227
  C  C270  1  0.587200  0.249700  0.094600  1.0  -0.0393
  C  C271  1  0.919900  0.466600  0.139300  1.0  -0.0158
  C  C272  1  0.594900  0.220200  0.034800  1.0  -0.1185
  C  C273  1  0.652900  0.275300  0.157300  1.0  -0.028
  C  C274  1  0.861300  0.470800  0.163200  1.0  -0.0582
  C  C275  1  0.668300  0.217100  0.035600  1.0  -0.0405
  C  C276  1  0.925900  0.496300  0.078000  1.0  -0.1057
  C  C277  1  0.732900  0.242800  0.097600  1.0  -0.0291
  C  C278  1  0.726100  0.272100  0.159100  1.0  -0.1287
  C  C279  1  0.870500  0.534000  0.036000  1.0  -0.1157
  C  C280  1  0.808200  0.540400  0.053900  1.0  -0.0819
  C  C281  1  0.525300  0.190600  0.970000  1.0  0.7099
  C  C282  1  0.615700  0.697800  0.867200  1.0  0.7469
  C  C283  1  0.760800  0.714100  0.949600  1.0  -0.0262
  C  C284  1  0.802200  0.510600  0.114600  1.0  -0.0856
  C  C285  1  0.560600  0.469100  0.052600  1.0  -0.0054
  C  C286  1  0.505200  0.531200  0.939400  1.0  -0.1403
  C  C287  1  0.515200  0.565400  0.874400  1.0  0.7303
  C  C288  1  0.567300  0.500100  0.991700  1.0  -0.0528
  C  C289  1  0.354400  0.942200  0.227200  1.0  0.7586
  C  C290  1  0.296800  0.798100  0.228100  1.0  0.7331
  C  C291  1  0.380500  0.068600  0.974500  1.0  0.7306
  C  C292  1  0.325300  0.238500  0.014700  1.0  -0.0226
  C  C293  1  0.185100  0.225400  0.934900  1.0  -0.1227
  C  C294  1  0.087200  0.749700  0.094600  1.0  -0.0393
  C  C295  1  0.419900  0.966600  0.139300  1.0  -0.0158
  C  C296  1  0.094900  0.720200  0.034800  1.0  -0.1185
  C  C297  1  0.152900  0.775300  0.157300  1.0  -0.028
  C  C298  1  0.361300  0.970800  0.163200  1.0  -0.0582
  C  C299  1  0.168300  0.717100  0.035600  1.0  -0.0405
  C  C300  1  0.425900  0.996300  0.078000  1.0  -0.1057
  C  C301  1  0.232900  0.742800  0.097600  1.0  -0.0291
  C  C302  1  0.226100  0.772100  0.159100  1.0  -0.1287
  C  C303  1  0.370500  0.034000  0.036000  1.0  -0.1157
  C  C304  1  0.308200  0.040400  0.053900  1.0  -0.0819
  C  C305  1  0.025300  0.690600  0.970000  1.0  0.7099
  C  C306  1  0.115700  0.197800  0.867200  1.0  0.7469
  C  C307  1  0.260800  0.214100  0.949600  1.0  -0.0262
  C  C308  1  0.302200  0.010600  0.114600  1.0  -0.0856
  C  C309  1  0.060600  0.969100  0.052600  1.0  -0.0054
  C  C310  1  0.005200  0.031200  0.939400  1.0  -0.1403
  C  C311  1  0.015200  0.065400  0.874400  1.0  0.7303
  C  C312  1  0.067300  0.000100  0.991700  1.0  -0.0528
  O  O313  1  0.904800  0.590870  0.759200  1.0  -0.6107
  O  O314  1  0.784200  0.670920  0.775900  1.0  -0.6346
  O  O315  1  0.824400  0.401230  0.430500  1.0  -0.6442
  O  O316  1  0.942400  0.433310  0.467900  1.0  -0.5715
  O  O317  1  0.531600  0.835110  0.414200  1.0  -0.6424
  O  O318  1  0.863700  0.710200  0.735900  1.0  -0.6395
  O  O319  1  0.626700  0.331750  0.318100  1.0  -0.6288
  O  O320  1  0.461300  0.807770  0.474000  1.0  -0.6168
  O  O321  1  0.549100  0.296000  0.361200  1.0  -0.6324
  O  O322  1  0.802200  0.548000  0.748100  1.0  -0.6379
  O  O323  1  0.454200  0.408900  0.326800  1.0  -0.6663
  O  O324  1  0.576100  0.431400  0.374100  1.0  -0.6
  O  O325  1  0.404800  0.090870  0.759200  1.0  -0.6107
  O  O326  1  0.284200  0.170920  0.775900  1.0  -0.6346
  O  O327  1  0.324400  0.901230  0.430500  1.0  -0.6442
  O  O328  1  0.442400  0.933310  0.467900  1.0  -0.5715
  O  O329  1  0.031600  0.335110  0.414200  1.0  -0.6424
  O  O330  1  0.363700  0.210200  0.735900  1.0  -0.6395
  O  O331  1  0.126700  0.831750  0.318100  1.0  -0.6288
  O  O332  1  0.961300  0.307770  0.474000  1.0  -0.6168
  O  O333  1  0.049100  0.796000  0.361200  1.0  -0.6324
  O  O334  1  0.302200  0.048000  0.748100  1.0  -0.6379
  O  O335  1  0.954200  0.908900  0.326800  1.0  -0.6663
  O  O336  1  0.076100  0.931400  0.374100  1.0  -0.6
  O  O337  1  0.095200  0.590870  0.740800  1.0  -0.6108
  O  O338  1  0.215800  0.670920  0.724100  1.0  -0.6349
  O  O339  1  0.175600  0.401230  0.069500  1.0  -0.6439
  O  O340  1  0.057600  0.433310  0.032100  1.0  -0.5722
  O  O341  1  0.468400  0.835110  0.085800  1.0  -0.6445
  O  O342  1  0.136300  0.710200  0.764100  1.0  -0.6408
  O  O343  1  0.373300  0.331750  0.181900  1.0  -0.6288
  O  O344  1  0.538700  0.807770  0.026000  1.0  -0.6182
  O  O345  1  0.450900  0.296000  0.138800  1.0  -0.634
  O  O346  1  0.197800  0.548000  0.751900  1.0  -0.6357
  O  O347  1  0.545800  0.408900  0.173200  1.0  -0.666
  O  O348  1  0.423900  0.431400  0.125900  1.0  -0.6024
  O  O349  1  0.595200  0.090870  0.740800  1.0  -0.6108
  O  O350  1  0.715800  0.170920  0.724100  1.0  -0.6349
  O  O351  1  0.675600  0.901230  0.069500  1.0  -0.6439
  O  O352  1  0.557600  0.933310  0.032100  1.0  -0.5722
  O  O353  1  0.968400  0.335110  0.085800  1.0  -0.6445
  O  O354  1  0.636300  0.210200  0.764100  1.0  -0.6408
  O  O355  1  0.873300  0.831750  0.181900  1.0  -0.6288
  O  O356  1  0.038700  0.307770  0.026000  1.0  -0.6182
  O  O357  1  0.950900  0.796000  0.138800  1.0  -0.634
  O  O358  1  0.697800  0.048000  0.751900  1.0  -0.6357
  O  O359  1  0.045800  0.908900  0.173200  1.0  -0.666
  O  O360  1  0.923900  0.931400  0.125900  1.0  -0.6024
  O  O361  1  0.095200  0.409130  0.240800  1.0  -0.6104
  O  O362  1  0.215800  0.329080  0.224100  1.0  -0.6347
  O  O363  1  0.175600  0.598770  0.569500  1.0  -0.6441
  O  O364  1  0.057600  0.566690  0.532100  1.0  -0.5723
  O  O365  1  0.468400  0.164890  0.585800  1.0  -0.6441
  O  O366  1  0.136300  0.289800  0.264100  1.0  -0.6396
  O  O367  1  0.373300  0.668250  0.681900  1.0  -0.6291
  O  O368  1  0.538700  0.192230  0.526000  1.0  -0.6185
  O  O369  1  0.450900  0.704000  0.638800  1.0  -0.6339
  O  O370  1  0.197800  0.452000  0.251900  1.0  -0.6352
  O  O371  1  0.545800  0.591100  0.673200  1.0  -0.6652
  O  O372  1  0.423900  0.568600  0.625900  1.0  -0.6017
  O  O373  1  0.595200  0.909130  0.240800  1.0  -0.6104
  O  O374  1  0.715800  0.829080  0.224100  1.0  -0.6347
  O  O375  1  0.675600  0.098770  0.569500  1.0  -0.6441
  O  O376  1  0.557600  0.066690  0.532100  1.0  -0.5723
  O  O377  1  0.968400  0.664890  0.585800  1.0  -0.6441
  O  O378  1  0.636300  0.789800  0.264100  1.0  -0.6396
  O  O379  1  0.873300  0.168250  0.681900  1.0  -0.6291
  O  O380  1  0.038700  0.692230  0.526000  1.0  -0.6185
  O  O381  1  0.950900  0.204000  0.638800  1.0  -0.6339
  O  O382  1  0.697800  0.952000  0.251900  1.0  -0.6352
  O  O383  1  0.045800  0.091100  0.673200  1.0  -0.6652
  O  O384  1  0.923900  0.068600  0.625900  1.0  -0.6017
  O  O385  1  0.904800  0.409130  0.259200  1.0  -0.6096
  O  O386  1  0.784200  0.329080  0.275900  1.0  -0.6347
  O  O387  1  0.824400  0.598770  0.930500  1.0  -0.6441
  O  O388  1  0.942400  0.566690  0.967900  1.0  -0.5716
  O  O389  1  0.531600  0.164890  0.914200  1.0  -0.6423
  O  O390  1  0.863700  0.289800  0.235900  1.0  -0.6397
  O  O391  1  0.626700  0.668250  0.818100  1.0  -0.6291
  O  O392  1  0.461300  0.192230  0.974000  1.0  -0.6173
  O  O393  1  0.549100  0.704000  0.861200  1.0  -0.6327
  O  O394  1  0.802200  0.452000  0.248100  1.0  -0.6391
  O  O395  1  0.454200  0.591100  0.826800  1.0  -0.665
  O  O396  1  0.576100  0.568600  0.874100  1.0  -0.5998
  O  O397  1  0.404800  0.909130  0.259200  1.0  -0.6096
  O  O398  1  0.284200  0.829080  0.275900  1.0  -0.6347
  O  O399  1  0.324400  0.098770  0.930500  1.0  -0.6441
  O  O400  1  0.442400  0.066690  0.967900  1.0  -0.5716
  O  O401  1  0.031600  0.664890  0.914200  1.0  -0.6423
  O  O402  1  0.363700  0.789800  0.235900  1.0  -0.6397
  O  O403  1  0.126700  0.168250  0.818100  1.0  -0.6291
  O  O404  1  0.961300  0.692230  0.974000  1.0  -0.6173
  O  O405  1  0.049100  0.204000  0.861200  1.0  -0.6327
  O  O406  1  0.302200  0.952000  0.248100  1.0  -0.6391
  O  O407  1  0.954200  0.091100  0.826800  1.0  -0.665
  O  O408  1  0.076100  0.068600  0.874100  1.0  -0.5998
