# generated using pymatgen
data_NaCdH8(C2O)8
_symmetry_space_group_name_H-M   'P 1'
_cell_length_a   18.41480000
_cell_length_b   29.55740000
_cell_length_c   16.31550000
_cell_angle_alpha   90.00000000
_cell_angle_beta   119.26900000
_cell_angle_gamma   90.00000000
_symmetry_Int_Tables_number   1
_chemical_formula_structural   NaCdH8(C2O)8
_chemical_formula_sum   'Na12 Cd12 H96 C192 O96'
_cell_volume   7746.69372607
_cell_formula_units_Z   12
loop_
 _symmetry_equiv_pos_site_id
 _symmetry_equiv_pos_as_xyz
  1  'x, y, z'
loop_
 _atom_site_type_symbol
 _atom_site_label
 _atom_site_symmetry_multiplicity
 _atom_site_fract_x
 _atom_site_fract_y
 _atom_site_fract_z
 _atom_site_occupancy
 _atom_site_charge
  Na  Na1  1  0.295780  0.613980  0.225180  1.0  0.9565
  Na  Na2  1  0.795780  0.113980  0.225180  1.0  0.9563
  Na  Na3  1  0.704220  0.613980  0.274820  1.0  0.9562
  Na  Na4  1  0.204220  0.113980  0.274820  1.0  0.9561
  Na  Na5  1  0.704220  0.386020  0.774820  1.0  0.9582
  Na  Na6  1  0.204220  0.886020  0.774820  1.0  0.9581
  Na  Na7  1  0.295780  0.386020  0.725180  1.0  0.9583
  Na  Na8  1  0.795780  0.886020  0.725180  1.0  0.9582
  Na  Na9  1  0.000000  0.658140  0.250000  1.0  0.9468
  Na  Na10  1  0.500000  0.158140  0.250000  1.0  0.9468
  Na  Na11  1  0.000000  0.341860  0.750000  1.0  0.9475
  Na  Na12  1  0.500000  0.841860  0.750000  1.0  0.9475
  Cd  Cd13  1  0.095610  0.630630  0.130570  1.0  1.0332
  Cd  Cd14  1  0.595610  0.130630  0.130570  1.0  1.0331
  Cd  Cd15  1  0.904390  0.630630  0.369430  1.0  1.0326
  Cd  Cd16  1  0.404390  0.130630  0.369430  1.0  1.0325
  Cd  Cd17  1  0.904390  0.369370  0.869430  1.0  1.0321
  Cd  Cd18  1  0.404390  0.869370  0.869430  1.0  1.0325
  Cd  Cd19  1  0.095610  0.369370  0.630570  1.0  1.0326
  Cd  Cd20  1  0.595610  0.869370  0.630570  1.0  1.0331
  Cd  Cd21  1  0.500000  0.632540  0.250000  1.0  1.0747
  Cd  Cd22  1  0.000000  0.132540  0.250000  1.0  1.0747
  Cd  Cd23  1  0.500000  0.367460  0.750000  1.0  1.0744
  Cd  Cd24  1  0.000000  0.867460  0.750000  1.0  1.0744
  H  H25  1  0.255500  0.503600  0.389500  1.0  0.1103
  H  H26  1  0.384400  0.761400  0.028400  1.0  0.1129
  H  H27  1  0.701700  0.739200  0.896700  1.0  0.1155
  H  H28  1  0.246100  0.448900  0.485600  1.0  0.1243
  H  H29  1  0.811100  0.694100  0.998400  1.0  0.1197
  H  H30  1  0.029200  0.500600  0.437600  1.0  0.1152
  H  H31  1  0.384300  0.546100  0.428600  1.0  0.1196
  H  H32  1  0.948900  0.741200  0.890600  1.0  0.1165
  H  H33  1  0.220800  0.692700  0.075700  1.0  0.112
  H  H34  1  0.609400  0.509900  0.471200  1.0  0.1123
  H  H35  1  0.840700  0.786700  0.789300  1.0  0.1156
  H  H36  1  0.038300  0.555500  0.343700  1.0  0.1167
  H  H37  1  0.755500  0.003600  0.389500  1.0  0.1103
  H  H38  1  0.884400  0.261400  0.028400  1.0  0.1129
  H  H39  1  0.201700  0.239200  0.896700  1.0  0.1155
  H  H40  1  0.746100  0.948900  0.485600  1.0  0.1243
  H  H41  1  0.311100  0.194100  0.998400  1.0  0.1197
  H  H42  1  0.529200  0.000600  0.437600  1.0  0.1152
  H  H43  1  0.884300  0.046100  0.428600  1.0  0.1196
  H  H44  1  0.448900  0.241200  0.890600  1.0  0.1165
  H  H45  1  0.720800  0.192700  0.075700  1.0  0.112
  H  H46  1  0.109400  0.009900  0.471200  1.0  0.1123
  H  H47  1  0.340700  0.286700  0.789300  1.0  0.1156
  H  H48  1  0.538300  0.055500  0.343700  1.0  0.1167
  H  H49  1  0.744500  0.503600  0.110500  1.0  0.1103
  H  H50  1  0.615600  0.761400  0.471600  1.0  0.1118
  H  H51  1  0.298300  0.739200  0.603300  1.0  0.1156
  H  H52  1  0.753900  0.448900  0.014400  1.0  0.1244
  H  H53  1  0.188900  0.694100  0.501600  1.0  0.1198
  H  H54  1  0.970800  0.500600  0.062400  1.0  0.1153
  H  H55  1  0.615700  0.546100  0.071400  1.0  0.1199
  H  H56  1  0.051100  0.741200  0.609400  1.0  0.1158
  H  H57  1  0.779200  0.692700  0.424300  1.0  0.1117
  H  H58  1  0.390600  0.509900  0.028800  1.0  0.1126
  H  H59  1  0.159300  0.786700  0.710700  1.0  0.1157
  H  H60  1  0.961700  0.555500  0.156300  1.0  0.1167
  H  H61  1  0.244500  0.003600  0.110500  1.0  0.1103
  H  H62  1  0.115600  0.261400  0.471600  1.0  0.1118
  H  H63  1  0.798300  0.239200  0.603300  1.0  0.1156
  H  H64  1  0.253900  0.948900  0.014400  1.0  0.1244
  H  H65  1  0.688900  0.194100  0.501600  1.0  0.1198
  H  H66  1  0.470800  0.000600  0.062400  1.0  0.1153
  H  H67  1  0.115700  0.046100  0.071400  1.0  0.1199
  H  H68  1  0.551100  0.241200  0.609400  1.0  0.1158
  H  H69  1  0.279200  0.192700  0.424300  1.0  0.1117
  H  H70  1  0.890600  0.009900  0.028800  1.0  0.1126
  H  H71  1  0.659300  0.286700  0.710700  1.0  0.1157
  H  H72  1  0.461700  0.055500  0.156300  1.0  0.1167
  H  H73  1  0.744500  0.496400  0.610500  1.0  0.1103
  H  H74  1  0.615600  0.238600  0.971600  1.0  0.1117
  H  H75  1  0.298300  0.260800  0.103300  1.0  0.1157
  H  H76  1  0.753900  0.551100  0.514400  1.0  0.1247
  H  H77  1  0.188900  0.305900  0.001600  1.0  0.1202
  H  H78  1  0.970800  0.499400  0.562400  1.0  0.1153
  H  H79  1  0.615700  0.453900  0.571400  1.0  0.1196
  H  H80  1  0.051100  0.258800  0.109400  1.0  0.1158
  H  H81  1  0.779200  0.307300  0.924300  1.0  0.1118
  H  H82  1  0.390600  0.490100  0.528800  1.0  0.1128
  H  H83  1  0.159300  0.213300  0.210700  1.0  0.116
  H  H84  1  0.961700  0.444500  0.656300  1.0  0.1165
  H  H85  1  0.244500  0.996400  0.610500  1.0  0.1103
  H  H86  1  0.115600  0.738600  0.971600  1.0  0.1117
  H  H87  1  0.798300  0.760800  0.103300  1.0  0.1157
  H  H88  1  0.253900  0.051100  0.514400  1.0  0.1247
  H  H89  1  0.688900  0.805900  0.001600  1.0  0.1202
  H  H90  1  0.470800  0.999400  0.562400  1.0  0.1153
  H  H91  1  0.115700  0.953900  0.571400  1.0  0.1196
  H  H92  1  0.551100  0.758800  0.109400  1.0  0.1158
  H  H93  1  0.279200  0.807300  0.924300  1.0  0.1118
  H  H94  1  0.890600  0.990100  0.528800  1.0  0.1128
  H  H95  1  0.659300  0.713300  0.210700  1.0  0.116
  H  H96  1  0.461700  0.944500  0.656300  1.0  0.1165
  H  H97  1  0.255500  0.496400  0.889500  1.0  0.11
  H  H98  1  0.384400  0.238600  0.528400  1.0  0.1124
  H  H99  1  0.701700  0.260800  0.396700  1.0  0.1153
  H  H100  1  0.246100  0.551100  0.985600  1.0  0.1246
  H  H101  1  0.811100  0.305900  0.498400  1.0  0.12
  H  H102  1  0.029200  0.499400  0.937600  1.0  0.1151
  H  H103  1  0.384300  0.453900  0.928600  1.0  0.1195
  H  H104  1  0.948900  0.258800  0.390600  1.0  0.1166
  H  H105  1  0.220800  0.307300  0.575700  1.0  0.1118
  H  H106  1  0.609400  0.490100  0.971200  1.0  0.1125
  H  H107  1  0.840700  0.213300  0.289300  1.0  0.1157
  H  H108  1  0.038300  0.444500  0.843700  1.0  0.1168
  H  H109  1  0.755500  0.996400  0.889500  1.0  0.11
  H  H110  1  0.884400  0.738600  0.528400  1.0  0.1124
  H  H111  1  0.201700  0.760800  0.396700  1.0  0.1153
  H  H112  1  0.746100  0.051100  0.985600  1.0  0.1246
  H  H113  1  0.311100  0.805900  0.498400  1.0  0.12
  H  H114  1  0.529200  0.999400  0.937600  1.0  0.1151
  H  H115  1  0.884300  0.953900  0.928600  1.0  0.1195
  H  H116  1  0.448900  0.758800  0.390600  1.0  0.1166
  H  H117  1  0.720800  0.807300  0.575700  1.0  0.1118
  H  H118  1  0.109400  0.990100  0.971200  1.0  0.1125
  H  H119  1  0.340700  0.713300  0.289300  1.0  0.1157
  H  H120  1  0.538300  0.944500  0.843700  1.0  0.1168
  C  C121  1  0.209600  0.503200  0.398900  1.0  -0.0324
  C  C122  1  0.330300  0.756730  0.016900  1.0  -0.0225
  C  C123  1  0.751600  0.739940  0.895300  1.0  -0.0191
  C  C124  1  0.204000  0.470280  0.456600  1.0  -0.037
  C  C125  1  0.817200  0.712840  0.956300  1.0  -0.0389
  C  C126  1  0.689300  0.798720  0.768100  1.0  0.7664
  C  C127  1  0.891700  0.713380  0.955100  1.0  -0.1327
  C  C128  1  0.075000  0.501200  0.428100  1.0  -0.0101
  C  C129  1  0.430900  0.527510  0.457100  1.0  -0.0236
  C  C130  1  0.147800  0.535420  0.355400  1.0  -0.123
  C  C131  1  0.136400  0.469280  0.470800  1.0  -0.1113
  C  C132  1  0.152400  0.569890  0.290700  1.0  0.7557
  C  C133  1  0.495900  0.533740  0.438700  1.0  -0.1067
  C  C134  1  0.899100  0.740860  0.892300  1.0  -0.0034
  C  C135  1  0.232500  0.715720  0.045100  1.0  -0.0236
  C  C136  1  0.314000  0.722050  0.062600  1.0  -0.1193
  C  C137  1  0.565100  0.505900  0.482700  1.0  -0.0016
  C  C138  1  0.759400  0.767930  0.832800  1.0  -0.1357
  C  C139  1  0.834300  0.768110  0.831400  1.0  -0.0396
  C  C140  1  0.382400  0.691540  0.128700  1.0  0.7338
  C  C141  1  0.080300  0.534050  0.371500  1.0  -0.027
  C  C142  1  0.963300  0.683740  0.021100  1.0  0.7342
  C  C143  1  0.128100  0.432410  0.530500  1.0  0.7162
  C  C144  1  0.492200  0.570140  0.372500  1.0  0.6985
  C  C145  1  0.709600  0.003200  0.398900  1.0  -0.0324
  C  C146  1  0.830300  0.256730  0.016900  1.0  -0.0225
  C  C147  1  0.251600  0.239940  0.895300  1.0  -0.0191
  C  C148  1  0.704000  0.970280  0.456600  1.0  -0.037
  C  C149  1  0.317200  0.212840  0.956300  1.0  -0.0389
  C  C150  1  0.189300  0.298720  0.768100  1.0  0.7664
  C  C151  1  0.391700  0.213380  0.955100  1.0  -0.1327
  C  C152  1  0.575000  0.001200  0.428100  1.0  -0.0101
  C  C153  1  0.930900  0.027510  0.457100  1.0  -0.0236
  C  C154  1  0.647800  0.035420  0.355400  1.0  -0.123
  C  C155  1  0.636400  0.969280  0.470800  1.0  -0.1113
  C  C156  1  0.652400  0.069890  0.290700  1.0  0.7557
  C  C157  1  0.995900  0.033740  0.438700  1.0  -0.1067
  C  C158  1  0.399100  0.240860  0.892300  1.0  -0.0034
  C  C159  1  0.732500  0.215720  0.045100  1.0  -0.0236
  C  C160  1  0.814000  0.222050  0.062600  1.0  -0.1193
  C  C161  1  0.065100  0.005900  0.482700  1.0  -0.0016
  C  C162  1  0.259400  0.267930  0.832800  1.0  -0.1357
  C  C163  1  0.334300  0.268110  0.831400  1.0  -0.0396
  C  C164  1  0.882400  0.191540  0.128700  1.0  0.7338
  C  C165  1  0.580300  0.034050  0.371500  1.0  -0.027
  C  C166  1  0.463300  0.183740  0.021100  1.0  0.7342
  C  C167  1  0.628100  0.932410  0.530500  1.0  0.7162
  C  C168  1  0.992200  0.070140  0.372500  1.0  0.6985
  C  C169  1  0.790400  0.503200  0.101100  1.0  -0.033
  C  C170  1  0.669700  0.756730  0.483100  1.0  -0.0216
  C  C171  1  0.248400  0.739940  0.604700  1.0  -0.0188
  C  C172  1  0.796000  0.470280  0.043400  1.0  -0.0353
  C  C173  1  0.182800  0.712840  0.543700  1.0  -0.0404
  C  C174  1  0.310700  0.798720  0.731900  1.0  0.7654
  C  C175  1  0.108300  0.713380  0.544900  1.0  -0.1329
  C  C176  1  0.925000  0.501200  0.071900  1.0  -0.0104
  C  C177  1  0.569100  0.527510  0.042900  1.0  -0.0214
  C  C178  1  0.852200  0.535420  0.144600  1.0  -0.1221
  C  C179  1  0.863600  0.469280  0.029200  1.0  -0.1118
  C  C180  1  0.847600  0.569890  0.209300  1.0  0.7554
  C  C181  1  0.504100  0.533740  0.061300  1.0  -0.1072
  C  C182  1  0.100900  0.740860  0.607700  1.0  -0.0028
  C  C183  1  0.767500  0.715720  0.454900  1.0  -0.024
  C  C184  1  0.686000  0.722050  0.437400  1.0  -0.1197
  C  C185  1  0.434900  0.505900  0.017300  1.0  -0.0022
  C  C186  1  0.240600  0.767930  0.667200  1.0  -0.1349
  C  C187  1  0.165700  0.768110  0.668600  1.0  -0.0396
  C  C188  1  0.617600  0.691540  0.371300  1.0  0.7334
  C  C189  1  0.919700  0.534050  0.128500  1.0  -0.0288
  C  C190  1  0.036700  0.683740  0.478900  1.0  0.7355
  C  C191  1  0.871900  0.432410  0.969500  1.0  0.7162
  C  C192  1  0.507800  0.570140  0.127500  1.0  0.6985
  C  C193  1  0.290400  0.003200  0.101100  1.0  -0.033
  C  C194  1  0.169700  0.256730  0.483100  1.0  -0.0216
  C  C195  1  0.748400  0.239940  0.604700  1.0  -0.0188
  C  C196  1  0.296000  0.970280  0.043400  1.0  -0.0353
  C  C197  1  0.682800  0.212840  0.543700  1.0  -0.0404
  C  C198  1  0.810700  0.298720  0.731900  1.0  0.7654
  C  C199  1  0.608300  0.213380  0.544900  1.0  -0.1329
  C  C200  1  0.425000  0.001200  0.071900  1.0  -0.0104
  C  C201  1  0.069100  0.027510  0.042900  1.0  -0.0214
  C  C202  1  0.352200  0.035420  0.144600  1.0  -0.1221
  C  C203  1  0.363600  0.969280  0.029200  1.0  -0.1118
  C  C204  1  0.347600  0.069890  0.209300  1.0  0.7554
  C  C205  1  0.004100  0.033740  0.061300  1.0  -0.1072
  C  C206  1  0.600900  0.240860  0.607700  1.0  -0.0028
  C  C207  1  0.267500  0.215720  0.454900  1.0  -0.024
  C  C208  1  0.186000  0.222050  0.437400  1.0  -0.1197
  C  C209  1  0.934900  0.005900  0.017300  1.0  -0.0022
  C  C210  1  0.740600  0.267930  0.667200  1.0  -0.1349
  C  C211  1  0.665700  0.268110  0.668600  1.0  -0.0396
  C  C212  1  0.117600  0.191540  0.371300  1.0  0.7334
  C  C213  1  0.419700  0.034050  0.128500  1.0  -0.0288
  C  C214  1  0.536700  0.183740  0.478900  1.0  0.7355
  C  C215  1  0.371900  0.932410  0.969500  1.0  0.7162
  C  C216  1  0.007800  0.070140  0.127500  1.0  0.6985
  C  C217  1  0.790400  0.496800  0.601100  1.0  -0.0332
  C  C218  1  0.669700  0.243270  0.983100  1.0  -0.0215
  C  C219  1  0.248400  0.260060  0.104700  1.0  -0.0186
  C  C220  1  0.796000  0.529720  0.543400  1.0  -0.0372
  C  C221  1  0.182800  0.287160  0.043700  1.0  -0.0397
  C  C222  1  0.310700  0.201280  0.231900  1.0  0.7651
  C  C223  1  0.108300  0.286620  0.044900  1.0  -0.1314
  C  C224  1  0.925000  0.498800  0.571900  1.0  -0.0099
  C  C225  1  0.569100  0.472490  0.542900  1.0  -0.0188
  C  C226  1  0.852200  0.464580  0.644600  1.0  -0.1235
  C  C227  1  0.863600  0.530720  0.529200  1.0  -0.1105
  C  C228  1  0.847600  0.430110  0.709300  1.0  0.7552
  C  C229  1  0.504100  0.466260  0.561300  1.0  -0.1078
  C  C230  1  0.100900  0.259140  0.107700  1.0  -0.0031
  C  C231  1  0.767500  0.284280  0.954900  1.0  -0.0242
  C  C232  1  0.686000  0.277950  0.937400  1.0  -0.12
  C  C233  1  0.434900  0.494100  0.517300  1.0  -0.0021
  C  C234  1  0.240600  0.232070  0.167200  1.0  -0.1353
  C  C235  1  0.165700  0.231890  0.168600  1.0  -0.0392
  C  C236  1  0.617600  0.308460  0.871300  1.0  0.7333
  C  C237  1  0.919700  0.465950  0.628500  1.0  -0.0288
  C  C238  1  0.036700  0.316260  0.978900  1.0  0.7358
  C  C239  1  0.871900  0.567590  0.469500  1.0  0.7162
  C  C240  1  0.507800  0.429860  0.627500  1.0  0.6988
  C  C241  1  0.290400  0.996800  0.601100  1.0  -0.0332
  C  C242  1  0.169700  0.743270  0.983100  1.0  -0.0215
  C  C243  1  0.748400  0.760060  0.104700  1.0  -0.0186
  C  C244  1  0.296000  0.029720  0.543400  1.0  -0.0372
  C  C245  1  0.682800  0.787160  0.043700  1.0  -0.0397
  C  C246  1  0.810700  0.701280  0.231900  1.0  0.7651
  C  C247  1  0.608300  0.786620  0.044900  1.0  -0.1314
  C  C248  1  0.425000  0.998800  0.571900  1.0  -0.0099
  C  C249  1  0.069100  0.972490  0.542900  1.0  -0.0188
  C  C250  1  0.352200  0.964580  0.644600  1.0  -0.1235
  C  C251  1  0.363600  0.030720  0.529200  1.0  -0.1105
  C  C252  1  0.347600  0.930110  0.709300  1.0  0.7552
  C  C253  1  0.004100  0.966260  0.561300  1.0  -0.1078
  C  C254  1  0.600900  0.759140  0.107700  1.0  -0.0031
  C  C255  1  0.267500  0.784280  0.954900  1.0  -0.0242
  C  C256  1  0.186000  0.777950  0.937400  1.0  -0.12
  C  C257  1  0.934900  0.994100  0.517300  1.0  -0.0021
  C  C258  1  0.740600  0.732070  0.167200  1.0  -0.1353
  C  C259  1  0.665700  0.731890  0.168600  1.0  -0.0392
  C  C260  1  0.117600  0.808460  0.871300  1.0  0.7333
  C  C261  1  0.419700  0.965950  0.628500  1.0  -0.0288
  C  C262  1  0.536700  0.816260  0.978900  1.0  0.7358
  C  C263  1  0.371900  0.067590  0.469500  1.0  0.7162
  C  C264  1  0.007800  0.929860  0.627500  1.0  0.6988
  C  C265  1  0.209600  0.496800  0.898900  1.0  -0.0323
  C  C266  1  0.330300  0.243270  0.516900  1.0  -0.0225
  C  C267  1  0.751600  0.260060  0.395300  1.0  -0.0192
  C  C268  1  0.204000  0.529720  0.956600  1.0  -0.0375
  C  C269  1  0.817200  0.287160  0.456300  1.0  -0.0398
  C  C270  1  0.689300  0.201280  0.268100  1.0  0.7663
  C  C271  1  0.891700  0.286620  0.455100  1.0  -0.1321
  C  C272  1  0.075000  0.498800  0.928100  1.0  -0.0101
  C  C273  1  0.430900  0.472490  0.957100  1.0  -0.0202
  C  C274  1  0.147800  0.464580  0.855400  1.0  -0.1232
  C  C275  1  0.136400  0.530720  0.970800  1.0  -0.111
  C  C276  1  0.152400  0.430110  0.790700  1.0  0.7556
  C  C277  1  0.495900  0.466260  0.938700  1.0  -0.1082
  C  C278  1  0.899100  0.259140  0.392300  1.0  -0.0034
  C  C279  1  0.232500  0.284280  0.545100  1.0  -0.0242
  C  C280  1  0.314000  0.277950  0.562600  1.0  -0.1194
  C  C281  1  0.565100  0.494100  0.982700  1.0  -0.0015
  C  C282  1  0.759400  0.232070  0.332800  1.0  -0.1354
  C  C283  1  0.834300  0.231890  0.331400  1.0  -0.0395
  C  C284  1  0.382400  0.308460  0.628700  1.0  0.7339
  C  C285  1  0.080300  0.465950  0.871500  1.0  -0.0274
  C  C286  1  0.963300  0.316260  0.521100  1.0  0.7342
  C  C287  1  0.128100  0.567590  0.030500  1.0  0.7162
  C  C288  1  0.492200  0.429860  0.872500  1.0  0.6986
  C  C289  1  0.709600  0.996800  0.898900  1.0  -0.0323
  C  C290  1  0.830300  0.743270  0.516900  1.0  -0.0225
  C  C291  1  0.251600  0.760060  0.395300  1.0  -0.0192
  C  C292  1  0.704000  0.029720  0.956600  1.0  -0.0375
  C  C293  1  0.317200  0.787160  0.456300  1.0  -0.0398
  C  C294  1  0.189300  0.701280  0.268100  1.0  0.7663
  C  C295  1  0.391700  0.786620  0.455100  1.0  -0.1321
  C  C296  1  0.575000  0.998800  0.928100  1.0  -0.0101
  C  C297  1  0.930900  0.972490  0.957100  1.0  -0.0202
  C  C298  1  0.647800  0.964580  0.855400  1.0  -0.1232
  C  C299  1  0.636400  0.030720  0.970800  1.0  -0.111
  C  C300  1  0.652400  0.930110  0.790700  1.0  0.7556
  C  C301  1  0.995900  0.966260  0.938700  1.0  -0.1082
  C  C302  1  0.399100  0.759140  0.392300  1.0  -0.0034
  C  C303  1  0.732500  0.784280  0.545100  1.0  -0.0242
  C  C304  1  0.814000  0.777950  0.562600  1.0  -0.1194
  C  C305  1  0.065100  0.994100  0.982700  1.0  -0.0015
  C  C306  1  0.259400  0.732070  0.332800  1.0  -0.1354
  C  C307  1  0.334300  0.731890  0.331400  1.0  -0.0395
  C  C308  1  0.882400  0.808460  0.628700  1.0  0.7339
  C  C309  1  0.580300  0.965950  0.871500  1.0  -0.0274
  C  C310  1  0.463300  0.816260  0.521100  1.0  0.7342
  C  C311  1  0.628100  0.067590  0.030500  1.0  0.7162
  C  C312  1  0.992200  0.929860  0.872500  1.0  0.6986
  O  O313  1  0.090890  0.596390  0.249600  1.0  -0.6204
  O  O314  1  0.060900  0.430440  0.532700  1.0  -0.564
  O  O315  1  0.958880  0.661970  0.084100  1.0  -0.6637
  O  O316  1  0.705890  0.827040  0.721500  1.0  -0.6242
  O  O317  1  0.367000  0.663940  0.176900  1.0  -0.6352
  O  O318  1  0.556100  0.577340  0.365600  1.0  -0.6025
  O  O319  1  0.213700  0.570130  0.278200  1.0  -0.7469
  O  O320  1  0.186300  0.405010  0.573300  1.0  -0.6927
  O  O321  1  0.620100  0.795230  0.763900  1.0  -0.7326
  O  O322  1  0.451900  0.693540  0.133400  1.0  -0.6318
  O  O323  1  0.025900  0.681790  0.009500  1.0  -0.5652
  O  O324  1  0.427200  0.591820  0.327400  1.0  -0.7073
  O  O325  1  0.590890  0.096390  0.249600  1.0  -0.6204
  O  O326  1  0.560900  0.930440  0.532700  1.0  -0.564
  O  O327  1  0.458880  0.161970  0.084100  1.0  -0.6637
  O  O328  1  0.205890  0.327040  0.721500  1.0  -0.6242
  O  O329  1  0.867000  0.163940  0.176900  1.0  -0.6352
  O  O330  1  0.056100  0.077340  0.365600  1.0  -0.6025
  O  O331  1  0.713700  0.070130  0.278200  1.0  -0.7469
  O  O332  1  0.686300  0.905010  0.573300  1.0  -0.6927
  O  O333  1  0.120100  0.295230  0.763900  1.0  -0.7326
  O  O334  1  0.951900  0.193540  0.133400  1.0  -0.6318
  O  O335  1  0.525900  0.181790  0.009500  1.0  -0.5652
  O  O336  1  0.927200  0.091820  0.327400  1.0  -0.7073
  O  O337  1  0.909110  0.596390  0.250400  1.0  -0.621
  O  O338  1  0.939100  0.430440  0.967300  1.0  -0.5625
  O  O339  1  0.041120  0.661970  0.415900  1.0  -0.6635
  O  O340  1  0.294110  0.827040  0.778500  1.0  -0.6243
  O  O341  1  0.633000  0.663940  0.323100  1.0  -0.6366
  O  O342  1  0.443900  0.577340  0.134400  1.0  -0.6028
  O  O343  1  0.786300  0.570130  0.221800  1.0  -0.7466
  O  O344  1  0.813700  0.405010  0.926700  1.0  -0.6919
  O  O345  1  0.379900  0.795230  0.736100  1.0  -0.7341
  O  O346  1  0.548100  0.693540  0.366600  1.0  -0.6314
  O  O347  1  0.974100  0.681790  0.490500  1.0  -0.5655
  O  O348  1  0.572800  0.591820  0.172600  1.0  -0.709
  O  O349  1  0.409110  0.096390  0.250400  1.0  -0.621
  O  O350  1  0.439100  0.930440  0.967300  1.0  -0.5625
  O  O351  1  0.541120  0.161970  0.415900  1.0  -0.6635
  O  O352  1  0.794110  0.327040  0.778500  1.0  -0.6243
  O  O353  1  0.133000  0.163940  0.323100  1.0  -0.6366
  O  O354  1  0.943900  0.077340  0.134400  1.0  -0.6028
  O  O355  1  0.286300  0.070130  0.221800  1.0  -0.7466
  O  O356  1  0.313700  0.905010  0.926700  1.0  -0.6919
  O  O357  1  0.879900  0.295230  0.736100  1.0  -0.7341
  O  O358  1  0.048100  0.193540  0.366600  1.0  -0.6314
  O  O359  1  0.474100  0.181790  0.490500  1.0  -0.5655
  O  O360  1  0.072800  0.091820  0.172600  1.0  -0.709
  O  O361  1  0.909110  0.403610  0.750400  1.0  -0.6199
  O  O362  1  0.939100  0.569560  0.467300  1.0  -0.5625
  O  O363  1  0.041120  0.338030  0.915900  1.0  -0.6642
  O  O364  1  0.294110  0.172960  0.278500  1.0  -0.6252
  O  O365  1  0.633000  0.336060  0.823100  1.0  -0.6371
  O  O366  1  0.443900  0.422660  0.634400  1.0  -0.6022
  O  O367  1  0.786300  0.429870  0.721800  1.0  -0.7472
  O  O368  1  0.813700  0.594990  0.426700  1.0  -0.6919
  O  O369  1  0.379900  0.204770  0.236100  1.0  -0.7336
  O  O370  1  0.548100  0.306460  0.866600  1.0  -0.6317
  O  O371  1  0.974100  0.318210  0.990500  1.0  -0.565
  O  O372  1  0.572800  0.408180  0.672600  1.0  -0.7089
  O  O373  1  0.409110  0.903610  0.750400  1.0  -0.6199
  O  O374  1  0.439100  0.069560  0.467300  1.0  -0.5625
  O  O375  1  0.541120  0.838030  0.915900  1.0  -0.6642
  O  O376  1  0.794110  0.672960  0.278500  1.0  -0.6252
  O  O377  1  0.133000  0.836060  0.823100  1.0  -0.6371
  O  O378  1  0.943900  0.922660  0.634400  1.0  -0.6022
  O  O379  1  0.286300  0.929870  0.721800  1.0  -0.7472
  O  O380  1  0.313700  0.094990  0.426700  1.0  -0.6919
  O  O381  1  0.879900  0.704770  0.236100  1.0  -0.7336
  O  O382  1  0.048100  0.806460  0.866600  1.0  -0.6317
  O  O383  1  0.474100  0.818210  0.990500  1.0  -0.565
  O  O384  1  0.072800  0.908180  0.672600  1.0  -0.7089
  O  O385  1  0.090890  0.403610  0.749600  1.0  -0.6206
  O  O386  1  0.060900  0.569560  0.032700  1.0  -0.5636
  O  O387  1  0.958880  0.338030  0.584100  1.0  -0.6645
  O  O388  1  0.705890  0.172960  0.221500  1.0  -0.6253
  O  O389  1  0.367000  0.336060  0.676900  1.0  -0.6356
  O  O390  1  0.556100  0.422660  0.865600  1.0  -0.6032
  O  O391  1  0.213700  0.429870  0.778200  1.0  -0.7468
  O  O392  1  0.186300  0.594990  0.073300  1.0  -0.6939
  O  O393  1  0.620100  0.204770  0.263900  1.0  -0.7333
  O  O394  1  0.451900  0.306460  0.633400  1.0  -0.632
  O  O395  1  0.025900  0.318210  0.509500  1.0  -0.5645
  O  O396  1  0.427200  0.408180  0.827400  1.0  -0.7081
  O  O397  1  0.590890  0.903610  0.749600  1.0  -0.6206
  O  O398  1  0.560900  0.069560  0.032700  1.0  -0.5636
  O  O399  1  0.458880  0.838030  0.584100  1.0  -0.6645
  O  O400  1  0.205890  0.672960  0.221500  1.0  -0.6253
  O  O401  1  0.867000  0.836060  0.676900  1.0  -0.6356
  O  O402  1  0.056100  0.922660  0.865600  1.0  -0.6032
  O  O403  1  0.713700  0.929870  0.778200  1.0  -0.7468
  O  O404  1  0.686300  0.094990  0.073300  1.0  -0.6939
  O  O405  1  0.120100  0.704770  0.263900  1.0  -0.7333
  O  O406  1  0.951900  0.806460  0.633400  1.0  -0.632
  O  O407  1  0.525900  0.818210  0.509500  1.0  -0.5645
  O  O408  1  0.927200  0.908180  0.827400  1.0  -0.7081
