# generated using pymatgen
data_CaCd2H16(C2O)16
_symmetry_space_group_name_H-M   'P 1'
_cell_length_a   19.99900000
_cell_length_b   18.62840000
_cell_length_c   35.12300000
_cell_angle_alpha   90.00000000
_cell_angle_beta   90.00000000
_cell_angle_gamma   90.00000000
_symmetry_Int_Tables_number   1
_chemical_formula_structural   CaCd2H16(C2O)16
_chemical_formula_sum   'Ca8 Cd16 H128 C256 O128'
_cell_volume   13085.05157871
_cell_formula_units_Z   8
loop_
 _symmetry_equiv_pos_site_id
 _symmetry_equiv_pos_as_xyz
  1  'x, y, z'
loop_
 _atom_site_type_symbol
 _atom_site_label
 _atom_site_symmetry_multiplicity
 _atom_site_fract_x
 _atom_site_fract_y
 _atom_site_fract_z
 _atom_site_occupancy
 _atom_site_charge
  Ca  Ca1  1  0.777740  0.233960  0.606440  1.0  1.5846
  Ca  Ca2  1  0.019540  0.771180  0.616840  1.0  1.5789
  Ca  Ca3  1  0.222260  0.766040  0.106440  1.0  1.5847
  Ca  Ca4  1  0.980460  0.228820  0.116840  1.0  1.5785
  Ca  Ca5  1  0.277740  0.266040  0.606440  1.0  1.5847
  Ca  Ca6  1  0.519540  0.728820  0.616840  1.0  1.5791
  Ca  Ca7  1  0.722260  0.733960  0.106440  1.0  1.5846
  Ca  Ca8  1  0.480460  0.271180  0.116840  1.0  1.5784
  Cd  Cd9  1  0.818860  0.229730  0.711120  1.0  1.128
  Cd  Cd10  1  0.747350  0.257950  0.504120  1.0  1.084
  Cd  Cd11  1  0.060440  0.745300  0.518100  1.0  1.0727
  Cd  Cd12  1  0.499410  0.734300  0.719080  1.0  0.9918
  Cd  Cd13  1  0.181140  0.770270  0.211120  1.0  1.127
  Cd  Cd14  1  0.252650  0.742050  0.004120  1.0  1.0849
  Cd  Cd15  1  0.939560  0.254700  0.018100  1.0  1.0728
  Cd  Cd16  1  0.500590  0.265700  0.219080  1.0  0.9918
  Cd  Cd17  1  0.318860  0.270270  0.711120  1.0  1.1272
  Cd  Cd18  1  0.247350  0.242050  0.504120  1.0  1.0841
  Cd  Cd19  1  0.560440  0.754700  0.518100  1.0  1.0727
  Cd  Cd20  1  0.999410  0.765700  0.719080  1.0  0.9919
  Cd  Cd21  1  0.681140  0.729730  0.211120  1.0  1.1272
  Cd  Cd22  1  0.752650  0.757950  0.004120  1.0  1.0847
  Cd  Cd23  1  0.439560  0.245300  0.018100  1.0  1.0728
  Cd  Cd24  1  0.000590  0.234300  0.219080  1.0  0.9917
  H  H25  1  0.699800  0.431000  0.733200  1.0  0.1221
  H  H26  1  0.642300  0.538900  0.737100  1.0  0.1359
  H  H27  1  0.600700  0.523100  0.625000  1.0  0.1255
  H  H28  1  0.655000  0.414900  0.622700  1.0  0.1147
  H  H29  1  0.711200  0.002400  0.616300  1.0  0.1256
  H  H30  1  0.648600  0.899200  0.622600  1.0  0.1185
  H  H31  1  0.616400  0.943400  0.733000  1.0  0.1328
  H  H32  1  0.676300  0.047500  0.726600  1.0  0.1293
  H  H33  1  0.879500  0.052900  0.473300  1.0  0.1294
  H  H34  1  0.941200  0.947000  0.478500  1.0  0.1253
  H  H35  1  0.913300  0.943700  0.589400  1.0  0.123
  H  H36  1  0.861000  0.057600  0.586200  1.0  0.1234
  H  H37  1  0.576800  0.194400  0.411900  1.0  0.1375
  H  H38  1  0.532400  0.187200  0.349200  1.0  0.1304
  H  H39  1  0.661400  0.338100  0.316500  1.0  0.1175
  H  H40  1  0.716700  0.326700  0.373500  1.0  0.1327
  H  H41  1  0.860300  0.449300  0.611400  1.0  0.1268
  H  H42  1  0.917700  0.557800  0.614600  1.0  0.1252
  H  H43  1  0.925300  0.567700  0.501900  1.0  0.1289
  H  H44  1  0.874300  0.457400  0.494900  1.0  0.1385
  H  H45  1  0.031900  0.348200  0.650200  1.0  0.1283
  H  H46  1  0.119300  0.335600  0.609300  1.0  0.1197
  H  H47  1  0.026000  0.164100  0.558800  1.0  0.1267
  H  H48  1  0.935000  0.179400  0.599500  1.0  0.1238
  H  H49  1  0.183500  0.828800  0.625500  1.0  0.1003
  H  H50  1  0.280500  0.850500  0.661600  1.0  0.1189
  H  H51  1  0.365400  0.676200  0.616600  1.0  0.1259
  H  H52  1  0.272100  0.658000  0.578600  1.0  0.1326
  H  H53  1  0.207800  0.811600  0.413400  1.0  0.1179
  H  H54  1  0.235400  0.821700  0.348500  1.0  0.1375
  H  H55  1  0.095400  0.668800  0.327700  1.0  0.1446
  H  H56  1  0.070800  0.666400  0.390500  1.0  0.1283
  H  H57  1  0.300200  0.569000  0.233200  1.0  0.1216
  H  H58  1  0.357700  0.461100  0.237100  1.0  0.1357
  H  H59  1  0.399300  0.476900  0.125000  1.0  0.1259
  H  H60  1  0.345000  0.585100  0.122700  1.0  0.1143
  H  H61  1  0.288800  0.997600  0.116300  1.0  0.1256
  H  H62  1  0.351400  0.100800  0.122600  1.0  0.1182
  H  H63  1  0.383600  0.056600  0.233000  1.0  0.133
  H  H64  1  0.323700  0.952500  0.226600  1.0  0.1293
  H  H65  1  0.120500  0.947100  0.973300  1.0  0.1294
  H  H66  1  0.058800  0.053000  0.978500  1.0  0.1248
  H  H67  1  0.086700  0.056300  0.089400  1.0  0.1227
  H  H68  1  0.139000  0.942400  0.086200  1.0  0.1236
  H  H69  1  0.423200  0.805600  0.911900  1.0  0.1371
  H  H70  1  0.467600  0.812800  0.849200  1.0  0.1309
  H  H71  1  0.338600  0.661900  0.816500  1.0  0.1174
  H  H72  1  0.283300  0.673300  0.873500  1.0  0.1321
  H  H73  1  0.139700  0.550700  0.111400  1.0  0.1266
  H  H74  1  0.082300  0.442200  0.114600  1.0  0.1251
  H  H75  1  0.074700  0.432300  0.001900  1.0  0.1289
  H  H76  1  0.125700  0.542600  0.994900  1.0  0.1385
  H  H77  1  0.968100  0.651800  0.150200  1.0  0.1279
  H  H78  1  0.880700  0.664400  0.109300  1.0  0.1197
  H  H79  1  0.974000  0.835900  0.058800  1.0  0.1269
  H  H80  1  0.065000  0.820600  0.099500  1.0  0.1234
  H  H81  1  0.816500  0.171200  0.125500  1.0  0.1001
  H  H82  1  0.719500  0.149500  0.161600  1.0  0.1194
  H  H83  1  0.634600  0.323800  0.116600  1.0  0.1259
  H  H84  1  0.727900  0.342000  0.078600  1.0  0.1327
  H  H85  1  0.792200  0.188400  0.913400  1.0  0.1178
  H  H86  1  0.764600  0.178300  0.848500  1.0  0.1372
  H  H87  1  0.904600  0.331200  0.827700  1.0  0.1461
  H  H88  1  0.929200  0.333600  0.890500  1.0  0.1291
  H  H89  1  0.199800  0.069000  0.733200  1.0  0.122
  H  H90  1  0.142300  0.961100  0.737100  1.0  0.1357
  H  H91  1  0.100700  0.976900  0.625000  1.0  0.1256
  H  H92  1  0.155000  0.085100  0.622700  1.0  0.1146
  H  H93  1  0.211200  0.497600  0.616300  1.0  0.1256
  H  H94  1  0.148600  0.600800  0.622600  1.0  0.118
  H  H95  1  0.116400  0.556600  0.733000  1.0  0.133
  H  H96  1  0.176300  0.452500  0.726600  1.0  0.1294
  H  H97  1  0.379500  0.447100  0.473300  1.0  0.1295
  H  H98  1  0.441200  0.553000  0.478500  1.0  0.1249
  H  H99  1  0.413300  0.556300  0.589400  1.0  0.1229
  H  H100  1  0.361000  0.442400  0.586200  1.0  0.1236
  H  H101  1  0.076800  0.305600  0.411900  1.0  0.1375
  H  H102  1  0.032400  0.312800  0.349200  1.0  0.1308
  H  H103  1  0.161400  0.161900  0.316500  1.0  0.1171
  H  H104  1  0.216700  0.173300  0.373500  1.0  0.1323
  H  H105  1  0.360300  0.050700  0.611400  1.0  0.1267
  H  H106  1  0.417700  0.942200  0.614600  1.0  0.1252
  H  H107  1  0.425300  0.932300  0.501900  1.0  0.1289
  H  H108  1  0.374300  0.042600  0.494900  1.0  0.1386
  H  H109  1  0.531900  0.151800  0.650200  1.0  0.1282
  H  H110  1  0.619300  0.164400  0.609300  1.0  0.1197
  H  H111  1  0.526000  0.335900  0.558800  1.0  0.1273
  H  H112  1  0.435000  0.320600  0.599500  1.0  0.1238
  H  H113  1  0.683500  0.671200  0.625500  1.0  0.1003
  H  H114  1  0.780500  0.649500  0.661600  1.0  0.1195
  H  H115  1  0.865400  0.823800  0.616600  1.0  0.1254
  H  H116  1  0.772100  0.842000  0.578600  1.0  0.1329
  H  H117  1  0.707800  0.688400  0.413400  1.0  0.1175
  H  H118  1  0.735400  0.678300  0.348500  1.0  0.137
  H  H119  1  0.595400  0.831200  0.327700  1.0  0.1459
  H  H120  1  0.570800  0.833600  0.390500  1.0  0.1289
  H  H121  1  0.800200  0.931000  0.233200  1.0  0.1218
  H  H122  1  0.857700  0.038900  0.237100  1.0  0.1361
  H  H123  1  0.899300  0.023100  0.125000  1.0  0.1258
  H  H124  1  0.845000  0.914900  0.122700  1.0  0.1145
  H  H125  1  0.788800  0.502400  0.116300  1.0  0.1256
  H  H126  1  0.851400  0.399200  0.122600  1.0  0.1185
  H  H127  1  0.883600  0.443400  0.233000  1.0  0.1327
  H  H128  1  0.823700  0.547500  0.226600  1.0  0.129
  H  H129  1  0.620500  0.552900  0.973300  1.0  0.1291
  H  H130  1  0.558800  0.447000  0.978500  1.0  0.1253
  H  H131  1  0.586700  0.443700  0.089400  1.0  0.1229
  H  H132  1  0.639000  0.557600  0.086200  1.0  0.1234
  H  H133  1  0.923200  0.694400  0.911900  1.0  0.1364
  H  H134  1  0.967600  0.687200  0.849200  1.0  0.1308
  H  H135  1  0.838600  0.838100  0.816500  1.0  0.1177
  H  H136  1  0.783300  0.826700  0.873500  1.0  0.1321
  H  H137  1  0.639700  0.949300  0.111400  1.0  0.1268
  H  H138  1  0.582300  0.057800  0.114600  1.0  0.1249
  H  H139  1  0.574700  0.067700  0.001900  1.0  0.1291
  H  H140  1  0.625700  0.957400  0.994900  1.0  0.1384
  H  H141  1  0.468100  0.848200  0.150200  1.0  0.1282
  H  H142  1  0.380700  0.835600  0.109300  1.0  0.1202
  H  H143  1  0.474000  0.664100  0.058800  1.0  0.1265
  H  H144  1  0.565000  0.679400  0.099500  1.0  0.1235
  H  H145  1  0.316500  0.328800  0.125500  1.0  0.1
  H  H146  1  0.219500  0.350500  0.161600  1.0  0.1187
  H  H147  1  0.134600  0.176200  0.116600  1.0  0.1261
  H  H148  1  0.227900  0.158000  0.078600  1.0  0.1324
  H  H149  1  0.292200  0.311600  0.913400  1.0  0.1176
  H  H150  1  0.264600  0.321700  0.848500  1.0  0.1376
  H  H151  1  0.404600  0.168800  0.827700  1.0  0.145
  H  H152  1  0.429200  0.166400  0.890500  1.0  0.1285
  C  C153  1  0.720900  0.341100  0.677000  1.0  0.7468
  C  C154  1  0.683000  0.411200  0.678000  1.0  -0.1166
  C  C155  1  0.973300  0.268500  0.628900  1.0  -0.0991
  C  C156  1  0.679000  0.449200  0.711600  1.0  -0.014
  C  C157  1  0.644800  0.514000  0.714200  1.0  -0.0807
  C  C158  1  0.613700  0.541000  0.680800  1.0  -0.1218
  C  C159  1  0.619500  0.504200  0.647000  1.0  -0.0389
  C  C160  1  0.652700  0.439800  0.645600  1.0  -0.0493
  C  C161  1  0.572200  0.608700  0.683000  1.0  0.7609
  C  C162  1  0.735400  0.109000  0.666667  1.0  0.722
  C  C163  1  0.698800  0.037400  0.670300  1.0  -0.0878
  C  C164  1  0.691500  0.991200  0.639500  1.0  -0.0249
  C  C165  1  0.655300  0.929000  0.643500  1.0  -0.022
  C  C166  1  0.628600  0.910400  0.678700  1.0  -0.1192
  C  C167  1  0.635500  0.955400  0.709700  1.0  -0.0413
  C  C168  1  0.670700  0.017500  0.705700  1.0  -0.0161
  C  C169  1  0.590800  0.840400  0.682800  1.0  0.6793
  C  C170  1  0.833400  0.140200  0.527100  1.0  0.7646
  C  C171  1  0.866500  0.066700  0.530000  1.0  -0.111
  C  C172  1  0.888200  0.033000  0.497000  1.0  -0.044
  C  C173  1  0.923600  0.968500  0.500200  1.0  -0.0296
  C  C174  1  0.932300  0.936700  0.534900  1.0  -0.1245
  C  C175  1  0.908700  0.966800  0.566000  1.0  -0.033
  C  C176  1  0.875800  0.035200  0.564100  1.0  -0.0522
  C  C177  1  0.969400  0.866700  0.538800  1.0  0.7276
  C  C178  1  0.685300  0.256200  0.436400  1.0  0.6669
  C  C179  1  0.653700  0.257000  0.396600  1.0  -0.0839
  C  C180  1  0.596500  0.219000  0.391700  1.0  -0.0607
  C  C181  1  0.567700  0.217900  0.354800  1.0  -0.0526
  C  C182  1  0.593600  0.264500  0.326300  1.0  -0.1253
  C  C183  1  0.646000  0.305400  0.334500  1.0  -0.0514
  C  C184  1  0.678100  0.300200  0.369100  1.0  -0.0479
  C  C185  1  0.556700  0.265300  0.288400  1.0  0.6868
  C  C186  1  0.825800  0.368500  0.548700  1.0  0.7356
  C  C187  1  0.860000  0.439400  0.552300  1.0  -0.116
  C  C188  1  0.874000  0.472100  0.589100  1.0  -0.0316
  C  C189  1  0.907800  0.537300  0.591100  1.0  -0.0649
  C  C190  1  0.925500  0.569500  0.559400  1.0  -0.1414
  C  C191  1  0.912600  0.541700  0.523400  1.0  -0.0608
  C  C192  1  0.881400  0.476700  0.519000  1.0  -0.0479
  C  C193  1  0.963400  0.641900  0.561700  1.0  0.7365
  C  C194  1  0.917700  0.273100  0.657100  1.0  0.7177
  C  C195  1  0.030500  0.312500  0.631700  1.0  -0.0322
  C  C196  1  0.083400  0.303900  0.607900  1.0  -0.0259
  C  C197  1  0.026500  0.200100  0.577100  1.0  -0.0502
  C  C198  1  0.971800  0.209700  0.601100  1.0  -0.0566
  C  C199  1  0.084500  0.246700  0.580900  1.0  -0.1502
  C  C200  1  0.143100  0.235700  0.555300  1.0  0.7024
  C  C201  1  0.160700  0.735700  0.571500  1.0  0.6738
  C  C202  1  0.218900  0.749300  0.597300  1.0  -0.0204
  C  C203  1  0.220600  0.799300  0.622400  1.0  -0.0281
  C  C204  1  0.278300  0.810700  0.645700  1.0  -0.0763
  C  C205  1  0.328600  0.764400  0.644600  1.0  -0.1392
  C  C206  1  0.328800  0.706800  0.618200  1.0  -0.0178
  C  C207  1  0.274200  0.696800  0.595200  1.0  -0.0823
  C  C208  1  0.387800  0.770700  0.671200  1.0  0.7212
  C  C209  1  0.112100  0.738700  0.448900  1.0  0.6787
  C  C210  1  0.135900  0.741200  0.407100  1.0  -0.1219
  C  C211  1  0.184600  0.784600  0.395500  1.0  -0.0466
  C  C212  1  0.201900  0.790700  0.356500  1.0  -0.0577
  C  C213  1  0.167500  0.749300  0.331400  1.0  -0.1103
  C  C214  1  0.117300  0.699200  0.344600  1.0  -0.1001
  C  C215  1  0.103400  0.697800  0.381600  1.0  -0.0247
  C  C216  1  0.180700  0.758300  0.289400  1.0  0.7062
  C  C217  1  0.279100  0.658900  0.177000  1.0  0.7466
  C  C218  1  0.317000  0.588800  0.178000  1.0  -0.1175
  C  C219  1  0.026700  0.731500  0.128900  1.0  -0.0991
  C  C220  1  0.321000  0.550800  0.211600  1.0  -0.0151
  C  C221  1  0.355200  0.486000  0.214200  1.0  -0.0798
  C  C222  1  0.386300  0.459000  0.180800  1.0  -0.1232
  C  C223  1  0.380500  0.495800  0.147000  1.0  -0.0392
  C  C224  1  0.347300  0.560200  0.145600  1.0  -0.0494
  C  C225  1  0.427800  0.391300  0.183000  1.0  0.7615
  C  C226  1  0.264600  0.891000  0.166700  1.0  0.7253
  C  C227  1  0.301200  0.962600  0.170300  1.0  -0.0867
  C  C228  1  0.308500  0.008800  0.139500  1.0  -0.0244
  C  C229  1  0.344700  0.071000  0.143500  1.0  -0.0214
  C  C230  1  0.371400  0.089600  0.178700  1.0  -0.1198
  C  C231  1  0.364500  0.044600  0.209700  1.0  -0.0409
  C  C232  1  0.329300  0.982500  0.205700  1.0  -0.017
  C  C233  1  0.409200  0.159600  0.182800  1.0  0.6805
  C  C234  1  0.166600  0.859800  0.027100  1.0  0.7639
  C  C235  1  0.133500  0.933300  0.030000  1.0  -0.1112
  C  C236  1  0.111800  0.967000  0.997000  1.0  -0.0435
  C  C237  1  0.076400  0.031500  0.000200  1.0  -0.0297
  C  C238  1  0.067700  0.063300  0.034900  1.0  -0.1245
  C  C239  1  0.091300  0.033200  0.066000  1.0  -0.0338
  C  C240  1  0.124200  0.964800  0.064100  1.0  -0.0519
  C  C241  1  0.030600  0.133300  0.038800  1.0  0.7274
  C  C242  1  0.314700  0.743800  0.936400  1.0  0.6667
  C  C243  1  0.346300  0.743000  0.896600  1.0  -0.0843
  C  C244  1  0.403500  0.781000  0.891700  1.0  -0.0589
  C  C245  1  0.432300  0.782100  0.854800  1.0  -0.053
  C  C246  1  0.406400  0.735500  0.826300  1.0  -0.1243
  C  C247  1  0.354000  0.694600  0.834500  1.0  -0.0505
  C  C248  1  0.321900  0.699800  0.869100  1.0  -0.0491
  C  C249  1  0.443300  0.734700  0.788400  1.0  0.6862
  C  C250  1  0.174200  0.631500  0.048700  1.0  0.737
  C  C251  1  0.140000  0.560600  0.052300  1.0  -0.1163
  C  C252  1  0.126000  0.527900  0.089100  1.0  -0.031
  C  C253  1  0.092200  0.462700  0.091100  1.0  -0.0673
  C  C254  1  0.074500  0.430500  0.059400  1.0  -0.1408
  C  C255  1  0.087400  0.458300  0.023400  1.0  -0.0599
  C  C256  1  0.118600  0.523300  0.019000  1.0  -0.0493
  C  C257  1  0.036600  0.358100  0.061700  1.0  0.7352
  C  C258  1  0.082300  0.726900  0.157100  1.0  0.7172
  C  C259  1  0.969500  0.687500  0.131700  1.0  -0.0322
  C  C260  1  0.916600  0.696100  0.107900  1.0  -0.0251
  C  C261  1  0.973500  0.799900  0.077100  1.0  -0.0511
  C  C262  1  0.028200  0.790300  0.101100  1.0  -0.0573
  C  C263  1  0.915500  0.753300  0.080900  1.0  -0.1505
  C  C264  1  0.856900  0.764300  0.055300  1.0  0.703
  C  C265  1  0.839300  0.264300  0.071500  1.0  0.6736
  C  C266  1  0.781100  0.250700  0.097300  1.0  -0.0202
  C  C267  1  0.779400  0.200700  0.122400  1.0  -0.0279
  C  C268  1  0.721700  0.189300  0.145700  1.0  -0.0766
  C  C269  1  0.671400  0.235600  0.144600  1.0  -0.1401
  C  C270  1  0.671200  0.293200  0.118200  1.0  -0.0167
  C  C271  1  0.725800  0.303200  0.095200  1.0  -0.0817
  C  C272  1  0.612200  0.229300  0.171200  1.0  0.7205
  C  C273  1  0.887900  0.261300  0.948900  1.0  0.6782
  C  C274  1  0.864100  0.258800  0.907100  1.0  -0.1218
  C  C275  1  0.815400  0.215400  0.895500  1.0  -0.046
  C  C276  1  0.798100  0.209300  0.856500  1.0  -0.0593
  C  C277  1  0.832500  0.250700  0.831400  1.0  -0.1097
  C  C278  1  0.882700  0.300800  0.844600  1.0  -0.0992
  C  C279  1  0.896600  0.302200  0.881600  1.0  -0.0249
  C  C280  1  0.819300  0.241700  0.789400  1.0  0.707
  C  C281  1  0.220900  0.158900  0.677000  1.0  0.7464
  C  C282  1  0.183000  0.088800  0.678000  1.0  -0.1178
  C  C283  1  0.473300  0.231500  0.628900  1.0  -0.0991
  C  C284  1  0.179000  0.050800  0.711600  1.0  -0.0146
  C  C285  1  0.144800  0.986000  0.714200  1.0  -0.0805
  C  C286  1  0.113700  0.959000  0.680800  1.0  -0.1231
  C  C287  1  0.119500  0.995800  0.647000  1.0  -0.0383
  C  C288  1  0.152700  0.060200  0.645600  1.0  -0.0492
  C  C289  1  0.072200  0.891300  0.683000  1.0  0.7604
  C  C290  1  0.235400  0.391000  0.666667  1.0  0.7218
  C  C291  1  0.198800  0.462600  0.670300  1.0  -0.0868
  C  C292  1  0.191500  0.508800  0.639500  1.0  -0.0247
  C  C293  1  0.155300  0.571000  0.643500  1.0  -0.0213
  C  C294  1  0.128600  0.589600  0.678700  1.0  -0.1188
  C  C295  1  0.135500  0.544600  0.709700  1.0  -0.0418
  C  C296  1  0.170700  0.482500  0.705700  1.0  -0.0162
  C  C297  1  0.090800  0.659600  0.682800  1.0  0.68
  C  C298  1  0.333400  0.359800  0.527100  1.0  0.7645
  C  C299  1  0.366500  0.433300  0.530000  1.0  -0.1112
  C  C300  1  0.388200  0.467000  0.497000  1.0  -0.0434
  C  C301  1  0.423600  0.531500  0.500200  1.0  -0.0298
  C  C302  1  0.432300  0.563300  0.534900  1.0  -0.1255
  C  C303  1  0.408700  0.533200  0.566000  1.0  -0.0329
  C  C304  1  0.375800  0.464800  0.564100  1.0  -0.0523
  C  C305  1  0.469400  0.633300  0.538800  1.0  0.7267
  C  C306  1  0.185300  0.243800  0.436400  1.0  0.667
  C  C307  1  0.153700  0.243000  0.396600  1.0  -0.0843
  C  C308  1  0.096500  0.281000  0.391700  1.0  -0.0604
  C  C309  1  0.067700  0.282100  0.354800  1.0  -0.0534
  C  C310  1  0.093600  0.235500  0.326300  1.0  -0.125
  C  C311  1  0.146000  0.194600  0.334500  1.0  -0.0516
  C  C312  1  0.178100  0.199800  0.369100  1.0  -0.0497
  C  C313  1  0.056700  0.234700  0.288400  1.0  0.6869
  C  C314  1  0.325800  0.131500  0.548700  1.0  0.737
  C  C315  1  0.360000  0.060600  0.552300  1.0  -0.1156
  C  C316  1  0.374000  0.027900  0.589100  1.0  -0.0322
  C  C317  1  0.407800  0.962700  0.591100  1.0  -0.0655
  C  C318  1  0.425500  0.930500  0.559400  1.0  -0.1407
  C  C319  1  0.412600  0.958300  0.523400  1.0  -0.0605
  C  C320  1  0.381400  0.023300  0.519000  1.0  -0.049
  C  C321  1  0.463400  0.858100  0.561700  1.0  0.7352
  C  C322  1  0.417700  0.226900  0.657100  1.0  0.7176
  C  C323  1  0.530500  0.187500  0.631700  1.0  -0.0319
  C  C324  1  0.583400  0.196100  0.607900  1.0  -0.0246
  C  C325  1  0.526500  0.299900  0.577100  1.0  -0.0505
  C  C326  1  0.471800  0.290300  0.601100  1.0  -0.0572
  C  C327  1  0.584500  0.253300  0.580900  1.0  -0.1497
  C  C328  1  0.643100  0.264300  0.555300  1.0  0.7023
  C  C329  1  0.660700  0.764300  0.571500  1.0  0.6738
  C  C330  1  0.718900  0.750700  0.597300  1.0  -0.0203
  C  C331  1  0.720600  0.700700  0.622400  1.0  -0.0278
  C  C332  1  0.778300  0.689300  0.645700  1.0  -0.0764
  C  C333  1  0.828600  0.735600  0.644600  1.0  -0.1393
  C  C334  1  0.828800  0.793200  0.618200  1.0  -0.0177
  C  C335  1  0.774200  0.803200  0.595200  1.0  -0.0825
  C  C336  1  0.887800  0.729300  0.671200  1.0  0.7213
  C  C337  1  0.612100  0.761300  0.448900  1.0  0.6786
  C  C338  1  0.635900  0.758800  0.407100  1.0  -0.1221
  C  C339  1  0.684600  0.715400  0.395500  1.0  -0.0464
  C  C340  1  0.701900  0.709300  0.356500  1.0  -0.0589
  C  C341  1  0.667500  0.750700  0.331400  1.0  -0.1099
  C  C342  1  0.617300  0.800800  0.344600  1.0  -0.1005
  C  C343  1  0.603400  0.802200  0.381600  1.0  -0.0247
  C  C344  1  0.680700  0.741700  0.289400  1.0  0.7065
  C  C345  1  0.779100  0.841100  0.177000  1.0  0.7469
  C  C346  1  0.817000  0.911200  0.178000  1.0  -0.1164
  C  C347  1  0.526700  0.768500  0.128900  1.0  -0.0991
  C  C348  1  0.821000  0.949200  0.211600  1.0  -0.0146
  C  C349  1  0.855200  0.014000  0.214200  1.0  -0.08
  C  C350  1  0.886300  0.041000  0.180800  1.0  -0.1229
  C  C351  1  0.880500  0.004200  0.147000  1.0  -0.0397
  C  C352  1  0.847300  0.939800  0.145600  1.0  -0.0499
  C  C353  1  0.927800  0.108700  0.183000  1.0  0.762
  C  C354  1  0.764600  0.609000  0.166700  1.0  0.7256
  C  C355  1  0.801200  0.537400  0.170300  1.0  -0.0867
  C  C356  1  0.808500  0.491200  0.139500  1.0  -0.0246
  C  C357  1  0.844700  0.429000  0.143500  1.0  -0.0222
  C  C358  1  0.871400  0.410400  0.178700  1.0  -0.1198
  C  C359  1  0.864500  0.455400  0.209700  1.0  -0.0406
  C  C360  1  0.829300  0.517500  0.205700  1.0  -0.0169
  C  C361  1  0.909200  0.340400  0.182800  1.0  0.6797
  C  C362  1  0.666667  0.640200  0.027100  1.0  0.7642
  C  C363  1  0.633500  0.566700  0.030000  1.0  -0.1122
  C  C364  1  0.611800  0.533000  0.997000  1.0  -0.0442
  C  C365  1  0.576400  0.468500  0.000200  1.0  -0.0296
  C  C366  1  0.567700  0.436700  0.034900  1.0  -0.1241
  C  C367  1  0.591300  0.466800  0.066000  1.0  -0.0338
  C  C368  1  0.624200  0.535200  0.064100  1.0  -0.0522
  C  C369  1  0.530600  0.366700  0.038800  1.0  0.7288
  C  C370  1  0.814700  0.756200  0.936400  1.0  0.6666
  C  C371  1  0.846300  0.757000  0.896600  1.0  -0.0842
  C  C372  1  0.903500  0.719000  0.891700  1.0  -0.0596
  C  C373  1  0.932300  0.717900  0.854800  1.0  -0.0525
  C  C374  1  0.906400  0.764500  0.826300  1.0  -0.1246
  C  C375  1  0.854000  0.805400  0.834500  1.0  -0.0503
  C  C376  1  0.821900  0.800200  0.869100  1.0  -0.0489
  C  C377  1  0.943300  0.765300  0.788400  1.0  0.6861
  C  C378  1  0.674200  0.868500  0.048700  1.0  0.7357
  C  C379  1  0.640000  0.939400  0.052300  1.0  -0.1165
  C  C380  1  0.626000  0.972100  0.089100  1.0  -0.0303
  C  C381  1  0.592200  0.037300  0.091100  1.0  -0.0666
  C  C382  1  0.574500  0.069500  0.059400  1.0  -0.141
  C  C383  1  0.587400  0.041700  0.023400  1.0  -0.0603
  C  C384  1  0.618600  0.976700  0.019000  1.0  -0.0486
  C  C385  1  0.536600  0.141900  0.061700  1.0  0.7366
  C  C386  1  0.582300  0.773100  0.157100  1.0  0.7173
  C  C387  1  0.469500  0.812500  0.131700  1.0  -0.0325
  C  C388  1  0.416600  0.803900  0.107900  1.0  -0.0256
  C  C389  1  0.473500  0.700100  0.077100  1.0  -0.0508
  C  C390  1  0.528200  0.709700  0.101100  1.0  -0.0566
  C  C391  1  0.415500  0.746700  0.080900  1.0  -0.1508
  C  C392  1  0.356900  0.735700  0.055300  1.0  0.703
  C  C393  1  0.339300  0.235700  0.071500  1.0  0.6736
  C  C394  1  0.281100  0.249300  0.097300  1.0  -0.0204
  C  C395  1  0.279400  0.299300  0.122400  1.0  -0.0279
  C  C396  1  0.221700  0.310700  0.145700  1.0  -0.077
  C  C397  1  0.171400  0.264400  0.144600  1.0  -0.14
  C  C398  1  0.171200  0.206800  0.118200  1.0  -0.0166
  C  C399  1  0.225800  0.196800  0.095200  1.0  -0.0815
  C  C400  1  0.112200  0.270700  0.171200  1.0  0.7204
  C  C401  1  0.387900  0.238700  0.948900  1.0  0.6783
  C  C402  1  0.364100  0.241200  0.907100  1.0  -0.1216
  C  C403  1  0.315400  0.284600  0.895500  1.0  -0.0461
  C  C404  1  0.298100  0.290700  0.856500  1.0  -0.06
  C  C405  1  0.332500  0.249300  0.831400  1.0  -0.1101
  C  C406  1  0.382700  0.199200  0.844600  1.0  -0.0998
  C  C407  1  0.396600  0.197800  0.881600  1.0  -0.0259
  C  C408  1  0.319300  0.258300  0.789400  1.0  0.7066
  O  O409  1  0.752000  0.323900  0.705800  1.0  -0.5721
  O  O410  1  0.716300  0.304100  0.647300  1.0  -0.6629
  O  O411  1  0.564400  0.638500  0.715400  1.0  -0.5989
  O  O412  1  0.550900  0.632700  0.652200  1.0  -0.6911
  O  O413  1  0.746200  0.143500  0.697400  1.0  -0.6462
  O  O414  1  0.751300  0.126200  0.633600  1.0  -0.6372
  O  O415  1  0.565000  0.828000  0.715100  1.0  -0.5726
  O  O416  1  0.583700  0.798400  0.653800  1.0  -0.6712
  O  O417  1  0.829500  0.176500  0.557100  1.0  -0.6989
  O  O418  1  0.810600  0.158300  0.496300  1.0  -0.5963
  O  O419  1  0.970900  0.837300  0.570100  1.0  -0.6521
  O  O420  1  0.000800  0.843900  0.508600  1.0  -0.6008
  O  O421  1  0.732400  0.300200  0.442800  1.0  -0.5915
  O  O422  1  0.669500  0.208200  0.459600  1.0  -0.5585
  O  O423  1  0.576100  0.312400  0.264900  1.0  -0.6249
  O  O424  1  0.511600  0.222600  0.280700  1.0  -0.5398
  O  O425  1  0.813800  0.346800  0.515500  1.0  -0.576
  O  O426  1  0.807800  0.337900  0.578800  1.0  -0.6668
  O  O427  1  0.973900  0.668500  0.591900  1.0  -0.5971
  O  O428  1  0.986000  0.664000  0.530200  1.0  -0.6446
  O  O429  1  0.864200  0.239100  0.650100  1.0  -0.6659
  O  O430  1  0.926200  0.307800  0.685200  1.0  -0.5035
  O  O431  1  0.140800  0.189100  0.531000  1.0  -0.6256
  O  O432  1  0.193000  0.275300  0.559300  1.0  -0.6728
  O  O433  1  0.159700  0.686500  0.547200  1.0  -0.5993
  O  O434  1  0.111600  0.782400  0.574300  1.0  -0.6767
  O  O435  1  0.436600  0.728300  0.665200  1.0  -0.6389
  O  O436  1  0.384300  0.811600  0.699200  1.0  -0.5166
  O  O437  1  0.071300  0.691400  0.458500  1.0  -0.5768
  O  O438  1  0.137000  0.783400  0.471100  1.0  -0.564
  O  O439  1  0.143400  0.724000  0.266400  1.0  -0.5825
  O  O440  1  0.226600  0.798400  0.277600  1.0  -0.6399
  O  O441  1  0.248000  0.676100  0.205800  1.0  -0.5722
  O  O442  1  0.283700  0.695900  0.147300  1.0  -0.663
  O  O443  1  0.435600  0.361500  0.215400  1.0  -0.5995
  O  O444  1  0.449100  0.367300  0.152200  1.0  -0.6905
  O  O445  1  0.253800  0.856500  0.197400  1.0  -0.6478
  O  O446  1  0.248700  0.873800  0.133600  1.0  -0.6378
  O  O447  1  0.435000  0.172000  0.215100  1.0  -0.5721
  O  O448  1  0.416300  0.201600  0.153800  1.0  -0.6707
  O  O449  1  0.170500  0.823500  0.057100  1.0  -0.6989
  O  O450  1  0.189400  0.841700  0.996300  1.0  -0.5976
  O  O451  1  0.029100  0.162700  0.070100  1.0  -0.6527
  O  O452  1  0.999200  0.156100  0.008600  1.0  -0.5997
  O  O453  1  0.267600  0.699800  0.942800  1.0  -0.5887
  O  O454  1  0.330500  0.791800  0.959600  1.0  -0.5581
  O  O455  1  0.423900  0.687600  0.764900  1.0  -0.624
  O  O456  1  0.488400  0.777400  0.780700  1.0  -0.5394
  O  O457  1  0.186200  0.653200  0.015500  1.0  -0.5752
  O  O458  1  0.192200  0.662100  0.078800  1.0  -0.6659
  O  O459  1  0.026100  0.331500  0.091900  1.0  -0.5969
  O  O460  1  0.014000  0.336000  0.030200  1.0  -0.6444
  O  O461  1  0.135800  0.760900  0.150100  1.0  -0.6662
  O  O462  1  0.073800  0.692200  0.185200  1.0  -0.5053
  O  O463  1  0.859200  0.810900  0.031000  1.0  -0.6255
  O  O464  1  0.807000  0.724700  0.059300  1.0  -0.672
  O  O465  1  0.840300  0.313500  0.047200  1.0  -0.5985
  O  O466  1  0.888400  0.217600  0.074300  1.0  -0.6754
  O  O467  1  0.563400  0.271700  0.165200  1.0  -0.6378
  O  O468  1  0.615700  0.188400  0.199200  1.0  -0.5172
  O  O469  1  0.928700  0.308600  0.958500  1.0  -0.5763
  O  O470  1  0.863000  0.216600  0.971100  1.0  -0.5644
  O  O471  1  0.856600  0.276000  0.766400  1.0  -0.5846
  O  O472  1  0.773400  0.201600  0.777600  1.0  -0.6412
  O  O473  1  0.252000  0.176100  0.705800  1.0  -0.5723
  O  O474  1  0.216300  0.195900  0.647300  1.0  -0.6631
  O  O475  1  0.064400  0.861500  0.715400  1.0  -0.5997
  O  O476  1  0.050900  0.867300  0.652200  1.0  -0.6906
  O  O477  1  0.246200  0.356500  0.697400  1.0  -0.6467
  O  O478  1  0.251300  0.373800  0.633600  1.0  -0.6371
  O  O479  1  0.065000  0.672000  0.715100  1.0  -0.5723
  O  O480  1  0.083700  0.701600  0.653800  1.0  -0.6712
  O  O481  1  0.329500  0.323500  0.557100  1.0  -0.6991
  O  O482  1  0.310600  0.341700  0.496300  1.0  -0.597
  O  O483  1  0.470900  0.662700  0.570100  1.0  -0.6522
  O  O484  1  0.500800  0.656100  0.508600  1.0  -0.6002
  O  O485  1  0.232400  0.199800  0.442800  1.0  -0.5898
  O  O486  1  0.169500  0.291800  0.459600  1.0  -0.559
  O  O487  1  0.076100  0.187600  0.264900  1.0  -0.623
  O  O488  1  0.011600  0.277400  0.280700  1.0  -0.5403
  O  O489  1  0.313800  0.153200  0.515500  1.0  -0.5758
  O  O490  1  0.307800  0.162100  0.578800  1.0  -0.6665
  O  O491  1  0.473900  0.831500  0.591900  1.0  -0.5973
  O  O492  1  0.486000  0.836000  0.530200  1.0  -0.6447
  O  O493  1  0.364200  0.260900  0.650100  1.0  -0.6665
  O  O494  1  0.426200  0.192200  0.685200  1.0  -0.5038
  O  O495  1  0.640800  0.310900  0.531000  1.0  -0.6251
  O  O496  1  0.693000  0.224700  0.559300  1.0  -0.6723
  O  O497  1  0.659700  0.813500  0.547200  1.0  -0.5977
  O  O498  1  0.611600  0.717600  0.574300  1.0  -0.6757
  O  O499  1  0.936600  0.771700  0.665200  1.0  -0.6387
  O  O500  1  0.884300  0.688400  0.699200  1.0  -0.5175
  O  O501  1  0.571300  0.808600  0.458500  1.0  -0.5769
  O  O502  1  0.637000  0.716600  0.471100  1.0  -0.5646
  O  O503  1  0.643400  0.776000  0.266400  1.0  -0.5834
  O  O504  1  0.726600  0.701600  0.277600  1.0  -0.6389
  O  O505  1  0.748000  0.823900  0.205800  1.0  -0.5721
  O  O506  1  0.783700  0.804100  0.147300  1.0  -0.663
  O  O507  1  0.935600  0.138500  0.215400  1.0  -0.5987
  O  O508  1  0.949100  0.132700  0.152200  1.0  -0.6908
  O  O509  1  0.753800  0.643500  0.197400  1.0  -0.6475
  O  O510  1  0.748700  0.626200  0.133600  1.0  -0.6371
  O  O511  1  0.935000  0.328000  0.215100  1.0  -0.5727
  O  O512  1  0.916300  0.298400  0.153800  1.0  -0.6706
  O  O513  1  0.670500  0.676500  0.057100  1.0  -0.6991
  O  O514  1  0.689400  0.658300  0.996300  1.0  -0.597
  O  O515  1  0.529100  0.337300  0.070100  1.0  -0.6525
  O  O516  1  0.499200  0.343900  0.008600  1.0  -0.6
  O  O517  1  0.767600  0.800200  0.942800  1.0  -0.5905
  O  O518  1  0.830500  0.708200  0.959600  1.0  -0.5581
  O  O519  1  0.923900  0.812400  0.764900  1.0  -0.6267
  O  O520  1  0.988400  0.722600  0.780700  1.0  -0.5394
  O  O521  1  0.686200  0.846800  0.015500  1.0  -0.5756
  O  O522  1  0.692200  0.837900  0.078800  1.0  -0.6664
  O  O523  1  0.526100  0.168500  0.091900  1.0  -0.5963
  O  O524  1  0.514000  0.164000  0.030200  1.0  -0.6445
  O  O525  1  0.635800  0.739100  0.150100  1.0  -0.6655
  O  O526  1  0.573800  0.807800  0.185200  1.0  -0.5052
  O  O527  1  0.359200  0.689100  0.031000  1.0  -0.6259
  O  O528  1  0.307000  0.775300  0.059300  1.0  -0.6723
  O  O529  1  0.340300  0.186500  0.047200  1.0  -0.598
  O  O530  1  0.388400  0.282400  0.074300  1.0  -0.6773
  O  O531  1  0.063400  0.228300  0.165200  1.0  -0.6383
  O  O532  1  0.115700  0.311600  0.199200  1.0  -0.5158
  O  O533  1  0.428700  0.191400  0.958500  1.0  -0.5768
  O  O534  1  0.363000  0.283400  0.971100  1.0  -0.5648
  O  O535  1  0.356600  0.224000  0.766400  1.0  -0.584
  O  O536  1  0.273400  0.298400  0.777600  1.0  -0.6414
