# generated using pymatgen
data_Mg2Cd3H24(C2O)24
_symmetry_space_group_name_H-M   'P 1'
_cell_length_a   18.51660000
_cell_length_b   29.46520000
_cell_length_c   16.38500000
_cell_angle_alpha   90.00000000
_cell_angle_beta   119.38800000
_cell_angle_gamma   90.00000000
_symmetry_Int_Tables_number   1
_chemical_formula_structural   Mg2Cd3H24(C2O)24
_chemical_formula_sum   'Mg8 Cd12 H96 C192 O96'
_cell_volume   7789.20394956
_cell_formula_units_Z   4
loop_
 _symmetry_equiv_pos_site_id
 _symmetry_equiv_pos_as_xyz
  1  'x, y, z'
loop_
 _atom_site_type_symbol
 _atom_site_label
 _atom_site_symmetry_multiplicity
 _atom_site_fract_x
 _atom_site_fract_y
 _atom_site_fract_z
 _atom_site_occupancy
 _atom_site_charge
  Mg  Mg1  1  0.795910  0.614510  0.726770  1.0  1.5522
  Mg  Mg2  1  0.295910  0.114510  0.726770  1.0  1.5518
  Mg  Mg3  1  0.204090  0.614510  0.773230  1.0  1.5532
  Mg  Mg4  1  0.704090  0.114510  0.773230  1.0  1.5523
  Mg  Mg5  1  0.204090  0.385490  0.273230  1.0  1.555
  Mg  Mg6  1  0.704090  0.885490  0.273230  1.0  1.5547
  Mg  Mg7  1  0.795910  0.385490  0.226770  1.0  1.5538
  Mg  Mg8  1  0.295910  0.885490  0.226770  1.0  1.5537
  Cd  Cd9  1  0.000000  0.632790  0.750000  1.0  1.0681
  Cd  Cd10  1  0.500000  0.132790  0.750000  1.0  1.0681
  Cd  Cd11  1  0.000000  0.367210  0.250000  1.0  1.0673
  Cd  Cd12  1  0.500000  0.867210  0.250000  1.0  1.0673
  Cd  Cd13  1  0.595880  0.630760  0.631700  1.0  1.0381
  Cd  Cd14  1  0.095880  0.130760  0.631700  1.0  1.0381
  Cd  Cd15  1  0.595880  0.369240  0.131700  1.0  1.0385
  Cd  Cd16  1  0.095880  0.869240  0.131700  1.0  1.0385
  Cd  Cd17  1  0.404120  0.630760  0.868300  1.0  1.0373
  Cd  Cd18  1  0.904120  0.130760  0.868300  1.0  1.0373
  Cd  Cd19  1  0.404120  0.369240  0.368300  1.0  1.0377
  Cd  Cd20  1  0.904120  0.869240  0.368300  1.0  1.0377
  H  H21  1  0.115900  0.546700  0.571300  1.0  0.1195
  H  H22  1  0.885100  0.761500  0.528100  1.0  0.1178
  H  H23  1  0.891400  0.509500  0.530100  1.0  0.101
  H  H24  1  0.722100  0.692300  0.578200  1.0  0.1028
  H  H25  1  0.615900  0.046700  0.571300  1.0  0.1195
  H  H26  1  0.385100  0.261500  0.528100  1.0  0.1178
  H  H27  1  0.391400  0.009500  0.530100  1.0  0.101
  H  H28  1  0.222100  0.192300  0.578200  1.0  0.1028
  H  H29  1  0.884100  0.546700  0.928700  1.0  0.1196
  H  H30  1  0.114900  0.761500  0.971900  1.0  0.117
  H  H31  1  0.108600  0.509500  0.969900  1.0  0.1011
  H  H32  1  0.277900  0.692300  0.921800  1.0  0.1026
  H  H33  1  0.384100  0.046700  0.928700  1.0  0.1196
  H  H34  1  0.614900  0.261500  0.971900  1.0  0.117
  H  H35  1  0.608600  0.009500  0.969900  1.0  0.1011
  H  H36  1  0.777900  0.192300  0.921800  1.0  0.1026
  H  H37  1  0.884100  0.453300  0.428700  1.0  0.1194
  H  H38  1  0.114900  0.238500  0.471900  1.0  0.1172
  H  H39  1  0.108600  0.490500  0.469900  1.0  0.1013
  H  H40  1  0.277900  0.307700  0.421800  1.0  0.1025
  H  H41  1  0.384100  0.953300  0.428700  1.0  0.1194
  H  H42  1  0.614900  0.738500  0.471900  1.0  0.1172
  H  H43  1  0.608600  0.990500  0.469900  1.0  0.1013
  H  H44  1  0.777900  0.807700  0.421800  1.0  0.1025
  H  H45  1  0.115900  0.453300  0.071300  1.0  0.1196
  H  H46  1  0.885100  0.238500  0.028100  1.0  0.1177
  H  H47  1  0.891400  0.490500  0.030100  1.0  0.1012
  H  H48  1  0.722100  0.307700  0.078200  1.0  0.1024
  H  H49  1  0.615900  0.953300  0.071300  1.0  0.1196
  H  H50  1  0.385100  0.738500  0.028100  1.0  0.1177
  H  H51  1  0.391400  0.990500  0.030100  1.0  0.1012
  H  H52  1  0.222100  0.807700  0.078200  1.0  0.1024
  H  H53  1  0.312600  0.693100  0.500900  1.0  0.1192
  H  H54  1  0.201100  0.738400  0.396300  1.0  0.1173
  H  H55  1  0.448600  0.740800  0.390300  1.0  0.1058
  H  H56  1  0.749300  0.548800  0.492900  1.0  0.1199
  H  H57  1  0.526500  0.500400  0.434400  1.0  0.1117
  H  H58  1  0.536200  0.445100  0.340400  1.0  0.109
  H  H59  1  0.340400  0.787400  0.289500  1.0  0.1154
  H  H60  1  0.758600  0.494500  0.396200  1.0  0.1056
  H  H61  1  0.812600  0.193100  0.500900  1.0  0.1192
  H  H62  1  0.701100  0.238400  0.396300  1.0  0.1173
  H  H63  1  0.948600  0.240800  0.390300  1.0  0.1058
  H  H64  1  0.249300  0.048800  0.492900  1.0  0.1199
  H  H65  1  0.026500  0.000400  0.434400  1.0  0.1117
  H  H66  1  0.036200  0.945100  0.340400  1.0  0.109
  H  H67  1  0.840400  0.287400  0.289500  1.0  0.1154
  H  H68  1  0.258600  0.994500  0.396200  1.0  0.1056
  H  H69  1  0.312600  0.306900  0.000900  1.0  0.1194
  H  H70  1  0.201100  0.261600  0.896300  1.0  0.117
  H  H71  1  0.448600  0.259200  0.890300  1.0  0.1059
  H  H72  1  0.749300  0.451200  0.992900  1.0  0.12
  H  H73  1  0.526500  0.499600  0.934400  1.0  0.112
  H  H74  1  0.536200  0.554900  0.840400  1.0  0.109
  H  H75  1  0.340400  0.212600  0.789500  1.0  0.1158
  H  H76  1  0.758600  0.505500  0.896200  1.0  0.1057
  H  H77  1  0.812600  0.806900  0.000900  1.0  0.1194
  H  H78  1  0.701100  0.761600  0.896300  1.0  0.117
  H  H79  1  0.948600  0.759200  0.890300  1.0  0.1059
  H  H80  1  0.249300  0.951200  0.992900  1.0  0.12
  H  H81  1  0.026500  0.999600  0.934400  1.0  0.112
  H  H82  1  0.036200  0.054900  0.840400  1.0  0.109
  H  H83  1  0.840400  0.712600  0.789500  1.0  0.1158
  H  H84  1  0.258600  0.005500  0.896200  1.0  0.1057
  H  H85  1  0.687400  0.693100  0.999100  1.0  0.1194
  H  H86  1  0.798900  0.738400  0.103700  1.0  0.1173
  H  H87  1  0.551400  0.740800  0.109700  1.0  0.1054
  H  H88  1  0.250700  0.548800  0.007100  1.0  0.1199
  H  H89  1  0.473500  0.500400  0.065600  1.0  0.1124
  H  H90  1  0.463800  0.445100  0.159600  1.0  0.1094
  H  H91  1  0.659600  0.787400  0.210500  1.0  0.116
  H  H92  1  0.241400  0.494500  0.103800  1.0  0.1057
  H  H93  1  0.187400  0.193100  0.999100  1.0  0.1194
  H  H94  1  0.298900  0.238400  0.103700  1.0  0.1173
  H  H95  1  0.051400  0.240800  0.109700  1.0  0.1054
  H  H96  1  0.750700  0.048800  0.007100  1.0  0.1199
  H  H97  1  0.973500  0.000400  0.065600  1.0  0.1124
  H  H98  1  0.963800  0.945100  0.159600  1.0  0.1094
  H  H99  1  0.159600  0.287400  0.210500  1.0  0.116
  H  H100  1  0.741400  0.994500  0.103800  1.0  0.1057
  H  H101  1  0.687400  0.306900  0.499100  1.0  0.1194
  H  H102  1  0.798900  0.261600  0.603700  1.0  0.1174
  H  H103  1  0.551400  0.259200  0.609700  1.0  0.1054
  H  H104  1  0.250700  0.451200  0.507100  1.0  0.1197
  H  H105  1  0.473500  0.499600  0.565600  1.0  0.1124
  H  H106  1  0.463800  0.554900  0.659600  1.0  0.1093
  H  H107  1  0.659600  0.212600  0.710500  1.0  0.1163
  H  H108  1  0.241400  0.505500  0.603800  1.0  0.1058
  H  H109  1  0.187400  0.806900  0.499100  1.0  0.1194
  H  H110  1  0.298900  0.761600  0.603700  1.0  0.1174
  H  H111  1  0.051400  0.759200  0.609700  1.0  0.1054
  H  H112  1  0.750700  0.951200  0.507100  1.0  0.1197
  H  H113  1  0.973500  0.999600  0.565600  1.0  0.1124
  H  H114  1  0.963800  0.054900  0.659600  1.0  0.1093
  H  H115  1  0.159600  0.712600  0.710500  1.0  0.1163
  H  H116  1  0.741400  0.005500  0.603800  1.0  0.1058
  C  C117  1  0.004500  0.533600  0.562600  1.0  -0.1173
  C  C118  1  0.068500  0.527600  0.542600  1.0  -0.0804
  C  C119  1  0.830200  0.756700  0.516700  1.0  -0.0497
  C  C120  1  0.936300  0.505600  0.518200  1.0  -0.0114
  C  C121  1  0.733700  0.715800  0.546500  1.0  -0.0352
  C  C122  1  0.814000  0.722000  0.563800  1.0  -0.1175
  C  C123  1  0.008000  0.569900  0.626500  1.0  0.6945
  C  C124  1  0.882200  0.692100  0.630100  1.0  0.7262
  C  C125  1  0.504500  0.033600  0.562600  1.0  -0.1173
  C  C126  1  0.568500  0.027600  0.542600  1.0  -0.0804
  C  C127  1  0.330200  0.256700  0.516700  1.0  -0.0497
  C  C128  1  0.436300  0.005600  0.518200  1.0  -0.0114
  C  C129  1  0.233700  0.215800  0.546500  1.0  -0.0352
  C  C130  1  0.314000  0.222000  0.563800  1.0  -0.1175
  C  C131  1  0.508000  0.069900  0.626500  1.0  0.6945
  C  C132  1  0.382200  0.192100  0.630100  1.0  0.7262
  C  C133  1  0.995500  0.533600  0.937400  1.0  -0.1173
  C  C134  1  0.931500  0.527600  0.957400  1.0  -0.0805
  C  C135  1  0.169800  0.756700  0.983300  1.0  -0.0494
  C  C136  1  0.063700  0.505600  0.981800  1.0  -0.0118
  C  C137  1  0.266300  0.715800  0.953500  1.0  -0.0354
  C  C138  1  0.186000  0.722000  0.936200  1.0  -0.1176
  C  C139  1  0.992000  0.569900  0.873500  1.0  0.6947
  C  C140  1  0.117800  0.692100  0.869900  1.0  0.7262
  C  C141  1  0.495500  0.033600  0.937400  1.0  -0.1173
  C  C142  1  0.431500  0.027600  0.957400  1.0  -0.0805
  C  C143  1  0.669800  0.256700  0.983300  1.0  -0.0494
  C  C144  1  0.563700  0.005600  0.981800  1.0  -0.0118
  C  C145  1  0.766300  0.215800  0.953500  1.0  -0.0354
  C  C146  1  0.686000  0.222000  0.936200  1.0  -0.1176
  C  C147  1  0.492000  0.069900  0.873500  1.0  0.6947
  C  C148  1  0.617800  0.192100  0.869900  1.0  0.7262
  C  C149  1  0.995500  0.466400  0.437400  1.0  -0.1181
  C  C150  1  0.931500  0.472400  0.457400  1.0  -0.0816
  C  C151  1  0.169800  0.243300  0.483300  1.0  -0.0509
  C  C152  1  0.063700  0.494400  0.481800  1.0  -0.012
  C  C153  1  0.266300  0.284200  0.453500  1.0  -0.027
  C  C154  1  0.186000  0.278000  0.436200  1.0  -0.1179
  C  C155  1  0.992000  0.430100  0.373500  1.0  0.6947
  C  C156  1  0.117800  0.307900  0.369900  1.0  0.7265
  C  C157  1  0.495500  0.966400  0.437400  1.0  -0.1181
  C  C158  1  0.431500  0.972400  0.457400  1.0  -0.0816
  C  C159  1  0.669800  0.743300  0.483300  1.0  -0.0509
  C  C160  1  0.563700  0.994400  0.481800  1.0  -0.012
  C  C161  1  0.766300  0.784200  0.453500  1.0  -0.027
  C  C162  1  0.686000  0.778000  0.436200  1.0  -0.1179
  C  C163  1  0.492000  0.930100  0.373500  1.0  0.6947
  C  C164  1  0.617800  0.807900  0.369900  1.0  0.7265
  C  C165  1  0.004500  0.466400  0.062600  1.0  -0.1169
  C  C166  1  0.068500  0.472400  0.042600  1.0  -0.0818
  C  C167  1  0.830200  0.243300  0.016700  1.0  -0.0511
  C  C168  1  0.936300  0.494400  0.018200  1.0  -0.0117
  C  C169  1  0.733700  0.284200  0.046500  1.0  -0.0268
  C  C170  1  0.814000  0.278000  0.063800  1.0  -0.1179
  C  C171  1  0.008000  0.430100  0.126500  1.0  0.695
  C  C172  1  0.882200  0.307900  0.130100  1.0  0.7263
  C  C173  1  0.504500  0.966400  0.062600  1.0  -0.1169
  C  C174  1  0.568500  0.972400  0.042600  1.0  -0.0818
  C  C175  1  0.330200  0.743300  0.016700  1.0  -0.0511
  C  C176  1  0.436300  0.994400  0.018200  1.0  -0.0117
  C  C177  1  0.233700  0.784200  0.046500  1.0  -0.0268
  C  C178  1  0.314000  0.778000  0.063800  1.0  -0.1179
  C  C179  1  0.508000  0.930100  0.126500  1.0  0.695
  C  C180  1  0.382200  0.807900  0.130100  1.0  0.7263
  C  C181  1  0.318500  0.712200  0.457800  1.0  -0.0507
  C  C182  1  0.252100  0.739500  0.395700  1.0  -0.0318
  C  C183  1  0.392700  0.713100  0.456400  1.0  -0.1152
  C  C184  1  0.398500  0.740600  0.392800  1.0  -0.0317
  C  C185  1  0.189300  0.798700  0.268400  1.0  0.7513
  C  C186  1  0.705600  0.527600  0.461500  1.0  -0.0365
  C  C187  1  0.636800  0.529500  0.473800  1.0  -0.1149
  C  C188  1  0.652800  0.429200  0.292500  1.0  0.7581
  C  C189  1  0.260400  0.767800  0.333800  1.0  -0.1167
  C  C190  1  0.574400  0.499000  0.427500  1.0  -0.0704
  C  C191  1  0.628600  0.566600  0.532400  1.0  0.695
  C  C192  1  0.463500  0.683500  0.522100  1.0  0.7422
  C  C193  1  0.580000  0.466400  0.371000  1.0  -0.0488
  C  C194  1  0.334000  0.768200  0.332200  1.0  -0.0657
  C  C195  1  0.711100  0.495300  0.404100  1.0  -0.0483
  C  C196  1  0.648200  0.464000  0.357800  1.0  -0.1133
  C  C197  1  0.818500  0.212200  0.457800  1.0  -0.0507
  C  C198  1  0.752100  0.239500  0.395700  1.0  -0.0318
  C  C199  1  0.892700  0.213100  0.456400  1.0  -0.1152
  C  C200  1  0.898500  0.240600  0.392800  1.0  -0.0317
  C  C201  1  0.689300  0.298700  0.268400  1.0  0.7513
  C  C202  1  0.205600  0.027600  0.461500  1.0  -0.0365
  C  C203  1  0.136800  0.029500  0.473800  1.0  -0.1149
  C  C204  1  0.152800  0.929200  0.292500  1.0  0.7581
  C  C205  1  0.760400  0.267800  0.333800  1.0  -0.1167
  C  C206  1  0.074400  0.999000  0.427500  1.0  -0.0704
  C  C207  1  0.128600  0.066600  0.532400  1.0  0.695
  C  C208  1  0.963500  0.183500  0.522100  1.0  0.7422
  C  C209  1  0.080000  0.966400  0.371000  1.0  -0.0488
  C  C210  1  0.834000  0.268200  0.332200  1.0  -0.0657
  C  C211  1  0.211100  0.995300  0.404100  1.0  -0.0483
  C  C212  1  0.148200  0.964000  0.357800  1.0  -0.1133
  C  C213  1  0.318500  0.287800  0.957800  1.0  -0.0511
  C  C214  1  0.252100  0.260500  0.895700  1.0  -0.0324
  C  C215  1  0.392700  0.286900  0.956400  1.0  -0.115
  C  C216  1  0.398500  0.259400  0.892800  1.0  -0.032
  C  C217  1  0.189300  0.201300  0.768400  1.0  0.7513
  C  C218  1  0.705600  0.472400  0.961500  1.0  -0.0366
  C  C219  1  0.636800  0.470500  0.973800  1.0  -0.1141
  C  C220  1  0.652800  0.570800  0.792500  1.0  0.7585
  C  C221  1  0.260400  0.232200  0.833800  1.0  -0.1157
  C  C222  1  0.574400  0.501000  0.927500  1.0  -0.07
  C  C223  1  0.628600  0.433400  0.032400  1.0  0.6949
  C  C224  1  0.463500  0.316500  0.022100  1.0  0.7423
  C  C225  1  0.580000  0.533600  0.871000  1.0  -0.049
  C  C226  1  0.334000  0.231800  0.832200  1.0  -0.0662
  C  C227  1  0.711100  0.504700  0.904100  1.0  -0.0482
  C  C228  1  0.648200  0.536000  0.857800  1.0  -0.1117
  C  C229  1  0.818500  0.787800  0.957800  1.0  -0.0511
  C  C230  1  0.752100  0.760500  0.895700  1.0  -0.0324
  C  C231  1  0.892700  0.786900  0.956400  1.0  -0.115
  C  C232  1  0.898500  0.759400  0.892800  1.0  -0.032
  C  C233  1  0.689300  0.701300  0.768400  1.0  0.7513
  C  C234  1  0.205600  0.972400  0.961500  1.0  -0.0366
  C  C235  1  0.136800  0.970500  0.973800  1.0  -0.1141
  C  C236  1  0.152800  0.070800  0.792500  1.0  0.7585
  C  C237  1  0.760400  0.732200  0.833800  1.0  -0.1157
  C  C238  1  0.074400  0.001000  0.927500  1.0  -0.07
  C  C239  1  0.128600  0.933400  0.032400  1.0  0.6949
  C  C240  1  0.963500  0.816500  0.022100  1.0  0.7423
  C  C241  1  0.080000  0.033600  0.871000  1.0  -0.049
  C  C242  1  0.834000  0.731800  0.832200  1.0  -0.0662
  C  C243  1  0.211100  0.004700  0.904100  1.0  -0.0482
  C  C244  1  0.148200  0.036000  0.857800  1.0  -0.1117
  C  C245  1  0.681500  0.712200  0.042200  1.0  -0.0523
  C  C246  1  0.747900  0.739500  0.104300  1.0  -0.0326
  C  C247  1  0.607300  0.713100  0.043600  1.0  -0.1157
  C  C248  1  0.601500  0.740600  0.107200  1.0  -0.0306
  C  C249  1  0.810700  0.798700  0.231600  1.0  0.7503
  C  C250  1  0.294400  0.527600  0.038500  1.0  -0.0368
  C  C251  1  0.363200  0.529500  0.026200  1.0  -0.1145
  C  C252  1  0.347200  0.429200  0.207500  1.0  0.7589
  C  C253  1  0.739600  0.767800  0.166200  1.0  -0.1166
  C  C254  1  0.425600  0.499000  0.072500  1.0  -0.0714
  C  C255  1  0.371400  0.566600  0.967600  1.0  0.6949
  C  C256  1  0.536500  0.683500  0.977900  1.0  0.7414
  C  C257  1  0.420000  0.466400  0.129000  1.0  -0.0493
  C  C258  1  0.666000  0.768200  0.167800  1.0  -0.0671
  C  C259  1  0.288900  0.495300  0.095900  1.0  -0.0481
  C  C260  1  0.351800  0.464000  0.142200  1.0  -0.1138
  C  C261  1  0.181500  0.212200  0.042200  1.0  -0.0523
  C  C262  1  0.247900  0.239500  0.104300  1.0  -0.0326
  C  C263  1  0.107300  0.213100  0.043600  1.0  -0.1157
  C  C264  1  0.101500  0.240600  0.107200  1.0  -0.0306
  C  C265  1  0.310700  0.298700  0.231600  1.0  0.7503
  C  C266  1  0.794400  0.027600  0.038500  1.0  -0.0368
  C  C267  1  0.863200  0.029500  0.026200  1.0  -0.1145
  C  C268  1  0.847200  0.929200  0.207500  1.0  0.7589
  C  C269  1  0.239600  0.267800  0.166200  1.0  -0.1166
  C  C270  1  0.925600  0.999000  0.072500  1.0  -0.0714
  C  C271  1  0.871400  0.066600  0.967600  1.0  0.6949
  C  C272  1  0.036500  0.183500  0.977900  1.0  0.7414
  C  C273  1  0.920000  0.966400  0.129000  1.0  -0.0493
  C  C274  1  0.166000  0.268200  0.167800  1.0  -0.0671
  C  C275  1  0.788900  0.995300  0.095900  1.0  -0.0481
  C  C276  1  0.851800  0.964000  0.142200  1.0  -0.1138
  C  C277  1  0.681500  0.287800  0.542200  1.0  -0.0515
  C  C278  1  0.747900  0.260500  0.604300  1.0  -0.0326
  C  C279  1  0.607300  0.286900  0.543600  1.0  -0.1146
  C  C280  1  0.601500  0.259400  0.607200  1.0  -0.031
  C  C281  1  0.810700  0.201300  0.731600  1.0  0.7501
  C  C282  1  0.294400  0.472400  0.538500  1.0  -0.0355
  C  C283  1  0.363200  0.470500  0.526200  1.0  -0.1152
  C  C284  1  0.347200  0.570800  0.707500  1.0  0.7589
  C  C285  1  0.739600  0.232200  0.666200  1.0  -0.1164
  C  C286  1  0.425600  0.501000  0.572500  1.0  -0.0712
  C  C287  1  0.371400  0.433400  0.467600  1.0  0.6948
  C  C288  1  0.536500  0.316500  0.477900  1.0  0.7415
  C  C289  1  0.420000  0.533600  0.629000  1.0  -0.0492
  C  C290  1  0.666000  0.231800  0.667800  1.0  -0.0665
  C  C291  1  0.288900  0.504700  0.595900  1.0  -0.0478
  C  C292  1  0.351800  0.536000  0.642200  1.0  -0.1119
  C  C293  1  0.181500  0.787800  0.542200  1.0  -0.0515
  C  C294  1  0.247900  0.760500  0.604300  1.0  -0.0326
  C  C295  1  0.107300  0.786900  0.543600  1.0  -0.1146
  C  C296  1  0.101500  0.759400  0.607200  1.0  -0.031
  C  C297  1  0.310700  0.701300  0.731600  1.0  0.7501
  C  C298  1  0.794400  0.972400  0.538500  1.0  -0.0355
  C  C299  1  0.863200  0.970500  0.526200  1.0  -0.1152
  C  C300  1  0.847200  0.070800  0.707500  1.0  0.7589
  C  C301  1  0.239600  0.732200  0.666200  1.0  -0.1164
  C  C302  1  0.925600  0.001000  0.572500  1.0  -0.0712
  C  C303  1  0.871400  0.933400  0.467600  1.0  0.6948
  C  C304  1  0.036500  0.816500  0.477900  1.0  0.7415
  C  C305  1  0.920000  0.033600  0.629000  1.0  -0.0492
  C  C306  1  0.166000  0.731800  0.667800  1.0  -0.0665
  C  C307  1  0.788900  0.004700  0.595900  1.0  -0.0478
  C  C308  1  0.851800  0.036000  0.642200  1.0  -0.1119
  O  O309  1  0.944600  0.577700  0.634700  1.0  -0.5967
  O  O310  1  0.950900  0.694500  0.634700  1.0  -0.6515
  O  O311  1  0.866500  0.663960  0.677700  1.0  -0.6514
  O  O312  1  0.073400  0.591520  0.674700  1.0  -0.7405
  O  O313  1  0.444600  0.077700  0.634700  1.0  -0.5967
  O  O314  1  0.450900  0.194500  0.634700  1.0  -0.6515
  O  O315  1  0.366500  0.163960  0.677700  1.0  -0.6514
  O  O316  1  0.573400  0.091520  0.674700  1.0  -0.7405
  O  O317  1  0.055400  0.577700  0.865300  1.0  -0.5974
  O  O318  1  0.049100  0.694500  0.865300  1.0  -0.651
  O  O319  1  0.133500  0.663960  0.822300  1.0  -0.6523
  O  O320  1  0.926600  0.591520  0.825300  1.0  -0.7405
  O  O321  1  0.555400  0.077700  0.865300  1.0  -0.5974
  O  O322  1  0.549100  0.194500  0.865300  1.0  -0.651
  O  O323  1  0.633500  0.163960  0.822300  1.0  -0.6523
  O  O324  1  0.426600  0.091520  0.825300  1.0  -0.7405
  O  O325  1  0.055400  0.422300  0.365300  1.0  -0.5974
  O  O326  1  0.049100  0.305500  0.365300  1.0  -0.6511
  O  O327  1  0.133500  0.336040  0.322300  1.0  -0.653
  O  O328  1  0.926600  0.408480  0.325300  1.0  -0.7407
  O  O329  1  0.555400  0.922300  0.365300  1.0  -0.5974
  O  O330  1  0.549100  0.805500  0.365300  1.0  -0.6511
  O  O331  1  0.633500  0.836040  0.322300  1.0  -0.653
  O  O332  1  0.426600  0.908480  0.325300  1.0  -0.7407
  O  O333  1  0.944600  0.422300  0.134700  1.0  -0.5967
  O  O334  1  0.950900  0.305500  0.134700  1.0  -0.6516
  O  O335  1  0.866500  0.336040  0.177700  1.0  -0.6514
  O  O336  1  0.073400  0.408480  0.174700  1.0  -0.7407
  O  O337  1  0.444600  0.922300  0.134700  1.0  -0.5967
  O  O338  1  0.450900  0.805500  0.134700  1.0  -0.6516
  O  O339  1  0.366500  0.836040  0.177700  1.0  -0.6514
  O  O340  1  0.573400  0.908480  0.174700  1.0  -0.7407
  O  O341  1  0.562100  0.569300  0.535000  1.0  -0.5748
  O  O342  1  0.460500  0.662070  0.585500  1.0  -0.5666
  O  O343  1  0.205500  0.826580  0.222100  1.0  -0.6411
  O  O344  1  0.714400  0.428400  0.282400  1.0  -0.7295
  O  O345  1  0.120900  0.794790  0.265500  1.0  -0.5274
  O  O346  1  0.590400  0.403380  0.250000  1.0  -0.6134
  O  O347  1  0.687300  0.594180  0.575900  1.0  -0.7182
  O  O348  1  0.526100  0.681910  0.510600  1.0  -0.5705
  O  O349  1  0.062100  0.069300  0.535000  1.0  -0.5748
  O  O350  1  0.960500  0.162070  0.585500  1.0  -0.5666
  O  O351  1  0.705500  0.326580  0.222100  1.0  -0.6411
  O  O352  1  0.214400  0.928400  0.282400  1.0  -0.7295
  O  O353  1  0.620900  0.294790  0.265500  1.0  -0.5285
  O  O354  1  0.090400  0.903380  0.250000  1.0  -0.6134
  O  O355  1  0.187300  0.094180  0.575900  1.0  -0.7182
  O  O356  1  0.026100  0.181910  0.510600  1.0  -0.5705
  O  O357  1  0.562100  0.430700  0.035000  1.0  -0.5753
  O  O358  1  0.460500  0.337930  0.085500  1.0  -0.5668
  O  O359  1  0.205500  0.173420  0.722100  1.0  -0.641
  O  O360  1  0.714400  0.571600  0.782400  1.0  -0.73
  O  O361  1  0.120900  0.205210  0.765500  1.0  -0.5293
  O  O362  1  0.590400  0.596620  0.750000  1.0  -0.613
  O  O363  1  0.687300  0.405820  0.075900  1.0  -0.7176
  O  O364  1  0.526100  0.318090  0.010600  1.0  -0.5699
  O  O365  1  0.062100  0.930700  0.035000  1.0  -0.5753
  O  O366  1  0.960500  0.837930  0.085500  1.0  -0.5666
  O  O367  1  0.705500  0.673420  0.722100  1.0  -0.641
  O  O368  1  0.214400  0.071600  0.782400  1.0  -0.73
  O  O369  1  0.620900  0.705210  0.765500  1.0  -0.5297
  O  O370  1  0.090400  0.096620  0.750000  1.0  -0.613
  O  O371  1  0.187300  0.905820  0.075900  1.0  -0.7176
  O  O372  1  0.026100  0.818090  0.010600  1.0  -0.5699
  O  O373  1  0.437900  0.569300  0.965000  1.0  -0.5744
  O  O374  1  0.539500  0.662070  0.914500  1.0  -0.5669
  O  O375  1  0.794500  0.826580  0.277900  1.0  -0.64
  O  O376  1  0.285600  0.428400  0.217600  1.0  -0.7305
  O  O377  1  0.879100  0.794790  0.234500  1.0  -0.5288
  O  O378  1  0.409600  0.403380  0.250000  1.0  -0.6146
  O  O379  1  0.312700  0.594180  0.924100  1.0  -0.7164
  O  O380  1  0.473900  0.681910  0.989400  1.0  -0.5715
  O  O381  1  0.937900  0.069300  0.965000  1.0  -0.5744
  O  O382  1  0.039500  0.162070  0.914500  1.0  -0.5668
  O  O383  1  0.294500  0.326580  0.277900  1.0  -0.64
  O  O384  1  0.785600  0.928400  0.217600  1.0  -0.7305
  O  O385  1  0.379100  0.294790  0.234500  1.0  -0.5298
  O  O386  1  0.909600  0.903380  0.250000  1.0  -0.6146
  O  O387  1  0.812700  0.094180  0.924100  1.0  -0.7164
  O  O388  1  0.973900  0.181910  0.989400  1.0  -0.5715
  O  O389  1  0.437900  0.430700  0.465000  1.0  -0.5748
  O  O390  1  0.539500  0.337930  0.414500  1.0  -0.5674
  O  O391  1  0.794500  0.173420  0.777900  1.0  -0.6403
  O  O392  1  0.285600  0.571600  0.717600  1.0  -0.7302
  O  O393  1  0.879100  0.205210  0.734500  1.0  -0.5288
  O  O394  1  0.409600  0.596620  0.750000  1.0  -0.6144
  O  O395  1  0.312700  0.405820  0.424100  1.0  -0.7164
  O  O396  1  0.473900  0.318090  0.489400  1.0  -0.5714
  O  O397  1  0.937900  0.930700  0.465000  1.0  -0.5748
  O  O398  1  0.039500  0.837930  0.414500  1.0  -0.5672
  O  O399  1  0.294500  0.673420  0.777900  1.0  -0.6403
  O  O400  1  0.785600  0.071600  0.717600  1.0  -0.7302
  O  O401  1  0.379100  0.705210  0.734500  1.0  -0.529
  O  O402  1  0.909600  0.096620  0.750000  1.0  -0.6144
  O  O403  1  0.812700  0.905820  0.424100  1.0  -0.7164
  O  O404  1  0.973900  0.818090  0.489400  1.0  -0.5714
