# generated using pymatgen
data_Cd3H18C24(N2O7)2
_symmetry_space_group_name_H-M   'P 1'
_cell_length_a   10.49930000
_cell_length_b   16.94160000
_cell_length_c   12.33460000
_cell_angle_alpha   90.00000000
_cell_angle_beta   100.51600000
_cell_angle_gamma   90.00000000
_symmetry_Int_Tables_number   1
_chemical_formula_structural   Cd3H18C24(N2O7)2
_chemical_formula_sum   'Cd6 H36 C48 N8 O28'
_cell_volume   2157.16550387
_cell_formula_units_Z   2
loop_
 _symmetry_equiv_pos_site_id
 _symmetry_equiv_pos_as_xyz
  1  'x, y, z'
loop_
 _atom_site_type_symbol
 _atom_site_label
 _atom_site_symmetry_multiplicity
 _atom_site_fract_x
 _atom_site_fract_y
 _atom_site_fract_z
 _atom_site_occupancy
 _atom_site_charge
  Cd  Cd1  1  0.794370  0.104470  0.160370  1.0  1.084
  Cd  Cd2  1  0.705630  0.604470  0.339630  1.0  1.0822
  Cd  Cd3  1  0.205630  0.895530  0.839630  1.0  1.0818
  Cd  Cd4  1  0.294370  0.395530  0.660370  1.0  1.0836
  Cd  Cd5  1  0.000000  0.000000  0.000000  1.0  1.0162
  Cd  Cd6  1  0.500000  0.500000  0.500000  1.0  1.0162
  H  H7  1  0.149300  0.242700  0.347200  1.0  0.0977
  H  H8  1  0.524500  0.266300  0.331400  1.0  0.0886
  H  H9  1  0.319200  0.089800  0.169700  1.0  0.1036
  H  H10  1  0.486900  0.842600  0.060200  1.0  0.0867
  H  H11  1  0.565700  0.832800  0.181500  1.0  0.0952
  H  H12  1  0.699900  0.754100  0.113800  1.0  0.0888
  H  H13  1  0.634600  0.775600  0.991500  1.0  0.0799
  H  H14  1  0.584000  0.969500  0.113700  1.0  0.3808
  H  H15  1  0.848900  0.840600  0.043600  1.0  0.2972
  H  H16  1  0.350700  0.742700  0.152800  1.0  0.0977
  H  H17  1  0.975500  0.766300  0.168600  1.0  0.0882
  H  H18  1  0.180800  0.589800  0.330300  1.0  0.1038
  H  H19  1  0.013100  0.342600  0.439800  1.0  0.0842
  H  H20  1  0.934300  0.332800  0.318500  1.0  0.0956
  H  H21  1  0.800100  0.254100  0.386200  1.0  0.0885
  H  H22  1  0.865400  0.275600  0.508500  1.0  0.081
  H  H23  1  0.916000  0.469500  0.386300  1.0  0.3818
  H  H24  1  0.651100  0.340600  0.456400  1.0  0.2971
  H  H25  1  0.850700  0.757300  0.652800  1.0  0.0978
  H  H26  1  0.475500  0.733700  0.668600  1.0  0.0885
  H  H27  1  0.680800  0.910200  0.830300  1.0  0.1041
  H  H28  1  0.513100  0.157400  0.939800  1.0  0.0842
  H  H29  1  0.434300  0.167200  0.818500  1.0  0.0954
  H  H30  1  0.300100  0.245900  0.886200  1.0  0.0881
  H  H31  1  0.365400  0.224400  0.008500  1.0  0.0809
  H  H32  1  0.416000  0.030500  0.886300  1.0  0.3806
  H  H33  1  0.151100  0.159400  0.956400  1.0  0.2959
  H  H34  1  0.649300  0.257300  0.847200  1.0  0.0976
  H  H35  1  0.024500  0.233700  0.831400  1.0  0.0887
  H  H36  1  0.819200  0.410200  0.669700  1.0  0.1037
  H  H37  1  0.986900  0.657400  0.560200  1.0  0.0867
  H  H38  1  0.065700  0.667200  0.681500  1.0  0.0953
  H  H39  1  0.199900  0.745900  0.613800  1.0  0.0872
  H  H40  1  0.134600  0.724400  0.491500  1.0  0.0803
  H  H41  1  0.084000  0.530500  0.613700  1.0  0.3808
  H  H42  1  0.348900  0.659400  0.543600  1.0  0.298
  C  C43  1  0.212900  0.161900  0.250000  1.0  -0.1583
  C  C44  1  0.222400  0.225600  0.321200  1.0  0.0041
  C  C45  1  0.339100  0.264200  0.354300  1.0  -0.1481
  C  C46  1  0.446800  0.238900  0.312900  1.0  -0.0198
  C  C47  1  0.440200  0.173600  0.244300  1.0  -0.1572
  C  C48  1  0.323900  0.134400  0.214100  1.0  -0.0018
  C  C49  1  0.084000  0.122300  0.208900  1.0  0.734
  C  C50  1  0.351100  0.331700  0.435900  1.0  0.732
  C  C51  1  0.560800  0.146200  0.206700  1.0  0.6951
  C  C52  1  0.740600  0.926100  0.076300  1.0  0.4751
  C  C53  1  0.571800  0.847200  0.106500  1.0  0.0373
  C  C54  1  0.669900  0.797100  0.063600  1.0  0.0462
  C  C55  1  0.287100  0.661900  0.250000  1.0  -0.1583
  C  C56  1  0.277600  0.725600  0.178800  1.0  0.0026
  C  C57  1  0.160900  0.764200  0.145700  1.0  -0.148
  C  C58  1  0.053200  0.738900  0.187100  1.0  -0.0204
  C  C59  1  0.059800  0.673600  0.255700  1.0  -0.1572
  C  C60  1  0.176100  0.634400  0.285900  1.0  -0.0004
  C  C61  1  0.416000  0.622300  0.291100  1.0  0.7349
  C  C62  1  0.148900  0.831700  0.064100  1.0  0.7319
  C  C63  1  0.939200  0.646200  0.293300  1.0  0.6932
  C  C64  1  0.759400  0.426100  0.423700  1.0  0.4742
  C  C65  1  0.928200  0.347200  0.393500  1.0  0.0399
  C  C66  1  0.830100  0.297100  0.436400  1.0  0.0457
  C  C67  1  0.787100  0.838100  0.750000  1.0  -0.1574
  C  C68  1  0.777600  0.774400  0.678800  1.0  0.0029
  C  C69  1  0.660900  0.735800  0.645700  1.0  -0.1485
  C  C70  1  0.553200  0.761100  0.687100  1.0  -0.0198
  C  C71  1  0.559800  0.826400  0.755700  1.0  -0.1565
  C  C72  1  0.676100  0.865600  0.785900  1.0  0.0007
  C  C73  1  0.916000  0.877700  0.791100  1.0  0.7364
  C  C74  1  0.648900  0.668300  0.564100  1.0  0.7314
  C  C75  1  0.439200  0.853800  0.793300  1.0  0.6929
  C  C76  1  0.259400  0.073900  0.923700  1.0  0.4737
  C  C77  1  0.428200  0.152800  0.893500  1.0  0.0394
  C  C78  1  0.330100  0.202900  0.936400  1.0  0.0462
  C  C79  1  0.712900  0.338100  0.750000  1.0  -0.1579
  C  C80  1  0.722400  0.274400  0.821200  1.0  0.0042
  C  C81  1  0.839100  0.235800  0.854300  1.0  -0.1479
  C  C82  1  0.946800  0.261100  0.812900  1.0  -0.0196
  C  C83  1  0.940200  0.326400  0.744300  1.0  -0.1569
  C  C84  1  0.823900  0.365600  0.714100  1.0  -0.0008
  C  C85  1  0.584000  0.377700  0.708900  1.0  0.7337
  C  C86  1  0.851100  0.168300  0.935900  1.0  0.7314
  C  C87  1  0.060800  0.353800  0.706700  1.0  0.6955
  C  C88  1  0.240600  0.573900  0.576300  1.0  0.4754
  C  C89  1  0.071800  0.652800  0.606500  1.0  0.037
  C  C90  1  0.169900  0.702900  0.563600  1.0  0.0463
  N  N91  1  0.624300  0.927100  0.101600  1.0  -0.3806
  N  N92  1  0.774300  0.853500  0.057700  1.0  -0.3951
  N  N93  1  0.875700  0.427100  0.398400  1.0  -0.3813
  N  N94  1  0.725700  0.353500  0.442300  1.0  -0.3966
  N  N95  1  0.375700  0.072900  0.898400  1.0  -0.3828
  N  N96  1  0.225700  0.146500  0.942300  1.0  -0.3967
  N  N97  1  0.124300  0.572900  0.601600  1.0  -0.3816
  N  N98  1  0.274300  0.646500  0.557700  1.0  -0.3953
  O  O99  1  0.084500  0.056100  0.164400  1.0  -0.6966
  O  O100  1  0.985100  0.158700  0.223600  1.0  -0.6011
  O  O101  1  0.267200  0.336900  0.493800  1.0  -0.576
  O  O102  1  0.446700  0.377200  0.438600  1.0  -0.5867
  O  O103  1  0.661200  0.187300  0.230500  1.0  -0.5734
  O  O104  1  0.557700  0.083800  0.151900  1.0  -0.6595
  O  O105  1  0.809500  0.986780  0.069000  1.0  -0.6751
  O  O106  1  0.415500  0.556100  0.335600  1.0  -0.6976
  O  O107  1  0.514900  0.658700  0.276400  1.0  -0.6005
  O  O108  1  0.232800  0.836900  0.006200  1.0  -0.5772
  O  O109  1  0.053300  0.877200  0.061400  1.0  -0.5858
  O  O110  1  0.838800  0.687300  0.269500  1.0  -0.5733
  O  O111  1  0.942300  0.583800  0.348100  1.0  -0.6595
  O  O112  1  0.690500  0.486780  0.431000  1.0  -0.6769
  O  O113  1  0.915500  0.943900  0.835600  1.0  -0.6967
  O  O114  1  0.014900  0.841300  0.776400  1.0  -0.6013
  O  O115  1  0.732800  0.663100  0.506200  1.0  -0.5771
  O  O116  1  0.553300  0.622800  0.561400  1.0  -0.5876
  O  O117  1  0.338800  0.812700  0.769500  1.0  -0.5731
  O  O118  1  0.442300  0.916200  0.848100  1.0  -0.6603
  O  O119  1  0.190500  0.013220  0.931000  1.0  -0.6767
  O  O120  1  0.584500  0.443900  0.664400  1.0  -0.6964
  O  O121  1  0.485100  0.341300  0.723600  1.0  -0.6016
  O  O122  1  0.767200  0.163100  0.993800  1.0  -0.5763
  O  O123  1  0.946700  0.122800  0.938600  1.0  -0.5871
  O  O124  1  0.161200  0.312700  0.730500  1.0  -0.5738
  O  O125  1  0.057700  0.416200  0.651900  1.0  -0.6594
  O  O126  1  0.309500  0.513220  0.569000  1.0  -0.6755
