# generated using pymatgen
data_CaCuH4C12(SO4)2
_symmetry_space_group_name_H-M   'P 1'
_cell_length_a   10.36600000
_cell_length_b   10.47240000
_cell_length_c   12.95820000
_cell_angle_alpha   95.24300000
_cell_angle_beta   102.18900000
_cell_angle_gamma   106.43400000
_symmetry_Int_Tables_number   1
_chemical_formula_structural   CaCuH4C12(SO4)2
_chemical_formula_sum   'Ca2 Cu2 H8 C24 S4 O16'
_cell_volume   1301.57231755
_cell_formula_units_Z   2
loop_
 _symmetry_equiv_pos_site_id
 _symmetry_equiv_pos_as_xyz
  1  'x, y, z'
loop_
 _atom_site_type_symbol
 _atom_site_label
 _atom_site_symmetry_multiplicity
 _atom_site_fract_x
 _atom_site_fract_y
 _atom_site_fract_z
 _atom_site_occupancy
 _atom_site_charge
  Ca  Ca1  1  0.000000  0.500000  0.500000  1.0  1.6228
  Ca  Ca2  1  0.500000  0.000000  0.000000  1.0  1.6321
  Cu  Cu3  1  0.811630  0.225640  0.240170  1.0  1.0317
  Cu  Cu4  1  0.188370  0.774360  0.759830  1.0  1.0318
  H  H5  1  0.348200  0.397700  0.470800  1.0  0.1081
  H  H6  1  0.552200  0.348900  0.431700  1.0  0.1105
  H  H7  1  0.669000  0.752900  0.011700  1.0  0.1075
  H  H8  1  0.690200  0.533200  0.040800  1.0  0.1148
  H  H9  1  0.651800  0.602300  0.529200  1.0  0.1082
  H  H10  1  0.447800  0.651100  0.568300  1.0  0.1107
  H  H11  1  0.331000  0.247100  0.988300  1.0  0.1081
  H  H12  1  0.309800  0.466800  0.959200  1.0  0.1158
  C  C13  1  0.089300  0.303700  0.317500  1.0  0.6943
  C  C14  1  0.232400  0.301500  0.322100  1.0  -0.1894
  C  C15  1  0.347500  0.350700  0.406100  1.0  -0.0607
  C  C16  1  0.465300  0.322200  0.383700  1.0  -0.0765
  C  C17  1  0.436600  0.251100  0.283600  1.0  -0.2096
  C  C18  1  0.530600  0.200800  0.231100  1.0  0.7044
  C  C19  1  0.764800  0.971300  0.180100  1.0  0.6522
  C  C20  1  0.758700  0.827500  0.169200  1.0  -0.2042
  C  C21  1  0.707600  0.734200  0.077900  1.0  -0.0688
  C  C22  1  0.719400  0.607500  0.094800  1.0  -0.0544
  C  C23  1  0.777900  0.604500  0.198300  1.0  -0.2018
  C  C24  1  0.809900  0.490500  0.247000  1.0  0.7028
  C  C25  1  0.910700  0.696300  0.682500  1.0  0.6941
  C  C26  1  0.767600  0.698500  0.677900  1.0  -0.1898
  C  C27  1  0.652500  0.649300  0.593900  1.0  -0.0591
  C  C28  1  0.534700  0.677800  0.616300  1.0  -0.076
  C  C29  1  0.563400  0.748900  0.716400  1.0  -0.2099
  C  C30  1  0.469400  0.799200  0.768900  1.0  0.7047
  C  C31  1  0.235200  0.028700  0.819900  1.0  0.6522
  C  C32  1  0.241300  0.172500  0.830800  1.0  -0.2025
  C  C33  1  0.292400  0.265800  0.922100  1.0  -0.0699
  C  C34  1  0.280600  0.392500  0.905200  1.0  -0.0548
  C  C35  1  0.222100  0.395500  0.801700  1.0  -0.2016
  C  C36  1  0.190100  0.509500  0.753000  1.0  0.6999
  S  S37  1  0.266760  0.219930  0.215070  1.0  0.1447
  S  S38  1  0.818640  0.758390  0.277040  1.0  0.1606
  S  S39  1  0.733240  0.780070  0.784930  1.0  0.1409
  S  S40  1  0.181360  0.241610  0.722960  1.0  0.1751
  O  O41  1  0.002400  0.260300  0.227500  1.0  -0.5744
  O  O42  1  0.061500  0.342900  0.401300  1.0  -0.7164
  O  O43  1  0.646800  0.210200  0.291400  1.0  -0.5491
  O  O44  1  0.489300  0.154600  0.134300  1.0  -0.7509
  O  O45  1  0.816400  0.043500  0.272200  1.0  -0.5648
  O  O46  1  0.719800  0.017200  0.098900  1.0  -0.6751
  O  O47  1  0.847700  0.504200  0.345900  1.0  -0.684
  O  O48  1  0.794400  0.386200  0.181600  1.0  -0.5817
  O  O49  1  0.997600  0.739700  0.772500  1.0  -0.5768
  O  O50  1  0.938500  0.657100  0.598700  1.0  -0.7158
  O  O51  1  0.353200  0.789800  0.708600  1.0  -0.5485
  O  O52  1  0.510700  0.845400  0.865700  1.0  -0.7497
  O  O53  1  0.183600  0.956500  0.727800  1.0  -0.5674
  O  O54  1  0.280200  0.982800  0.901100  1.0  -0.6751
  O  O55  1  0.152300  0.495800  0.654100  1.0  -0.6863
  O  O56  1  0.205600  0.613800  0.818400  1.0  -0.5831
