# generated using pymatgen
data_Cd3H14(C5O2)6
_symmetry_space_group_name_H-M   'P 1'
_cell_length_a   14.01470000
_cell_length_b   18.31520000
_cell_length_c   7.86300000
_cell_angle_alpha   90.00000000
_cell_angle_beta   105.46400000
_cell_angle_gamma   90.00000000
_symmetry_Int_Tables_number   1
_chemical_formula_structural   Cd3H14(C5O2)6
_chemical_formula_sum   'Cd6 H28 C60 O24'
_cell_volume   1945.22501515
_cell_formula_units_Z   2
loop_
 _symmetry_equiv_pos_site_id
 _symmetry_equiv_pos_as_xyz
  1  'x, y, z'
loop_
 _atom_site_type_symbol
 _atom_site_label
 _atom_site_symmetry_multiplicity
 _atom_site_fract_x
 _atom_site_fract_y
 _atom_site_fract_z
 _atom_site_occupancy
 _atom_site_charge
  Cd  Cd1  1  0.818110  0.441080  0.227930  1.0  0.9884
  Cd  Cd2  1  0.181890  0.941080  0.272070  1.0  0.9836
  Cd  Cd3  1  0.181890  0.558920  0.772070  1.0  0.9892
  Cd  Cd4  1  0.818110  0.058920  0.727930  1.0  0.9833
  Cd  Cd5  1  0.000000  0.500000  0.000000  1.0  1.0455
  Cd  Cd6  1  0.000000  0.000000  0.500000  1.0  1.0411
  H  H7  1  0.992600  0.725200  0.192100  1.0  0.1202
  H  H8  1  0.808400  0.883400  0.258400  1.0  0.1101
  H  H9  1  0.728200  0.672800  0.259500  1.0  0.1157
  H  H10  1  0.694400  0.897300  0.421100  1.0  0.112
  H  H11  1  0.541300  0.935700  0.433800  1.0  0.1057
  H  H12  1  0.421800  0.757300  0.162900  1.0  0.1124
  H  H13  1  0.572600  0.722800  0.137200  1.0  0.1071
  H  H14  1  0.007400  0.225200  0.307900  1.0  0.1195
  H  H15  1  0.191600  0.383400  0.241600  1.0  0.1093
  H  H16  1  0.271800  0.172800  0.240500  1.0  0.1159
  H  H17  1  0.305600  0.397300  0.078900  1.0  0.1126
  H  H18  1  0.458700  0.435700  0.066200  1.0  0.1059
  H  H19  1  0.578200  0.257300  0.337100  1.0  0.113
  H  H20  1  0.427400  0.222800  0.362800  1.0  0.107
  H  H21  1  0.007400  0.274800  0.807900  1.0  0.1193
  H  H22  1  0.191600  0.116600  0.741600  1.0  0.1104
  H  H23  1  0.271800  0.327200  0.740500  1.0  0.1156
  H  H24  1  0.305600  0.102700  0.578900  1.0  0.1121
  H  H25  1  0.458700  0.064300  0.566200  1.0  0.1055
  H  H26  1  0.578200  0.242700  0.837100  1.0  0.1129
  H  H27  1  0.427400  0.277200  0.862800  1.0  0.1076
  H  H28  1  0.992600  0.774800  0.692100  1.0  0.1201
  H  H29  1  0.808400  0.616600  0.758400  1.0  0.1105
  H  H30  1  0.728200  0.827200  0.759500  1.0  0.1155
  H  H31  1  0.694400  0.602700  0.921100  1.0  0.1118
  H  H32  1  0.541300  0.564300  0.933800  1.0  0.1055
  H  H33  1  0.421800  0.742700  0.662900  1.0  0.1128
  H  H34  1  0.572600  0.777200  0.637200  1.0  0.1077
  C  C35  1  0.863200  0.687500  0.222300  1.0  -0.1227
  C  C36  1  0.932700  0.739200  0.211700  1.0  0.0048
  C  C37  1  0.912300  0.813100  0.230600  1.0  -0.1469
  C  C38  1  0.822200  0.834000  0.251400  1.0  -0.0507
  C  C39  1  0.750400  0.782100  0.262100  1.0  0.0507
  C  C40  1  0.773700  0.708400  0.249500  1.0  -0.0391
  C  C41  1  0.885300  0.607100  0.196400  1.0  0.749
  C  C42  1  0.991600  0.868500  0.235400  1.0  0.6995
  C  C43  1  0.650900  0.805200  0.278500  1.0  0.0475
  C  C44  1  0.639000  0.869700  0.366800  1.0  -0.123
  C  C45  1  0.547300  0.892600  0.374800  1.0  -0.0404
  C  C46  1  0.462800  0.852300  0.295500  1.0  -0.1157
  C  C47  1  0.476400  0.786600  0.211500  1.0  -0.0342
  C  C48  1  0.566900  0.765000  0.199300  1.0  -0.1245
  C  C49  1  0.362600  0.879100  0.298400  1.0  0.7186
  C  C50  1  0.136800  0.187500  0.277700  1.0  -0.1239
  C  C51  1  0.067300  0.239200  0.288300  1.0  0.0045
  C  C52  1  0.087700  0.313100  0.269400  1.0  -0.147
  C  C53  1  0.177800  0.334000  0.248600  1.0  -0.0498
  C  C54  1  0.249600  0.282100  0.237900  1.0  0.0508
  C  C55  1  0.226300  0.208400  0.250500  1.0  -0.0388
  C  C56  1  0.114700  0.107100  0.303600  1.0  0.7455
  C  C57  1  0.008400  0.368500  0.264600  1.0  0.7026
  C  C58  1  0.349100  0.305200  0.221500  1.0  0.0483
  C  C59  1  0.361000  0.369700  0.133200  1.0  -0.1234
  C  C60  1  0.452700  0.392600  0.125200  1.0  -0.0404
  C  C61  1  0.537200  0.352300  0.204500  1.0  -0.1165
  C  C62  1  0.523600  0.286600  0.288500  1.0  -0.034
  C  C63  1  0.433100  0.265000  0.300700  1.0  -0.1241
  C  C64  1  0.637400  0.379100  0.201600  1.0  0.7161
  C  C65  1  0.136800  0.312500  0.777700  1.0  -0.1235
  C  C66  1  0.067300  0.260800  0.788300  1.0  0.0044
  C  C67  1  0.087700  0.186900  0.769400  1.0  -0.1469
  C  C68  1  0.177800  0.166000  0.748600  1.0  -0.0492
  C  C69  1  0.249600  0.217900  0.737900  1.0  0.0507
  C  C70  1  0.226300  0.291600  0.750500  1.0  -0.0384
  C  C71  1  0.114700  0.392900  0.803600  1.0  0.7469
  C  C72  1  0.008400  0.131500  0.764600  1.0  0.7027
  C  C73  1  0.349100  0.194800  0.721500  1.0  0.0484
  C  C74  1  0.361000  0.130300  0.633200  1.0  -0.1252
  C  C75  1  0.452700  0.107400  0.625200  1.0  -0.0404
  C  C76  1  0.537200  0.147700  0.704500  1.0  -0.1165
  C  C77  1  0.523600  0.213400  0.788500  1.0  -0.0337
  C  C78  1  0.433100  0.235000  0.800700  1.0  -0.1247
  C  C79  1  0.637400  0.120900  0.701600  1.0  0.7155
  C  C80  1  0.863200  0.812500  0.722300  1.0  -0.1235
  C  C81  1  0.932700  0.760800  0.711700  1.0  0.0047
  C  C82  1  0.912300  0.686900  0.730600  1.0  -0.1465
  C  C83  1  0.822200  0.666000  0.751400  1.0  -0.0509
  C  C84  1  0.750400  0.717900  0.762100  1.0  0.0504
  C  C85  1  0.773700  0.791600  0.749500  1.0  -0.039
  C  C86  1  0.885300  0.892900  0.696400  1.0  0.747
  C  C87  1  0.991600  0.631500  0.735400  1.0  0.6995
  C  C88  1  0.650900  0.694800  0.778500  1.0  0.0474
  C  C89  1  0.639000  0.630300  0.866800  1.0  -0.1256
  C  C90  1  0.547300  0.607400  0.874800  1.0  -0.0404
  C  C91  1  0.462800  0.647700  0.795500  1.0  -0.1177
  C  C92  1  0.476400  0.713400  0.711500  1.0  -0.0354
  C  C93  1  0.566900  0.735000  0.699300  1.0  -0.1245
  C  C94  1  0.362600  0.620900  0.798400  1.0  0.7185
  O  O95  1  0.826800  0.561900  0.229000  1.0  -0.6386
  O  O96  1  0.958400  0.593800  0.141100  1.0  -0.6361
  O  O97  1  0.077200  0.844900  0.237200  1.0  -0.6203
  O  O98  1  0.973800  0.935200  0.243200  1.0  -0.7013
  O  O99  1  0.352200  0.939900  0.353200  1.0  -0.5782
  O  O100  1  0.290400  0.841600  0.235200  1.0  -0.5858
  O  O101  1  0.173200  0.061900  0.271000  1.0  -0.6382
  O  O102  1  0.041600  0.093800  0.358900  1.0  -0.6378
  O  O103  1  0.922800  0.344900  0.262800  1.0  -0.6169
  O  O104  1  0.026200  0.435200  0.256800  1.0  -0.7033
  O  O105  1  0.647800  0.439900  0.146800  1.0  -0.5787
  O  O106  1  0.709600  0.341600  0.264800  1.0  -0.5859
  O  O107  1  0.173200  0.438100  0.771000  1.0  -0.6391
  O  O108  1  0.041600  0.406200  0.858900  1.0  -0.6375
  O  O109  1  0.922800  0.155100  0.762800  1.0  -0.617
  O  O110  1  0.026200  0.064800  0.756800  1.0  -0.7015
  O  O111  1  0.647800  0.060100  0.646800  1.0  -0.5787
  O  O112  1  0.709600  0.158400  0.764800  1.0  -0.5862
  O  O113  1  0.826800  0.938100  0.729000  1.0  -0.6383
  O  O114  1  0.958400  0.906200  0.641100  1.0  -0.6359
  O  O115  1  0.077200  0.655100  0.737200  1.0  -0.6197
  O  O116  1  0.973800  0.564800  0.743200  1.0  -0.7028
  O  O117  1  0.352200  0.560100  0.853200  1.0  -0.578
  O  O118  1  0.290400  0.658400  0.735200  1.0  -0.5863
