# generated using pymatgen
data_Cu3H19C36N5O12
_symmetry_space_group_name_H-M   'P 1'
_cell_length_a   13.65700000
_cell_length_b   18.68600000
_cell_length_c   31.50300000
_cell_angle_alpha   90.00000000
_cell_angle_beta   101.53200000
_cell_angle_gamma   90.00000000
_symmetry_Int_Tables_number   1
_chemical_formula_structural   Cu3H19C36N5O12
_chemical_formula_sum   'Cu12 H76 C144 N20 O48'
_cell_volume   7877.10899350
_cell_formula_units_Z   4
loop_
 _symmetry_equiv_pos_site_id
 _symmetry_equiv_pos_as_xyz
  1  'x, y, z'
loop_
 _atom_site_type_symbol
 _atom_site_label
 _atom_site_symmetry_multiplicity
 _atom_site_fract_x
 _atom_site_fract_y
 _atom_site_fract_z
 _atom_site_occupancy
 _atom_site_charge
  Cu  Cu1  1  0.809760  0.281790  0.227320  1.0  0.8337
  Cu  Cu2  1  0.309760  0.781790  0.727320  1.0  0.8337
  Cu  Cu3  1  0.190240  0.281790  0.772680  1.0  0.8332
  Cu  Cu4  1  0.690240  0.781790  0.272680  1.0  0.8332
  Cu  Cu5  1  0.190240  0.718210  0.772680  1.0  0.8333
  Cu  Cu6  1  0.690240  0.218210  0.272680  1.0  0.8333
  Cu  Cu7  1  0.809760  0.718210  0.227320  1.0  0.8334
  Cu  Cu8  1  0.309760  0.218210  0.727320  1.0  0.8334
  Cu  Cu9  1  0.903080  0.000000  0.483050  1.0  0.9032
  Cu  Cu10  1  0.403080  0.500000  0.983050  1.0  0.9032
  Cu  Cu11  1  0.096920  0.000000  0.516950  1.0  0.904
  Cu  Cu12  1  0.596920  0.500000  0.016950  1.0  0.904
  H  H13  1  0.645700  0.226100  0.361600  1.0  0.0918
  H  H14  1  0.524300  0.218300  0.402800  1.0  0.1226
  H  H15  1  0.355100  0.127800  0.295700  1.0  0.1045
  H  H16  1  0.491800  0.129200  0.261400  1.0  0.1124
  H  H17  1  0.202200  0.135200  0.424700  1.0  0.1128
  H  H18  1  0.907500  0.147600  0.382300  1.0  0.1045
  H  H19  1  0.089800  0.230800  0.310700  1.0  0.1211
  H  H20  1  0.672000  0.393200  0.360700  1.0  0.1092
  H  H21  1  0.372300  0.177000  0.407500  1.0  0.1362
  H  H22  1  0.145700  0.726100  0.861600  1.0  0.0918
  H  H23  1  0.024300  0.718300  0.902800  1.0  0.1226
  H  H24  1  0.855100  0.627800  0.795700  1.0  0.1045
  H  H25  1  0.991800  0.629200  0.761400  1.0  0.1124
  H  H26  1  0.702200  0.635200  0.924700  1.0  0.1128
  H  H27  1  0.407500  0.647600  0.882300  1.0  0.1045
  H  H28  1  0.589800  0.730800  0.810700  1.0  0.1211
  H  H29  1  0.172000  0.893200  0.860700  1.0  0.1092
  H  H30  1  0.872300  0.677000  0.907500  1.0  0.1362
  H  H31  1  0.354300  0.226100  0.638400  1.0  0.0908
  H  H32  1  0.475700  0.218300  0.597200  1.0  0.124
  H  H33  1  0.644900  0.127800  0.704300  1.0  0.1045
  H  H34  1  0.508200  0.129200  0.738600  1.0  0.112
  H  H35  1  0.797800  0.135200  0.575300  1.0  0.1127
  H  H36  1  0.092500  0.147600  0.617700  1.0  0.1039
  H  H37  1  0.910200  0.230800  0.689300  1.0  0.1212
  H  H38  1  0.328000  0.393200  0.639300  1.0  0.1088
  H  H39  1  0.627700  0.177000  0.592500  1.0  0.1359
  H  H40  1  0.854300  0.726100  0.138400  1.0  0.0908
  H  H41  1  0.975700  0.718300  0.097200  1.0  0.124
  H  H42  1  0.144900  0.627800  0.204300  1.0  0.1045
  H  H43  1  0.008200  0.629200  0.238600  1.0  0.112
  H  H44  1  0.297800  0.635200  0.075300  1.0  0.1127
  H  H45  1  0.592500  0.647600  0.117700  1.0  0.1039
  H  H46  1  0.410200  0.730800  0.189300  1.0  0.1212
  H  H47  1  0.828000  0.893200  0.139300  1.0  0.1088
  H  H48  1  0.127700  0.677000  0.092500  1.0  0.1359
  H  H49  1  0.354300  0.773900  0.638400  1.0  0.0908
  H  H50  1  0.475700  0.781700  0.597200  1.0  0.1239
  H  H51  1  0.644900  0.872200  0.704300  1.0  0.1047
  H  H52  1  0.508200  0.870800  0.738600  1.0  0.1126
  H  H53  1  0.797800  0.864800  0.575300  1.0  0.1128
  H  H54  1  0.092500  0.852400  0.617700  1.0  0.1041
  H  H55  1  0.910200  0.769200  0.689300  1.0  0.1216
  H  H56  1  0.328000  0.606800  0.639300  1.0  0.1086
  H  H57  1  0.627700  0.823000  0.592500  1.0  0.1359
  H  H58  1  0.854300  0.273900  0.138400  1.0  0.0908
  H  H59  1  0.975700  0.281700  0.097200  1.0  0.1239
  H  H60  1  0.144900  0.372200  0.204300  1.0  0.1047
  H  H61  1  0.008200  0.370800  0.238600  1.0  0.1126
  H  H62  1  0.297800  0.364800  0.075300  1.0  0.1128
  H  H63  1  0.592500  0.352400  0.117700  1.0  0.1041
  H  H64  1  0.410200  0.269200  0.189300  1.0  0.1216
  H  H65  1  0.828000  0.106800  0.139300  1.0  0.1086
  H  H66  1  0.127700  0.323000  0.092500  1.0  0.1359
  H  H67  1  0.645700  0.773900  0.361600  1.0  0.0918
  H  H68  1  0.524300  0.781700  0.402800  1.0  0.1227
  H  H69  1  0.355100  0.872200  0.295700  1.0  0.1044
  H  H70  1  0.491800  0.870800  0.261400  1.0  0.1124
  H  H71  1  0.202200  0.864800  0.424700  1.0  0.1126
  H  H72  1  0.907500  0.852400  0.382300  1.0  0.1046
  H  H73  1  0.089800  0.769200  0.310700  1.0  0.1213
  H  H74  1  0.672000  0.606800  0.360700  1.0  0.1091
  H  H75  1  0.372300  0.823000  0.407500  1.0  0.1362
  H  H76  1  0.145700  0.273900  0.861600  1.0  0.0918
  H  H77  1  0.024300  0.281700  0.902800  1.0  0.1227
  H  H78  1  0.855100  0.372200  0.795700  1.0  0.1044
  H  H79  1  0.991800  0.370800  0.761400  1.0  0.1124
  H  H80  1  0.702200  0.364800  0.924700  1.0  0.1126
  H  H81  1  0.407500  0.352400  0.882300  1.0  0.1046
  H  H82  1  0.589800  0.269200  0.810700  1.0  0.1213
  H  H83  1  0.172000  0.106800  0.860700  1.0  0.1091
  H  H84  1  0.872300  0.323000  0.907500  1.0  0.1362
  H  H85  1  0.770900  0.500000  0.266900  1.0  0.1086
  H  H86  1  0.270900  0.000000  0.766900  1.0  0.1086
  H  H87  1  0.229100  0.500000  0.733100  1.0  0.1087
  H  H88  1  0.729100  0.000000  0.233100  1.0  0.1087
  C  C89  1  0.585200  0.205400  0.348500  1.0  0.1728
  C  C90  1  0.513200  0.203000  0.374200  1.0  -0.0951
  C  C91  1  0.422200  0.174900  0.352000  1.0  -0.07
  C  C92  1  0.415100  0.147800  0.309900  1.0  -0.0615
  C  C93  1  0.496600  0.150000  0.288500  1.0  0.1175
  C  C94  1  0.345000  0.171900  0.378700  1.0  0.0866
  C  C95  1  0.163900  0.182300  0.366160  1.0  0.1583
  C  C96  1  0.148000  0.148500  0.403260  1.0  -0.0086
  C  C97  1  0.051600  0.134500  0.408590  1.0  -0.1525
  C  C98  1  0.971900  0.156700  0.378200  1.0  0.0137
  C  C99  1  0.985300  0.192500  0.341360  1.0  -0.144
  C  C100  1  0.080400  0.206100  0.335180  1.0  -0.0757
  C  C101  1  0.035000  0.089900  0.446240  1.0  0.6793
  C  C102  1  0.896700  0.214700  0.308330  1.0  0.6847
  C  C103  1  0.685300  0.436100  0.348000  1.0  -0.0143
  C  C104  1  0.725000  0.435300  0.310750  1.0  -0.179
  C  C105  1  0.738200  0.367700  0.288630  1.0  0.6848
  C  C106  1  0.085200  0.705400  0.848500  1.0  0.1728
  C  C107  1  0.013200  0.703000  0.874200  1.0  -0.0951
  C  C108  1  0.922200  0.674900  0.852000  1.0  -0.07
  C  C109  1  0.915100  0.647800  0.809900  1.0  -0.0615
  C  C110  1  0.996600  0.650000  0.788500  1.0  0.1175
  C  C111  1  0.845000  0.671900  0.878700  1.0  0.0866
  C  C112  1  0.663900  0.682300  0.866160  1.0  0.1583
  C  C113  1  0.648000  0.648500  0.903260  1.0  -0.0086
  C  C114  1  0.551600  0.634500  0.908590  1.0  -0.1525
  C  C115  1  0.471900  0.656700  0.878200  1.0  0.0137
  C  C116  1  0.485300  0.692500  0.841360  1.0  -0.144
  C  C117  1  0.580400  0.706100  0.835180  1.0  -0.0757
  C  C118  1  0.535000  0.589900  0.946240  1.0  0.6793
  C  C119  1  0.396700  0.714700  0.808330  1.0  0.6847
  C  C120  1  0.185300  0.936100  0.848000  1.0  -0.0143
  C  C121  1  0.225000  0.935300  0.810750  1.0  -0.179
  C  C122  1  0.238200  0.867700  0.788630  1.0  0.6848
  C  C123  1  0.414800  0.205400  0.651500  1.0  0.172
  C  C124  1  0.486800  0.203000  0.625800  1.0  -0.0951
  C  C125  1  0.577800  0.174900  0.648000  1.0  -0.0707
  C  C126  1  0.584900  0.147800  0.690100  1.0  -0.0595
  C  C127  1  0.503400  0.150000  0.711500  1.0  0.1179
  C  C128  1  0.655000  0.171900  0.621300  1.0  0.0888
  C  C129  1  0.836100  0.182300  0.633840  1.0  0.1587
  C  C130  1  0.852000  0.148500  0.596740  1.0  -0.0074
  C  C131  1  0.948400  0.134500  0.591410  1.0  -0.1508
  C  C132  1  0.028100  0.156700  0.621800  1.0  0.0149
  C  C133  1  0.014700  0.192500  0.658640  1.0  -0.1437
  C  C134  1  0.919600  0.206100  0.664820  1.0  -0.0775
  C  C135  1  0.965000  0.089900  0.553760  1.0  0.6789
  C  C136  1  0.103300  0.214700  0.691670  1.0  0.6845
  C  C137  1  0.314700  0.436100  0.652000  1.0  -0.0145
  C  C138  1  0.275000  0.435300  0.689250  1.0  -0.1792
  C  C139  1  0.261800  0.367700  0.711370  1.0  0.684
  C  C140  1  0.914800  0.705400  0.151500  1.0  0.172
  C  C141  1  0.986800  0.703000  0.125800  1.0  -0.0951
  C  C142  1  0.077800  0.674900  0.148000  1.0  -0.0707
  C  C143  1  0.084900  0.647800  0.190100  1.0  -0.0595
  C  C144  1  0.003400  0.650000  0.211500  1.0  0.1179
  C  C145  1  0.155000  0.671900  0.121300  1.0  0.0888
  C  C146  1  0.336100  0.682300  0.133840  1.0  0.1587
  C  C147  1  0.352000  0.648500  0.096740  1.0  -0.0074
  C  C148  1  0.448400  0.634500  0.091410  1.0  -0.1508
  C  C149  1  0.528100  0.656700  0.121800  1.0  0.0149
  C  C150  1  0.514700  0.692500  0.158640  1.0  -0.1437
  C  C151  1  0.419600  0.706100  0.164820  1.0  -0.0775
  C  C152  1  0.465000  0.589900  0.053760  1.0  0.6789
  C  C153  1  0.603300  0.714700  0.191670  1.0  0.6845
  C  C154  1  0.814700  0.936100  0.152000  1.0  -0.0145
  C  C155  1  0.775000  0.935300  0.189250  1.0  -0.1792
  C  C156  1  0.761800  0.867700  0.211370  1.0  0.684
  C  C157  1  0.414800  0.794600  0.651500  1.0  0.1722
  C  C158  1  0.486800  0.797000  0.625800  1.0  -0.094
  C  C159  1  0.577800  0.825100  0.648000  1.0  -0.0711
  C  C160  1  0.584900  0.852200  0.690100  1.0  -0.0608
  C  C161  1  0.503400  0.850000  0.711500  1.0  0.1176
  C  C162  1  0.655000  0.828100  0.621300  1.0  0.088
  C  C163  1  0.836100  0.817700  0.633840  1.0  0.1584
  C  C164  1  0.852000  0.851500  0.596740  1.0  -0.0083
  C  C165  1  0.948400  0.865500  0.591410  1.0  -0.1509
  C  C166  1  0.028100  0.843300  0.621800  1.0  0.0146
  C  C167  1  0.014700  0.807500  0.658640  1.0  -0.1438
  C  C168  1  0.919600  0.793900  0.664820  1.0  -0.0769
  C  C169  1  0.965000  0.910100  0.553760  1.0  0.6786
  C  C170  1  0.103300  0.785300  0.691670  1.0  0.6845
  C  C171  1  0.314700  0.563900  0.652000  1.0  -0.015
  C  C172  1  0.275000  0.564700  0.689250  1.0  -0.1792
  C  C173  1  0.261800  0.632300  0.711370  1.0  0.6842
  C  C174  1  0.914800  0.294600  0.151500  1.0  0.1722
  C  C175  1  0.986800  0.297000  0.125800  1.0  -0.094
  C  C176  1  0.077800  0.325100  0.148000  1.0  -0.0711
  C  C177  1  0.084900  0.352200  0.190100  1.0  -0.0608
  C  C178  1  0.003400  0.350000  0.211500  1.0  0.1176
  C  C179  1  0.155000  0.328100  0.121300  1.0  0.088
  C  C180  1  0.336100  0.317700  0.133840  1.0  0.1584
  C  C181  1  0.352000  0.351500  0.096740  1.0  -0.0083
  C  C182  1  0.448400  0.365500  0.091410  1.0  -0.1509
  C  C183  1  0.528100  0.343300  0.121800  1.0  0.0146
  C  C184  1  0.514700  0.307500  0.158640  1.0  -0.1438
  C  C185  1  0.419600  0.293900  0.164820  1.0  -0.0769
  C  C186  1  0.465000  0.410100  0.053760  1.0  0.6786
  C  C187  1  0.603300  0.285300  0.191670  1.0  0.6845
  C  C188  1  0.814700  0.063900  0.152000  1.0  -0.015
  C  C189  1  0.775000  0.064700  0.189250  1.0  -0.1792
  C  C190  1  0.761800  0.132300  0.211370  1.0  0.6842
  C  C191  1  0.585200  0.794600  0.348500  1.0  0.1731
  C  C192  1  0.513200  0.797000  0.374200  1.0  -0.0948
  C  C193  1  0.422200  0.825100  0.352000  1.0  -0.0704
  C  C194  1  0.415100  0.852200  0.309900  1.0  -0.0614
  C  C195  1  0.496600  0.850000  0.288500  1.0  0.1185
  C  C196  1  0.345000  0.828100  0.378700  1.0  0.0874
  C  C197  1  0.163900  0.817700  0.366160  1.0  0.1583
  C  C198  1  0.148000  0.851500  0.403260  1.0  -0.0094
  C  C199  1  0.051600  0.865500  0.408590  1.0  -0.1524
  C  C200  1  0.971900  0.843300  0.378200  1.0  0.0136
  C  C201  1  0.985300  0.807500  0.341360  1.0  -0.144
  C  C202  1  0.080400  0.793900  0.335180  1.0  -0.0763
  C  C203  1  0.035000  0.910100  0.446240  1.0  0.6792
  C  C204  1  0.896700  0.785300  0.308330  1.0  0.6846
  C  C205  1  0.685300  0.563900  0.348000  1.0  -0.0141
  C  C206  1  0.725000  0.564700  0.310750  1.0  -0.1791
  C  C207  1  0.738200  0.632300  0.288630  1.0  0.685
  C  C208  1  0.085200  0.294600  0.848500  1.0  0.1731
  C  C209  1  0.013200  0.297000  0.874200  1.0  -0.0948
  C  C210  1  0.922200  0.325100  0.852000  1.0  -0.0704
  C  C211  1  0.915100  0.352200  0.809900  1.0  -0.0614
  C  C212  1  0.996600  0.350000  0.788500  1.0  0.1185
  C  C213  1  0.845000  0.328100  0.878700  1.0  0.0874
  C  C214  1  0.663900  0.317700  0.866160  1.0  0.1583
  C  C215  1  0.648000  0.351500  0.903260  1.0  -0.0094
  C  C216  1  0.551600  0.365500  0.908590  1.0  -0.1524
  C  C217  1  0.471900  0.343300  0.878200  1.0  0.0136
  C  C218  1  0.485300  0.307500  0.841360  1.0  -0.144
  C  C219  1  0.580400  0.293900  0.835180  1.0  -0.0763
  C  C220  1  0.535000  0.410100  0.946240  1.0  0.6792
  C  C221  1  0.396700  0.285300  0.808330  1.0  0.6846
  C  C222  1  0.185300  0.063900  0.848000  1.0  -0.0141
  C  C223  1  0.225000  0.064700  0.810750  1.0  -0.1791
  C  C224  1  0.238200  0.132300  0.788630  1.0  0.685
  C  C225  1  0.665600  0.500000  0.366100  1.0  0.0776
  C  C226  1  0.744700  0.500000  0.292000  1.0  0.033
  C  C227  1  0.165600  0.000000  0.866100  1.0  0.0776
  C  C228  1  0.244700  0.000000  0.792000  1.0  0.033
  C  C229  1  0.334400  0.500000  0.633900  1.0  0.0736
  C  C230  1  0.255300  0.500000  0.708000  1.0  0.0327
  C  C231  1  0.834400  0.000000  0.133900  1.0  0.0736
  C  C232  1  0.755300  0.000000  0.208000  1.0  0.0327
  N  N233  1  0.580600  0.182700  0.308050  1.0  -0.3524
  N  N234  1  0.261500  0.191400  0.356400  1.0  -0.2866
  N  N235  1  0.080600  0.682700  0.808050  1.0  -0.3524
  N  N236  1  0.761500  0.691400  0.856400  1.0  -0.2866
  N  N237  1  0.419400  0.182700  0.691950  1.0  -0.3505
  N  N238  1  0.738500  0.191400  0.643600  1.0  -0.2861
  N  N239  1  0.919400  0.682700  0.191950  1.0  -0.3505
  N  N240  1  0.238500  0.691400  0.143600  1.0  -0.2861
  N  N241  1  0.419400  0.817300  0.691950  1.0  -0.3503
  N  N242  1  0.738500  0.808600  0.643600  1.0  -0.2857
  N  N243  1  0.919400  0.317300  0.191950  1.0  -0.3503
  N  N244  1  0.238500  0.308600  0.143600  1.0  -0.2857
  N  N245  1  0.580600  0.817300  0.308050  1.0  -0.3526
  N  N246  1  0.261500  0.808600  0.356400  1.0  -0.2883
  N  N247  1  0.080600  0.317300  0.808050  1.0  -0.3526
  N  N248  1  0.761500  0.308600  0.856400  1.0  -0.2883
  N  N249  1  0.642600  0.500000  0.411800  1.0  -0.2595
  N  N250  1  0.142600  0.000000  0.911800  1.0  -0.2619
  N  N251  1  0.357400  0.500000  0.588200  1.0  -0.2618
  N  N252  1  0.857400  0.000000  0.088200  1.0  -0.2642
  O  O253  1  0.946600  0.072940  0.446490  1.0  -0.5741
  O  O254  1  0.111200  0.071720  0.473680  1.0  -0.5715
  O  O255  1  0.912600  0.248800  0.275330  1.0  -0.5842
  O  O256  1  0.812900  0.195470  0.313760  1.0  -0.5664
  O  O257  1  0.790300  0.368380  0.259830  1.0  -0.5723
  O  O258  1  0.693400  0.313780  0.299470  1.0  -0.5696
  O  O259  1  0.446600  0.572940  0.946490  1.0  -0.5741
  O  O260  1  0.611200  0.571720  0.973680  1.0  -0.5715
  O  O261  1  0.412600  0.748800  0.775330  1.0  -0.5842
  O  O262  1  0.312900  0.695470  0.813760  1.0  -0.5664
  O  O263  1  0.290300  0.868380  0.759830  1.0  -0.5723
  O  O264  1  0.193400  0.813780  0.799470  1.0  -0.5696
  O  O265  1  0.053400  0.072940  0.553510  1.0  -0.5748
  O  O266  1  0.888800  0.071720  0.526320  1.0  -0.5705
  O  O267  1  0.087400  0.248800  0.724670  1.0  -0.5841
  O  O268  1  0.187100  0.195470  0.686240  1.0  -0.5651
  O  O269  1  0.209700  0.368380  0.740170  1.0  -0.5735
  O  O270  1  0.306600  0.313780  0.700530  1.0  -0.569
  O  O271  1  0.553400  0.572940  0.053510  1.0  -0.5748
  O  O272  1  0.388800  0.571720  0.026320  1.0  -0.5705
  O  O273  1  0.587400  0.748800  0.224670  1.0  -0.5841
  O  O274  1  0.687100  0.695470  0.186240  1.0  -0.5651
  O  O275  1  0.709700  0.868380  0.240170  1.0  -0.5735
  O  O276  1  0.806600  0.813780  0.200530  1.0  -0.569
  O  O277  1  0.053400  0.927060  0.553510  1.0  -0.575
  O  O278  1  0.888800  0.928280  0.526320  1.0  -0.5704
  O  O279  1  0.087400  0.751200  0.724670  1.0  -0.5844
  O  O280  1  0.187100  0.804530  0.686240  1.0  -0.5644
  O  O281  1  0.209700  0.631620  0.740170  1.0  -0.5744
  O  O282  1  0.306600  0.686220  0.700530  1.0  -0.5692
  O  O283  1  0.553400  0.427060  0.053510  1.0  -0.575
  O  O284  1  0.388800  0.428280  0.026320  1.0  -0.5704
  O  O285  1  0.587400  0.251200  0.224670  1.0  -0.5844
  O  O286  1  0.687100  0.304530  0.186240  1.0  -0.5644
  O  O287  1  0.709700  0.131620  0.240170  1.0  -0.5744
  O  O288  1  0.806600  0.186220  0.200530  1.0  -0.5692
  O  O289  1  0.946600  0.927060  0.446490  1.0  -0.5742
  O  O290  1  0.111200  0.928280  0.473680  1.0  -0.5715
  O  O291  1  0.912600  0.751200  0.275330  1.0  -0.585
  O  O292  1  0.812900  0.804530  0.313760  1.0  -0.566
  O  O293  1  0.790300  0.631620  0.259830  1.0  -0.5734
  O  O294  1  0.693400  0.686220  0.299470  1.0  -0.5693
  O  O295  1  0.446600  0.427060  0.946490  1.0  -0.5742
  O  O296  1  0.611200  0.428280  0.973680  1.0  -0.5715
  O  O297  1  0.412600  0.251200  0.775330  1.0  -0.585
  O  O298  1  0.312900  0.304530  0.813760  1.0  -0.566
  O  O299  1  0.290300  0.131620  0.759830  1.0  -0.5734
  O  O300  1  0.193400  0.186220  0.799470  1.0  -0.5693
