# generated using pymatgen
data_Mn5H36C76(NO5)4
_symmetry_space_group_name_H-M   'P 1'
_cell_length_a   10.31440000
_cell_length_b   16.81000000
_cell_length_c   44.98500000
_cell_angle_alpha   90.00000000
_cell_angle_beta   101.86900000
_cell_angle_gamma   90.00000000
_symmetry_Int_Tables_number   1
_chemical_formula_structural   Mn5H36C76(NO5)4
_chemical_formula_sum   'Mn10 H72 C152 N8 O40'
_cell_volume   7632.97212922
_cell_formula_units_Z   2
loop_
 _symmetry_equiv_pos_site_id
 _symmetry_equiv_pos_as_xyz
  1  'x, y, z'
loop_
 _atom_site_type_symbol
 _atom_site_label
 _atom_site_symmetry_multiplicity
 _atom_site_fract_x
 _atom_site_fract_y
 _atom_site_fract_z
 _atom_site_occupancy
 _atom_site_charge
  Mn  Mn1  1  0.104320  0.004270  0.811650  1.0  1.149
  Mn  Mn2  1  0.296090  0.091600  0.757590  1.0  1.1138
  Mn  Mn3  1  0.895680  0.504270  0.688350  1.0  1.1488
  Mn  Mn4  1  0.703910  0.591600  0.742410  1.0  1.1112
  Mn  Mn5  1  0.895680  0.995730  0.188350  1.0  1.1489
  Mn  Mn6  1  0.703910  0.908400  0.242410  1.0  1.1109
  Mn  Mn7  1  0.104320  0.495730  0.311650  1.0  1.1489
  Mn  Mn8  1  0.296090  0.408400  0.257590  1.0  1.1145
  Mn  Mn9  1  0.000000  0.000000  0.000000  1.0  0.9193
  Mn  Mn10  1  0.000000  0.500000  0.500000  1.0  0.9193
  H  H11  1  0.587200  0.173500  0.990300  1.0  0.1114
  H  H12  1  0.665200  0.201700  0.943900  1.0  0.1188
  H  H13  1  0.044800  0.081300  0.893400  1.0  0.1061
  H  H14  1  0.233300  0.995100  0.910800  1.0  0.1038
  H  H15  1  0.464900  0.015600  0.964800  1.0  0.0971
  H  H16  1  0.640600  0.994900  0.940100  1.0  0.1162
  H  H17  1  0.503000  0.774000  0.919800  1.0  0.1258
  H  H18  1  0.326000  0.801000  0.944600  1.0  0.1055
  H  H19  1  0.469100  0.929600  0.874600  1.0  0.0931
  H  H20  1  0.643200  0.023100  0.811100  1.0  0.1096
  H  H21  1  0.858100  0.910000  0.882100  1.0  0.1025
  H  H22  1  0.703100  0.103500  0.887300  1.0  0.0987
  H  H23  1  0.650500  0.180400  0.845600  1.0  0.1072
  H  H24  1  0.933100  0.333333  0.880200  1.0  0.1049
  H  H25  1  0.988200  0.254700  0.924900  1.0  0.1254
  H  H26  1  0.773800  0.410300  0.792600  1.0  0.1242
  H  H27  1  0.027600  0.300900  0.750700  1.0  0.1156
  H  H28  1  0.945200  0.206600  0.826400  1.0  0.115
  H  H29  1  0.412800  0.673500  0.509700  1.0  0.1096
  H  H30  1  0.334800  0.701700  0.556100  1.0  0.1186
  H  H31  1  0.955200  0.581300  0.606600  1.0  0.1061
  H  H32  1  0.766700  0.495100  0.589200  1.0  0.1037
  H  H33  1  0.535100  0.515600  0.535200  1.0  0.0973
  H  H34  1  0.359400  0.494900  0.559900  1.0  0.1166
  H  H35  1  0.497000  0.274000  0.580200  1.0  0.127
  H  H36  1  0.674000  0.301000  0.555400  1.0  0.1072
  H  H37  1  0.530900  0.429600  0.625400  1.0  0.0942
  H  H38  1  0.356800  0.523100  0.688900  1.0  0.1102
  H  H39  1  0.141900  0.410000  0.617900  1.0  0.1021
  H  H40  1  0.296900  0.603500  0.612700  1.0  0.0989
  H  H41  1  0.349500  0.680400  0.654400  1.0  0.1071
  H  H42  1  0.066900  0.833300  0.619800  1.0  0.1036
  H  H43  1  0.011800  0.754700  0.575100  1.0  0.1248
  H  H44  1  0.226200  0.910300  0.707400  1.0  0.1232
  H  H45  1  0.972400  0.800900  0.749300  1.0  0.1154
  H  H46  1  0.054800  0.706600  0.673600  1.0  0.1152
  H  H47  1  0.412800  0.826500  0.009700  1.0  0.1113
  H  H48  1  0.334800  0.798300  0.056100  1.0  0.118
  H  H49  1  0.955200  0.918700  0.106600  1.0  0.1064
  H  H50  1  0.766700  0.004900  0.089200  1.0  0.1035
  H  H51  1  0.535100  0.984400  0.035200  1.0  0.0979
  H  H52  1  0.359400  0.005100  0.059900  1.0  0.1168
  H  H53  1  0.497000  0.226000  0.080200  1.0  0.1264
  H  H54  1  0.674000  0.199000  0.055400  1.0  0.1052
  H  H55  1  0.530900  0.070400  0.125400  1.0  0.0942
  H  H56  1  0.356800  0.976900  0.188900  1.0  0.1099
  H  H57  1  0.141900  0.090000  0.117900  1.0  0.1028
  H  H58  1  0.296900  0.896500  0.112700  1.0  0.0986
  H  H59  1  0.349500  0.819600  0.154400  1.0  0.107
  H  H60  1  0.066900  0.666667  0.119800  1.0  0.1047
  H  H61  1  0.011800  0.745300  0.075100  1.0  0.1253
  H  H62  1  0.226200  0.589700  0.207400  1.0  0.1227
  H  H63  1  0.972400  0.699100  0.249300  1.0  0.1154
  H  H64  1  0.054800  0.793400  0.173600  1.0  0.1155
  H  H65  1  0.587200  0.326500  0.490300  1.0  0.1085
  H  H66  1  0.665200  0.298300  0.443900  1.0  0.118
  H  H67  1  0.044800  0.418700  0.393400  1.0  0.1061
  H  H68  1  0.233300  0.504900  0.410800  1.0  0.1035
  H  H69  1  0.464900  0.484400  0.464800  1.0  0.0975
  H  H70  1  0.640600  0.505100  0.440100  1.0  0.1168
  H  H71  1  0.503000  0.726000  0.419800  1.0  0.1269
  H  H72  1  0.326000  0.699000  0.444600  1.0  0.1075
  H  H73  1  0.469100  0.570400  0.374600  1.0  0.0931
  H  H74  1  0.643200  0.476900  0.311100  1.0  0.1097
  H  H75  1  0.858100  0.590000  0.382100  1.0  0.1025
  H  H76  1  0.703100  0.396500  0.387300  1.0  0.0992
  H  H77  1  0.650500  0.319600  0.345600  1.0  0.1073
  H  H78  1  0.933100  0.166700  0.380200  1.0  0.104
  H  H79  1  0.988200  0.245300  0.424900  1.0  0.1256
  H  H80  1  0.773800  0.089700  0.292600  1.0  0.1239
  H  H81  1  0.027600  0.199100  0.250700  1.0  0.1156
  H  H82  1  0.945200  0.293400  0.326400  1.0  0.1147
  C  C83  1  0.748100  0.094500  0.001490  1.0  0.1088
  C  C84  1  0.661100  0.151200  0.984610  1.0  -0.1715
  C  C85  1  0.703700  0.166900  0.959300  1.0  -0.164
  C  C86  1  0.822800  0.118900  0.960210  1.0  0.2
  C  C87  1  0.891300  0.115100  0.936810  1.0  -0.0989
  C  C88  1  0.999900  0.066500  0.937430  1.0  0.1883
  C  C89  1  0.068100  0.057600  0.912470  1.0  -0.1625
  C  C90  1  0.170000  0.009300  0.921890  1.0  -0.1514
  C  C91  1  0.166100  0.982800  0.951740  1.0  0.261
  C  C92  1  0.256700  0.935200  0.969190  1.0  -0.0172
  C  C93  1  0.377700  0.910200  0.956280  1.0  0.0512
  C  C94  1  0.471600  0.967100  0.955270  1.0  -0.114
  C  C95  1  0.577200  0.955700  0.940510  1.0  -0.2351
  C  C96  1  0.581500  0.882900  0.926610  1.0  0.2696
  C  C97  1  0.494400  0.823700  0.928290  1.0  -0.1874
  C  C98  1  0.388500  0.840300  0.943570  1.0  -0.1292
  C  C99  1  0.664600  0.914200  0.882720  1.0  0.2477
  C  C100  1  0.544600  0.939600  0.866880  1.0  -0.0224
  C  C101  1  0.532800  0.979100  0.840090  1.0  -0.166
  C  C102  1  0.648200  0.994300  0.828930  1.0  0.0119
  C  C103  1  0.769800  0.966100  0.844670  1.0  -0.1635
  C  C104  1  0.776500  0.927600  0.871300  1.0  -0.116
  C  C105  1  0.892400  0.983800  0.831180  1.0  0.6647
  C  C106  1  0.400900  0.009000  0.822700  1.0  0.7424
  C  C107  1  0.852000  0.169700  0.909980  1.0  0.0405
  C  C108  1  0.751200  0.149800  0.886170  1.0  -0.1406
  C  C109  1  0.720200  0.195500  0.861200  1.0  -0.1372
  C  C110  1  0.788300  0.263400  0.858100  1.0  0.2249
  C  C111  1  0.887200  0.286300  0.881700  1.0  -0.232
  C  C112  1  0.921500  0.239000  0.908800  1.0  -0.1716
  C  C113  1  0.844200  0.306400  0.812140  1.0  0.2501
  C  C114  1  0.829500  0.367700  0.790950  1.0  -0.0569
  C  C115  1  0.896100  0.365600  0.767830  1.0  -0.1697
  C  C116  1  0.981500  0.303400  0.766430  1.0  -0.0048
  C  C117  1  0.998600  0.244900  0.788370  1.0  -0.1357
  C  C118  1  0.931700  0.245900  0.811500  1.0  -0.0934
  C  C119  1  0.088300  0.171700  0.786720  1.0  0.7111
  C  C120  1  0.879900  0.430000  0.743600  1.0  0.7314
  C  C121  1  0.251900  0.594500  0.498510  1.0  0.1091
  C  C122  1  0.338900  0.651200  0.515390  1.0  -0.1719
  C  C123  1  0.296300  0.666900  0.540700  1.0  -0.1641
  C  C124  1  0.177200  0.618900  0.539790  1.0  0.2008
  C  C125  1  0.108700  0.615100  0.563190  1.0  -0.0995
  C  C126  1  0.000100  0.566500  0.562570  1.0  0.188
  C  C127  1  0.931900  0.557600  0.587530  1.0  -0.1611
  C  C128  1  0.830000  0.509300  0.578110  1.0  -0.1523
  C  C129  1  0.833900  0.482800  0.548260  1.0  0.262
  C  C130  1  0.743300  0.435200  0.530810  1.0  -0.0165
  C  C131  1  0.622300  0.410200  0.543720  1.0  0.0534
  C  C132  1  0.528400  0.467100  0.544730  1.0  -0.1132
  C  C133  1  0.422800  0.455700  0.559490  1.0  -0.234
  C  C134  1  0.418500  0.382900  0.573390  1.0  0.2698
  C  C135  1  0.505600  0.323700  0.571710  1.0  -0.1875
  C  C136  1  0.611500  0.340300  0.556430  1.0  -0.1322
  C  C137  1  0.335400  0.414200  0.617280  1.0  0.2481
  C  C138  1  0.455400  0.439600  0.633120  1.0  -0.0229
  C  C139  1  0.467200  0.479100  0.659910  1.0  -0.1658
  C  C140  1  0.351800  0.494300  0.671070  1.0  0.0102
  C  C141  1  0.230200  0.466100  0.655330  1.0  -0.1641
  C  C142  1  0.223500  0.427600  0.628700  1.0  -0.1167
  C  C143  1  0.107600  0.483800  0.668820  1.0  0.6639
  C  C144  1  0.599100  0.509000  0.677300  1.0  0.741
  C  C145  1  0.148000  0.669700  0.590020  1.0  0.0409
  C  C146  1  0.248800  0.649800  0.613830  1.0  -0.1408
  C  C147  1  0.279800  0.695500  0.638800  1.0  -0.1349
  C  C148  1  0.211700  0.763400  0.641900  1.0  0.2233
  C  C149  1  0.112800  0.786300  0.618300  1.0  -0.2232
  C  C150  1  0.078500  0.739000  0.591200  1.0  -0.1709
  C  C151  1  0.155800  0.806400  0.687860  1.0  0.2493
  C  C152  1  0.170500  0.867700  0.709050  1.0  -0.0566
  C  C153  1  0.103900  0.865600  0.732170  1.0  -0.1697
  C  C154  1  0.018500  0.803400  0.733570  1.0  -0.0039
  C  C155  1  0.001400  0.744900  0.711630  1.0  -0.1363
  C  C156  1  0.068300  0.745900  0.688500  1.0  -0.094
  C  C157  1  0.911700  0.671700  0.713280  1.0  0.7111
  C  C158  1  0.120100  0.930000  0.756400  1.0  0.7314
  C  C159  1  0.251900  0.905500  0.998510  1.0  0.1095
  C  C160  1  0.338900  0.848800  0.015390  1.0  -0.1718
  C  C161  1  0.296300  0.833100  0.040700  1.0  -0.1642
  C  C162  1  0.177200  0.881100  0.039790  1.0  0.2004
  C  C163  1  0.108700  0.884900  0.063190  1.0  -0.0999
  C  C164  1  0.000100  0.933500  0.062570  1.0  0.1878
  C  C165  1  0.931900  0.942400  0.087530  1.0  -0.1609
  C  C166  1  0.830000  0.990700  0.078110  1.0  -0.1524
  C  C167  1  0.833900  0.017200  0.048260  1.0  0.2629
  C  C168  1  0.743300  0.064800  0.030810  1.0  -0.0166
  C  C169  1  0.622300  0.089800  0.043720  1.0  0.0541
  C  C170  1  0.528400  0.032900  0.044730  1.0  -0.1122
  C  C171  1  0.422800  0.044300  0.059490  1.0  -0.2345
  C  C172  1  0.418500  0.117100  0.073390  1.0  0.2685
  C  C173  1  0.505600  0.176300  0.071710  1.0  -0.1792
  C  C174  1  0.611500  0.159700  0.056430  1.0  -0.129
  C  C175  1  0.335400  0.085800  0.117280  1.0  0.2487
  C  C176  1  0.455400  0.060400  0.133120  1.0  -0.0241
  C  C177  1  0.467200  0.020900  0.159910  1.0  -0.1651
  C  C178  1  0.351800  0.005700  0.171070  1.0  0.0104
  C  C179  1  0.230200  0.033900  0.155330  1.0  -0.1626
  C  C180  1  0.223500  0.072400  0.128700  1.0  -0.1194
  C  C181  1  0.107600  0.016200  0.168820  1.0  0.6629
  C  C182  1  0.599100  0.991000  0.177300  1.0  0.7411
  C  C183  1  0.148000  0.830300  0.090020  1.0  0.0415
  C  C184  1  0.248800  0.850200  0.113830  1.0  -0.1409
  C  C185  1  0.279800  0.804500  0.138800  1.0  -0.1358
  C  C186  1  0.211700  0.736600  0.141900  1.0  0.221
  C  C187  1  0.112800  0.713700  0.118300  1.0  -0.2313
  C  C188  1  0.078500  0.761000  0.091200  1.0  -0.1709
  C  C189  1  0.155800  0.693600  0.187860  1.0  0.2495
  C  C190  1  0.170500  0.632300  0.209050  1.0  -0.0565
  C  C191  1  0.103900  0.634400  0.232170  1.0  -0.1697
  C  C192  1  0.018500  0.696600  0.233570  1.0  -0.0039
  C  C193  1  0.001400  0.755100  0.211630  1.0  -0.1365
  C  C194  1  0.068300  0.754100  0.188500  1.0  -0.0942
  C  C195  1  0.911700  0.828300  0.213280  1.0  0.7117
  C  C196  1  0.120100  0.570000  0.256400  1.0  0.7308
  C  C197  1  0.748100  0.405500  0.501490  1.0  0.1089
  C  C198  1  0.661100  0.348800  0.484610  1.0  -0.1708
  C  C199  1  0.703700  0.333100  0.459300  1.0  -0.163
  C  C200  1  0.822800  0.381100  0.460210  1.0  0.1997
  C  C201  1  0.891300  0.384900  0.436810  1.0  -0.0992
  C  C202  1  0.999900  0.433500  0.437430  1.0  0.189
  C  C203  1  0.068100  0.442400  0.412470  1.0  -0.1628
  C  C204  1  0.170000  0.490700  0.421890  1.0  -0.1516
  C  C205  1  0.166100  0.517200  0.451740  1.0  0.2618
  C  C206  1  0.256700  0.564800  0.469190  1.0  -0.0174
  C  C207  1  0.377700  0.589800  0.456280  1.0  0.0528
  C  C208  1  0.471600  0.532900  0.455270  1.0  -0.1122
  C  C209  1  0.577200  0.544300  0.440510  1.0  -0.2354
  C  C210  1  0.581500  0.617100  0.426610  1.0  0.2684
  C  C211  1  0.494400  0.676300  0.428290  1.0  -0.1799
  C  C212  1  0.388500  0.659700  0.443570  1.0  -0.1285
  C  C213  1  0.664600  0.585800  0.382720  1.0  0.2489
  C  C214  1  0.544600  0.560400  0.366880  1.0  -0.0235
  C  C215  1  0.532800  0.520900  0.340090  1.0  -0.1654
  C  C216  1  0.648200  0.505700  0.328930  1.0  0.0118
  C  C217  1  0.769800  0.533900  0.344670  1.0  -0.1635
  C  C218  1  0.776500  0.572400  0.371300  1.0  -0.1165
  C  C219  1  0.892400  0.516200  0.331180  1.0  0.6653
  C  C220  1  0.400900  0.491000  0.322700  1.0  0.7424
  C  C221  1  0.852000  0.330300  0.409980  1.0  0.0408
  C  C222  1  0.751200  0.350200  0.386170  1.0  -0.1407
  C  C223  1  0.720200  0.304500  0.361200  1.0  -0.1377
  C  C224  1  0.788300  0.236600  0.358100  1.0  0.2254
  C  C225  1  0.887200  0.213700  0.381700  1.0  -0.2274
  C  C226  1  0.921500  0.261000  0.408800  1.0  -0.1707
  C  C227  1  0.844200  0.193600  0.312140  1.0  0.25
  C  C228  1  0.829500  0.132300  0.290950  1.0  -0.0561
  C  C229  1  0.896100  0.134400  0.267830  1.0  -0.1702
  C  C230  1  0.981500  0.196600  0.266430  1.0  -0.0048
  C  C231  1  0.998600  0.255100  0.288370  1.0  -0.1366
  C  C232  1  0.931700  0.254100  0.311500  1.0  -0.0936
  C  C233  1  0.088300  0.328300  0.286720  1.0  0.7114
  C  C234  1  0.879900  0.070000  0.243600  1.0  0.731
  N  N235  1  0.848300  0.076700  0.986550  1.0  -0.438
  N  N236  1  0.060200  0.017400  0.960780  1.0  -0.3908
  N  N237  1  0.151700  0.576700  0.513450  1.0  -0.4385
  N  N238  1  0.939800  0.517400  0.539220  1.0  -0.3903
  N  N239  1  0.151700  0.923300  0.013450  1.0  -0.4372
  N  N240  1  0.939800  0.982600  0.039220  1.0  -0.3897
  N  N241  1  0.848300  0.423300  0.486550  1.0  -0.4382
  N  N242  1  0.060200  0.482600  0.460780  1.0  -0.3911
  O  O243  1  0.002300  0.962200  0.846250  1.0  -0.5883
  O  O244  1  0.879500  0.013800  0.806420  1.0  -0.5277
  O  O245  1  0.399000  0.051700  0.800380  1.0  -0.672
  O  O246  1  0.302700  0.986200  0.832450  1.0  -0.599
  O  O247  1  0.147000  0.170100  0.764540  1.0  -0.663
  O  O248  1  0.106300  0.126000  0.808510  1.0  -0.6152
  O  O249  1  0.922700  0.414300  0.720540  1.0  -0.5784
  O  O250  1  0.821500  0.490800  0.748800  1.0  -0.6652
  O  O251  1  0.679500  0.869900  0.909510  1.0  -0.3002
  O  O252  1  0.768800  0.318200  0.834360  1.0  -0.3362
  O  O253  1  0.997700  0.462200  0.653750  1.0  -0.5892
  O  O254  1  0.120500  0.513800  0.693580  1.0  -0.5268
  O  O255  1  0.601000  0.551700  0.699620  1.0  -0.6735
  O  O256  1  0.697300  0.486200  0.667550  1.0  -0.599
  O  O257  1  0.853000  0.670100  0.735460  1.0  -0.6637
  O  O258  1  0.893700  0.626000  0.691490  1.0  -0.6152
  O  O259  1  0.077300  0.914300  0.779460  1.0  -0.5798
  O  O260  1  0.178500  0.990800  0.751200  1.0  -0.6641
  O  O261  1  0.320500  0.369900  0.590490  1.0  -0.2995
  O  O262  1  0.231200  0.818200  0.665640  1.0  -0.335
  O  O263  1  0.997700  0.037800  0.153750  1.0  -0.5891
  O  O264  1  0.120500  0.986200  0.193580  1.0  -0.5274
  O  O265  1  0.601000  0.948300  0.199620  1.0  -0.6724
  O  O266  1  0.697300  0.013800  0.167550  1.0  -0.5991
  O  O267  1  0.853000  0.829900  0.235460  1.0  -0.6646
  O  O268  1  0.893700  0.874000  0.191490  1.0  -0.615
  O  O269  1  0.077300  0.585700  0.279460  1.0  -0.5802
  O  O270  1  0.178500  0.509200  0.251200  1.0  -0.6634
  O  O271  1  0.320500  0.130100  0.090490  1.0  -0.2983
  O  O272  1  0.231200  0.681800  0.165640  1.0  -0.3361
  O  O273  1  0.002300  0.537800  0.346250  1.0  -0.5894
  O  O274  1  0.879500  0.486200  0.306420  1.0  -0.5285
  O  O275  1  0.399000  0.448300  0.300380  1.0  -0.6712
  O  O276  1  0.302700  0.513800  0.332450  1.0  -0.5992
  O  O277  1  0.147000  0.329900  0.264540  1.0  -0.6625
  O  O278  1  0.106300  0.374000  0.308510  1.0  -0.6145
  O  O279  1  0.922700  0.085700  0.220540  1.0  -0.5784
  O  O280  1  0.821500  0.009200  0.248800  1.0  -0.6627
  O  O281  1  0.679500  0.630100  0.409510  1.0  -0.3002
  O  O282  1  0.768800  0.181800  0.334360  1.0  -0.3345
