# generated using pymatgen
data_CdH26C18(NO)4
_symmetry_space_group_name_H-M   'P 1'
_cell_length_a   17.69070000
_cell_length_b   16.16720000
_cell_length_c   16.82830000
_cell_angle_alpha   90.00000000
_cell_angle_beta   90.00000000
_cell_angle_gamma   90.00000000
_symmetry_Int_Tables_number   1
_chemical_formula_structural   CdH26C18(NO)4
_chemical_formula_sum   'Cd8 H208 C144 N32 O32'
_cell_volume   4813.04668578
_cell_formula_units_Z   8
loop_
 _symmetry_equiv_pos_site_id
 _symmetry_equiv_pos_as_xyz
  1  'x, y, z'
loop_
 _atom_site_type_symbol
 _atom_site_label
 _atom_site_symmetry_multiplicity
 _atom_site_fract_x
 _atom_site_fract_y
 _atom_site_fract_z
 _atom_site_occupancy
 _atom_site_charge
  Cd  Cd1  1  0.254160  0.170570  0.276610  1.0  0.9547
  Cd  Cd2  1  0.745840  0.170570  0.223390  1.0  0.9547
  Cd  Cd3  1  0.745840  0.829430  0.723390  1.0  0.9556
  Cd  Cd4  1  0.254160  0.829430  0.776610  1.0  0.9557
  Cd  Cd5  1  0.245840  0.329430  0.776610  1.0  0.9555
  Cd  Cd6  1  0.754160  0.329430  0.723390  1.0  0.9558
  Cd  Cd7  1  0.754160  0.670570  0.223390  1.0  0.9549
  Cd  Cd8  1  0.245840  0.670570  0.276610  1.0  0.9544
  H  H9  1  0.199000  0.320300  0.047600  1.0  0.1018
  H  H10  1  0.196200  0.387400  0.114400  1.0  0.0773
  H  H11  1  0.323900  0.348000  0.022900  1.0  0.0776
  H  H12  1  0.328300  0.407400  0.096400  1.0  0.076
  H  H13  1  0.317400  0.475400  0.969500  1.0  0.0708
  H  H14  1  0.234300  0.442500  0.965600  1.0  0.0734
  H  H15  1  0.287400  0.553400  0.080900  1.0  0.0796
  H  H16  1  0.204700  0.519500  0.078800  1.0  0.0875
  H  H17  1  0.190100  0.588200  0.952600  1.0  0.0835
  H  H18  1  0.195100  0.646900  0.026400  1.0  0.0795
  H  H19  1  0.319600  0.676500  0.998100  1.0  0.0961
  H  H20  1  0.319200  0.613100  0.927900  1.0  0.0861
  H  H21  1  0.178300  0.970000  0.256600  1.0  0.1011
  H  H22  1  0.056800  0.925700  0.311400  1.0  0.1348
  H  H23  1  0.091400  0.160200  0.367500  1.0  0.0993
  H  H24  1  0.944500  0.004400  0.378800  1.0  0.0849
  H  H25  1  0.952000  0.100700  0.385600  1.0  0.0927
  H  H26  1  0.024400  0.081500  0.504100  1.0  0.0748
  H  H27  1  0.940000  0.053700  0.512800  1.0  0.0684
  H  H28  1  0.318000  0.966300  0.289900  1.0  0.0941
  H  H29  1  0.421100  0.909100  0.211900  1.0  0.1318
  H  H30  1  0.407000  0.148000  0.168400  1.0  0.1002
  H  H31  1  0.533300  0.979200  0.127600  1.0  0.086
  H  H32  1  0.524900  0.074200  0.110800  1.0  0.0813
  H  H33  1  0.433900  0.046500  0.014100  1.0  0.0661
  H  H34  1  0.440900  0.951500  0.031500  1.0  0.0649
  H  H35  1  0.801000  0.320300  0.452400  1.0  0.101
  H  H36  1  0.803800  0.387400  0.385600  1.0  0.0771
  H  H37  1  0.676100  0.348000  0.477100  1.0  0.0788
  H  H38  1  0.671700  0.407400  0.403600  1.0  0.0757
  H  H39  1  0.682600  0.475400  0.530500  1.0  0.0705
  H  H40  1  0.765700  0.442500  0.534400  1.0  0.074
  H  H41  1  0.712600  0.553400  0.419100  1.0  0.0798
  H  H42  1  0.795300  0.519500  0.421200  1.0  0.0869
  H  H43  1  0.809900  0.588200  0.547400  1.0  0.0822
  H  H44  1  0.804900  0.646900  0.473600  1.0  0.0795
  H  H45  1  0.680400  0.676500  0.501900  1.0  0.0981
  H  H46  1  0.680800  0.613100  0.572100  1.0  0.0862
  H  H47  1  0.821700  0.970000  0.243400  1.0  0.1011
  H  H48  1  0.943200  0.925700  0.188600  1.0  0.135
  H  H49  1  0.908600  0.160200  0.132500  1.0  0.0991
  H  H50  1  0.055500  0.004400  0.121200  1.0  0.0851
  H  H51  1  0.048000  0.100700  0.114400  1.0  0.0907
  H  H52  1  0.975600  0.081500  0.995900  1.0  0.0762
  H  H53  1  0.060000  0.053700  0.987200  1.0  0.0693
  H  H54  1  0.682000  0.966300  0.210100  1.0  0.0935
  H  H55  1  0.578900  0.909100  0.288100  1.0  0.1317
  H  H56  1  0.593000  0.148000  0.331600  1.0  0.0995
  H  H57  1  0.466700  0.979200  0.372400  1.0  0.0848
  H  H58  1  0.475100  0.074200  0.389200  1.0  0.0814
  H  H59  1  0.566100  0.046500  0.485900  1.0  0.0651
  H  H60  1  0.559100  0.951500  0.468500  1.0  0.0647
  H  H61  1  0.801000  0.679700  0.952400  1.0  0.1007
  H  H62  1  0.803800  0.612600  0.885600  1.0  0.0772
  H  H63  1  0.676100  0.652000  0.977100  1.0  0.0776
  H  H64  1  0.671700  0.592600  0.903600  1.0  0.0767
  H  H65  1  0.682600  0.524600  0.030500  1.0  0.0699
  H  H66  1  0.765700  0.557500  0.034400  1.0  0.0736
  H  H67  1  0.712600  0.446600  0.919100  1.0  0.0792
  H  H68  1  0.795300  0.480500  0.921200  1.0  0.087
  H  H69  1  0.809900  0.411800  0.047400  1.0  0.0835
  H  H70  1  0.804900  0.353100  0.973600  1.0  0.0787
  H  H71  1  0.680400  0.323500  0.001900  1.0  0.0981
  H  H72  1  0.680800  0.386900  0.072100  1.0  0.0854
  H  H73  1  0.821700  0.030000  0.743400  1.0  0.1007
  H  H74  1  0.943200  0.074300  0.688600  1.0  0.1341
  H  H75  1  0.908600  0.839800  0.632500  1.0  0.1001
  H  H76  1  0.055500  0.995600  0.621200  1.0  0.0845
  H  H77  1  0.048000  0.899300  0.614400  1.0  0.0925
  H  H78  1  0.975600  0.918500  0.495900  1.0  0.0754
  H  H79  1  0.060000  0.946300  0.487200  1.0  0.0685
  H  H80  1  0.682000  0.033700  0.710100  1.0  0.0938
  H  H81  1  0.578900  0.090900  0.788100  1.0  0.1305
  H  H82  1  0.593000  0.852000  0.831600  1.0  0.1004
  H  H83  1  0.466700  0.020800  0.872400  1.0  0.0857
  H  H84  1  0.475100  0.925800  0.889200  1.0  0.083
  H  H85  1  0.566100  0.953500  0.985900  1.0  0.0658
  H  H86  1  0.559100  0.048500  0.968500  1.0  0.0652
  H  H87  1  0.199000  0.679700  0.547600  1.0  0.1015
  H  H88  1  0.196200  0.612600  0.614400  1.0  0.0774
  H  H89  1  0.323900  0.652000  0.522900  1.0  0.0778
  H  H90  1  0.328300  0.592600  0.596400  1.0  0.0749
  H  H91  1  0.317400  0.524600  0.469500  1.0  0.0706
  H  H92  1  0.234300  0.557500  0.465600  1.0  0.0747
  H  H93  1  0.287400  0.446600  0.580900  1.0  0.0799
  H  H94  1  0.204700  0.480500  0.578800  1.0  0.0877
  H  H95  1  0.190100  0.411800  0.452600  1.0  0.083
  H  H96  1  0.195100  0.353100  0.526400  1.0  0.0797
  H  H97  1  0.319600  0.323500  0.498100  1.0  0.0962
  H  H98  1  0.319200  0.386900  0.427900  1.0  0.0849
  H  H99  1  0.178300  0.030000  0.756600  1.0  0.101
  H  H100  1  0.056800  0.074300  0.811400  1.0  0.1345
  H  H101  1  0.091400  0.839800  0.867500  1.0  0.1002
  H  H102  1  0.944500  0.995600  0.878800  1.0  0.0855
  H  H103  1  0.952000  0.899300  0.885600  1.0  0.0925
  H  H104  1  0.024400  0.918500  0.004100  1.0  0.076
  H  H105  1  0.940000  0.946300  0.012800  1.0  0.068
  H  H106  1  0.318000  0.033700  0.789900  1.0  0.0938
  H  H107  1  0.421100  0.090900  0.711900  1.0  0.1298
  H  H108  1  0.407000  0.852000  0.668400  1.0  0.1007
  H  H109  1  0.533300  0.020800  0.627600  1.0  0.0857
  H  H110  1  0.524900  0.925800  0.610800  1.0  0.0833
  H  H111  1  0.433900  0.953500  0.514100  1.0  0.0659
  H  H112  1  0.440900  0.048500  0.531500  1.0  0.066
  H  H113  1  0.301000  0.179700  0.547600  1.0  0.1013
  H  H114  1  0.303800  0.112600  0.614400  1.0  0.0765
  H  H115  1  0.176100  0.152000  0.522900  1.0  0.0788
  H  H116  1  0.171700  0.092600  0.596400  1.0  0.0749
  H  H117  1  0.182600  0.024600  0.469500  1.0  0.0706
  H  H118  1  0.265700  0.057500  0.465600  1.0  0.0741
  H  H119  1  0.212600  0.946600  0.580900  1.0  0.0789
  H  H120  1  0.295300  0.980500  0.578800  1.0  0.0877
  H  H121  1  0.309900  0.911800  0.452600  1.0  0.0827
  H  H122  1  0.304900  0.853100  0.526400  1.0  0.079
  H  H123  1  0.180400  0.823500  0.498100  1.0  0.0968
  H  H124  1  0.180800  0.886900  0.427900  1.0  0.0856
  H  H125  1  0.321700  0.530000  0.756600  1.0  0.1009
  H  H126  1  0.443200  0.574300  0.811400  1.0  0.1342
  H  H127  1  0.408600  0.339800  0.867500  1.0  0.1003
  H  H128  1  0.555500  0.495600  0.878800  1.0  0.0851
  H  H129  1  0.548000  0.399300  0.885600  1.0  0.0913
  H  H130  1  0.475600  0.418500  0.004100  1.0  0.076
  H  H131  1  0.560000  0.446300  0.012800  1.0  0.0685
  H  H132  1  0.182000  0.533700  0.789900  1.0  0.0937
  H  H133  1  0.078900  0.590900  0.711900  1.0  0.1303
  H  H134  1  0.093000  0.352000  0.668400  1.0  0.1009
  H  H135  1  0.966700  0.520800  0.627600  1.0  0.0856
  H  H136  1  0.975100  0.425800  0.610800  1.0  0.0835
  H  H137  1  0.066100  0.453500  0.514100  1.0  0.066
  H  H138  1  0.059100  0.548500  0.531500  1.0  0.0652
  H  H139  1  0.699000  0.179700  0.952400  1.0  0.1009
  H  H140  1  0.696200  0.112600  0.885600  1.0  0.078
  H  H141  1  0.823900  0.152000  0.977100  1.0  0.0769
  H  H142  1  0.828300  0.092600  0.903600  1.0  0.076
  H  H143  1  0.817400  0.024600  0.030500  1.0  0.0704
  H  H144  1  0.734300  0.057500  0.034400  1.0  0.0737
  H  H145  1  0.787400  0.946600  0.919100  1.0  0.0797
  H  H146  1  0.704700  0.980500  0.921200  1.0  0.0873
  H  H147  1  0.690100  0.911800  0.047400  1.0  0.0835
  H  H148  1  0.695100  0.853100  0.973600  1.0  0.0794
  H  H149  1  0.819600  0.823500  0.001900  1.0  0.0955
  H  H150  1  0.819200  0.886900  0.072100  1.0  0.0851
  H  H151  1  0.678300  0.530000  0.743400  1.0  0.1009
  H  H152  1  0.556800  0.574300  0.688600  1.0  0.1345
  H  H153  1  0.591400  0.339800  0.632500  1.0  0.1003
  H  H154  1  0.444500  0.495600  0.621200  1.0  0.0846
  H  H155  1  0.452000  0.399300  0.614400  1.0  0.0933
  H  H156  1  0.524400  0.418500  0.495900  1.0  0.0754
  H  H157  1  0.440000  0.446300  0.487200  1.0  0.0684
  H  H158  1  0.818000  0.533700  0.710100  1.0  0.094
  H  H159  1  0.921100  0.590900  0.788100  1.0  0.1299
  H  H160  1  0.907000  0.352000  0.831600  1.0  0.1004
  H  H161  1  0.033300  0.520800  0.872400  1.0  0.0856
  H  H162  1  0.024900  0.425800  0.889200  1.0  0.0828
  H  H163  1  0.933900  0.453500  0.985900  1.0  0.0655
  H  H164  1  0.940900  0.548500  0.968500  1.0  0.0659
  H  H165  1  0.699000  0.820300  0.452400  1.0  0.1017
  H  H166  1  0.696200  0.887400  0.385600  1.0  0.0774
  H  H167  1  0.823900  0.848000  0.477100  1.0  0.0784
  H  H168  1  0.828300  0.907400  0.403600  1.0  0.0758
  H  H169  1  0.817400  0.975400  0.530500  1.0  0.0713
  H  H170  1  0.734300  0.942500  0.534400  1.0  0.0738
  H  H171  1  0.787400  0.053400  0.419100  1.0  0.08
  H  H172  1  0.704700  0.019500  0.421200  1.0  0.0872
  H  H173  1  0.690100  0.088200  0.547400  1.0  0.0827
  H  H174  1  0.695100  0.146900  0.473600  1.0  0.0807
  H  H175  1  0.819600  0.176500  0.501900  1.0  0.0956
  H  H176  1  0.819200  0.113100  0.572100  1.0  0.0856
  H  H177  1  0.678300  0.470000  0.243400  1.0  0.1016
  H  H178  1  0.556800  0.425700  0.188600  1.0  0.135
  H  H179  1  0.591400  0.660200  0.132500  1.0  0.0996
  H  H180  1  0.444500  0.504400  0.121200  1.0  0.0851
  H  H181  1  0.452000  0.600700  0.114400  1.0  0.0915
  H  H182  1  0.524400  0.581500  0.995900  1.0  0.0753
  H  H183  1  0.440000  0.553700  0.987200  1.0  0.0693
  H  H184  1  0.818000  0.466300  0.210100  1.0  0.0934
  H  H185  1  0.921100  0.409100  0.288100  1.0  0.1316
  H  H186  1  0.907000  0.648000  0.331600  1.0  0.0996
  H  H187  1  0.033300  0.479200  0.372400  1.0  0.0854
  H  H188  1  0.024900  0.574200  0.389200  1.0  0.0809
  H  H189  1  0.933900  0.546500  0.485900  1.0  0.0653
  H  H190  1  0.940900  0.451500  0.468500  1.0  0.0648
  H  H191  1  0.301000  0.820300  0.047600  1.0  0.1015
  H  H192  1  0.303800  0.887400  0.114400  1.0  0.077
  H  H193  1  0.176100  0.848000  0.022900  1.0  0.0781
  H  H194  1  0.171700  0.907400  0.096400  1.0  0.0751
  H  H195  1  0.182600  0.975400  0.969500  1.0  0.0706
  H  H196  1  0.265700  0.942500  0.965600  1.0  0.0732
  H  H197  1  0.212600  0.053400  0.080900  1.0  0.0786
  H  H198  1  0.295300  0.019500  0.078800  1.0  0.0873
  H  H199  1  0.309900  0.088200  0.952600  1.0  0.083
  H  H200  1  0.304900  0.146900  0.026400  1.0  0.0787
  H  H201  1  0.180400  0.176500  0.998100  1.0  0.0963
  H  H202  1  0.180800  0.113100  0.927900  1.0  0.0871
  H  H203  1  0.321700  0.470000  0.256600  1.0  0.1008
  H  H204  1  0.443200  0.425700  0.311400  1.0  0.1351
  H  H205  1  0.408600  0.660200  0.367500  1.0  0.0993
  H  H206  1  0.555500  0.504400  0.378800  1.0  0.0846
  H  H207  1  0.548000  0.600700  0.385600  1.0  0.0916
  H  H208  1  0.475600  0.581500  0.504100  1.0  0.0753
  H  H209  1  0.560000  0.553700  0.512800  1.0  0.069
  H  H210  1  0.182000  0.466300  0.289900  1.0  0.0943
  H  H211  1  0.078900  0.409100  0.211900  1.0  0.1318
  H  H212  1  0.093000  0.648000  0.168400  1.0  0.1001
  H  H213  1  0.966700  0.479200  0.127600  1.0  0.0855
  H  H214  1  0.975100  0.574200  0.110800  1.0  0.0818
  H  H215  1  0.066100  0.546500  0.014100  1.0  0.0658
  H  H216  1  0.059100  0.451500  0.031500  1.0  0.0647
  C  C217  1  0.245300  0.279400  0.152400  1.0  0.7403
  C  C218  1  0.227900  0.345600  0.090100  1.0  -0.3395
  C  C219  1  0.295600  0.387800  0.054100  1.0  -0.1226
  C  C220  1  0.274000  0.460200  0.001500  1.0  -0.1665
  C  C221  1  0.247200  0.535200  0.045800  1.0  -0.1605
  C  C222  1  0.223500  0.608100  0.994100  1.0  -0.1193
  C  C223  1  0.288500  0.653000  0.956400  1.0  -0.2917
  C  C224  1  0.267000  0.720500  0.900200  1.0  0.7622
  C  C225  1  0.145300  0.003200  0.285500  1.0  0.0443
  C  C226  1  0.078300  0.978000  0.315700  1.0  -0.167
  C  C227  1  0.098000  0.107700  0.346000  1.0  0.1262
  C  C228  1  0.977000  0.048700  0.397200  1.0  -0.0133
  C  C229  1  0.987600  0.040800  0.486900  1.0  -0.1538
  C  C230  1  0.348800  0.996100  0.255400  1.0  0.0311
  C  C231  1  0.405800  0.964100  0.212600  1.0  -0.1509
  C  C232  1  0.397400  0.095700  0.189100  1.0  0.129
  C  C233  1  0.497900  0.022000  0.111900  1.0  -0.0014
  C  C234  1  0.468600  0.003200  0.030200  1.0  -0.1424
  C  C235  1  0.754700  0.279400  0.347600  1.0  0.7408
  C  C236  1  0.772100  0.345600  0.409900  1.0  -0.338
  C  C237  1  0.704400  0.387800  0.445900  1.0  -0.1227
  C  C238  1  0.726000  0.460200  0.498500  1.0  -0.1668
  C  C239  1  0.752800  0.535200  0.454200  1.0  -0.1594
  C  C240  1  0.776500  0.608100  0.505900  1.0  -0.1191
  C  C241  1  0.711500  0.653000  0.543600  1.0  -0.2943
  C  C242  1  0.733000  0.720500  0.599800  1.0  0.7615
  C  C243  1  0.854700  0.003200  0.214500  1.0  0.0429
  C  C244  1  0.921700  0.978000  0.184300  1.0  -0.1653
  C  C245  1  0.902000  0.107700  0.154000  1.0  0.1281
  C  C246  1  0.023000  0.048700  0.102800  1.0  -0.0102
  C  C247  1  0.012400  0.040800  0.013100  1.0  -0.1537
  C  C248  1  0.651200  0.996100  0.244600  1.0  0.0316
  C  C249  1  0.594200  0.964100  0.287400  1.0  -0.1517
  C  C250  1  0.602600  0.095700  0.310900  1.0  0.1284
  C  C251  1  0.502100  0.022000  0.388100  1.0  -0.0022
  C  C252  1  0.531400  0.003200  0.469800  1.0  -0.1398
  C  C253  1  0.754700  0.720600  0.847600  1.0  0.7404
  C  C254  1  0.772100  0.654400  0.909900  1.0  -0.3351
  C  C255  1  0.704400  0.612200  0.945900  1.0  -0.1229
  C  C256  1  0.726000  0.539800  0.998500  1.0  -0.1674
  C  C257  1  0.752800  0.464800  0.954200  1.0  -0.1593
  C  C258  1  0.776500  0.391900  0.005900  1.0  -0.1196
  C  C259  1  0.711500  0.347000  0.043600  1.0  -0.2926
  C  C260  1  0.733000  0.279500  0.099800  1.0  0.7617
  C  C261  1  0.854700  0.996800  0.714500  1.0  0.0429
  C  C262  1  0.921700  0.022000  0.684300  1.0  -0.1654
  C  C263  1  0.902000  0.892300  0.654000  1.0  0.1265
  C  C264  1  0.023000  0.951300  0.602800  1.0  -0.0113
  C  C265  1  0.012400  0.959200  0.513100  1.0  -0.1547
  C  C266  1  0.651200  0.003900  0.744600  1.0  0.0314
  C  C267  1  0.594200  0.035900  0.787400  1.0  -0.1514
  C  C268  1  0.602600  0.904300  0.810900  1.0  0.128
  C  C269  1  0.502100  0.978000  0.888100  1.0  -0.0025
  C  C270  1  0.531400  0.996800  0.969800  1.0  -0.1392
  C  C271  1  0.245300  0.720600  0.652400  1.0  0.7394
  C  C272  1  0.227900  0.654400  0.590100  1.0  -0.34
  C  C273  1  0.295600  0.612200  0.554100  1.0  -0.1224
  C  C274  1  0.274000  0.539800  0.501500  1.0  -0.1667
  C  C275  1  0.247200  0.464800  0.545800  1.0  -0.1601
  C  C276  1  0.223500  0.391900  0.494100  1.0  -0.1194
  C  C277  1  0.288500  0.347000  0.456400  1.0  -0.2943
  C  C278  1  0.267000  0.279500  0.400200  1.0  0.762
  C  C279  1  0.145300  0.996800  0.785500  1.0  0.0444
  C  C280  1  0.078300  0.022000  0.815700  1.0  -0.1671
  C  C281  1  0.098000  0.892300  0.846000  1.0  0.1248
  C  C282  1  0.977000  0.951300  0.897200  1.0  -0.0141
  C  C283  1  0.987600  0.959200  0.986900  1.0  -0.1548
  C  C284  1  0.348800  0.003900  0.755400  1.0  0.0311
  C  C285  1  0.405800  0.035900  0.712600  1.0  -0.1506
  C  C286  1  0.397400  0.904300  0.689100  1.0  0.1293
  C  C287  1  0.497900  0.978000  0.611900  1.0  -0.0013
  C  C288  1  0.468600  0.996800  0.530200  1.0  -0.1407
  C  C289  1  0.254700  0.220600  0.652400  1.0  0.7391
  C  C290  1  0.272100  0.154400  0.590100  1.0  -0.3369
  C  C291  1  0.204400  0.112200  0.554100  1.0  -0.1236
  C  C292  1  0.226000  0.039800  0.501500  1.0  -0.166
  C  C293  1  0.252800  0.964800  0.545800  1.0  -0.1596
  C  C294  1  0.276500  0.891900  0.494100  1.0  -0.1194
  C  C295  1  0.211500  0.847000  0.456400  1.0  -0.2948
  C  C296  1  0.233000  0.779500  0.400200  1.0  0.7624
  C  C297  1  0.354700  0.496800  0.785500  1.0  0.0427
  C  C298  1  0.421700  0.522000  0.815700  1.0  -0.1664
  C  C299  1  0.402000  0.392300  0.846000  1.0  0.1247
  C  C300  1  0.523000  0.451300  0.897200  1.0  -0.0124
  C  C301  1  0.512400  0.459200  0.986900  1.0  -0.1548
  C  C302  1  0.151200  0.503900  0.755400  1.0  0.0325
  C  C303  1  0.094200  0.535900  0.712600  1.0  -0.1513
  C  C304  1  0.102600  0.404300  0.689100  1.0  0.1295
  C  C305  1  0.002100  0.478000  0.611900  1.0  -0.0031
  C  C306  1  0.031400  0.496800  0.530200  1.0  -0.1397
  C  C307  1  0.745300  0.220600  0.847600  1.0  0.7408
  C  C308  1  0.727900  0.154400  0.909900  1.0  -0.3389
  C  C309  1  0.795600  0.112200  0.945900  1.0  -0.1217
  C  C310  1  0.774000  0.039800  0.998500  1.0  -0.1681
  C  C311  1  0.747200  0.964800  0.954200  1.0  -0.1593
  C  C312  1  0.723500  0.891900  0.005900  1.0  -0.1197
  C  C313  1  0.788500  0.847000  0.043600  1.0  -0.2922
  C  C314  1  0.767000  0.779500  0.099800  1.0  0.7617
  C  C315  1  0.645300  0.496800  0.714500  1.0  0.0447
  C  C316  1  0.578300  0.522000  0.684300  1.0  -0.1668
  C  C317  1  0.598000  0.392300  0.654000  1.0  0.1263
  C  C318  1  0.477000  0.451300  0.602800  1.0  -0.0136
  C  C319  1  0.487600  0.459200  0.513100  1.0  -0.1546
  C  C320  1  0.848800  0.503900  0.744600  1.0  0.0306
  C  C321  1  0.905800  0.535900  0.787400  1.0  -0.151
  C  C322  1  0.897400  0.404300  0.810900  1.0  0.1276
  C  C323  1  0.997900  0.478000  0.888100  1.0  -0.002
  C  C324  1  0.968600  0.496800  0.969800  1.0  -0.1426
  C  C325  1  0.745300  0.779400  0.347600  1.0  0.7415
  C  C326  1  0.727900  0.845600  0.409900  1.0  -0.3399
  C  C327  1  0.795600  0.887800  0.445900  1.0  -0.1225
  C  C328  1  0.774000  0.960200  0.498500  1.0  -0.1676
  C  C329  1  0.747200  0.035200  0.454200  1.0  -0.1597
  C  C330  1  0.723500  0.108100  0.505900  1.0  -0.1198
  C  C331  1  0.788500  0.153000  0.543600  1.0  -0.2914
  C  C332  1  0.767000  0.220500  0.599800  1.0  0.7616
  C  C333  1  0.645300  0.503200  0.214500  1.0  0.0447
  C  C334  1  0.578300  0.478000  0.184300  1.0  -0.1662
  C  C335  1  0.598000  0.607700  0.154000  1.0  0.1274
  C  C336  1  0.477000  0.548700  0.102800  1.0  -0.0137
  C  C337  1  0.487600  0.540800  0.013100  1.0  -0.1536
  C  C338  1  0.848800  0.496100  0.244600  1.0  0.0309
  C  C339  1  0.905800  0.464100  0.287400  1.0  -0.1513
  C  C340  1  0.897400  0.595700  0.310900  1.0  0.1279
  C  C341  1  0.997900  0.522000  0.388100  1.0  -0.001
  C  C342  1  0.968600  0.503200  0.469800  1.0  -0.1409
  C  C343  1  0.254700  0.779400  0.152400  1.0  0.74
  C  C344  1  0.272100  0.845600  0.090100  1.0  -0.3385
  C  C345  1  0.204400  0.887800  0.054100  1.0  -0.1231
  C  C346  1  0.226000  0.960200  0.001500  1.0  -0.1657
  C  C347  1  0.252800  0.035200  0.045800  1.0  -0.1597
  C  C348  1  0.276500  0.108100  0.994100  1.0  -0.1184
  C  C349  1  0.211500  0.153000  0.956400  1.0  -0.2949
  C  C350  1  0.233000  0.220500  0.900200  1.0  0.7623
  C  C351  1  0.354700  0.503200  0.285500  1.0  0.0427
  C  C352  1  0.421700  0.478000  0.315700  1.0  -0.1665
  C  C353  1  0.402000  0.607700  0.346000  1.0  0.1267
  C  C354  1  0.523000  0.548700  0.397200  1.0  -0.0106
  C  C355  1  0.512400  0.540800  0.486900  1.0  -0.1539
  C  C356  1  0.151200  0.496100  0.255400  1.0  0.0324
  C  C357  1  0.094200  0.464100  0.212600  1.0  -0.1514
  C  C358  1  0.102600  0.595700  0.189100  1.0  0.1291
  C  C359  1  0.002100  0.522000  0.111900  1.0  -0.0037
  C  C360  1  0.031400  0.503200  0.030200  1.0  -0.1387
  N  N361  1  0.157400  0.084500  0.303500  1.0  -0.414
  N  N362  1  0.048800  0.045500  0.353800  1.0  0.0406
  N  N363  1  0.343000  0.078600  0.240800  1.0  -0.4126
  N  N364  1  0.436900  0.026900  0.170700  1.0  0.0554
  N  N365  1  0.842600  0.084500  0.196500  1.0  -0.4149
  N  N366  1  0.951200  0.045500  0.146200  1.0  0.0404
  N  N367  1  0.657000  0.078600  0.259200  1.0  -0.4144
  N  N368  1  0.563100  0.026900  0.329300  1.0  0.0555
  N  N369  1  0.842600  0.915500  0.696500  1.0  -0.4156
  N  N370  1  0.951200  0.954500  0.646200  1.0  0.0403
  N  N371  1  0.657000  0.921400  0.759200  1.0  -0.4132
  N  N372  1  0.563100  0.973100  0.829300  1.0  0.0556
  N  N373  1  0.157400  0.915500  0.803500  1.0  -0.4138
  N  N374  1  0.048800  0.954500  0.853800  1.0  0.0404
  N  N375  1  0.343000  0.921400  0.740800  1.0  -0.4119
  N  N376  1  0.436900  0.973100  0.670700  1.0  0.0559
  N  N377  1  0.342600  0.415500  0.803500  1.0  -0.4155
  N  N378  1  0.451200  0.454500  0.853800  1.0  0.0414
  N  N379  1  0.157000  0.421400  0.740800  1.0  -0.4121
  N  N380  1  0.063100  0.473100  0.670700  1.0  0.0553
  N  N381  1  0.657400  0.415500  0.696500  1.0  -0.4128
  N  N382  1  0.548800  0.454500  0.646200  1.0  0.04
  N  N383  1  0.843000  0.421400  0.759200  1.0  -0.4124
  N  N384  1  0.936900  0.473100  0.829300  1.0  0.0565
  N  N385  1  0.657400  0.584500  0.196500  1.0  -0.4145
  N  N386  1  0.548800  0.545500  0.146200  1.0  0.04
  N  N387  1  0.843000  0.578600  0.259200  1.0  -0.4117
  N  N388  1  0.936900  0.526900  0.329300  1.0  0.0562
  N  N389  1  0.342600  0.584500  0.303500  1.0  -0.4139
  N  N390  1  0.451200  0.545500  0.353800  1.0  0.0416
  N  N391  1  0.157000  0.578600  0.240800  1.0  -0.414
  N  N392  1  0.063100  0.526900  0.170700  1.0  0.0551
  O  O393  1  0.192100  0.231500  0.170300  1.0  -0.6412
  O  O394  1  0.306900  0.274600  0.186900  1.0  -0.6122
  O  O395  1  0.317600  0.772500  0.882900  1.0  -0.6161
  O  O396  1  0.204300  0.723400  0.867300  1.0  -0.6263
  O  O397  1  0.807900  0.231500  0.329700  1.0  -0.6406
  O  O398  1  0.693100  0.274600  0.313100  1.0  -0.6122
  O  O399  1  0.682400  0.772500  0.617100  1.0  -0.6179
  O  O400  1  0.795700  0.723400  0.632700  1.0  -0.6269
  O  O401  1  0.807900  0.768500  0.829700  1.0  -0.6406
  O  O402  1  0.693100  0.725400  0.813100  1.0  -0.6122
  O  O403  1  0.682400  0.227500  0.117100  1.0  -0.6167
  O  O404  1  0.795700  0.276600  0.132700  1.0  -0.6274
  O  O405  1  0.192100  0.768500  0.670300  1.0  -0.641
  O  O406  1  0.306900  0.725400  0.686900  1.0  -0.6123
  O  O407  1  0.317600  0.227500  0.382900  1.0  -0.6157
  O  O408  1  0.204300  0.276600  0.367300  1.0  -0.6268
  O  O409  1  0.307900  0.268500  0.670300  1.0  -0.6409
  O  O410  1  0.193100  0.225400  0.686900  1.0  -0.6127
  O  O411  1  0.182400  0.727500  0.382900  1.0  -0.6174
  O  O412  1  0.295700  0.776600  0.367300  1.0  -0.6271
  O  O413  1  0.692100  0.268500  0.829700  1.0  -0.6412
  O  O414  1  0.806900  0.225400  0.813100  1.0  -0.6126
  O  O415  1  0.817600  0.727500  0.117100  1.0  -0.6181
  O  O416  1  0.704300  0.776600  0.132700  1.0  -0.6277
  O  O417  1  0.692100  0.731500  0.329700  1.0  -0.6416
  O  O418  1  0.806900  0.774600  0.313100  1.0  -0.6122
  O  O419  1  0.817600  0.272500  0.617100  1.0  -0.6185
  O  O420  1  0.704300  0.223400  0.632700  1.0  -0.6274
  O  O421  1  0.307900  0.731500  0.170300  1.0  -0.6407
  O  O422  1  0.193100  0.774600  0.186900  1.0  -0.6125
  O  O423  1  0.182400  0.272500  0.882900  1.0  -0.6186
  O  O424  1  0.295700  0.223400  0.867300  1.0  -0.6267
