# generated using pymatgen
data_InCoH24C48(NO2)4
_symmetry_space_group_name_H-M   'P 1'
_cell_length_a   14.39860000
_cell_length_b   31.36500000
_cell_length_c   32.06470000
_cell_angle_alpha   90.00000000
_cell_angle_beta   90.00000000
_cell_angle_gamma   90.00000000
_symmetry_Int_Tables_number   1
_chemical_formula_structural   InCoH24C48(NO2)4
_chemical_formula_sum   'In8 Co8 H192 C384 N32 O64'
_cell_volume   14480.80615016
_cell_formula_units_Z   8
loop_
 _symmetry_equiv_pos_site_id
 _symmetry_equiv_pos_as_xyz
  1  'x, y, z'
loop_
 _atom_site_type_symbol
 _atom_site_label
 _atom_site_symmetry_multiplicity
 _atom_site_fract_x
 _atom_site_fract_y
 _atom_site_fract_z
 _atom_site_occupancy
 _atom_site_charge
  In  In1  1  0.000000  0.288260  0.250000  1.0  1.4786
  In  In2  1  0.500000  0.788260  0.250000  1.0  1.4784
  In  In3  1  0.000000  0.288260  0.750000  1.0  1.4786
  In  In4  1  0.500000  0.788260  0.750000  1.0  1.4784
  In  In5  1  0.000000  0.711740  0.250000  1.0  1.4786
  In  In6  1  0.500000  0.211740  0.250000  1.0  1.4785
  In  In7  1  0.000000  0.711740  0.750000  1.0  1.4786
  In  In8  1  0.500000  0.211740  0.750000  1.0  1.4785
  Co  Co9  1  0.288870  0.046040  0.500000  1.0  0.7374
  Co  Co10  1  0.788870  0.546040  0.500000  1.0  0.7374
  Co  Co11  1  0.711130  0.046040  0.000000  1.0  0.7393
  Co  Co12  1  0.211130  0.546040  0.000000  1.0  0.7393
  Co  Co13  1  0.711130  0.953960  0.500000  1.0  0.7396
  Co  Co14  1  0.211130  0.453960  0.500000  1.0  0.7396
  Co  Co15  1  0.288870  0.953960  0.000000  1.0  0.7378
  Co  Co16  1  0.788870  0.453960  0.000000  1.0  0.7378
  H  H17  1  0.248500  0.203900  0.689800  1.0  0.1068
  H  H18  1  0.311900  0.160500  0.638000  1.0  0.1113
  H  H19  1  0.994600  0.192300  0.638200  1.0  0.1186
  H  H20  1  0.055700  0.141800  0.589700  1.0  0.1224
  H  H21  1  0.298100  0.004500  0.653000  1.0  0.1265
  H  H22  1  0.186000  0.196100  0.539000  1.0  0.1245
  H  H23  1  0.231000  0.076900  0.653900  1.0  0.1266
  H  H24  1  0.524400  0.954500  0.606800  1.0  0.1033
  H  H25  1  0.251400  0.921400  0.616000  1.0  0.1273
  H  H26  1  0.462300  0.908800  0.539700  1.0  0.1361
  H  H27  1  0.289400  0.869100  0.664600  1.0  0.113
  H  H28  1  0.562900  0.900600  0.655800  1.0  0.111
  H  H29  1  0.748500  0.703900  0.689800  1.0  0.1068
  H  H30  1  0.811900  0.660500  0.638000  1.0  0.1113
  H  H31  1  0.494600  0.692300  0.638200  1.0  0.1186
  H  H32  1  0.555700  0.641800  0.589700  1.0  0.1224
  H  H33  1  0.798100  0.504500  0.653000  1.0  0.1265
  H  H34  1  0.686000  0.696100  0.539000  1.0  0.1245
  H  H35  1  0.731000  0.576900  0.653900  1.0  0.1266
  H  H36  1  0.024400  0.454500  0.606800  1.0  0.1033
  H  H37  1  0.751400  0.421400  0.616000  1.0  0.1273
  H  H38  1  0.962300  0.408800  0.539700  1.0  0.1361
  H  H39  1  0.789400  0.369100  0.664600  1.0  0.113
  H  H40  1  0.062900  0.400600  0.655800  1.0  0.111
  H  H41  1  0.751500  0.203900  0.810200  1.0  0.1062
  H  H42  1  0.688100  0.160500  0.862000  1.0  0.1114
  H  H43  1  0.005400  0.192300  0.861800  1.0  0.1185
  H  H44  1  0.944300  0.141800  0.910300  1.0  0.122
  H  H45  1  0.701900  0.004500  0.847000  1.0  0.1268
  H  H46  1  0.814000  0.196100  0.961000  1.0  0.1248
  H  H47  1  0.769000  0.076900  0.846100  1.0  0.1265
  H  H48  1  0.475600  0.954500  0.893200  1.0  0.1029
  H  H49  1  0.748600  0.921400  0.884000  1.0  0.1271
  H  H50  1  0.537700  0.908800  0.960300  1.0  0.1361
  H  H51  1  0.710600  0.869100  0.835400  1.0  0.1133
  H  H52  1  0.437100  0.900600  0.844200  1.0  0.1112
  H  H53  1  0.251500  0.703900  0.810200  1.0  0.1062
  H  H54  1  0.188100  0.660500  0.862000  1.0  0.1114
  H  H55  1  0.505400  0.692300  0.861800  1.0  0.1185
  H  H56  1  0.444300  0.641800  0.910300  1.0  0.122
  H  H57  1  0.201900  0.504500  0.847000  1.0  0.1268
  H  H58  1  0.314000  0.696100  0.961000  1.0  0.1248
  H  H59  1  0.269000  0.576900  0.846100  1.0  0.1265
  H  H60  1  0.975600  0.454500  0.893200  1.0  0.1029
  H  H61  1  0.248600  0.421400  0.884000  1.0  0.1271
  H  H62  1  0.037700  0.408800  0.960300  1.0  0.1361
  H  H63  1  0.210600  0.369100  0.835400  1.0  0.1133
  H  H64  1  0.937100  0.400600  0.844200  1.0  0.1112
  H  H65  1  0.248500  0.203900  0.310200  1.0  0.1065
  H  H66  1  0.311900  0.160500  0.362000  1.0  0.1112
  H  H67  1  0.994600  0.192300  0.361800  1.0  0.1188
  H  H68  1  0.055700  0.141800  0.410300  1.0  0.1224
  H  H69  1  0.298100  0.004500  0.347000  1.0  0.126
  H  H70  1  0.186000  0.196100  0.461000  1.0  0.1252
  H  H71  1  0.231000  0.076900  0.346100  1.0  0.1264
  H  H72  1  0.524400  0.954500  0.393200  1.0  0.1034
  H  H73  1  0.251400  0.921400  0.384000  1.0  0.1274
  H  H74  1  0.462300  0.908800  0.460300  1.0  0.1363
  H  H75  1  0.289400  0.869100  0.335400  1.0  0.1129
  H  H76  1  0.562900  0.900600  0.344200  1.0  0.111
  H  H77  1  0.748500  0.703900  0.310200  1.0  0.1065
  H  H78  1  0.811900  0.660500  0.362000  1.0  0.1112
  H  H79  1  0.494600  0.692300  0.361800  1.0  0.1188
  H  H80  1  0.555700  0.641800  0.410300  1.0  0.1224
  H  H81  1  0.798100  0.504500  0.347000  1.0  0.126
  H  H82  1  0.686000  0.696100  0.461000  1.0  0.1252
  H  H83  1  0.731000  0.576900  0.346100  1.0  0.1264
  H  H84  1  0.024400  0.454500  0.393200  1.0  0.1034
  H  H85  1  0.751400  0.421400  0.384000  1.0  0.1274
  H  H86  1  0.962300  0.408800  0.460300  1.0  0.1363
  H  H87  1  0.789400  0.369100  0.335400  1.0  0.1129
  H  H88  1  0.062900  0.400600  0.344200  1.0  0.111
  H  H89  1  0.751500  0.203900  0.189800  1.0  0.1065
  H  H90  1  0.688100  0.160500  0.138000  1.0  0.1114
  H  H91  1  0.005400  0.192300  0.138200  1.0  0.1186
  H  H92  1  0.944300  0.141800  0.089700  1.0  0.122
  H  H93  1  0.701900  0.004500  0.153000  1.0  0.1254
  H  H94  1  0.814000  0.196100  0.039000  1.0  0.1245
  H  H95  1  0.769000  0.076900  0.153900  1.0  0.1258
  H  H96  1  0.475600  0.954500  0.106800  1.0  0.1028
  H  H97  1  0.748600  0.921400  0.116000  1.0  0.1274
  H  H98  1  0.537700  0.908800  0.039700  1.0  0.1358
  H  H99  1  0.710600  0.869100  0.164600  1.0  0.1132
  H  H100  1  0.437100  0.900600  0.155800  1.0  0.1108
  H  H101  1  0.251500  0.703900  0.189800  1.0  0.1065
  H  H102  1  0.188100  0.660500  0.138000  1.0  0.1114
  H  H103  1  0.505400  0.692300  0.138200  1.0  0.1186
  H  H104  1  0.444300  0.641800  0.089700  1.0  0.122
  H  H105  1  0.201900  0.504500  0.153000  1.0  0.1254
  H  H106  1  0.314000  0.696100  0.039000  1.0  0.1245
  H  H107  1  0.269000  0.576900  0.153900  1.0  0.1258
  H  H108  1  0.975600  0.454500  0.106800  1.0  0.1028
  H  H109  1  0.248600  0.421400  0.116000  1.0  0.1274
  H  H110  1  0.037700  0.408800  0.039700  1.0  0.1358
  H  H111  1  0.210600  0.369100  0.164600  1.0  0.1132
  H  H112  1  0.937100  0.400600  0.155800  1.0  0.1108
  H  H113  1  0.751500  0.796100  0.689800  1.0  0.1064
  H  H114  1  0.688100  0.839500  0.638000  1.0  0.1104
  H  H115  1  0.005400  0.807700  0.638200  1.0  0.1182
  H  H116  1  0.944300  0.858200  0.589700  1.0  0.1225
  H  H117  1  0.701900  0.995500  0.653000  1.0  0.1256
  H  H118  1  0.814000  0.803900  0.539000  1.0  0.1245
  H  H119  1  0.769000  0.923100  0.653900  1.0  0.1259
  H  H120  1  0.475600  0.045500  0.606800  1.0  0.1031
  H  H121  1  0.748600  0.078600  0.616000  1.0  0.1273
  H  H122  1  0.537700  0.091200  0.539700  1.0  0.1369
  H  H123  1  0.710600  0.130900  0.664600  1.0  0.1133
  H  H124  1  0.437100  0.099400  0.655800  1.0  0.1107
  H  H125  1  0.251500  0.296100  0.689800  1.0  0.1064
  H  H126  1  0.188100  0.339500  0.638000  1.0  0.1104
  H  H127  1  0.505400  0.307700  0.638200  1.0  0.1182
  H  H128  1  0.444300  0.358200  0.589700  1.0  0.1225
  H  H129  1  0.201900  0.495500  0.653000  1.0  0.1256
  H  H130  1  0.314000  0.303900  0.539000  1.0  0.1245
  H  H131  1  0.269000  0.423100  0.653900  1.0  0.1259
  H  H132  1  0.975600  0.545500  0.606800  1.0  0.1031
  H  H133  1  0.248600  0.578600  0.616000  1.0  0.1273
  H  H134  1  0.037700  0.591200  0.539700  1.0  0.1369
  H  H135  1  0.210600  0.630900  0.664600  1.0  0.1133
  H  H136  1  0.937100  0.599400  0.655800  1.0  0.1107
  H  H137  1  0.248500  0.796100  0.810200  1.0  0.1066
  H  H138  1  0.311900  0.839500  0.862000  1.0  0.1102
  H  H139  1  0.994600  0.807700  0.861800  1.0  0.1188
  H  H140  1  0.055700  0.858200  0.910300  1.0  0.1226
  H  H141  1  0.298100  0.995500  0.847000  1.0  0.126
  H  H142  1  0.186000  0.803900  0.961000  1.0  0.1244
  H  H143  1  0.231000  0.923100  0.846100  1.0  0.1266
  H  H144  1  0.524400  0.045500  0.893200  1.0  0.1038
  H  H145  1  0.251400  0.078600  0.884000  1.0  0.1272
  H  H146  1  0.462300  0.091200  0.960300  1.0  0.1373
  H  H147  1  0.289400  0.130900  0.835400  1.0  0.1131
  H  H148  1  0.562900  0.099400  0.844200  1.0  0.1109
  H  H149  1  0.748500  0.296100  0.810200  1.0  0.1066
  H  H150  1  0.811900  0.339500  0.862000  1.0  0.1102
  H  H151  1  0.494600  0.307700  0.861800  1.0  0.1188
  H  H152  1  0.555700  0.358200  0.910300  1.0  0.1226
  H  H153  1  0.798100  0.495500  0.847000  1.0  0.126
  H  H154  1  0.686000  0.303900  0.961000  1.0  0.1244
  H  H155  1  0.731000  0.423100  0.846100  1.0  0.1266
  H  H156  1  0.024400  0.545500  0.893200  1.0  0.1038
  H  H157  1  0.751400  0.578600  0.884000  1.0  0.1272
  H  H158  1  0.962300  0.591200  0.960300  1.0  0.1373
  H  H159  1  0.789400  0.630900  0.835400  1.0  0.1131
  H  H160  1  0.062900  0.599400  0.844200  1.0  0.1109
  H  H161  1  0.751500  0.796100  0.310200  1.0  0.1064
  H  H162  1  0.688100  0.839500  0.362000  1.0  0.1103
  H  H163  1  0.005400  0.807700  0.361800  1.0  0.1184
  H  H164  1  0.944300  0.858200  0.410300  1.0  0.1219
  H  H165  1  0.701900  0.995500  0.347000  1.0  0.1269
  H  H166  1  0.814000  0.803900  0.461000  1.0  0.1247
  H  H167  1  0.769000  0.923100  0.346100  1.0  0.1268
  H  H168  1  0.475600  0.045500  0.393200  1.0  0.1032
  H  H169  1  0.748600  0.078600  0.384000  1.0  0.1268
  H  H170  1  0.537700  0.091200  0.460300  1.0  0.1371
  H  H171  1  0.710600  0.130900  0.335400  1.0  0.1139
  H  H172  1  0.437100  0.099400  0.344200  1.0  0.1112
  H  H173  1  0.251500  0.296100  0.310200  1.0  0.1064
  H  H174  1  0.188100  0.339500  0.362000  1.0  0.1103
  H  H175  1  0.505400  0.307700  0.361800  1.0  0.1184
  H  H176  1  0.444300  0.358200  0.410300  1.0  0.1219
  H  H177  1  0.201900  0.495500  0.347000  1.0  0.1269
  H  H178  1  0.314000  0.303900  0.461000  1.0  0.1247
  H  H179  1  0.269000  0.423100  0.346100  1.0  0.1268
  H  H180  1  0.975600  0.545500  0.393200  1.0  0.1032
  H  H181  1  0.248600  0.578600  0.384000  1.0  0.1268
  H  H182  1  0.037700  0.591200  0.460300  1.0  0.1371
  H  H183  1  0.210600  0.630900  0.335400  1.0  0.1139
  H  H184  1  0.937100  0.599400  0.344200  1.0  0.1112
  H  H185  1  0.248500  0.796100  0.189800  1.0  0.1066
  H  H186  1  0.311900  0.839500  0.138000  1.0  0.1103
  H  H187  1  0.994600  0.807700  0.138200  1.0  0.1186
  H  H188  1  0.055700  0.858200  0.089700  1.0  0.1228
  H  H189  1  0.298100  0.995500  0.153000  1.0  0.1261
  H  H190  1  0.186000  0.803900  0.039000  1.0  0.1246
  H  H191  1  0.231000  0.923100  0.153900  1.0  0.1268
  H  H192  1  0.524400  0.045500  0.106800  1.0  0.1037
  H  H193  1  0.251400  0.078600  0.116000  1.0  0.1274
  H  H194  1  0.462300  0.091200  0.039700  1.0  0.1371
  H  H195  1  0.289400  0.130900  0.164600  1.0  0.1127
  H  H196  1  0.562900  0.099400  0.155800  1.0  0.1109
  H  H197  1  0.748500  0.296100  0.189800  1.0  0.1066
  H  H198  1  0.811900  0.339500  0.138000  1.0  0.1103
  H  H199  1  0.494600  0.307700  0.138200  1.0  0.1186
  H  H200  1  0.555700  0.358200  0.089700  1.0  0.1228
  H  H201  1  0.798100  0.495500  0.153000  1.0  0.1261
  H  H202  1  0.686000  0.303900  0.039000  1.0  0.1246
  H  H203  1  0.731000  0.423100  0.153900  1.0  0.1268
  H  H204  1  0.024400  0.545500  0.106800  1.0  0.1037
  H  H205  1  0.751400  0.578600  0.116000  1.0  0.1274
  H  H206  1  0.962300  0.591200  0.039700  1.0  0.1371
  H  H207  1  0.789400  0.630900  0.164600  1.0  0.1127
  H  H208  1  0.062900  0.599400  0.155800  1.0  0.1109
  C  C209  1  0.076100  0.233500  0.698890  1.0  0.6741
  C  C210  1  0.119900  0.203680  0.667270  1.0  -0.1365
  C  C211  1  0.209700  0.193010  0.668310  1.0  -0.0651
  C  C212  1  0.191600  0.147320  0.608300  1.0  0.0578
  C  C213  1  0.247000  0.166020  0.638030  1.0  -0.1231
  C  C214  1  0.058800  0.185300  0.638220  1.0  -0.036
  C  C215  1  0.095700  0.155800  0.608800  1.0  -0.1034
  C  C216  1  0.225200  0.117360  0.575860  1.0  -0.1089
  C  C217  1  0.224800  0.130310  0.534530  1.0  0.1369
  C  C218  1  0.289900  0.023000  0.629790  1.0  -0.1657
  C  C219  1  0.314600  0.014300  0.586990  1.0  0.2106
  C  C220  1  0.199800  0.172590  0.521390  1.0  -0.1679
  C  C221  1  0.253300  0.061890  0.630190  1.0  -0.165
  C  C222  1  0.383100  0.942500  0.607000  1.0  0.0732
  C  C223  1  0.477300  0.936900  0.618500  1.0  -0.0877
  C  C224  1  0.360100  0.975610  0.574700  1.0  -0.0148
  C  C225  1  0.314300  0.917300  0.624000  1.0  -0.1262
  C  C226  1  0.254000  0.076830  0.587920  1.0  0.1559
  C  C227  1  0.385800  0.968700  0.534500  1.0  0.1908
  C  C228  1  0.435600  0.929700  0.521900  1.0  -0.1616
  C  C229  1  0.429800  0.879510  0.664020  1.0  -0.1109
  C  C230  1  0.337000  0.886100  0.652600  1.0  -0.0204
  C  C231  1  0.500300  0.904800  0.647600  1.0  -0.0579
  C  C232  1  0.456500  0.845450  0.694700  1.0  0.6657
  C  C233  1  0.576100  0.733500  0.698890  1.0  0.6741
  C  C234  1  0.619900  0.703680  0.667270  1.0  -0.1365
  C  C235  1  0.709700  0.693010  0.668310  1.0  -0.0651
  C  C236  1  0.691600  0.647320  0.608300  1.0  0.0578
  C  C237  1  0.747000  0.666020  0.638030  1.0  -0.1231
  C  C238  1  0.558800  0.685300  0.638220  1.0  -0.036
  C  C239  1  0.595700  0.655800  0.608800  1.0  -0.1034
  C  C240  1  0.725200  0.617360  0.575860  1.0  -0.1089
  C  C241  1  0.724800  0.630310  0.534530  1.0  0.1369
  C  C242  1  0.789900  0.523000  0.629790  1.0  -0.1657
  C  C243  1  0.814600  0.514300  0.586990  1.0  0.2106
  C  C244  1  0.699800  0.672590  0.521390  1.0  -0.1679
  C  C245  1  0.753300  0.561890  0.630190  1.0  -0.165
  C  C246  1  0.883100  0.442500  0.607000  1.0  0.0732
  C  C247  1  0.977300  0.436900  0.618500  1.0  -0.0877
  C  C248  1  0.860100  0.475610  0.574700  1.0  -0.0148
  C  C249  1  0.814300  0.417300  0.624000  1.0  -0.1262
  C  C250  1  0.754000  0.576830  0.587920  1.0  0.1559
  C  C251  1  0.885800  0.468700  0.534500  1.0  0.1908
  C  C252  1  0.935600  0.429700  0.521900  1.0  -0.1616
  C  C253  1  0.929800  0.379510  0.664020  1.0  -0.1109
  C  C254  1  0.837000  0.386100  0.652600  1.0  -0.0204
  C  C255  1  0.000300  0.404800  0.647600  1.0  -0.0579
  C  C256  1  0.956500  0.345450  0.694700  1.0  0.6657
  C  C257  1  0.923900  0.233500  0.801110  1.0  0.6751
  C  C258  1  0.880100  0.203680  0.832730  1.0  -0.1352
  C  C259  1  0.790300  0.193010  0.831690  1.0  -0.0633
  C  C260  1  0.808400  0.147320  0.891700  1.0  0.058
  C  C261  1  0.753000  0.166020  0.861970  1.0  -0.1227
  C  C262  1  0.941200  0.185300  0.861780  1.0  -0.0348
  C  C263  1  0.904300  0.155800  0.891200  1.0  -0.0985
  C  C264  1  0.774800  0.117360  0.924140  1.0  -0.1089
  C  C265  1  0.775200  0.130310  0.965470  1.0  0.1372
  C  C266  1  0.710100  0.023000  0.870210  1.0  -0.1662
  C  C267  1  0.685400  0.014300  0.913010  1.0  0.2105
  C  C268  1  0.800200  0.172590  0.978610  1.0  -0.1682
  C  C269  1  0.746700  0.061890  0.869810  1.0  -0.164
  C  C270  1  0.616900  0.942500  0.893000  1.0  0.0748
  C  C271  1  0.522700  0.936900  0.881500  1.0  -0.0882
  C  C272  1  0.639900  0.975610  0.925300  1.0  -0.014
  C  C273  1  0.685700  0.917300  0.876000  1.0  -0.1253
  C  C274  1  0.746000  0.076830  0.912080  1.0  0.1528
  C  C275  1  0.614200  0.968700  0.965500  1.0  0.1887
  C  C276  1  0.564400  0.929700  0.978100  1.0  -0.1614
  C  C277  1  0.570200  0.879510  0.835980  1.0  -0.1113
  C  C278  1  0.663000  0.886100  0.847400  1.0  -0.0218
  C  C279  1  0.499700  0.904800  0.852400  1.0  -0.0569
  C  C280  1  0.543500  0.845450  0.805300  1.0  0.6664
  C  C281  1  0.423900  0.733500  0.801110  1.0  0.6751
  C  C282  1  0.380100  0.703680  0.832730  1.0  -0.1352
  C  C283  1  0.290300  0.693010  0.831690  1.0  -0.0633
  C  C284  1  0.308400  0.647320  0.891700  1.0  0.058
  C  C285  1  0.253000  0.666020  0.861970  1.0  -0.1227
  C  C286  1  0.441200  0.685300  0.861780  1.0  -0.0348
  C  C287  1  0.404300  0.655800  0.891200  1.0  -0.0985
  C  C288  1  0.274800  0.617360  0.924140  1.0  -0.1089
  C  C289  1  0.275200  0.630310  0.965470  1.0  0.1372
  C  C290  1  0.210100  0.523000  0.870210  1.0  -0.1662
  C  C291  1  0.185400  0.514300  0.913010  1.0  0.2105
  C  C292  1  0.300200  0.672590  0.978610  1.0  -0.1682
  C  C293  1  0.246700  0.561890  0.869810  1.0  -0.164
  C  C294  1  0.116900  0.442500  0.893000  1.0  0.0748
  C  C295  1  0.022700  0.436900  0.881500  1.0  -0.0882
  C  C296  1  0.139900  0.475610  0.925300  1.0  -0.014
  C  C297  1  0.185700  0.417300  0.876000  1.0  -0.1253
  C  C298  1  0.246000  0.576830  0.912080  1.0  0.1528
  C  C299  1  0.114200  0.468700  0.965500  1.0  0.1887
  C  C300  1  0.064400  0.429700  0.978100  1.0  -0.1614
  C  C301  1  0.070200  0.379510  0.835980  1.0  -0.1113
  C  C302  1  0.163000  0.386100  0.847400  1.0  -0.0218
  C  C303  1  0.999700  0.404800  0.852400  1.0  -0.0569
  C  C304  1  0.043500  0.345450  0.805300  1.0  0.6664
  C  C305  1  0.076100  0.233500  0.301110  1.0  0.6746
  C  C306  1  0.119900  0.203680  0.332730  1.0  -0.1363
  C  C307  1  0.209700  0.193010  0.331690  1.0  -0.0639
  C  C308  1  0.191600  0.147320  0.391700  1.0  0.0572
  C  C309  1  0.247000  0.166020  0.361970  1.0  -0.1232
  C  C310  1  0.058800  0.185300  0.361780  1.0  -0.0358
  C  C311  1  0.095700  0.155800  0.391200  1.0  -0.1021
  C  C312  1  0.225200  0.117360  0.424140  1.0  -0.1088
  C  C313  1  0.224800  0.130310  0.465470  1.0  0.1368
  C  C314  1  0.289900  0.023000  0.370210  1.0  -0.167
  C  C315  1  0.314600  0.014300  0.413010  1.0  0.2099
  C  C316  1  0.199800  0.172590  0.478610  1.0  -0.1683
  C  C317  1  0.253300  0.061890  0.369810  1.0  -0.1644
  C  C318  1  0.383100  0.942500  0.393000  1.0  0.0736
  C  C319  1  0.477300  0.936900  0.381500  1.0  -0.0881
  C  C320  1  0.360100  0.975610  0.425300  1.0  -0.0157
  C  C321  1  0.314300  0.917300  0.376000  1.0  -0.1271
  C  C322  1  0.254000  0.076830  0.412080  1.0  0.155
  C  C323  1  0.385800  0.968700  0.465500  1.0  0.19
  C  C324  1  0.435600  0.929700  0.478100  1.0  -0.1615
  C  C325  1  0.429800  0.879510  0.335980  1.0  -0.1111
  C  C326  1  0.337000  0.886100  0.347400  1.0  -0.0206
  C  C327  1  0.500300  0.904800  0.352400  1.0  -0.058
  C  C328  1  0.456500  0.845450  0.305300  1.0  0.6657
  C  C329  1  0.576100  0.733500  0.301110  1.0  0.6746
  C  C330  1  0.619900  0.703680  0.332730  1.0  -0.1363
  C  C331  1  0.709700  0.693010  0.331690  1.0  -0.0639
  C  C332  1  0.691600  0.647320  0.391700  1.0  0.0572
  C  C333  1  0.747000  0.666020  0.361970  1.0  -0.1232
  C  C334  1  0.558800  0.685300  0.361780  1.0  -0.0358
  C  C335  1  0.595700  0.655800  0.391200  1.0  -0.1021
  C  C336  1  0.725200  0.617360  0.424140  1.0  -0.1088
  C  C337  1  0.724800  0.630310  0.465470  1.0  0.1368
  C  C338  1  0.789900  0.523000  0.370210  1.0  -0.167
  C  C339  1  0.814600  0.514300  0.413010  1.0  0.2099
  C  C340  1  0.699800  0.672590  0.478610  1.0  -0.1683
  C  C341  1  0.753300  0.561890  0.369810  1.0  -0.1644
  C  C342  1  0.883100  0.442500  0.393000  1.0  0.0736
  C  C343  1  0.977300  0.436900  0.381500  1.0  -0.0881
  C  C344  1  0.860100  0.475610  0.425300  1.0  -0.0157
  C  C345  1  0.814300  0.417300  0.376000  1.0  -0.1271
  C  C346  1  0.754000  0.576830  0.412080  1.0  0.155
  C  C347  1  0.885800  0.468700  0.465500  1.0  0.19
  C  C348  1  0.935600  0.429700  0.478100  1.0  -0.1615
  C  C349  1  0.929800  0.379510  0.335980  1.0  -0.1111
  C  C350  1  0.837000  0.386100  0.347400  1.0  -0.0206
  C  C351  1  0.000300  0.404800  0.352400  1.0  -0.058
  C  C352  1  0.956500  0.345450  0.305300  1.0  0.6657
  C  C353  1  0.923900  0.233500  0.198890  1.0  0.6754
  C  C354  1  0.880100  0.203680  0.167270  1.0  -0.1364
  C  C355  1  0.790300  0.193010  0.168310  1.0  -0.0645
  C  C356  1  0.808400  0.147320  0.108300  1.0  0.0586
  C  C357  1  0.753000  0.166020  0.138030  1.0  -0.1226
  C  C358  1  0.941200  0.185300  0.138220  1.0  -0.0346
  C  C359  1  0.904300  0.155800  0.108800  1.0  -0.1
  C  C360  1  0.774800  0.117360  0.075860  1.0  -0.1089
  C  C361  1  0.775200  0.130310  0.034530  1.0  0.1368
  C  C362  1  0.710100  0.023000  0.129790  1.0  -0.1656
  C  C363  1  0.685400  0.014300  0.086990  1.0  0.2115
  C  C364  1  0.800200  0.172590  0.021390  1.0  -0.1676
  C  C365  1  0.746700  0.061890  0.130190  1.0  -0.1631
  C  C366  1  0.616900  0.942500  0.107000  1.0  0.0744
  C  C367  1  0.522700  0.936900  0.118500  1.0  -0.0883
  C  C368  1  0.639900  0.975610  0.074700  1.0  -0.0134
  C  C369  1  0.685700  0.917300  0.124000  1.0  -0.1257
  C  C370  1  0.746000  0.076830  0.087920  1.0  0.1546
  C  C371  1  0.614200  0.968700  0.034500  1.0  0.1892
  C  C372  1  0.564400  0.929700  0.021900  1.0  -0.1614
  C  C373  1  0.570200  0.879510  0.164020  1.0  -0.1116
  C  C374  1  0.663000  0.886100  0.152600  1.0  -0.022
  C  C375  1  0.499700  0.904800  0.147600  1.0  -0.0568
  C  C376  1  0.543500  0.845450  0.194700  1.0  0.6669
  C  C377  1  0.423900  0.733500  0.198890  1.0  0.6754
  C  C378  1  0.380100  0.703680  0.167270  1.0  -0.1364
  C  C379  1  0.290300  0.693010  0.168310  1.0  -0.0645
  C  C380  1  0.308400  0.647320  0.108300  1.0  0.0586
  C  C381  1  0.253000  0.666020  0.138030  1.0  -0.1226
  C  C382  1  0.441200  0.685300  0.138220  1.0  -0.0346
  C  C383  1  0.404300  0.655800  0.108800  1.0  -0.1
  C  C384  1  0.274800  0.617360  0.075860  1.0  -0.1089
  C  C385  1  0.275200  0.630310  0.034530  1.0  0.1368
  C  C386  1  0.210100  0.523000  0.129790  1.0  -0.1656
  C  C387  1  0.185400  0.514300  0.086990  1.0  0.2115
  C  C388  1  0.300200  0.672590  0.021390  1.0  -0.1676
  C  C389  1  0.246700  0.561890  0.130190  1.0  -0.1631
  C  C390  1  0.116900  0.442500  0.107000  1.0  0.0744
  C  C391  1  0.022700  0.436900  0.118500  1.0  -0.0883
  C  C392  1  0.139900  0.475610  0.074700  1.0  -0.0134
  C  C393  1  0.185700  0.417300  0.124000  1.0  -0.1257
  C  C394  1  0.246000  0.576830  0.087920  1.0  0.1546
  C  C395  1  0.114200  0.468700  0.034500  1.0  0.1892
  C  C396  1  0.064400  0.429700  0.021900  1.0  -0.1614
  C  C397  1  0.070200  0.379510  0.164020  1.0  -0.1116
  C  C398  1  0.163000  0.386100  0.152600  1.0  -0.022
  C  C399  1  0.999700  0.404800  0.147600  1.0  -0.0568
  C  C400  1  0.043500  0.345450  0.194700  1.0  0.6669
  C  C401  1  0.923900  0.766500  0.698890  1.0  0.6761
  C  C402  1  0.880100  0.796320  0.667270  1.0  -0.1352
  C  C403  1  0.790300  0.806990  0.668310  1.0  -0.0648
  C  C404  1  0.808400  0.852680  0.608300  1.0  0.0586
  C  C405  1  0.753000  0.833980  0.638030  1.0  -0.1225
  C  C406  1  0.941200  0.814700  0.638220  1.0  -0.0352
  C  C407  1  0.904300  0.844200  0.608800  1.0  -0.0999
  C  C408  1  0.774800  0.882640  0.575860  1.0  -0.1089
  C  C409  1  0.775200  0.869690  0.534530  1.0  0.1374
  C  C410  1  0.710100  0.977000  0.629790  1.0  -0.1667
  C  C411  1  0.685400  0.985700  0.586990  1.0  0.2121
  C  C412  1  0.800200  0.827410  0.521390  1.0  -0.1668
  C  C413  1  0.746700  0.938110  0.630190  1.0  -0.1631
  C  C414  1  0.616900  0.057500  0.607000  1.0  0.0742
  C  C415  1  0.522700  0.063100  0.618500  1.0  -0.0884
  C  C416  1  0.639900  0.024390  0.574700  1.0  -0.0129
  C  C417  1  0.685700  0.082700  0.624000  1.0  -0.1251
  C  C418  1  0.746000  0.923170  0.587920  1.0  0.1539
  C  C419  1  0.614200  0.031300  0.534500  1.0  0.1899
  C  C420  1  0.564400  0.070300  0.521900  1.0  -0.1603
  C  C421  1  0.570200  0.120490  0.664020  1.0  -0.11
  C  C422  1  0.663000  0.113900  0.652600  1.0  -0.0201
  C  C423  1  0.499700  0.095200  0.647600  1.0  -0.0573
  C  C424  1  0.543500  0.154550  0.694700  1.0  0.6667
  C  C425  1  0.423900  0.266500  0.698890  1.0  0.6761
  C  C426  1  0.380100  0.296320  0.667270  1.0  -0.1352
  C  C427  1  0.290300  0.306990  0.668310  1.0  -0.0648
  C  C428  1  0.308400  0.352680  0.608300  1.0  0.0586
  C  C429  1  0.253000  0.333980  0.638030  1.0  -0.1225
  C  C430  1  0.441200  0.314700  0.638220  1.0  -0.0352
  C  C431  1  0.404300  0.344200  0.608800  1.0  -0.0999
  C  C432  1  0.274800  0.382640  0.575860  1.0  -0.1089
  C  C433  1  0.275200  0.369690  0.534530  1.0  0.1374
  C  C434  1  0.210100  0.477000  0.629790  1.0  -0.1667
  C  C435  1  0.185400  0.485700  0.586990  1.0  0.2121
  C  C436  1  0.300200  0.327410  0.521390  1.0  -0.1668
  C  C437  1  0.246700  0.438110  0.630190  1.0  -0.1631
  C  C438  1  0.116900  0.557500  0.607000  1.0  0.0742
  C  C439  1  0.022700  0.563100  0.618500  1.0  -0.0884
  C  C440  1  0.139900  0.524390  0.574700  1.0  -0.0129
  C  C441  1  0.185700  0.582700  0.624000  1.0  -0.1251
  C  C442  1  0.246000  0.423170  0.587920  1.0  0.1539
  C  C443  1  0.114200  0.531300  0.534500  1.0  0.1899
  C  C444  1  0.064400  0.570300  0.521900  1.0  -0.1603
  C  C445  1  0.070200  0.620490  0.664020  1.0  -0.11
  C  C446  1  0.163000  0.613900  0.652600  1.0  -0.0201
  C  C447  1  0.999700  0.595200  0.647600  1.0  -0.0573
  C  C448  1  0.043500  0.654550  0.694700  1.0  0.6667
  C  C449  1  0.076100  0.766500  0.801110  1.0  0.6751
  C  C450  1  0.119900  0.796320  0.832730  1.0  -0.1356
  C  C451  1  0.209700  0.806990  0.831690  1.0  -0.0637
  C  C452  1  0.191600  0.852680  0.891700  1.0  0.0572
  C  C453  1  0.247000  0.833980  0.861970  1.0  -0.123
  C  C454  1  0.058800  0.814700  0.861780  1.0  -0.0355
  C  C455  1  0.095700  0.844200  0.891200  1.0  -0.1021
  C  C456  1  0.225200  0.882640  0.924140  1.0  -0.1089
  C  C457  1  0.224800  0.869690  0.965470  1.0  0.1371
  C  C458  1  0.289900  0.977000  0.870210  1.0  -0.1677
  C  C459  1  0.314600  0.985700  0.913010  1.0  0.2104
  C  C460  1  0.199800  0.827410  0.978610  1.0  -0.1677
  C  C461  1  0.253300  0.938110  0.869810  1.0  -0.1646
  C  C462  1  0.383100  0.057500  0.893000  1.0  0.0732
  C  C463  1  0.477300  0.063100  0.881500  1.0  -0.0882
  C  C464  1  0.360100  0.024390  0.925300  1.0  -0.0154
  C  C465  1  0.314300  0.082700  0.876000  1.0  -0.1265
  C  C466  1  0.254000  0.923170  0.912080  1.0  0.1551
  C  C467  1  0.385800  0.031300  0.965500  1.0  0.1908
  C  C468  1  0.435600  0.070300  0.978100  1.0  -0.1608
  C  C469  1  0.429800  0.120490  0.835980  1.0  -0.1088
  C  C470  1  0.337000  0.113900  0.847400  1.0  -0.02
  C  C471  1  0.500300  0.095200  0.852400  1.0  -0.0581
  C  C472  1  0.456500  0.154550  0.805300  1.0  0.666
  C  C473  1  0.576100  0.266500  0.801110  1.0  0.6751
  C  C474  1  0.619900  0.296320  0.832730  1.0  -0.1356
  C  C475  1  0.709700  0.306990  0.831690  1.0  -0.0637
  C  C476  1  0.691600  0.352680  0.891700  1.0  0.0572
  C  C477  1  0.747000  0.333980  0.861970  1.0  -0.123
  C  C478  1  0.558800  0.314700  0.861780  1.0  -0.0355
  C  C479  1  0.595700  0.344200  0.891200  1.0  -0.1021
  C  C480  1  0.725200  0.382640  0.924140  1.0  -0.1089
  C  C481  1  0.724800  0.369690  0.965470  1.0  0.1371
  C  C482  1  0.789900  0.477000  0.870210  1.0  -0.1677
  C  C483  1  0.814600  0.485700  0.913010  1.0  0.2104
  C  C484  1  0.699800  0.327410  0.978610  1.0  -0.1677
  C  C485  1  0.753300  0.438110  0.869810  1.0  -0.1646
  C  C486  1  0.883100  0.557500  0.893000  1.0  0.0732
  C  C487  1  0.977300  0.563100  0.881500  1.0  -0.0882
  C  C488  1  0.860100  0.524390  0.925300  1.0  -0.0154
  C  C489  1  0.814300  0.582700  0.876000  1.0  -0.1265
  C  C490  1  0.754000  0.423170  0.912080  1.0  0.1551
  C  C491  1  0.885800  0.531300  0.965500  1.0  0.1908
  C  C492  1  0.935600  0.570300  0.978100  1.0  -0.1608
  C  C493  1  0.929800  0.620490  0.835980  1.0  -0.1088
  C  C494  1  0.837000  0.613900  0.847400  1.0  -0.02
  C  C495  1  0.000300  0.595200  0.852400  1.0  -0.0581
  C  C496  1  0.956500  0.654550  0.805300  1.0  0.666
  C  C497  1  0.923900  0.766500  0.301110  1.0  0.6758
  C  C498  1  0.880100  0.796320  0.332730  1.0  -0.1343
  C  C499  1  0.790300  0.806990  0.331690  1.0  -0.0633
  C  C500  1  0.808400  0.852680  0.391700  1.0  0.0578
  C  C501  1  0.753000  0.833980  0.361970  1.0  -0.1226
  C  C502  1  0.941200  0.814700  0.361780  1.0  -0.0353
  C  C503  1  0.904300  0.844200  0.391200  1.0  -0.0989
  C  C504  1  0.774800  0.882640  0.424140  1.0  -0.109
  C  C505  1  0.775200  0.869690  0.465470  1.0  0.1371
  C  C506  1  0.710100  0.977000  0.370210  1.0  -0.1657
  C  C507  1  0.685400  0.985700  0.413010  1.0  0.2103
  C  C508  1  0.800200  0.827410  0.478610  1.0  -0.1679
  C  C509  1  0.746700  0.938110  0.369810  1.0  -0.164
  C  C510  1  0.616900  0.057500  0.393000  1.0  0.0747
  C  C511  1  0.522700  0.063100  0.381500  1.0  -0.0886
  C  C512  1  0.639900  0.024390  0.425300  1.0  -0.0135
  C  C513  1  0.685700  0.082700  0.376000  1.0  -0.1243
  C  C514  1  0.746000  0.923170  0.412080  1.0  0.1528
  C  C515  1  0.614200  0.031300  0.465500  1.0  0.1887
  C  C516  1  0.564400  0.070300  0.478100  1.0  -0.1606
  C  C517  1  0.570200  0.120490  0.335980  1.0  -0.1091
  C  C518  1  0.663000  0.113900  0.347400  1.0  -0.0195
  C  C519  1  0.499700  0.095200  0.352400  1.0  -0.0575
  C  C520  1  0.543500  0.154550  0.305300  1.0  0.6665
  C  C521  1  0.423900  0.266500  0.301110  1.0  0.6758
  C  C522  1  0.380100  0.296320  0.332730  1.0  -0.1343
  C  C523  1  0.290300  0.306990  0.331690  1.0  -0.0633
  C  C524  1  0.308400  0.352680  0.391700  1.0  0.0578
  C  C525  1  0.253000  0.333980  0.361970  1.0  -0.1226
  C  C526  1  0.441200  0.314700  0.361780  1.0  -0.0353
  C  C527  1  0.404300  0.344200  0.391200  1.0  -0.0989
  C  C528  1  0.274800  0.382640  0.424140  1.0  -0.109
  C  C529  1  0.275200  0.369690  0.465470  1.0  0.1371
  C  C530  1  0.210100  0.477000  0.370210  1.0  -0.1657
  C  C531  1  0.185400  0.485700  0.413010  1.0  0.2103
  C  C532  1  0.300200  0.327410  0.478610  1.0  -0.1679
  C  C533  1  0.246700  0.438110  0.369810  1.0  -0.164
  C  C534  1  0.116900  0.557500  0.393000  1.0  0.0747
  C  C535  1  0.022700  0.563100  0.381500  1.0  -0.0886
  C  C536  1  0.139900  0.524390  0.425300  1.0  -0.0135
  C  C537  1  0.185700  0.582700  0.376000  1.0  -0.1243
  C  C538  1  0.246000  0.423170  0.412080  1.0  0.1528
  C  C539  1  0.114200  0.531300  0.465500  1.0  0.1887
  C  C540  1  0.064400  0.570300  0.478100  1.0  -0.1606
  C  C541  1  0.070200  0.620490  0.335980  1.0  -0.1091
  C  C542  1  0.163000  0.613900  0.347400  1.0  -0.0195
  C  C543  1  0.999700  0.595200  0.352400  1.0  -0.0575
  C  C544  1  0.043500  0.654550  0.305300  1.0  0.6665
  C  C545  1  0.076100  0.766500  0.198890  1.0  0.6745
  C  C546  1  0.119900  0.796320  0.167270  1.0  -0.1355
  C  C547  1  0.209700  0.806990  0.168310  1.0  -0.0652
  C  C548  1  0.191600  0.852680  0.108300  1.0  0.0579
  C  C549  1  0.247000  0.833980  0.138030  1.0  -0.1228
  C  C550  1  0.058800  0.814700  0.138220  1.0  -0.0357
  C  C551  1  0.095700  0.844200  0.108800  1.0  -0.1029
  C  C552  1  0.225200  0.882640  0.075860  1.0  -0.1089
  C  C553  1  0.224800  0.869690  0.034530  1.0  0.1367
  C  C554  1  0.289900  0.977000  0.129790  1.0  -0.1675
  C  C555  1  0.314600  0.985700  0.086990  1.0  0.2121
  C  C556  1  0.199800  0.827410  0.021390  1.0  -0.1668
  C  C557  1  0.253300  0.938110  0.130190  1.0  -0.1656
  C  C558  1  0.383100  0.057500  0.107000  1.0  0.073
  C  C559  1  0.477300  0.063100  0.118500  1.0  -0.0881
  C  C560  1  0.360100  0.024390  0.074700  1.0  -0.0146
  C  C561  1  0.314300  0.082700  0.124000  1.0  -0.1261
  C  C562  1  0.254000  0.923170  0.087920  1.0  0.155
  C  C563  1  0.385800  0.031300  0.034500  1.0  0.1907
  C  C564  1  0.435600  0.070300  0.021900  1.0  -0.1608
  C  C565  1  0.429800  0.120490  0.164020  1.0  -0.1095
  C  C566  1  0.337000  0.113900  0.152600  1.0  -0.0207
  C  C567  1  0.500300  0.095200  0.147600  1.0  -0.0582
  C  C568  1  0.456500  0.154550  0.194700  1.0  0.6658
  C  C569  1  0.576100  0.266500  0.198890  1.0  0.6745
  C  C570  1  0.619900  0.296320  0.167270  1.0  -0.1355
  C  C571  1  0.709700  0.306990  0.168310  1.0  -0.0652
  C  C572  1  0.691600  0.352680  0.108300  1.0  0.0579
  C  C573  1  0.747000  0.333980  0.138030  1.0  -0.1228
  C  C574  1  0.558800  0.314700  0.138220  1.0  -0.0357
  C  C575  1  0.595700  0.344200  0.108800  1.0  -0.1029
  C  C576  1  0.725200  0.382640  0.075860  1.0  -0.1089
  C  C577  1  0.724800  0.369690  0.034530  1.0  0.1367
  C  C578  1  0.789900  0.477000  0.129790  1.0  -0.1675
  C  C579  1  0.814600  0.485700  0.086990  1.0  0.2121
  C  C580  1  0.699800  0.327410  0.021390  1.0  -0.1668
  C  C581  1  0.753300  0.438110  0.130190  1.0  -0.1656
  C  C582  1  0.883100  0.557500  0.107000  1.0  0.073
  C  C583  1  0.977300  0.563100  0.118500  1.0  -0.0881
  C  C584  1  0.860100  0.524390  0.074700  1.0  -0.0146
  C  C585  1  0.814300  0.582700  0.124000  1.0  -0.1261
  C  C586  1  0.754000  0.423170  0.087920  1.0  0.155
  C  C587  1  0.885800  0.531300  0.034500  1.0  0.1907
  C  C588  1  0.935600  0.570300  0.021900  1.0  -0.1608
  C  C589  1  0.929800  0.620490  0.164020  1.0  -0.1095
  C  C590  1  0.837000  0.613900  0.152600  1.0  -0.0207
  C  C591  1  0.000300  0.595200  0.147600  1.0  -0.0582
  C  C592  1  0.956500  0.654550  0.194700  1.0  0.6658
  N  N593  1  0.291800  0.046030  0.561970  1.0  -0.4453
  N  N594  1  0.791800  0.546030  0.561970  1.0  -0.4453
  N  N595  1  0.708200  0.046030  0.938030  1.0  -0.4472
  N  N596  1  0.208200  0.546030  0.938030  1.0  -0.4472
  N  N597  1  0.291800  0.046030  0.438030  1.0  -0.4461
  N  N598  1  0.791800  0.546030  0.438030  1.0  -0.4461
  N  N599  1  0.708200  0.046030  0.061970  1.0  -0.4463
  N  N600  1  0.208200  0.546030  0.061970  1.0  -0.4463
  N  N601  1  0.242200  0.104000  0.500000  1.0  -0.4162
  N  N602  1  0.359000  0.991600  0.500000  1.0  -0.4204
  N  N603  1  0.742200  0.604000  0.500000  1.0  -0.4162
  N  N604  1  0.859000  0.491600  0.500000  1.0  -0.4204
  N  N605  1  0.757800  0.104000  0.000000  1.0  -0.4161
  N  N606  1  0.641000  0.991600  0.000000  1.0  -0.4204
  N  N607  1  0.257800  0.604000  0.000000  1.0  -0.4161
  N  N608  1  0.141000  0.491600  0.000000  1.0  -0.4204
  N  N609  1  0.708200  0.953970  0.561970  1.0  -0.4466
  N  N610  1  0.208200  0.453970  0.561970  1.0  -0.4466
  N  N611  1  0.291800  0.953970  0.938030  1.0  -0.4458
  N  N612  1  0.791800  0.453970  0.938030  1.0  -0.4458
  N  N613  1  0.708200  0.953970  0.438030  1.0  -0.447
  N  N614  1  0.208200  0.453970  0.438030  1.0  -0.447
  N  N615  1  0.291800  0.953970  0.061970  1.0  -0.4453
  N  N616  1  0.791800  0.453970  0.061970  1.0  -0.4453
  N  N617  1  0.757800  0.896000  0.500000  1.0  -0.4154
  N  N618  1  0.641000  0.008400  0.500000  1.0  -0.4211
  N  N619  1  0.257800  0.396000  0.500000  1.0  -0.4154
  N  N620  1  0.141000  0.508400  0.500000  1.0  -0.4211
  N  N621  1  0.242200  0.896000  0.000000  1.0  -0.4155
  N  N622  1  0.359000  0.008400  0.000000  1.0  -0.4219
  N  N623  1  0.742200  0.396000  0.000000  1.0  -0.4155
  N  N624  1  0.859000  0.508400  0.000000  1.0  -0.4219
  O  O625  1  0.128200  0.252030  0.724680  1.0  -0.5682
  O  O626  1  0.990300  0.240800  0.697550  1.0  -0.5287
  O  O627  1  0.390800  0.823350  0.711150  1.0  -0.5439
  O  O628  1  0.540600  0.839680  0.703740  1.0  -0.5504
  O  O629  1  0.628200  0.752030  0.724680  1.0  -0.5682
  O  O630  1  0.490300  0.740800  0.697550  1.0  -0.5287
  O  O631  1  0.890800  0.323350  0.711150  1.0  -0.5436
  O  O632  1  0.040600  0.339680  0.703740  1.0  -0.5504
  O  O633  1  0.871800  0.252030  0.775320  1.0  -0.5683
  O  O634  1  0.009700  0.240800  0.802450  1.0  -0.5298
  O  O635  1  0.609200  0.823350  0.788850  1.0  -0.5455
  O  O636  1  0.459400  0.839680  0.796260  1.0  -0.5503
  O  O637  1  0.371800  0.752030  0.775320  1.0  -0.5683
  O  O638  1  0.509700  0.740800  0.802450  1.0  -0.5298
  O  O639  1  0.109200  0.323350  0.788850  1.0  -0.5456
  O  O640  1  0.959400  0.339680  0.796260  1.0  -0.5503
  O  O641  1  0.128200  0.252030  0.275320  1.0  -0.569
  O  O642  1  0.990300  0.240800  0.302450  1.0  -0.528
  O  O643  1  0.390800  0.823350  0.288850  1.0  -0.5449
  O  O644  1  0.540600  0.839680  0.296260  1.0  -0.55
  O  O645  1  0.628200  0.752030  0.275320  1.0  -0.569
  O  O646  1  0.490300  0.740800  0.302450  1.0  -0.528
  O  O647  1  0.890800  0.323350  0.288850  1.0  -0.5445
  O  O648  1  0.040600  0.339680  0.296260  1.0  -0.55
  O  O649  1  0.871800  0.252030  0.224680  1.0  -0.5677
  O  O650  1  0.009700  0.240800  0.197550  1.0  -0.5299
  O  O651  1  0.609200  0.823350  0.211150  1.0  -0.5451
  O  O652  1  0.459400  0.839680  0.203740  1.0  -0.5504
  O  O653  1  0.371800  0.752030  0.224680  1.0  -0.5677
  O  O654  1  0.509700  0.740800  0.197550  1.0  -0.5299
  O  O655  1  0.109200  0.323350  0.211150  1.0  -0.5452
  O  O656  1  0.959400  0.339680  0.203740  1.0  -0.5504
  O  O657  1  0.871800  0.747970  0.724680  1.0  -0.5675
  O  O658  1  0.009700  0.759200  0.697550  1.0  -0.5296
  O  O659  1  0.609200  0.176650  0.711150  1.0  -0.5442
  O  O660  1  0.459400  0.160320  0.703740  1.0  -0.55
  O  O661  1  0.371800  0.247970  0.724680  1.0  -0.5675
  O  O662  1  0.509700  0.259200  0.697550  1.0  -0.5296
  O  O663  1  0.109200  0.676650  0.711150  1.0  -0.5439
  O  O664  1  0.959400  0.660320  0.703740  1.0  -0.55
  O  O665  1  0.128200  0.747970  0.775320  1.0  -0.5694
  O  O666  1  0.990300  0.759200  0.802450  1.0  -0.5289
  O  O667  1  0.390800  0.176650  0.788850  1.0  -0.5427
  O  O668  1  0.540600  0.160320  0.796260  1.0  -0.5503
  O  O669  1  0.628200  0.247970  0.775320  1.0  -0.5694
  O  O670  1  0.490300  0.259200  0.802450  1.0  -0.5289
  O  O671  1  0.890800  0.676650  0.788850  1.0  -0.5428
  O  O672  1  0.040600  0.660320  0.796260  1.0  -0.5503
  O  O673  1  0.871800  0.747970  0.275320  1.0  -0.5686
  O  O674  1  0.009700  0.759200  0.302450  1.0  -0.5293
  O  O675  1  0.609200  0.176650  0.288850  1.0  -0.5448
  O  O676  1  0.459400  0.160320  0.296260  1.0  -0.5501
  O  O677  1  0.371800  0.247970  0.275320  1.0  -0.5686
  O  O678  1  0.509700  0.259200  0.302450  1.0  -0.5293
  O  O679  1  0.109200  0.676650  0.288850  1.0  -0.5445
  O  O680  1  0.959400  0.660320  0.296260  1.0  -0.5501
  O  O681  1  0.128200  0.747970  0.224680  1.0  -0.568
  O  O682  1  0.990300  0.759200  0.197550  1.0  -0.5292
  O  O683  1  0.390800  0.176650  0.211150  1.0  -0.5416
  O  O684  1  0.540600  0.160320  0.203740  1.0  -0.5503
  O  O685  1  0.628200  0.247970  0.224680  1.0  -0.568
  O  O686  1  0.490300  0.259200  0.197550  1.0  -0.5292
  O  O687  1  0.890800  0.676650  0.211150  1.0  -0.5417
  O  O688  1  0.040600  0.660320  0.203740  1.0  -0.5503
