# generated using pymatgen
data_Na3Co4Mo12(P4O25)2
_symmetry_space_group_name_H-M   'P 1'
_cell_length_a   12.32800000
_cell_length_b   21.57900000
_cell_length_c   26.02400000
_cell_angle_alpha   90.00000000
_cell_angle_beta   99.54000000
_cell_angle_gamma   90.00000000
_symmetry_Int_Tables_number   1
_chemical_formula_structural   Na3Co4Mo12(P4O25)2
_chemical_formula_sum   'Na12 Co16 Mo48 P32 O200'
_cell_volume   6827.31338025
_cell_formula_units_Z   4
loop_
 _symmetry_equiv_pos_site_id
 _symmetry_equiv_pos_as_xyz
  1  'x, y, z'
loop_
 _atom_site_type_symbol
 _atom_site_label
 _atom_site_symmetry_multiplicity
 _atom_site_fract_x
 _atom_site_fract_y
 _atom_site_fract_z
 _atom_site_occupancy
 _atom_site_charge
  Na  Na1  1  0.909800  0.456320  0.314100  1.0  0.9828
  Na  Na2  1  0.409800  0.956320  0.314100  1.0  0.9828
  Na  Na3  1  0.090200  0.456320  0.185900  1.0  0.9837
  Na  Na4  1  0.590200  0.956320  0.185900  1.0  0.9837
  Na  Na5  1  0.090200  0.543680  0.685900  1.0  0.9833
  Na  Na6  1  0.590200  0.043680  0.685900  1.0  0.9833
  Na  Na7  1  0.909800  0.543680  0.814100  1.0  0.9826
  Na  Na8  1  0.409800  0.043680  0.814100  1.0  0.9826
  Na  Na9  1  0.000000  0.305600  0.250000  1.0  0.9995
  Na  Na10  1  0.500000  0.805600  0.250000  1.0  0.9995
  Na  Na11  1  0.000000  0.694400  0.750000  1.0  0.9994
  Na  Na12  1  0.500000  0.194400  0.750000  1.0  0.9994
  Co  Co13  1  0.148120  0.565240  0.293010  1.0  1.0534
  Co  Co14  1  0.648120  0.065240  0.293010  1.0  1.0534
  Co  Co15  1  0.851880  0.565240  0.206990  1.0  1.0547
  Co  Co16  1  0.351880  0.065240  0.206990  1.0  1.0547
  Co  Co17  1  0.851880  0.434760  0.706990  1.0  1.0547
  Co  Co18  1  0.351880  0.934760  0.706990  1.0  1.0547
  Co  Co19  1  0.148120  0.434760  0.793010  1.0  1.0535
  Co  Co20  1  0.648120  0.934760  0.793010  1.0  1.0535
  Co  Co21  1  0.250000  0.250000  0.500000  1.0  0.986
  Co  Co22  1  0.750000  0.250000  0.000000  1.0  0.986
  Co  Co23  1  0.750000  0.750000  0.500000  1.0  0.986
  Co  Co24  1  0.250000  0.750000  0.000000  1.0  0.986
  Co  Co25  1  0.000000  0.152730  0.250000  1.0  1.0768
  Co  Co26  1  0.500000  0.652730  0.250000  1.0  1.0768
  Co  Co27  1  0.000000  0.847270  0.750000  1.0  1.0709
  Co  Co28  1  0.500000  0.347270  0.750000  1.0  1.0709
  Mo  Mo29  1  0.068710  0.357930  0.404810  1.0  1.2603
  Mo  Mo30  1  0.954890  0.263010  0.424920  1.0  1.262
  Mo  Mo31  1  0.428870  0.231760  0.394790  1.0  1.2805
  Mo  Mo32  1  0.283590  0.104380  0.424240  1.0  1.3034
  Mo  Mo33  1  0.341510  0.340500  0.389500  1.0  1.2909
  Mo  Mo34  1  0.079980  0.117450  0.436750  1.0  1.2822
  Mo  Mo35  1  0.568710  0.857930  0.404810  1.0  1.2603
  Mo  Mo36  1  0.454890  0.763010  0.424920  1.0  1.262
  Mo  Mo37  1  0.928870  0.731760  0.394790  1.0  1.2805
  Mo  Mo38  1  0.783590  0.604380  0.424240  1.0  1.3034
  Mo  Mo39  1  0.841510  0.840500  0.389500  1.0  1.2909
  Mo  Mo40  1  0.579980  0.617450  0.436750  1.0  1.2822
  Mo  Mo41  1  0.931290  0.357930  0.095190  1.0  1.262
  Mo  Mo42  1  0.045110  0.263010  0.075080  1.0  1.2645
  Mo  Mo43  1  0.571130  0.231760  0.105210  1.0  1.2824
  Mo  Mo44  1  0.716410  0.104380  0.075760  1.0  1.3041
  Mo  Mo45  1  0.658490  0.340500  0.110500  1.0  1.2904
  Mo  Mo46  1  0.920020  0.117450  0.063250  1.0  1.286
  Mo  Mo47  1  0.431290  0.857930  0.095190  1.0  1.262
  Mo  Mo48  1  0.545110  0.763010  0.075080  1.0  1.2645
  Mo  Mo49  1  0.071130  0.731760  0.105210  1.0  1.2824
  Mo  Mo50  1  0.216410  0.604380  0.075760  1.0  1.3041
  Mo  Mo51  1  0.158490  0.840500  0.110500  1.0  1.2904
  Mo  Mo52  1  0.420020  0.617450  0.063250  1.0  1.286
  Mo  Mo53  1  0.931290  0.642070  0.595190  1.0  1.261
  Mo  Mo54  1  0.045110  0.736990  0.575080  1.0  1.2629
  Mo  Mo55  1  0.571130  0.768240  0.605210  1.0  1.2828
  Mo  Mo56  1  0.716410  0.895620  0.575760  1.0  1.3031
  Mo  Mo57  1  0.658490  0.659500  0.610500  1.0  1.2871
  Mo  Mo58  1  0.920020  0.882550  0.563250  1.0  1.287
  Mo  Mo59  1  0.431290  0.142070  0.595190  1.0  1.261
  Mo  Mo60  1  0.545110  0.236990  0.575080  1.0  1.2629
  Mo  Mo61  1  0.071130  0.268240  0.605210  1.0  1.2828
  Mo  Mo62  1  0.216410  0.395620  0.575760  1.0  1.3031
  Mo  Mo63  1  0.158490  0.159500  0.610500  1.0  1.2871
  Mo  Mo64  1  0.420020  0.382550  0.563250  1.0  1.287
  Mo  Mo65  1  0.068710  0.642070  0.904810  1.0  1.2606
  Mo  Mo66  1  0.954890  0.736990  0.924920  1.0  1.2607
  Mo  Mo67  1  0.428870  0.768240  0.894790  1.0  1.2804
  Mo  Mo68  1  0.283590  0.895620  0.924240  1.0  1.3029
  Mo  Mo69  1  0.341510  0.659500  0.889500  1.0  1.2862
  Mo  Mo70  1  0.079980  0.882550  0.936750  1.0  1.2865
  Mo  Mo71  1  0.568710  0.142070  0.904810  1.0  1.2606
  Mo  Mo72  1  0.454890  0.236990  0.924920  1.0  1.2607
  Mo  Mo73  1  0.928870  0.268240  0.894790  1.0  1.2804
  Mo  Mo74  1  0.783590  0.395620  0.924240  1.0  1.3029
  Mo  Mo75  1  0.841510  0.159500  0.889500  1.0  1.2862
  Mo  Mo76  1  0.579980  0.382550  0.936750  1.0  1.2865
  P  P77  1  0.149090  0.226110  0.351370  1.0  1.8186
  P  P78  1  0.413940  0.104690  0.321820  1.0  1.8736
  P  P79  1  0.853060  0.144060  0.353110  1.0  1.7758
  P  P80  1  0.168820  0.414510  0.300560  1.0  1.9222
  P  P81  1  0.649090  0.726110  0.351370  1.0  1.8186
  P  P82  1  0.913940  0.604690  0.321820  1.0  1.8736
  P  P83  1  0.353060  0.644060  0.353110  1.0  1.7758
  P  P84  1  0.668820  0.914510  0.300560  1.0  1.9222
  P  P85  1  0.850910  0.226110  0.148630  1.0  1.8191
  P  P86  1  0.586060  0.104690  0.178180  1.0  1.8719
  P  P87  1  0.146940  0.144060  0.146890  1.0  1.7778
  P  P88  1  0.831180  0.414510  0.199440  1.0  1.9162
  P  P89  1  0.350910  0.726110  0.148630  1.0  1.8191
  P  P90  1  0.086060  0.604690  0.178180  1.0  1.8719
  P  P91  1  0.646940  0.644060  0.146890  1.0  1.7778
  P  P92  1  0.331180  0.914510  0.199440  1.0  1.9162
  P  P93  1  0.850910  0.773890  0.648630  1.0  1.8189
  P  P94  1  0.586060  0.895310  0.678180  1.0  1.8718
  P  P95  1  0.146940  0.855940  0.646890  1.0  1.7775
  P  P96  1  0.831180  0.585490  0.699440  1.0  1.916
  P  P97  1  0.350910  0.273890  0.648630  1.0  1.8189
  P  P98  1  0.086060  0.395310  0.678180  1.0  1.8718
  P  P99  1  0.646940  0.355940  0.646890  1.0  1.7775
  P  P100  1  0.331180  0.085490  0.699440  1.0  1.916
  P  P101  1  0.149090  0.773890  0.851370  1.0  1.8185
  P  P102  1  0.413940  0.895310  0.821820  1.0  1.8736
  P  P103  1  0.853060  0.855940  0.853110  1.0  1.7764
  P  P104  1  0.168820  0.585490  0.800560  1.0  1.922
  P  P105  1  0.649090  0.273890  0.851370  1.0  1.8185
  P  P106  1  0.913940  0.395310  0.821820  1.0  1.8736
  P  P107  1  0.353060  0.355940  0.853110  1.0  1.7764
  P  P108  1  0.668820  0.085490  0.800560  1.0  1.922
  O  O109  1  0.142400  0.368140  0.256420  1.0  -0.8026
  O  O110  1  0.168900  0.477850  0.276180  1.0  -0.8385
  O  O111  1  0.281800  0.400530  0.331190  1.0  -0.7125
  O  O112  1  0.740900  0.110760  0.348280  1.0  -0.6862
  O  O113  1  0.504900  0.060090  0.314230  1.0  -0.8325
  O  O114  1  0.081700  0.409840  0.338310  1.0  -0.8434
  O  O115  1  0.886900  0.155610  0.300920  1.0  -0.8056
  O  O116  1  0.145000  0.077280  0.383250  1.0  -0.6423
  O  O117  1  0.949700  0.313260  0.362570  1.0  -0.7106
  O  O118  1  0.101600  0.219360  0.294290  1.0  -0.8135
  O  O119  1  0.990200  0.183850  0.471650  1.0  -0.6515
  O  O120  1  0.383200  0.287330  0.336480  1.0  -0.6782
  O  O121  1  0.067100  0.202480  0.386140  1.0  -0.7814
  O  O122  1  0.350200  0.275640  0.444120  1.0  -0.8087
  O  O123  1  0.174600  0.295360  0.365030  1.0  -0.7965
  O  O124  1  0.841300  0.205290  0.382270  1.0  -0.696
  O  O125  1  0.256900  0.189620  0.367860  1.0  -0.7969
  O  O126  1  0.353000  0.074510  0.362540  1.0  -0.7748
  O  O127  1  0.215200  0.161340  0.469590  1.0  -0.8088
  O  O128  1  0.461500  0.168810  0.339990  1.0  -0.7365
  O  O129  1  0.231900  0.386110  0.430200  1.0  -0.6418
  O  O130  1  0.934600  0.101020  0.388690  1.0  -0.7047
  O  O131  1  0.098700  0.294440  0.459230  1.0  -0.7743
  O  O132  1  0.422800  0.155950  0.442140  1.0  -0.6001
  O  O133  1  0.334400  0.113060  0.270310  1.0  -0.6975
  O  O134  1  0.642400  0.868140  0.256420  1.0  -0.8026
  O  O135  1  0.668900  0.977850  0.276180  1.0  -0.8385
  O  O136  1  0.781800  0.900530  0.331190  1.0  -0.7125
  O  O137  1  0.240900  0.610760  0.348280  1.0  -0.6862
  O  O138  1  0.004900  0.560090  0.314230  1.0  -0.8325
  O  O139  1  0.581700  0.909840  0.338310  1.0  -0.8434
  O  O140  1  0.386900  0.655610  0.300920  1.0  -0.8056
  O  O141  1  0.645000  0.577280  0.383250  1.0  -0.6423
  O  O142  1  0.449700  0.813260  0.362570  1.0  -0.7106
  O  O143  1  0.601600  0.719360  0.294290  1.0  -0.8135
  O  O144  1  0.490200  0.683850  0.471650  1.0  -0.6515
  O  O145  1  0.883200  0.787330  0.336480  1.0  -0.6782
  O  O146  1  0.567100  0.702480  0.386140  1.0  -0.7814
  O  O147  1  0.850200  0.775640  0.444120  1.0  -0.8087
  O  O148  1  0.674600  0.795360  0.365030  1.0  -0.7965
  O  O149  1  0.341300  0.705290  0.382270  1.0  -0.696
  O  O150  1  0.756900  0.689620  0.367860  1.0  -0.7969
  O  O151  1  0.853000  0.574510  0.362540  1.0  -0.7748
  O  O152  1  0.715200  0.661340  0.469590  1.0  -0.8088
  O  O153  1  0.961500  0.668810  0.339990  1.0  -0.7365
  O  O154  1  0.731900  0.886110  0.430200  1.0  -0.6418
  O  O155  1  0.434600  0.601020  0.388690  1.0  -0.7047
  O  O156  1  0.598700  0.794440  0.459230  1.0  -0.7743
  O  O157  1  0.922800  0.655950  0.442140  1.0  -0.6001
  O  O158  1  0.834400  0.613060  0.270310  1.0  -0.6979
  O  O159  1  0.857600  0.368140  0.243580  1.0  -0.8019
  O  O160  1  0.831100  0.477850  0.223820  1.0  -0.8393
  O  O161  1  0.718200  0.400530  0.168810  1.0  -0.7115
  O  O162  1  0.259100  0.110760  0.151720  1.0  -0.6861
  O  O163  1  0.495100  0.060090  0.185770  1.0  -0.8322
  O  O164  1  0.918300  0.409840  0.161690  1.0  -0.8428
  O  O165  1  0.113100  0.155610  0.199080  1.0  -0.8057
  O  O166  1  0.855000  0.077280  0.116750  1.0  -0.6427
  O  O167  1  0.050300  0.313260  0.137430  1.0  -0.7086
  O  O168  1  0.898400  0.219360  0.205710  1.0  -0.8118
  O  O169  1  0.009800  0.183850  0.028350  1.0  -0.6518
  O  O170  1  0.616800  0.287330  0.163520  1.0  -0.6754
  O  O171  1  0.932900  0.202480  0.113860  1.0  -0.7802
  O  O172  1  0.649800  0.275640  0.055880  1.0  -0.8094
  O  O173  1  0.825400  0.295360  0.134970  1.0  -0.7979
  O  O174  1  0.158700  0.205290  0.117730  1.0  -0.6958
  O  O175  1  0.743100  0.189620  0.132140  1.0  -0.7977
  O  O176  1  0.647000  0.074510  0.137460  1.0  -0.7742
  O  O177  1  0.784800  0.161340  0.030410  1.0  -0.8099
  O  O178  1  0.538500  0.168810  0.160010  1.0  -0.737
  O  O179  1  0.768100  0.386110  0.069800  1.0  -0.6426
  O  O180  1  0.065400  0.101020  0.111310  1.0  -0.7055
  O  O181  1  0.901300  0.294440  0.040770  1.0  -0.7751
  O  O182  1  0.577200  0.155950  0.057860  1.0  -0.599
  O  O183  1  0.665600  0.113060  0.229690  1.0  -0.6991
  O  O184  1  0.357600  0.868140  0.243580  1.0  -0.8019
  O  O185  1  0.331100  0.977850  0.223820  1.0  -0.8393
  O  O186  1  0.218200  0.900530  0.168810  1.0  -0.7115
  O  O187  1  0.759100  0.610760  0.151720  1.0  -0.6861
  O  O188  1  0.995100  0.560090  0.185770  1.0  -0.8322
  O  O189  1  0.418300  0.909840  0.161690  1.0  -0.8428
  O  O190  1  0.613100  0.655610  0.199080  1.0  -0.8057
  O  O191  1  0.355000  0.577280  0.116750  1.0  -0.6427
  O  O192  1  0.550300  0.813260  0.137430  1.0  -0.7086
  O  O193  1  0.398400  0.719360  0.205710  1.0  -0.8118
  O  O194  1  0.509800  0.683850  0.028350  1.0  -0.6518
  O  O195  1  0.116800  0.787330  0.163520  1.0  -0.6754
  O  O196  1  0.432900  0.702480  0.113860  1.0  -0.7802
  O  O197  1  0.149800  0.775640  0.055880  1.0  -0.8094
  O  O198  1  0.325400  0.795360  0.134970  1.0  -0.7979
  O  O199  1  0.658700  0.705290  0.117730  1.0  -0.6958
  O  O200  1  0.243100  0.689620  0.132140  1.0  -0.7977
  O  O201  1  0.147000  0.574510  0.137460  1.0  -0.7742
  O  O202  1  0.284800  0.661340  0.030410  1.0  -0.8099
  O  O203  1  0.038500  0.668810  0.160010  1.0  -0.737
  O  O204  1  0.268100  0.886110  0.069800  1.0  -0.6426
  O  O205  1  0.565400  0.601020  0.111310  1.0  -0.7055
  O  O206  1  0.401300  0.794440  0.040770  1.0  -0.7751
  O  O207  1  0.077200  0.655950  0.057860  1.0  -0.599
  O  O208  1  0.165600  0.613060  0.229690  1.0  -0.6991
  O  O209  1  0.857600  0.631860  0.743580  1.0  -0.8018
  O  O210  1  0.831100  0.522150  0.723820  1.0  -0.839
  O  O211  1  0.718200  0.599470  0.668810  1.0  -0.7112
  O  O212  1  0.259100  0.889240  0.651720  1.0  -0.6853
  O  O213  1  0.495100  0.939910  0.685770  1.0  -0.8321
  O  O214  1  0.918300  0.590160  0.661690  1.0  -0.8431
  O  O215  1  0.113100  0.844390  0.699080  1.0  -0.8053
  O  O216  1  0.855000  0.922720  0.616750  1.0  -0.6369
  O  O217  1  0.050300  0.686740  0.637430  1.0  -0.7088
  O  O218  1  0.898400  0.780640  0.705710  1.0  -0.8125
  O  O219  1  0.009800  0.816150  0.528350  1.0  -0.652
  O  O220  1  0.616800  0.712670  0.663520  1.0  -0.6755
  O  O221  1  0.932900  0.797520  0.613860  1.0  -0.7806
  O  O222  1  0.649800  0.724360  0.555880  1.0  -0.8092
  O  O223  1  0.825400  0.704640  0.634970  1.0  -0.7977
  O  O224  1  0.158700  0.794710  0.617730  1.0  -0.6966
  O  O225  1  0.743100  0.810380  0.632140  1.0  -0.7984
  O  O226  1  0.647000  0.925490  0.637460  1.0  -0.7756
  O  O227  1  0.784800  0.838660  0.530410  1.0  -0.8097
  O  O228  1  0.538500  0.831190  0.660010  1.0  -0.7371
  O  O229  1  0.768100  0.613890  0.569800  1.0  -0.6475
  O  O230  1  0.065400  0.898980  0.611310  1.0  -0.7069
  O  O231  1  0.901300  0.705560  0.540770  1.0  -0.7767
  O  O232  1  0.577200  0.844050  0.557860  1.0  -0.5984
  O  O233  1  0.665600  0.886940  0.729690  1.0  -0.6996
  O  O234  1  0.357600  0.131860  0.743580  1.0  -0.8018
  O  O235  1  0.331100  0.022150  0.723820  1.0  -0.839
  O  O236  1  0.218200  0.099470  0.668810  1.0  -0.7112
  O  O237  1  0.759100  0.389240  0.651720  1.0  -0.6853
  O  O238  1  0.995100  0.439910  0.685770  1.0  -0.8321
  O  O239  1  0.418300  0.090160  0.661690  1.0  -0.8431
  O  O240  1  0.613100  0.344390  0.699080  1.0  -0.8053
  O  O241  1  0.355000  0.422720  0.616750  1.0  -0.6369
  O  O242  1  0.550300  0.186740  0.637430  1.0  -0.7088
  O  O243  1  0.398400  0.280640  0.705710  1.0  -0.8125
  O  O244  1  0.509800  0.316150  0.528350  1.0  -0.652
  O  O245  1  0.116800  0.212670  0.663520  1.0  -0.6755
  O  O246  1  0.432900  0.297520  0.613860  1.0  -0.7806
  O  O247  1  0.149800  0.224360  0.555880  1.0  -0.8092
  O  O248  1  0.325400  0.204640  0.634970  1.0  -0.7977
  O  O249  1  0.658700  0.294710  0.617730  1.0  -0.6966
  O  O250  1  0.243100  0.310380  0.632140  1.0  -0.7984
  O  O251  1  0.147000  0.425490  0.637460  1.0  -0.7756
  O  O252  1  0.284800  0.338660  0.530410  1.0  -0.8097
  O  O253  1  0.038500  0.331190  0.660010  1.0  -0.7371
  O  O254  1  0.268100  0.113890  0.569800  1.0  -0.6475
  O  O255  1  0.565400  0.398980  0.611310  1.0  -0.7069
  O  O256  1  0.401300  0.205560  0.540770  1.0  -0.7767
  O  O257  1  0.077200  0.344050  0.557860  1.0  -0.5984
  O  O258  1  0.165600  0.386940  0.729690  1.0  -0.7
  O  O259  1  0.142400  0.631860  0.756420  1.0  -0.8021
  O  O260  1  0.168900  0.522150  0.776180  1.0  -0.8386
  O  O261  1  0.281800  0.599470  0.831190  1.0  -0.7128
  O  O262  1  0.740900  0.889240  0.848280  1.0  -0.6863
  O  O263  1  0.504900  0.939910  0.814230  1.0  -0.8324
  O  O264  1  0.081700  0.590160  0.838310  1.0  -0.8435
  O  O265  1  0.886900  0.844390  0.800920  1.0  -0.8051
  O  O266  1  0.145000  0.922720  0.883250  1.0  -0.6378
  O  O267  1  0.949700  0.686740  0.862570  1.0  -0.7111
  O  O268  1  0.101600  0.780640  0.794290  1.0  -0.8142
  O  O269  1  0.990200  0.816150  0.971650  1.0  -0.6511
  O  O270  1  0.383200  0.712670  0.836480  1.0  -0.6776
  O  O271  1  0.067100  0.797520  0.886140  1.0  -0.7817
  O  O272  1  0.350200  0.724360  0.944120  1.0  -0.8095
  O  O273  1  0.174600  0.704640  0.865030  1.0  -0.7967
  O  O274  1  0.841300  0.794710  0.882270  1.0  -0.695
  O  O275  1  0.256900  0.810380  0.867860  1.0  -0.7975
  O  O276  1  0.353000  0.925490  0.862540  1.0  -0.7761
  O  O277  1  0.215200  0.838660  0.969590  1.0  -0.8084
  O  O278  1  0.461500  0.831190  0.839990  1.0  -0.7365
  O  O279  1  0.231900  0.613890  0.930200  1.0  -0.6492
  O  O280  1  0.934600  0.898980  0.888690  1.0  -0.7058
  O  O281  1  0.098700  0.705560  0.959230  1.0  -0.7748
  O  O282  1  0.422800  0.844050  0.942140  1.0  -0.5993
  O  O283  1  0.334400  0.886940  0.770310  1.0  -0.6975
  O  O284  1  0.642400  0.131860  0.756420  1.0  -0.8021
  O  O285  1  0.668900  0.022150  0.776180  1.0  -0.8386
  O  O286  1  0.781800  0.099470  0.831190  1.0  -0.7128
  O  O287  1  0.240900  0.389240  0.848280  1.0  -0.6863
  O  O288  1  0.004900  0.439910  0.814230  1.0  -0.8324
  O  O289  1  0.581700  0.090160  0.838310  1.0  -0.8435
  O  O290  1  0.386900  0.344390  0.800920  1.0  -0.8051
  O  O291  1  0.645000  0.422720  0.883250  1.0  -0.6378
  O  O292  1  0.449700  0.186740  0.862570  1.0  -0.7111
  O  O293  1  0.601600  0.280640  0.794290  1.0  -0.8142
  O  O294  1  0.490200  0.316150  0.971650  1.0  -0.6511
  O  O295  1  0.883200  0.212670  0.836480  1.0  -0.6776
  O  O296  1  0.567100  0.297520  0.886140  1.0  -0.7817
  O  O297  1  0.850200  0.224360  0.944120  1.0  -0.8095
  O  O298  1  0.674600  0.204640  0.865030  1.0  -0.7967
  O  O299  1  0.341300  0.294710  0.882270  1.0  -0.695
  O  O300  1  0.756900  0.310380  0.867860  1.0  -0.7975
  O  O301  1  0.853000  0.425490  0.862540  1.0  -0.7761
  O  O302  1  0.715200  0.338660  0.969590  1.0  -0.8084
  O  O303  1  0.961500  0.331190  0.839990  1.0  -0.7365
  O  O304  1  0.731900  0.113890  0.930200  1.0  -0.6492
  O  O305  1  0.434600  0.398980  0.888690  1.0  -0.7058
  O  O306  1  0.598700  0.205560  0.959230  1.0  -0.7748
  O  O307  1  0.922800  0.344050  0.942140  1.0  -0.5993
  O  O308  1  0.834400  0.386940  0.770310  1.0  -0.6975
