# generated using pymatgen
data_LaCoH18C36(NO2)6
_symmetry_space_group_name_H-M   'P 1'
_cell_length_a   18.31390000
_cell_length_b   18.31390000
_cell_length_c   21.68530000
_cell_angle_alpha   110.38300000
_cell_angle_beta   110.38300000
_cell_angle_gamma   100.09000000
_symmetry_Int_Tables_number   1
_chemical_formula_structural   LaCoH18C36(NO2)6
_chemical_formula_sum   'La4 Co4 H72 C144 N24 O48'
_cell_volume   6016.07996912
_cell_formula_units_Z   4
loop_
 _symmetry_equiv_pos_site_id
 _symmetry_equiv_pos_as_xyz
  1  'x, y, z'
loop_
 _atom_site_type_symbol
 _atom_site_label
 _atom_site_symmetry_multiplicity
 _atom_site_fract_x
 _atom_site_fract_y
 _atom_site_fract_z
 _atom_site_occupancy
 _atom_site_charge
  La  La1  1  0.146690  0.396690  0.750000  1.0  2.0721
  La  La2  1  0.603310  0.853310  0.750000  1.0  2.0718
  La  La3  1  0.853310  0.603310  0.250000  1.0  2.0718
  La  La4  1  0.396690  0.146690  0.250000  1.0  2.0721
  Co  Co5  1  0.641380  0.358620  0.750000  1.0  0.3442
  Co  Co6  1  0.108620  0.891380  0.750000  1.0  0.3442
  Co  Co7  1  0.358620  0.641380  0.250000  1.0  0.3442
  Co  Co8  1  0.891380  0.108620  0.250000  1.0  0.3442
  H  H9  1  0.820900  0.410900  0.862600  1.0  0.1006
  H  H10  1  0.944500  0.410700  0.857000  1.0  0.1171
  H  H11  1  0.827000  0.325000  0.638000  1.0  0.1303
  H  H12  1  0.707300  0.301700  0.545000  1.0  0.1256
  H  H13  1  0.462900  0.263900  0.484800  1.0  0.1202
  H  H14  1  0.488700  0.303100  0.606400  1.0  0.0909
  H  H15  1  0.008800  0.759400  0.773200  1.0  0.1075
  H  H16  1  0.018200  0.635000  0.773600  1.0  0.1153
  H  H17  1  0.229200  0.677600  0.750400  1.0  0.1271
  H  H18  1  0.041700  0.951700  0.862600  1.0  0.1022
  H  H19  1  0.912500  0.946300  0.857000  1.0  0.1166
  H  H20  1  0.811000  0.813000  0.638000  1.0  0.1306
  H  H21  1  0.837700  0.743300  0.545000  1.0  0.1258
  H  H22  1  0.021900  0.720900  0.484800  1.0  0.1201
  H  H23  1  0.117700  0.803300  0.606400  1.0  0.0926
  H  H24  1  0.764400  0.513800  0.773200  1.0  0.108
  H  H25  1  0.755400  0.638600  0.773600  1.0  0.1152
  H  H26  1  0.521200  0.572800  0.750400  1.0  0.1277
  H  H27  1  0.589100  0.179100  0.637400  1.0  0.1043
  H  H28  1  0.589300  0.055500  0.643000  1.0  0.1167
  H  H29  1  0.675000  0.173000  0.862000  1.0  0.1308
  H  H30  1  0.698300  0.292700  0.955000  1.0  0.1249
  H  H31  1  0.736100  0.537100  0.015200  1.0  0.12
  H  H32  1  0.696900  0.511300  0.893600  1.0  0.0939
  H  H33  1  0.240600  0.991200  0.726800  1.0  0.109
  H  H34  1  0.365000  0.981800  0.726400  1.0  0.1161
  H  H35  1  0.322400  0.770800  0.749600  1.0  0.1278
  H  H36  1  0.048300  0.958300  0.637400  1.0  0.1018
  H  H37  1  0.053700  0.087500  0.643000  1.0  0.1166
  H  H38  1  0.187000  0.189000  0.862000  1.0  0.1303
  H  H39  1  0.256700  0.162300  0.955000  1.0  0.1239
  H  H40  1  0.279100  0.978100  0.015200  1.0  0.1203
  H  H41  1  0.196700  0.882300  0.893600  1.0  0.0937
  H  H42  1  0.486200  0.235600  0.726800  1.0  0.1072
  H  H43  1  0.361400  0.244600  0.726400  1.0  0.116
  H  H44  1  0.427200  0.478800  0.749600  1.0  0.1289
  H  H45  1  0.179100  0.589100  0.137400  1.0  0.1016
  H  H46  1  0.055500  0.589300  0.143000  1.0  0.117
  H  H47  1  0.173000  0.675000  0.362000  1.0  0.1307
  H  H48  1  0.292700  0.698300  0.455000  1.0  0.1254
  H  H49  1  0.537100  0.736100  0.515200  1.0  0.1192
  H  H50  1  0.511300  0.696900  0.393600  1.0  0.0913
  H  H51  1  0.991200  0.240600  0.226800  1.0  0.1086
  H  H52  1  0.981800  0.365000  0.226400  1.0  0.1154
  H  H53  1  0.770800  0.322400  0.249600  1.0  0.1267
  H  H54  1  0.958300  0.048300  0.137400  1.0  0.1017
  H  H55  1  0.087500  0.053700  0.143000  1.0  0.1164
  H  H56  1  0.189000  0.187000  0.362000  1.0  0.1307
  H  H57  1  0.162300  0.256700  0.455000  1.0  0.1262
  H  H58  1  0.978100  0.279100  0.515200  1.0  0.1207
  H  H59  1  0.882300  0.196700  0.393600  1.0  0.0939
  H  H60  1  0.235600  0.486200  0.226800  1.0  0.1073
  H  H61  1  0.244600  0.361400  0.226400  1.0  0.1155
  H  H62  1  0.478800  0.427200  0.249600  1.0  0.1275
  H  H63  1  0.410900  0.820900  0.362600  1.0  0.1058
  H  H64  1  0.410700  0.944500  0.357000  1.0  0.117
  H  H65  1  0.325000  0.827000  0.138000  1.0  0.1309
  H  H66  1  0.301700  0.707300  0.045000  1.0  0.1256
  H  H67  1  0.263900  0.462900  0.984800  1.0  0.1197
  H  H68  1  0.303100  0.488700  0.106400  1.0  0.0942
  H  H69  1  0.759400  0.008800  0.273200  1.0  0.109
  H  H70  1  0.635000  0.018200  0.273600  1.0  0.1158
  H  H71  1  0.677600  0.229200  0.250400  1.0  0.1289
  H  H72  1  0.951700  0.041700  0.362600  1.0  0.1023
  H  H73  1  0.946300  0.912500  0.357000  1.0  0.116
  H  H74  1  0.813000  0.811000  0.138000  1.0  0.1309
  H  H75  1  0.743300  0.837700  0.045000  1.0  0.1257
  H  H76  1  0.720900  0.021900  0.984800  1.0  0.1203
  H  H77  1  0.803300  0.117700  0.106400  1.0  0.0936
  H  H78  1  0.513800  0.764400  0.273200  1.0  0.1081
  H  H79  1  0.638600  0.755400  0.273600  1.0  0.1161
  H  H80  1  0.572800  0.521200  0.250400  1.0  0.1285
  C  C81  1  0.821800  0.392800  0.816200  1.0  0.1526
  C  C82  1  0.895700  0.392900  0.813200  1.0  -0.0885
  C  C83  1  0.898600  0.368000  0.748800  1.0  -0.1306
  C  C84  1  0.826200  0.342600  0.684400  1.0  -0.0718
  C  C85  1  0.752840  0.343640  0.690280  1.0  0.1997
  C  C86  1  0.673200  0.320800  0.628400  1.0  0.1768
  C  C87  1  0.661800  0.300600  0.556600  1.0  -0.0862
  C  C88  1  0.581920  0.278720  0.502040  1.0  -0.1368
  C  C89  1  0.517600  0.279200  0.521200  1.0  -0.0969
  C  C90  1  0.533200  0.301800  0.593600  1.0  0.1658
  C  C91  1  0.979240  0.366440  0.743680  1.0  0.7149
  C  C92  1  0.568900  0.260500  0.424800  1.0  0.7379
  C  C93  1  0.053000  0.742200  0.767200  1.0  0.1449
  C  C94  1  0.058800  0.668400  0.767800  1.0  -0.0493
  C  C95  1  0.123400  0.642200  0.759600  1.0  -0.1078
  C  C96  1  0.183200  0.692600  0.753800  1.0  -0.0674
  C  C97  1  0.174300  0.766700  0.753200  1.0  0.1607
  C  C98  1  0.129200  0.558800  0.756800  1.0  0.7187
  C  C99  1  0.994400  0.923400  0.816200  1.0  0.1516
  C  C100  1  0.917500  0.920300  0.813200  1.0  -0.0894
  C  C101  1  0.850200  0.880800  0.748800  1.0  -0.1307
  C  C102  1  0.858200  0.841800  0.684400  1.0  -0.0703
  C  C103  1  0.937440  0.846640  0.690280  1.0  0.1993
  C  C104  1  0.955200  0.807600  0.628400  1.0  0.1765
  C  C105  1  0.894800  0.756000  0.556600  1.0  -0.0842
  C  C106  1  0.920120  0.723320  0.502040  1.0  -0.143
  C  C107  1  0.003600  0.742000  0.521200  1.0  -0.0961
  C  C108  1  0.060400  0.791800  0.593600  1.0  0.162
  C  C109  1  0.764440  0.877240  0.743680  1.0  0.7149
  C  C110  1  0.855900  0.664300  0.424800  1.0  0.7304
  C  C111  1  0.714200  0.525000  0.767200  1.0  0.1444
  C  C112  1  0.709000  0.599400  0.767800  1.0  -0.0468
  C  C113  1  0.636200  0.617400  0.759600  1.0  -0.107
  C  C114  1  0.570600  0.561200  0.753800  1.0  -0.0696
  C  C115  1  0.578900  0.486500  0.753200  1.0  0.1613
  C  C116  1  0.627600  0.698000  0.756800  1.0  0.7202
  C  C117  1  0.607200  0.178200  0.683800  1.0  0.153
  C  C118  1  0.607100  0.104300  0.686800  1.0  -0.0842
  C  C119  1  0.632000  0.101400  0.751200  1.0  -0.1316
  C  C120  1  0.657400  0.173800  0.815600  1.0  -0.0731
  C  C121  1  0.656360  0.247160  0.809720  1.0  0.2005
  C  C122  1  0.679200  0.326800  0.871600  1.0  0.1793
  C  C123  1  0.699400  0.338200  0.943400  1.0  -0.0855
  C  C124  1  0.721280  0.418080  0.997960  1.0  -0.1374
  C  C125  1  0.720800  0.482400  0.978800  1.0  -0.0952
  C  C126  1  0.698200  0.466800  0.906400  1.0  0.1622
  C  C127  1  0.633560  0.020760  0.756320  1.0  0.7171
  C  C128  1  0.739500  0.431100  0.075200  1.0  0.7351
  C  C129  1  0.257800  0.947000  0.732800  1.0  0.1438
  C  C130  1  0.331600  0.941200  0.732200  1.0  -0.0534
  C  C131  1  0.357800  0.876600  0.740400  1.0  -0.1096
  C  C132  1  0.307400  0.816800  0.746200  1.0  -0.0677
  C  C133  1  0.233300  0.825700  0.746800  1.0  0.1636
  C  C134  1  0.441200  0.870800  0.743200  1.0  0.7204
  C  C135  1  0.076600  0.005600  0.683800  1.0  0.1543
  C  C136  1  0.079700  0.082500  0.686800  1.0  -0.0849
  C  C137  1  0.119200  0.149800  0.751200  1.0  -0.1297
  C  C138  1  0.158200  0.141800  0.815600  1.0  -0.0695
  C  C139  1  0.153360  0.062560  0.809720  1.0  0.2014
  C  C140  1  0.192400  0.044800  0.871600  1.0  0.1779
  C  C141  1  0.244000  0.105200  0.943400  1.0  -0.0824
  C  C142  1  0.276680  0.079880  0.997960  1.0  -0.1432
  C  C143  1  0.258000  0.996400  0.978800  1.0  -0.0939
  C  C144  1  0.208200  0.939600  0.906400  1.0  0.1645
  C  C145  1  0.122760  0.235560  0.756320  1.0  0.7165
  C  C146  1  0.335700  0.144100  0.075200  1.0  0.7317
  C  C147  1  0.475000  0.285800  0.732800  1.0  0.1445
  C  C148  1  0.400600  0.291000  0.732200  1.0  -0.0514
  C  C149  1  0.382600  0.363800  0.740400  1.0  -0.1081
  C  C150  1  0.438800  0.429400  0.746200  1.0  -0.0692
  C  C151  1  0.513500  0.421100  0.746800  1.0  0.1637
  C  C152  1  0.302000  0.372400  0.743200  1.0  0.7186
  C  C153  1  0.178200  0.607200  0.183800  1.0  0.1551
  C  C154  1  0.104300  0.607100  0.186800  1.0  -0.0851
  C  C155  1  0.101400  0.632000  0.251200  1.0  -0.1304
  C  C156  1  0.173800  0.657400  0.315600  1.0  -0.0741
  C  C157  1  0.247160  0.656360  0.309720  1.0  0.1989
  C  C158  1  0.326800  0.679200  0.371600  1.0  0.1778
  C  C159  1  0.338200  0.699400  0.443400  1.0  -0.0867
  C  C160  1  0.418080  0.721280  0.497960  1.0  -0.1371
  C  C161  1  0.482400  0.720800  0.478800  1.0  -0.0954
  C  C162  1  0.466800  0.698200  0.406400  1.0  0.1649
  C  C163  1  0.020760  0.633560  0.256320  1.0  0.7144
  C  C164  1  0.431100  0.739500  0.575200  1.0  0.735
  C  C165  1  0.947000  0.257800  0.232800  1.0  0.1459
  C  C166  1  0.941200  0.331600  0.232200  1.0  -0.0485
  C  C167  1  0.876600  0.357800  0.240400  1.0  -0.1069
  C  C168  1  0.816800  0.307400  0.246200  1.0  -0.0704
  C  C169  1  0.825700  0.233300  0.246800  1.0  0.1605
  C  C170  1  0.870800  0.441200  0.243200  1.0  0.7186
  C  C171  1  0.005600  0.076600  0.183800  1.0  0.1531
  C  C172  1  0.082500  0.079700  0.186800  1.0  -0.0878
  C  C173  1  0.149800  0.119200  0.251200  1.0  -0.1307
  C  C174  1  0.141800  0.158200  0.315600  1.0  -0.0689
  C  C175  1  0.062560  0.153360  0.309720  1.0  0.2014
  C  C176  1  0.044800  0.192400  0.371600  1.0  0.1765
  C  C177  1  0.105200  0.244000  0.443400  1.0  -0.082
  C  C178  1  0.079880  0.276680  0.497960  1.0  -0.1429
  C  C179  1  0.996400  0.258000  0.478800  1.0  -0.096
  C  C180  1  0.939600  0.208200  0.406400  1.0  0.1624
  C  C181  1  0.235560  0.122760  0.256320  1.0  0.716
  C  C182  1  0.144100  0.335700  0.575200  1.0  0.7301
  C  C183  1  0.285800  0.475000  0.232800  1.0  0.144
  C  C184  1  0.291000  0.400600  0.232200  1.0  -0.0479
  C  C185  1  0.363800  0.382600  0.240400  1.0  -0.1077
  C  C186  1  0.429400  0.438800  0.246200  1.0  -0.0658
  C  C187  1  0.421100  0.513500  0.246800  1.0  0.1606
  C  C188  1  0.372400  0.302000  0.243200  1.0  0.7201
  C  C189  1  0.392800  0.821800  0.316200  1.0  0.1509
  C  C190  1  0.392900  0.895700  0.313200  1.0  -0.0873
  C  C191  1  0.368000  0.898600  0.248800  1.0  -0.1303
  C  C192  1  0.342600  0.826200  0.184400  1.0  -0.072
  C  C193  1  0.343640  0.752840  0.190280  1.0  0.2001
  C  C194  1  0.320800  0.673200  0.128400  1.0  0.1771
  C  C195  1  0.300600  0.661800  0.056600  1.0  -0.0836
  C  C196  1  0.278720  0.581920  0.002040  1.0  -0.1369
  C  C197  1  0.279200  0.517600  0.021200  1.0  -0.0965
  C  C198  1  0.301800  0.533200  0.093600  1.0  0.1628
  C  C199  1  0.366440  0.979240  0.243680  1.0  0.7175
  C  C200  1  0.260500  0.568900  0.924800  1.0  0.7371
  C  C201  1  0.742200  0.053000  0.267200  1.0  0.1413
  C  C202  1  0.668400  0.058800  0.267800  1.0  -0.0535
  C  C203  1  0.642200  0.123400  0.259600  1.0  -0.1096
  C  C204  1  0.692600  0.183200  0.253800  1.0  -0.068
  C  C205  1  0.766700  0.174300  0.253200  1.0  0.1629
  C  C206  1  0.558800  0.129200  0.256800  1.0  0.7205
  C  C207  1  0.923400  0.994400  0.316200  1.0  0.1527
  C  C208  1  0.920300  0.917500  0.313200  1.0  -0.0887
  C  C209  1  0.880800  0.850200  0.248800  1.0  -0.1305
  C  C210  1  0.841800  0.858200  0.184400  1.0  -0.069
  C  C211  1  0.846640  0.937440  0.190280  1.0  0.2003
  C  C212  1  0.807600  0.955200  0.128400  1.0  0.176
  C  C213  1  0.756000  0.894800  0.056600  1.0  -0.0842
  C  C214  1  0.723320  0.920120  0.002040  1.0  -0.1434
  C  C215  1  0.742000  0.003600  0.021200  1.0  -0.0957
  C  C216  1  0.791800  0.060400  0.093600  1.0  0.1635
  C  C217  1  0.877240  0.764440  0.243680  1.0  0.716
  C  C218  1  0.664300  0.855900  0.924800  1.0  0.7309
  C  C219  1  0.525000  0.714200  0.267200  1.0  0.1457
  C  C220  1  0.599400  0.709000  0.267800  1.0  -0.0505
  C  C221  1  0.617400  0.636200  0.259600  1.0  -0.1091
  C  C222  1  0.561200  0.570600  0.253800  1.0  -0.0688
  C  C223  1  0.486500  0.578900  0.253200  1.0  0.1643
  C  C224  1  0.698000  0.627600  0.256800  1.0  0.7203
  N  N225  1  0.751130  0.367930  0.755460  1.0  -0.3039
  N  N226  1  0.609000  0.321800  0.646400  1.0  -0.3226
  N  N227  1  0.109290  0.790290  0.758580  1.0  -0.32
  N  N228  1  0.004330  0.887530  0.755460  1.0  -0.3084
  N  N229  1  0.037400  0.824600  0.646400  1.0  -0.3244
  N  N230  1  0.649290  0.468290  0.758580  1.0  -0.3217
  N  N231  1  0.632070  0.248870  0.744540  1.0  -0.3088
  N  N232  1  0.678200  0.391000  0.853600  1.0  -0.3262
  N  N233  1  0.209710  0.890710  0.741420  1.0  -0.3189
  N  N234  1  0.112470  0.995670  0.744540  1.0  -0.3059
  N  N235  1  0.175400  0.962600  0.853600  1.0  -0.3254
  N  N236  1  0.531710  0.350710  0.741420  1.0  -0.3176
  N  N237  1  0.248870  0.632070  0.244540  1.0  -0.3066
  N  N238  1  0.391000  0.678200  0.353600  1.0  -0.3245
  N  N239  1  0.890710  0.209710  0.241420  1.0  -0.3209
  N  N240  1  0.995670  0.112470  0.244540  1.0  -0.3063
  N  N241  1  0.962600  0.175400  0.353600  1.0  -0.3262
  N  N242  1  0.350710  0.531710  0.241420  1.0  -0.3206
  N  N243  1  0.367930  0.751130  0.255460  1.0  -0.3093
  N  N244  1  0.321800  0.609000  0.146400  1.0  -0.3241
  N  N245  1  0.790290  0.109290  0.258580  1.0  -0.3192
  N  N246  1  0.887530  0.004330  0.255460  1.0  -0.3061
  N  N247  1  0.824600  0.037400  0.146400  1.0  -0.3235
  N  N248  1  0.468290  0.649290  0.258580  1.0  -0.3169
  O  O249  1  0.037890  0.375690  0.798780  1.0  -0.5915
  O  O250  1  0.983830  0.358230  0.684860  1.0  -0.6214
  O  O251  1  0.631720  0.275720  0.413040  1.0  -0.5022
  O  O252  1  0.495190  0.231990  0.377780  1.0  -0.7055
  O  O253  1  0.090000  0.525400  0.784000  1.0  -0.6159
  O  O254  1  0.172510  0.530510  0.730820  1.0  -0.5938
  O  O255  1  0.760890  0.923090  0.798780  1.0  -0.593
  O  O256  1  0.701030  0.826630  0.684860  1.0  -0.6259
  O  O257  1  0.781320  0.637320  0.413040  1.0  -0.5005
  O  O258  1  0.882590  0.645790  0.377780  1.0  -0.7066
  O  O259  1  0.694000  0.758600  0.784000  1.0  -0.6154
  O  O260  1  0.558310  0.700310  0.730820  1.0  -0.599
  O  O261  1  0.624310  0.962110  0.701220  1.0  -0.5918
  O  O262  1  0.641770  0.016170  0.815140  1.0  -0.6196
  O  O263  1  0.724280  0.368280  0.086960  1.0  -0.5044
  O  O264  1  0.768010  0.504810  0.122220  1.0  -0.7071
  O  O265  1  0.474600  0.910000  0.716000  1.0  -0.6163
  O  O266  1  0.469490  0.827490  0.769180  1.0  -0.5936
  O  O267  1  0.076910  0.239110  0.701220  1.0  -0.5908
  O  O268  1  0.173370  0.298970  0.815140  1.0  -0.6212
  O  O269  1  0.362680  0.218680  0.086960  1.0  -0.4984
  O  O270  1  0.354210  0.117410  0.122220  1.0  -0.7063
  O  O271  1  0.241400  0.306000  0.716000  1.0  -0.6141
  O  O272  1  0.299690  0.441690  0.769180  1.0  -0.5883
  O  O273  1  0.962110  0.624310  0.201220  1.0  -0.5895
  O  O274  1  0.016170  0.641770  0.315140  1.0  -0.6221
  O  O275  1  0.368280  0.724280  0.586960  1.0  -0.5056
  O  O276  1  0.504810  0.768010  0.622220  1.0  -0.7068
  O  O277  1  0.910000  0.474600  0.216000  1.0  -0.6146
  O  O278  1  0.827490  0.469490  0.269180  1.0  -0.5962
  O  O279  1  0.239110  0.076910  0.201220  1.0  -0.5924
  O  O280  1  0.298970  0.173370  0.315140  1.0  -0.6237
  O  O281  1  0.218680  0.362680  0.586960  1.0  -0.5007
  O  O282  1  0.117410  0.354210  0.622220  1.0  -0.7059
  O  O283  1  0.306000  0.241400  0.216000  1.0  -0.6151
  O  O284  1  0.441690  0.299690  0.269180  1.0  -0.5957
  O  O285  1  0.375690  0.037890  0.298780  1.0  -0.5935
  O  O286  1  0.358230  0.983830  0.184860  1.0  -0.6186
  O  O287  1  0.275720  0.631720  0.913040  1.0  -0.5021
  O  O288  1  0.231990  0.495190  0.877780  1.0  -0.7085
  O  O289  1  0.525400  0.090000  0.284000  1.0  -0.6172
  O  O290  1  0.530510  0.172510  0.230820  1.0  -0.5916
  O  O291  1  0.923090  0.760890  0.298780  1.0  -0.5922
  O  O292  1  0.826630  0.701030  0.184860  1.0  -0.6239
  O  O293  1  0.637320  0.781320  0.913040  1.0  -0.5006
  O  O294  1  0.645790  0.882590  0.877780  1.0  -0.7057
  O  O295  1  0.758600  0.694000  0.284000  1.0  -0.6155
  O  O296  1  0.700310  0.558310  0.230820  1.0  -0.5885
