# generated using pymatgen
data_Ag2H22C11S2(N2O3)2
_symmetry_space_group_name_H-M   'P 1'
_cell_length_a   6.73380000
_cell_length_b   16.69030000
_cell_length_c   16.69030000
_cell_angle_alpha   87.66780000
_cell_angle_beta   78.36220000
_cell_angle_gamma   78.36200000
_symmetry_Int_Tables_number   1
_chemical_formula_structural   Ag2H22C11S2(N2O3)2
_chemical_formula_sum   'Ag8 H88 C44 S8 N16 O24'
_cell_volume   1799.47562902
_cell_formula_units_Z   4
loop_
 _symmetry_equiv_pos_site_id
 _symmetry_equiv_pos_as_xyz
  1  'x, y, z'
loop_
 _atom_site_type_symbol
 _atom_site_label
 _atom_site_symmetry_multiplicity
 _atom_site_fract_x
 _atom_site_fract_y
 _atom_site_fract_z
 _atom_site_occupancy
 _atom_site_charge
  Ag  Ag1  1  0.916320  0.890960  0.382560  1.0  0.4182
  Ag  Ag2  1  0.189840  0.609040  0.117440  1.0  0.4201
  Ag  Ag3  1  0.298880  0.117440  0.890960  1.0  0.42
  Ag  Ag4  1  0.307280  0.382560  0.609040  1.0  0.4197
  Ag  Ag5  1  0.083680  0.109040  0.617440  1.0  0.4178
  Ag  Ag6  1  0.810160  0.390960  0.882560  1.0  0.4197
  Ag  Ag7  1  0.701120  0.882560  0.109040  1.0  0.4193
  Ag  Ag8  1  0.692720  0.617440  0.390960  1.0  0.4192
  H  H9  1  0.869600  0.762300  0.600900  1.0  0.1687
  H  H10  1  0.664300  0.824900  0.622300  1.0  0.1429
  H  H11  1  0.809200  0.891600  0.625400  1.0  0.0831
  H  H12  1  0.009100  0.832700  0.585700  1.0  0.0823
  H  H13  1  0.653000  0.999100  0.539700  1.0  0.0929
  H  H14  1  0.803300  0.016400  0.594800  1.0  0.0458
  H  H15  1  0.152500  0.946100  0.573100  1.0  0.069
  H  H16  1  0.236800  0.880700  0.503100  1.0  0.0848
  H  H17  1  0.236800  0.721500  0.390300  1.0  0.0869
  H  H18  1  0.369600  0.789100  0.387700  1.0  0.0817
  H  H19  1  0.042000  0.714000  0.290000  1.0  0.0928
  H  H20  1  0.232800  0.737700  0.899100  1.0  0.1654
  H  H21  1  0.111500  0.675100  0.877700  1.0  0.1423
  H  H22  1  0.326200  0.608400  0.874600  1.0  0.0836
  H  H23  1  0.427500  0.667300  0.914300  1.0  0.0816
  H  H24  1  0.191800  0.500900  0.960300  1.0  0.0929
  H  H25  1  0.414500  0.483600  0.905200  1.0  0.0453
  H  H26  1  0.671700  0.553900  0.926900  1.0  0.0667
  H  H27  1  0.620600  0.619300  0.996900  1.0  0.0817
  H  H28  1  0.348600  0.778500  0.109700  1.0  0.0858
  H  H29  1  0.546400  0.710900  0.112300  1.0  0.0818
  H  H30  1  0.046000  0.786000  0.210000  1.0  0.0925
  H  H31  1  0.470500  0.899100  0.762300  1.0  0.1651
  H  H32  1  0.286600  0.877700  0.824900  1.0  0.1407
  H  H33  1  0.434600  0.874600  0.891600  1.0  0.0838
  H  H34  1  0.594800  0.914300  0.832700  1.0  0.0803
  H  H35  1  0.192700  0.960300  0.999100  1.0  0.0932
  H  H36  1  0.398100  0.905200  0.016400  1.0  0.043
  H  H37  1  0.725600  0.926900  0.946100  1.0  0.0697
  H  H38  1  0.739900  0.996900  0.880700  1.0  0.0838
  H  H39  1  0.627100  0.109700  0.721500  1.0  0.0847
  H  H40  1  0.757300  0.112300  0.789100  1.0  0.0807
  H  H41  1  0.332000  0.210000  0.714000  1.0  0.0926
  H  H42  1  0.131900  0.600900  0.737700  1.0  0.1613
  H  H43  1  0.989200  0.622300  0.675100  1.0  0.1411
  H  H44  1  0.200800  0.625400  0.608400  1.0  0.0814
  H  H45  1  0.341800  0.585700  0.667300  1.0  0.0816
  H  H46  1  0.152100  0.539700  0.500900  1.0  0.0933
  H  H47  1  0.319700  0.594800  0.483600  1.0  0.0442
  H  H48  1  0.598600  0.573100  0.553900  1.0  0.0665
  H  H49  1  0.617500  0.503100  0.619300  1.0  0.084
  H  H50  1  0.458300  0.390300  0.778500  1.0  0.085
  H  H51  1  0.658700  0.387700  0.710900  1.0  0.0813
  H  H52  1  0.256000  0.290000  0.786000  1.0  0.093
  H  H53  1  0.130400  0.237700  0.399100  1.0  0.1658
  H  H54  1  0.335700  0.175100  0.377700  1.0  0.1426
  H  H55  1  0.190800  0.108400  0.374600  1.0  0.083
  H  H56  1  0.990900  0.167300  0.414300  1.0  0.0801
  H  H57  1  0.347000  0.000900  0.460300  1.0  0.0953
  H  H58  1  0.196700  0.983600  0.405200  1.0  0.0458
  H  H59  1  0.847500  0.053900  0.426900  1.0  0.0683
  H  H60  1  0.763200  0.119300  0.496900  1.0  0.0839
  H  H61  1  0.763200  0.278500  0.609700  1.0  0.0871
  H  H62  1  0.630400  0.210900  0.612300  1.0  0.0828
  H  H63  1  0.958000  0.286000  0.710000  1.0  0.0918
  H  H64  1  0.767200  0.262300  0.100900  1.0  0.1671
  H  H65  1  0.888500  0.324900  0.122300  1.0  0.1426
  H  H66  1  0.673800  0.391600  0.125400  1.0  0.0837
  H  H67  1  0.572500  0.332700  0.085700  1.0  0.0806
  H  H68  1  0.808200  0.499100  0.039700  1.0  0.0902
  H  H69  1  0.585500  0.516400  0.094800  1.0  0.045
  H  H70  1  0.328300  0.446100  0.073100  1.0  0.0687
  H  H71  1  0.379400  0.380700  0.003100  1.0  0.0814
  H  H72  1  0.651400  0.221500  0.890300  1.0  0.0862
  H  H73  1  0.453600  0.289100  0.887700  1.0  0.0818
  H  H74  1  0.954000  0.214000  0.790000  1.0  0.0921
  H  H75  1  0.529500  0.100900  0.237700  1.0  0.1629
  H  H76  1  0.713400  0.122300  0.175100  1.0  0.1415
  H  H77  1  0.565400  0.125400  0.108400  1.0  0.0808
  H  H78  1  0.405200  0.085700  0.167300  1.0  0.0808
  H  H79  1  0.807300  0.039700  0.000900  1.0  0.0936
  H  H80  1  0.601900  0.094800  0.983600  1.0  0.0443
  H  H81  1  0.274400  0.073100  0.053900  1.0  0.0664
  H  H82  1  0.260100  0.003100  0.119300  1.0  0.0831
  H  H83  1  0.372900  0.890300  0.278500  1.0  0.0842
  H  H84  1  0.242700  0.887700  0.210900  1.0  0.0814
  H  H85  1  0.668000  0.790000  0.286000  1.0  0.0923
  H  H86  1  0.868100  0.399100  0.262300  1.0  0.1645
  H  H87  1  0.010800  0.377700  0.324900  1.0  0.1416
  H  H88  1  0.799200  0.374600  0.391600  1.0  0.0824
  H  H89  1  0.658200  0.414300  0.332700  1.0  0.0798
  H  H90  1  0.847900  0.460300  0.499100  1.0  0.094
  H  H91  1  0.680300  0.405200  0.516400  1.0  0.042
  H  H92  1  0.401400  0.426900  0.446100  1.0  0.0662
  H  H93  1  0.382500  0.496900  0.380700  1.0  0.0847
  H  H94  1  0.541700  0.609700  0.221500  1.0  0.0846
  H  H95  1  0.341300  0.612300  0.289100  1.0  0.0815
  H  H96  1  0.744000  0.710000  0.214000  1.0  0.0918
  C  C97  1  0.783500  0.808200  0.578800  1.0  -0.4575
  C  C98  1  0.875700  0.860800  0.575800  1.0  0.1132
  C  C99  1  0.795100  0.002400  0.539800  1.0  -0.0185
  C  C100  1  0.142600  0.932500  0.518300  1.0  -0.0584
  C  C101  1  0.321400  0.753900  0.354100  1.0  0.0776
  C  C102  1  0.170500  0.691800  0.921200  1.0  -0.4608
  C  C103  1  0.312300  0.639200  0.924200  1.0  0.1148
  C  C104  1  0.337300  0.497600  0.960200  1.0  -0.0211
  C  C105  1  0.593400  0.567500  0.981700  1.0  -0.0551
  C  C106  1  0.429400  0.746100  0.145900  1.0  0.0782
  C  C107  1  0.362300  0.921200  0.808200  1.0  -0.453
  C  C108  1  0.451500  0.924200  0.860800  1.0  0.1134
  C  C109  1  0.334900  0.960200  0.002400  1.0  -0.019
  C  C110  1  0.660900  0.981700  0.932500  1.0  -0.0545
  C  C111  1  0.675500  0.145900  0.753900  1.0  0.0838
  C  C112  1  0.091700  0.578800  0.691800  1.0  -0.457
  C  C113  1  0.236500  0.575800  0.639200  1.0  0.1158
  C  C114  1  0.297500  0.539800  0.497600  1.0  -0.0204
  C  C115  1  0.575100  0.518300  0.567500  1.0  -0.0565
  C  C116  1  0.575300  0.354100  0.746100  1.0  0.0822
  C  C117  1  0.216500  0.191800  0.421200  1.0  -0.456
  C  C118  1  0.124300  0.139200  0.424200  1.0  0.1133
  C  C119  1  0.204900  0.997600  0.460200  1.0  -0.0185
  C  C120  1  0.857400  0.067500  0.481700  1.0  -0.0592
  C  C121  1  0.678600  0.246100  0.645900  1.0  0.0781
  C  C122  1  0.829500  0.308200  0.078800  1.0  -0.4601
  C  C123  1  0.687700  0.360800  0.075800  1.0  0.1149
  C  C124  1  0.662700  0.502400  0.039800  1.0  -0.0207
  C  C125  1  0.406600  0.432500  0.018300  1.0  -0.0574
  C  C126  1  0.570600  0.253900  0.854100  1.0  0.0776
  C  C127  1  0.637700  0.078800  0.191800  1.0  -0.4493
  C  C128  1  0.548500  0.075800  0.139200  1.0  0.1171
  C  C129  1  0.665100  0.039800  0.997600  1.0  -0.0175
  C  C130  1  0.339100  0.018300  0.067500  1.0  -0.0571
  C  C131  1  0.324500  0.854100  0.246100  1.0  0.0822
  C  C132  1  0.908300  0.421200  0.308200  1.0  -0.4588
  C  C133  1  0.763500  0.424200  0.360800  1.0  0.1128
  C  C134  1  0.702500  0.460200  0.502400  1.0  -0.0202
  C  C135  1  0.424900  0.481700  0.432500  1.0  -0.0564
  C  C136  1  0.424700  0.645900  0.253900  1.0  0.0836
  C  C137  1  0.122400  0.750000  0.250000  1.0  0.0477
  C  C138  1  0.372400  0.250000  0.750000  1.0  0.0477
  C  C139  1  0.877600  0.250000  0.750000  1.0  0.0476
  C  C140  1  0.627600  0.750000  0.250000  1.0  0.0476
  S  S141  1  0.683690  0.762720  0.506100  1.0  1.3563
  S  S142  1  0.952510  0.737280  0.993900  1.0  1.3584
  S  S143  1  0.189790  0.993900  0.762720  1.0  1.3562
  S  S144  1  0.946410  0.506100  0.737280  1.0  1.3549
  S  S145  1  0.316310  0.237280  0.493900  1.0  1.3566
  S  S146  1  0.047490  0.262720  0.006100  1.0  1.3572
  S  S147  1  0.810210  0.006100  0.237280  1.0  1.3563
  S  S148  1  0.053590  0.493900  0.262720  1.0  1.3554
  N  N149  1  0.928000  0.924300  0.517100  1.0  -0.221
  N  N150  1  0.193500  0.805400  0.301000  1.0  -0.2598
  N  N151  1  0.369400  0.575700  0.982900  1.0  -0.2229
  N  N152  1  0.299900  0.694600  0.199000  1.0  -0.2604
  N  N153  1  0.445100  0.982900  0.924300  1.0  -0.2227
  N  N154  1  0.494500  0.199000  0.805400  1.0  -0.2593
  N  N155  1  0.352300  0.517100  0.575700  1.0  -0.2228
  N  N156  1  0.498900  0.301000  0.694600  1.0  -0.2591
  N  N157  1  0.072000  0.075700  0.482900  1.0  -0.2226
  N  N158  1  0.806500  0.194600  0.699000  1.0  -0.26
  N  N159  1  0.630600  0.424300  0.017100  1.0  -0.2217
  N  N160  1  0.700100  0.305400  0.801000  1.0  -0.2597
  N  N161  1  0.554900  0.017100  0.075700  1.0  -0.2211
  N  N162  1  0.505500  0.801000  0.194600  1.0  -0.2598
  N  N163  1  0.647700  0.482900  0.424300  1.0  -0.2228
  N  N164  1  0.501100  0.699000  0.305400  1.0  -0.2587
  O  O165  1  0.647100  0.822700  0.441100  1.0  -0.6664
  O  O166  1  0.492600  0.742000  0.545000  1.0  -0.67
  O  O167  1  0.840400  0.691800  0.479000  1.0  -0.6607
  O  O168  1  0.910900  0.677300  0.058900  1.0  -0.6668
  O  O169  1  0.779600  0.758000  0.955000  1.0  -0.6719
  O  O170  1  0.011200  0.808200  0.021000  1.0  -0.6604
  O  O171  1  0.088200  0.058900  0.822700  1.0  -0.6659
  O  O172  1  0.037600  0.955000  0.742000  1.0  -0.6705
  O  O173  1  0.319400  0.021000  0.691800  1.0  -0.6624
  O  O174  1  0.969800  0.441100  0.677300  1.0  -0.6662
  O  O175  1  0.734600  0.545000  0.758000  1.0  -0.6688
  O  O176  1  0.032200  0.479000  0.808200  1.0  -0.6626
  O  O177  1  0.352900  0.177300  0.558900  1.0  -0.6663
  O  O178  1  0.507400  0.258000  0.455000  1.0  -0.6699
  O  O179  1  0.159600  0.308200  0.521000  1.0  -0.6602
  O  O180  1  0.089100  0.322700  0.941100  1.0  -0.6675
  O  O181  1  0.220400  0.242000  0.045000  1.0  -0.6741
  O  O182  1  0.988800  0.191800  0.979000  1.0  -0.6615
  O  O183  1  0.911800  0.941100  0.177300  1.0  -0.667
  O  O184  1  0.962400  0.045000  0.258000  1.0  -0.6697
  O  O185  1  0.680600  0.979000  0.308200  1.0  -0.6609
  O  O186  1  0.030200  0.558900  0.322700  1.0  -0.6655
  O  O187  1  0.265400  0.455000  0.242000  1.0  -0.6699
  O  O188  1  0.967800  0.521000  0.191800  1.0  -0.6631
