# generated using pymatgen
data_Cu3H21WC27S3BrN7
_symmetry_space_group_name_H-M   'P 1'
_cell_length_a   9.32280000
_cell_length_b   19.26490000
_cell_length_c   24.21100000
_cell_angle_alpha   87.32980000
_cell_angle_beta   78.89940000
_cell_angle_gamma   75.99750000
_symmetry_Int_Tables_number   1
_chemical_formula_structural   Cu3H21WC27S3BrN7
_chemical_formula_sum   'Cu12 H84 W4 C108 S12 Br4 N28'
_cell_volume   4140.21512377
_cell_formula_units_Z   4
loop_
 _symmetry_equiv_pos_site_id
 _symmetry_equiv_pos_as_xyz
  1  'x, y, z'
loop_
 _atom_site_type_symbol
 _atom_site_label
 _atom_site_symmetry_multiplicity
 _atom_site_fract_x
 _atom_site_fract_y
 _atom_site_fract_z
 _atom_site_occupancy
 _atom_site_charge
  Cu  Cu1  1  0.591820  0.244950  0.541290  1.0  0.3782
  Cu  Cu2  1  0.496750  0.098320  0.625860  1.0  0.3469
  Cu  Cu3  1  0.353690  0.272020  0.676840  1.0  0.2995
  Cu  Cu4  1  0.621940  0.744950  0.041290  1.0  0.3777
  Cu  Cu5  1  0.779070  0.598320  0.125860  1.0  0.3467
  Cu  Cu6  1  0.697450  0.772020  0.176840  1.0  0.3012
  Cu  Cu7  1  0.378060  0.255050  0.958710  1.0  0.3803
  Cu  Cu8  1  0.220930  0.401680  0.874140  1.0  0.3487
  Cu  Cu9  1  0.302550  0.227980  0.823160  1.0  0.3009
  Cu  Cu10  1  0.408180  0.755050  0.458710  1.0  0.3795
  Cu  Cu11  1  0.503250  0.901680  0.374140  1.0  0.3473
  Cu  Cu12  1  0.646310  0.727980  0.323160  1.0  0.3013
  H  H13  1  0.820500  0.030100  0.200500  1.0  0.1173
  H  H14  1  0.850900  0.131800  0.239000  1.0  0.0934
  H  H15  1  0.175400  0.012700  0.313900  1.0  0.1033
  H  H16  1  0.133400  0.911700  0.280100  1.0  0.0999
  H  H17  1  0.738800  0.915900  0.213700  1.0  0.0905
  H  H18  1  0.047300  0.739400  0.175800  1.0  0.0793
  H  H19  1  0.382700  0.149700  0.506500  1.0  0.0748
  H  H20  1  0.142300  0.106800  0.649000  1.0  0.0872
  H  H21  1  0.990400  0.110600  0.577200  1.0  0.1009
  H  H22  1  0.005500  0.065600  0.481600  1.0  0.11
  H  H23  1  0.249900  0.210500  0.433300  1.0  0.1248
  H  H24  1  0.194700  0.210000  0.343600  1.0  0.0913
  H  H25  1  0.913700  0.084700  0.400100  1.0  0.0922
  H  H26  1  0.046900  0.477200  0.059800  1.0  0.1036
  H  H27  1  0.792600  0.463600  0.207600  1.0  0.0916
  H  H28  1  0.146800  0.360400  0.100800  1.0  0.1139
  H  H29  1  0.851300  0.377900  0.274500  1.0  0.099
  H  H30  1  0.122600  0.261700  0.146500  1.0  0.1115
  H  H31  1  0.151800  0.163000  0.204000  1.0  0.1043
  H  H32  1  0.879800  0.277500  0.333500  1.0  0.1194
  H  H33  1  0.172400  0.828100  0.197900  1.0  0.1156
  H  H34  1  0.948900  0.530100  0.700500  1.0  0.1172
  H  H35  1  0.778300  0.631800  0.739000  1.0  0.0941
  H  H36  1  0.498000  0.512700  0.813900  1.0  0.1068
  H  H37  1  0.674800  0.411700  0.780100  1.0  0.0996
  H  H38  1  0.131600  0.415900  0.713700  1.0  0.0903
  H  H39  1  0.037500  0.239400  0.675800  1.0  0.0791
  H  H40  1  0.961100  0.649700  0.006500  1.0  0.0746
  H  H41  1  0.101900  0.606800  0.149000  1.0  0.087
  H  H42  1  0.321800  0.610600  0.077200  1.0  0.1007
  H  H43  1  0.447300  0.565600  0.981600  1.0  0.1102
  H  H44  1  0.106300  0.710500  0.933300  1.0  0.1249
  H  H45  1  0.251700  0.710000  0.843600  1.0  0.0916
  H  H46  1  0.601500  0.584700  0.900100  1.0  0.0916
  H  H47  1  0.416100  0.977200  0.559800  1.0  0.1027
  H  H48  1  0.536200  0.963600  0.707600  1.0  0.0933
  H  H49  1  0.392000  0.860400  0.600800  1.0  0.1138
  H  H50  1  0.496300  0.877900  0.774500  1.0  0.0996
  H  H51  1  0.469200  0.761700  0.646500  1.0  0.113
  H  H52  1  0.481200  0.663000  0.704000  1.0  0.1045
  H  H53  1  0.509200  0.777500  0.833500  1.0  0.1184
  H  H54  1  0.801600  0.328100  0.697900  1.0  0.1176
  H  H55  1  0.051100  0.469900  0.299500  1.0  0.117
  H  H56  1  0.221700  0.368200  0.261000  1.0  0.0938
  H  H57  1  0.502000  0.487300  0.186100  1.0  0.1062
  H  H58  1  0.325200  0.588300  0.219900  1.0  0.1002
  H  H59  1  0.868400  0.584100  0.286300  1.0  0.0908
  H  H60  1  0.962500  0.760600  0.324200  1.0  0.0785
  H  H61  1  0.038900  0.350300  0.993500  1.0  0.0736
  H  H62  1  0.898100  0.393200  0.851000  1.0  0.0866
  H  H63  1  0.678200  0.389400  0.922800  1.0  0.1005
  H  H64  1  0.552700  0.434400  0.018400  1.0  0.1098
  H  H65  1  0.893700  0.289500  0.066700  1.0  0.1237
  H  H66  1  0.748300  0.290000  0.156400  1.0  0.0914
  H  H67  1  0.398500  0.415300  0.099900  1.0  0.0917
  H  H68  1  0.583900  0.022800  0.440200  1.0  0.1027
  H  H69  1  0.463800  0.036400  0.292400  1.0  0.0924
  H  H70  1  0.608000  0.139600  0.399200  1.0  0.1133
  H  H71  1  0.503700  0.122100  0.225500  1.0  0.0998
  H  H72  1  0.530800  0.238300  0.353500  1.0  0.1119
  H  H73  1  0.518800  0.337000  0.296000  1.0  0.1042
  H  H74  1  0.490800  0.222500  0.166500  1.0  0.1183
  H  H75  1  0.198400  0.671900  0.302100  1.0  0.1145
  H  H76  1  0.179500  0.969900  0.799500  1.0  0.1169
  H  H77  1  0.149100  0.868200  0.761000  1.0  0.0933
  H  H78  1  0.824600  0.987300  0.686100  1.0  0.1034
  H  H79  1  0.866600  0.088300  0.719900  1.0  0.1011
  H  H80  1  0.261200  0.084100  0.786300  1.0  0.0895
  H  H81  1  0.952700  0.260600  0.824200  1.0  0.0792
  H  H82  1  0.617300  0.850300  0.493500  1.0  0.0738
  H  H83  1  0.857700  0.893200  0.351000  1.0  0.087
  H  H84  1  0.009600  0.889400  0.422800  1.0  0.1005
  H  H85  1  0.994500  0.934400  0.518400  1.0  0.1098
  H  H86  1  0.750100  0.789500  0.566700  1.0  0.1241
  H  H87  1  0.805300  0.790000  0.656400  1.0  0.0909
  H  H88  1  0.086300  0.915300  0.599900  1.0  0.0923
  H  H89  1  0.953100  0.522800  0.940200  1.0  0.1034
  H  H90  1  0.207400  0.536400  0.792400  1.0  0.0913
  H  H91  1  0.853200  0.639600  0.899200  1.0  0.1133
  H  H92  1  0.148700  0.622100  0.725500  1.0  0.0989
  H  H93  1  0.877400  0.738300  0.853500  1.0  0.1105
  H  H94  1  0.848200  0.837000  0.796000  1.0  0.1045
  H  H95  1  0.120200  0.722500  0.666500  1.0  0.1191
  H  H96  1  0.827600  0.171900  0.802100  1.0  0.116
  W  W97  1  0.635530  0.200620  0.642820  1.0  0.4321
  W  W98  1  0.521030  0.700620  0.142820  1.0  0.4325
  W  W99  1  0.478970  0.299380  0.857180  1.0  0.4331
  W  W100  1  0.364470  0.799380  0.357180  1.0  0.4329
  C  C101  1  0.007200  0.082700  0.283700  1.0  0.1827
  C  C102  1  0.890600  0.026900  0.223700  1.0  -0.2089
  C  C103  1  0.907400  0.087300  0.247500  1.0  -0.1389
  C  C104  1  0.100160  0.016180  0.292900  1.0  -0.1934
  C  C105  1  0.979800  0.961700  0.235100  1.0  0.1306
  C  C106  1  0.079500  0.956300  0.270900  1.0  -0.1602
  C  C107  1  0.831900  0.883400  0.206000  1.0  0.0911
  C  C108  1  0.001000  0.786900  0.184900  1.0  0.0266
  C  C109  1  0.304300  0.139000  0.532800  1.0  0.1827
  C  C110  1  0.172300  0.115500  0.610900  1.0  0.0063
  C  C111  1  0.087400  0.117600  0.571400  1.0  -0.1396
  C  C112  1  0.129100  0.138200  0.467000  1.0  0.1425
  C  C113  1  0.036800  0.098200  0.455200  1.0  -0.2188
  C  C114  1  0.188100  0.182300  0.425500  1.0  -0.2165
  C  C115  1  0.151900  0.182900  0.371900  1.0  -0.1934
  C  C116  1  0.990300  0.105900  0.404900  1.0  -0.1414
  C  C117  1  0.053900  0.144300  0.359900  1.0  0.2339
  C  C118  1  0.010900  0.209200  0.273000  1.0  0.1544
  C  C119  1  0.008400  0.460300  0.094700  1.0  -0.0559
  C  C120  1  0.868460  0.452880  0.176000  1.0  0.1897
  C  C121  1  0.063800  0.395200  0.117400  1.0  -0.1307
  C  C122  1  0.987100  0.330700  0.205300  1.0  0.1434
  C  C123  1  0.912400  0.334500  0.260300  1.0  -0.1442
  C  C124  1  0.074000  0.265500  0.183900  1.0  -0.1802
  C  C125  1  0.088500  0.206100  0.218100  1.0  -0.1931
  C  C126  1  0.926300  0.274000  0.295800  1.0  -0.2184
  C  C127  1  0.070000  0.834800  0.198200  1.0  -0.1229
  C  C128  1  0.626400  0.582700  0.783700  1.0  0.1831
  C  C129  1  0.858800  0.526900  0.723700  1.0  -0.2077
  C  C130  1  0.757800  0.587300  0.747500  1.0  -0.1398
  C  C131  1  0.590760  0.516180  0.792900  1.0  -0.1965
  C  C132  1  0.823400  0.461700  0.735100  1.0  0.1304
  C  C133  1  0.693300  0.456300  0.770900  1.0  -0.1595
  C  C134  1  0.078700  0.383400  0.706000  1.0  0.094
  C  C135  1  0.027200  0.286900  0.684900  1.0  0.0273
  C  C136  1  0.023900  0.639000  0.032800  1.0  0.1828
  C  C137  1  0.101300  0.615500  0.110900  1.0  0.006
  C  C138  1  0.223600  0.617600  0.071400  1.0  -0.1383
  C  C139  1  0.265700  0.638200  0.967000  1.0  0.143
  C  C140  1  0.409800  0.598200  0.955200  1.0  -0.2194
  C  C141  1  0.204100  0.682300  0.925500  1.0  -0.2145
  C  C142  1  0.293300  0.682900  0.871900  1.0  -0.1931
  C  C143  1  0.498900  0.605900  0.904900  1.0  -0.1413
  C  C144  1  0.441900  0.644300  0.859900  1.0  0.2351
  C  C145  1  0.506900  0.709200  0.773000  1.0  0.1545
  C  C146  1  0.436600  0.960300  0.594700  1.0  -0.0554
  C  C147  1  0.502660  0.952880  0.676000  1.0  0.1889
  C  C148  1  0.423600  0.895200  0.617400  1.0  -0.13
  C  C149  1  0.476900  0.830700  0.705300  1.0  0.1433
  C  C150  1  0.492800  0.834500  0.760300  1.0  -0.1425
  C  C151  1  0.476600  0.765500  0.683900  1.0  -0.1789
  C  C152  1  0.487300  0.706100  0.718100  1.0  -0.1903
  C  C153  1  0.503900  0.774000  0.795800  1.0  -0.2127
  C  C154  1  0.897000  0.334800  0.698200  1.0  -0.1211
  C  C155  1  0.373600  0.417300  0.216300  1.0  0.1832
  C  C156  1  0.141200  0.473100  0.276300  1.0  -0.2105
  C  C157  1  0.242200  0.412700  0.252500  1.0  -0.1385
  C  C158  1  0.409240  0.483820  0.207100  1.0  -0.1957
  C  C159  1  0.176600  0.538300  0.264900  1.0  0.1328
  C  C160  1  0.306700  0.543700  0.229100  1.0  -0.1597
  C  C161  1  0.921300  0.616600  0.294000  1.0  0.0915
  C  C162  1  0.972800  0.713100  0.315100  1.0  0.0282
  C  C163  1  0.976100  0.361000  0.967200  1.0  0.1839
  C  C164  1  0.898700  0.384500  0.889100  1.0  0.0059
  C  C165  1  0.776400  0.382400  0.928600  1.0  -0.1385
  C  C166  1  0.734300  0.361800  0.033000  1.0  0.1428
  C  C167  1  0.590200  0.401800  0.044800  1.0  -0.2189
  C  C168  1  0.795900  0.317700  0.074500  1.0  -0.2159
  C  C169  1  0.706700  0.317100  0.128100  1.0  -0.1942
  C  C170  1  0.501100  0.394100  0.095100  1.0  -0.1404
  C  C171  1  0.558100  0.355700  0.140100  1.0  0.2357
  C  C172  1  0.493100  0.290800  0.227000  1.0  0.1544
  C  C173  1  0.563400  0.039700  0.405300  1.0  -0.0542
  C  C174  1  0.497340  0.047120  0.324000  1.0  0.1896
  C  C175  1  0.576400  0.104800  0.382600  1.0  -0.1289
  C  C176  1  0.523100  0.169300  0.294700  1.0  0.1433
  C  C177  1  0.507200  0.165500  0.239700  1.0  -0.143
  C  C178  1  0.523400  0.234500  0.316100  1.0  -0.1783
  C  C179  1  0.512700  0.293900  0.281900  1.0  -0.1899
  C  C180  1  0.496100  0.226000  0.204200  1.0  -0.2091
  C  C181  1  0.103000  0.665200  0.301800  1.0  -0.1223
  C  C182  1  0.992800  0.917300  0.716300  1.0  0.1821
  C  C183  1  0.109400  0.973100  0.776300  1.0  -0.209
  C  C184  1  0.092600  0.912700  0.752500  1.0  -0.1403
  C  C185  1  0.899840  0.983820  0.707100  1.0  -0.194
  C  C186  1  0.020200  0.038300  0.764900  1.0  0.1297
  C  C187  1  0.920500  0.043700  0.729100  1.0  -0.1614
  C  C188  1  0.168100  0.116600  0.794000  1.0  0.0908
  C  C189  1  0.999000  0.213100  0.815100  1.0  0.0264
  C  C190  1  0.695700  0.861000  0.467200  1.0  0.1819
  C  C191  1  0.827700  0.884500  0.389100  1.0  0.0054
  C  C192  1  0.912600  0.882400  0.428600  1.0  -0.1387
  C  C193  1  0.870900  0.861800  0.533000  1.0  0.1443
  C  C194  1  0.963200  0.901800  0.544800  1.0  -0.2176
  C  C195  1  0.811900  0.817700  0.574500  1.0  -0.2158
  C  C196  1  0.848100  0.817100  0.628100  1.0  -0.1928
  C  C197  1  0.009700  0.894100  0.595100  1.0  -0.142
  C  C198  1  0.946100  0.855700  0.640100  1.0  0.2351
  C  C199  1  0.989100  0.790800  0.727000  1.0  0.1544
  C  C200  1  0.991600  0.539700  0.905300  1.0  -0.0553
  C  C201  1  0.131540  0.547120  0.824000  1.0  0.1886
  C  C202  1  0.936200  0.604800  0.882600  1.0  -0.1327
  C  C203  1  0.012900  0.669300  0.794700  1.0  0.1434
  C  C204  1  0.087600  0.665500  0.739700  1.0  -0.1455
  C  C205  1  0.926000  0.734500  0.816100  1.0  -0.1796
  C  C206  1  0.911500  0.793900  0.781900  1.0  -0.1933
  C  C207  1  0.073700  0.726000  0.704200  1.0  -0.2162
  C  C208  1  0.930000  0.165200  0.801800  1.0  -0.1229
  S  S209  1  0.689600  0.131240  0.565120  1.0  -0.2961
  S  S210  1  0.460670  0.162090  0.706610  1.0  -0.2346
  S  S211  1  0.535950  0.313880  0.618380  1.0  -0.2111
  S  S212  1  0.614040  0.631240  0.065120  1.0  -0.2971
  S  S213  1  0.670630  0.662090  0.206610  1.0  -0.2351
  S  S214  1  0.531790  0.813880  0.118380  1.0  -0.2108
  S  S215  1  0.385960  0.368760  0.934880  1.0  -0.294
  S  S216  1  0.329370  0.337910  0.793390  1.0  -0.2351
  S  S217  1  0.468210  0.186120  0.881620  1.0  -0.2133
  S  S218  1  0.310400  0.868760  0.434880  1.0  -0.2961
  S  S219  1  0.539330  0.837910  0.293390  1.0  -0.2376
  S  S220  1  0.464050  0.686120  0.381620  1.0  -0.2151
  Br  Br221  1  0.554070  0.285710  0.454890  1.0  -0.4483
  Br  Br222  1  0.705330  0.785710  0.954890  1.0  -0.4478
  Br  Br223  1  0.294670  0.214290  0.045110  1.0  -0.4508
  Br  Br224  1  0.445930  0.714290  0.545110  1.0  -0.4495
  N  N225  1  0.309100  0.128600  0.586800  1.0  -0.3889
  N  N226  1  0.172740  0.132320  0.519600  1.0  0.0035
  N  N227  1  0.017850  0.146300  0.307600  1.0  -0.185
  N  N228  1  0.882100  0.497300  0.133700  1.0  -0.4194
  N  N229  1  0.974320  0.390260  0.169500  1.0  0.0475
  N  N230  1  0.855150  0.816900  0.186600  1.0  -0.3006
  N  N231  1  0.959630  0.896240  0.212300  1.0  0.0124
  N  N232  1  0.975500  0.628600  0.086800  1.0  -0.3908
  N  N233  1  0.175340  0.632320  0.019600  1.0  0.0043
  N  N234  1  0.528250  0.646300  0.807600  1.0  -0.1847
  N  N235  1  0.486900  0.997300  0.633700  1.0  -0.42
  N  N236  1  0.465920  0.890260  0.669500  1.0  0.0474
  N  N237  1  0.141350  0.316900  0.686600  1.0  -0.2986
  N  N238  1  0.931830  0.396240  0.712300  1.0  0.0135
  N  N239  1  0.024500  0.371400  0.913200  1.0  -0.3886
  N  N240  1  0.824660  0.367680  0.980400  1.0  0.0031
  N  N241  1  0.471750  0.353700  0.192400  1.0  -0.1848
  N  N242  1  0.513100  0.002700  0.366300  1.0  -0.4191
  N  N243  1  0.534080  0.109740  0.330500  1.0  0.0467
  N  N244  1  0.858650  0.683100  0.313400  1.0  -0.3
  N  N245  1  0.068170  0.603760  0.287700  1.0  0.0148
  N  N246  1  0.690900  0.871400  0.413200  1.0  -0.3915
  N  N247  1  0.827260  0.867680  0.480400  1.0  0.0038
  N  N248  1  0.982150  0.853700  0.692400  1.0  -0.1848
  N  N249  1  0.117900  0.502700  0.866300  1.0  -0.4174
  N  N250  1  0.025680  0.609740  0.830500  1.0  0.0476
  N  N251  1  0.144850  0.183100  0.813400  1.0  -0.2974
  N  N252  1  0.040370  0.103760  0.787700  1.0  0.013
