# generated using pymatgen
data_ZnH8C12(IN2)2
_symmetry_space_group_name_H-M   'P 1'
_cell_length_a   34.89500000
_cell_length_b   14.65530000
_cell_length_c   31.39300000
_cell_angle_alpha   90.00000000
_cell_angle_beta   101.49100000
_cell_angle_gamma   90.00000000
_symmetry_Int_Tables_number   1
_chemical_formula_structural   ZnH8C12(IN2)2
_chemical_formula_sum   'Zn24 H192 C288 I48 N96'
_cell_volume   15732.48463017
_cell_formula_units_Z   24
loop_
 _symmetry_equiv_pos_site_id
 _symmetry_equiv_pos_as_xyz
  1  'x, y, z'
loop_
 _atom_site_type_symbol
 _atom_site_label
 _atom_site_symmetry_multiplicity
 _atom_site_fract_x
 _atom_site_fract_y
 _atom_site_fract_z
 _atom_site_occupancy
 _atom_site_charge
  Zn  Zn1  1  0.166840  0.136350  0.268450  1.0  0.874
  Zn  Zn2  1  0.083790  0.367520  0.092000  1.0  0.8904
  Zn  Zn3  1  0.374560  0.399600  0.439740  1.0  0.887
  Zn  Zn4  1  0.666840  0.636350  0.268450  1.0  0.874
  Zn  Zn5  1  0.583790  0.867520  0.092000  1.0  0.8904
  Zn  Zn6  1  0.874560  0.899600  0.439740  1.0  0.887
  Zn  Zn7  1  0.166840  0.863650  0.768450  1.0  0.875
  Zn  Zn8  1  0.083790  0.632480  0.592000  1.0  0.8901
  Zn  Zn9  1  0.374560  0.600400  0.939740  1.0  0.8855
  Zn  Zn10  1  0.666840  0.363650  0.768450  1.0  0.875
  Zn  Zn11  1  0.583790  0.132480  0.592000  1.0  0.8901
  Zn  Zn12  1  0.874560  0.100400  0.939740  1.0  0.8855
  Zn  Zn13  1  0.833160  0.136350  0.231550  1.0  0.8746
  Zn  Zn14  1  0.916210  0.367520  0.408000  1.0  0.8915
  Zn  Zn15  1  0.625440  0.399600  0.060260  1.0  0.8875
  Zn  Zn16  1  0.333160  0.636350  0.231550  1.0  0.8746
  Zn  Zn17  1  0.416210  0.867520  0.408000  1.0  0.8915
  Zn  Zn18  1  0.125440  0.899600  0.060260  1.0  0.8875
  Zn  Zn19  1  0.833160  0.863650  0.731550  1.0  0.8759
  Zn  Zn20  1  0.916210  0.632480  0.908000  1.0  0.8913
  Zn  Zn21  1  0.625440  0.600400  0.560260  1.0  0.8864
  Zn  Zn22  1  0.333160  0.363650  0.731550  1.0  0.8759
  Zn  Zn23  1  0.416210  0.132480  0.908000  1.0  0.8913
  Zn  Zn24  1  0.125440  0.100400  0.560260  1.0  0.8864
  H  H25  1  0.143900  0.806800  0.238900  1.0  0.1169
  H  H26  1  0.133000  0.960200  0.235600  1.0  0.0772
  H  H27  1  0.232000  0.007900  0.315400  1.0  0.0982
  H  H28  1  0.244900  0.854100  0.321900  1.0  0.1026
  H  H29  1  0.272500  0.424600  0.303000  1.0  0.116
  H  H30  1  0.320500  0.356900  0.353200  1.0  0.0742
  H  H31  1  0.333700  0.575700  0.425100  1.0  0.0878
  H  H32  1  0.286000  0.651100  0.376600  1.0  0.1176
  H  H33  1  0.138500  0.636000  0.178200  1.0  0.1217
  H  H34  1  0.102300  0.554600  0.123400  1.0  0.0736
  H  H35  1  0.156500  0.329900  0.162100  1.0  0.0818
  H  H36  1  0.193800  0.403100  0.220800  1.0  0.1082
  H  H37  1  0.480700  0.620000  0.507900  1.0  0.134
  H  H38  1  0.426300  0.525800  0.504100  1.0  0.0732
  H  H39  1  0.421700  0.477900  0.381700  1.0  0.0759
  H  H40  1  0.475100  0.567500  0.381500  1.0  0.1152
  H  H41  1  0.611200  0.817100  0.374500  1.0  0.1211
  H  H42  1  0.646300  0.786400  0.323500  1.0  0.0753
  H  H43  1  0.620300  0.528600  0.323700  1.0  0.0774
  H  H44  1  0.583000  0.552200  0.374400  1.0  0.1166
  H  H45  1  0.510100  0.859600  0.520800  1.0  0.12
  H  H46  1  0.521900  0.986400  0.565100  1.0  0.0883
  H  H47  1  0.614400  0.046400  0.519000  1.0  0.0767
  H  H48  1  0.606400  0.920400  0.475000  1.0  0.1177
  H  H49  1  0.643900  0.306800  0.238900  1.0  0.1169
  H  H50  1  0.633000  0.460200  0.235600  1.0  0.0772
  H  H51  1  0.732000  0.507900  0.315400  1.0  0.0982
  H  H52  1  0.744900  0.354100  0.321900  1.0  0.1026
  H  H53  1  0.772500  0.924600  0.303000  1.0  0.116
  H  H54  1  0.820500  0.856900  0.353200  1.0  0.0742
  H  H55  1  0.833700  0.075700  0.425100  1.0  0.0878
  H  H56  1  0.786000  0.151100  0.376600  1.0  0.1176
  H  H57  1  0.638500  0.136000  0.178200  1.0  0.1217
  H  H58  1  0.602300  0.054600  0.123400  1.0  0.0736
  H  H59  1  0.656500  0.829900  0.162100  1.0  0.0818
  H  H60  1  0.693800  0.903100  0.220800  1.0  0.1082
  H  H61  1  0.980700  0.120000  0.507900  1.0  0.134
  H  H62  1  0.926300  0.025800  0.504100  1.0  0.0732
  H  H63  1  0.921700  0.977900  0.381700  1.0  0.0759
  H  H64  1  0.975100  0.067500  0.381500  1.0  0.1152
  H  H65  1  0.111200  0.317100  0.374500  1.0  0.1211
  H  H66  1  0.146300  0.286400  0.323500  1.0  0.0753
  H  H67  1  0.120300  0.028600  0.323700  1.0  0.0774
  H  H68  1  0.083000  0.052200  0.374400  1.0  0.1166
  H  H69  1  0.010100  0.359600  0.520800  1.0  0.12
  H  H70  1  0.021900  0.486400  0.565100  1.0  0.0883
  H  H71  1  0.114400  0.546400  0.519000  1.0  0.0767
  H  H72  1  0.106400  0.420400  0.475000  1.0  0.1177
  H  H73  1  0.143900  0.193200  0.738900  1.0  0.1171
  H  H74  1  0.133000  0.039800  0.735600  1.0  0.0773
  H  H75  1  0.232000  0.992100  0.815400  1.0  0.0982
  H  H76  1  0.244900  0.145900  0.821900  1.0  0.1024
  H  H77  1  0.272500  0.575400  0.803000  1.0  0.1164
  H  H78  1  0.320500  0.643100  0.853200  1.0  0.0734
  H  H79  1  0.333700  0.424300  0.925100  1.0  0.088
  H  H80  1  0.286000  0.348900  0.876600  1.0  0.1173
  H  H81  1  0.138500  0.364000  0.678200  1.0  0.1216
  H  H82  1  0.102300  0.445400  0.623400  1.0  0.0739
  H  H83  1  0.156500  0.670100  0.662100  1.0  0.081
  H  H84  1  0.193800  0.596900  0.720800  1.0  0.1083
  H  H85  1  0.480700  0.380000  0.007900  1.0  0.134
  H  H86  1  0.426300  0.474200  0.004100  1.0  0.0733
  H  H87  1  0.421700  0.522100  0.881700  1.0  0.0758
  H  H88  1  0.475100  0.432500  0.881500  1.0  0.1152
  H  H89  1  0.611200  0.182900  0.874500  1.0  0.121
  H  H90  1  0.646300  0.213600  0.823500  1.0  0.0752
  H  H91  1  0.620300  0.471400  0.823700  1.0  0.0781
  H  H92  1  0.583000  0.447800  0.874400  1.0  0.1169
  H  H93  1  0.510100  0.140400  0.020800  1.0  0.12
  H  H94  1  0.521900  0.013600  0.065100  1.0  0.0886
  H  H95  1  0.614400  0.953600  0.019000  1.0  0.0764
  H  H96  1  0.606400  0.079600  0.975000  1.0  0.1177
  H  H97  1  0.643900  0.693200  0.738900  1.0  0.1171
  H  H98  1  0.633000  0.539800  0.735600  1.0  0.0773
  H  H99  1  0.732000  0.492100  0.815400  1.0  0.0982
  H  H100  1  0.744900  0.645900  0.821900  1.0  0.1024
  H  H101  1  0.772500  0.075400  0.803000  1.0  0.1164
  H  H102  1  0.820500  0.143100  0.853200  1.0  0.0734
  H  H103  1  0.833700  0.924300  0.925100  1.0  0.088
  H  H104  1  0.786000  0.848900  0.876600  1.0  0.1173
  H  H105  1  0.638500  0.864000  0.678200  1.0  0.1216
  H  H106  1  0.602300  0.945400  0.623400  1.0  0.0739
  H  H107  1  0.656500  0.170100  0.662100  1.0  0.081
  H  H108  1  0.693800  0.096900  0.720800  1.0  0.1083
  H  H109  1  0.980700  0.880000  0.007900  1.0  0.134
  H  H110  1  0.926300  0.974200  0.004100  1.0  0.0733
  H  H111  1  0.921700  0.022100  0.881700  1.0  0.0758
  H  H112  1  0.975100  0.932500  0.881500  1.0  0.1152
  H  H113  1  0.111200  0.682900  0.874500  1.0  0.121
  H  H114  1  0.146300  0.713600  0.823500  1.0  0.0752
  H  H115  1  0.120300  0.971400  0.823700  1.0  0.0781
  H  H116  1  0.083000  0.947800  0.874400  1.0  0.1169
  H  H117  1  0.010100  0.640400  0.020800  1.0  0.12
  H  H118  1  0.021900  0.513600  0.065100  1.0  0.0886
  H  H119  1  0.114400  0.453600  0.019000  1.0  0.0764
  H  H120  1  0.106400  0.579600  0.975000  1.0  0.1177
  H  H121  1  0.856100  0.806800  0.261100  1.0  0.1174
  H  H122  1  0.867000  0.960200  0.264400  1.0  0.0762
  H  H123  1  0.768000  0.007900  0.184600  1.0  0.098
  H  H124  1  0.755100  0.854100  0.178100  1.0  0.1022
  H  H125  1  0.727500  0.424600  0.197000  1.0  0.1147
  H  H126  1  0.679500  0.356900  0.146800  1.0  0.0743
  H  H127  1  0.666300  0.575700  0.074900  1.0  0.0877
  H  H128  1  0.714000  0.651100  0.123400  1.0  0.1171
  H  H129  1  0.861500  0.636000  0.321800  1.0  0.1215
  H  H130  1  0.897700  0.554600  0.376600  1.0  0.0735
  H  H131  1  0.843500  0.329900  0.337900  1.0  0.0818
  H  H132  1  0.806200  0.403100  0.279200  1.0  0.1081
  H  H133  1  0.519300  0.620000  0.992100  1.0  0.1331
  H  H134  1  0.573700  0.525800  0.995900  1.0  0.0724
  H  H135  1  0.578300  0.477900  0.118300  1.0  0.0764
  H  H136  1  0.524900  0.567500  0.118500  1.0  0.1151
  H  H137  1  0.388800  0.817100  0.125500  1.0  0.1214
  H  H138  1  0.353700  0.786400  0.176500  1.0  0.0745
  H  H139  1  0.379700  0.528600  0.176300  1.0  0.0777
  H  H140  1  0.417000  0.552200  0.125600  1.0  0.1166
  H  H141  1  0.489900  0.859600  0.979200  1.0  0.1199
  H  H142  1  0.478100  0.986400  0.934900  1.0  0.0878
  H  H143  1  0.385600  0.046400  0.981000  1.0  0.0768
  H  H144  1  0.393600  0.920400  0.025000  1.0  0.1182
  H  H145  1  0.356100  0.306800  0.261100  1.0  0.1174
  H  H146  1  0.367000  0.460200  0.264400  1.0  0.0761
  H  H147  1  0.268000  0.507900  0.184600  1.0  0.098
  H  H148  1  0.255100  0.354100  0.178100  1.0  0.1022
  H  H149  1  0.227500  0.924600  0.197000  1.0  0.1147
  H  H150  1  0.179500  0.856900  0.146800  1.0  0.0743
  H  H151  1  0.166300  0.075700  0.074900  1.0  0.0877
  H  H152  1  0.214000  0.151100  0.123400  1.0  0.1171
  H  H153  1  0.361500  0.136000  0.321800  1.0  0.1215
  H  H154  1  0.397700  0.054600  0.376600  1.0  0.0735
  H  H155  1  0.343500  0.829900  0.337900  1.0  0.0818
  H  H156  1  0.306200  0.903100  0.279200  1.0  0.1081
  H  H157  1  0.019300  0.120000  0.992100  1.0  0.1331
  H  H158  1  0.073700  0.025800  0.995900  1.0  0.0724
  H  H159  1  0.078300  0.977900  0.118300  1.0  0.0764
  H  H160  1  0.024900  0.067500  0.118500  1.0  0.1151
  H  H161  1  0.888800  0.317100  0.125500  1.0  0.1214
  H  H162  1  0.853700  0.286400  0.176500  1.0  0.0745
  H  H163  1  0.879700  0.028600  0.176300  1.0  0.0777
  H  H164  1  0.917000  0.052200  0.125600  1.0  0.1166
  H  H165  1  0.989900  0.359600  0.979200  1.0  0.1199
  H  H166  1  0.978100  0.486400  0.934900  1.0  0.0878
  H  H167  1  0.885600  0.546400  0.981000  1.0  0.0768
  H  H168  1  0.893600  0.420400  0.025000  1.0  0.1182
  H  H169  1  0.856100  0.193200  0.761100  1.0  0.117
  H  H170  1  0.867000  0.039800  0.764400  1.0  0.0765
  H  H171  1  0.768000  0.992100  0.684600  1.0  0.0975
  H  H172  1  0.755100  0.145900  0.678100  1.0  0.1023
  H  H173  1  0.727500  0.575400  0.697000  1.0  0.1147
  H  H174  1  0.679500  0.643100  0.646800  1.0  0.0737
  H  H175  1  0.666300  0.424300  0.574900  1.0  0.0875
  H  H176  1  0.714000  0.348900  0.623400  1.0  0.1171
  H  H177  1  0.861500  0.364000  0.821800  1.0  0.1216
  H  H178  1  0.897700  0.445400  0.876600  1.0  0.0741
  H  H179  1  0.843500  0.670100  0.837900  1.0  0.081
  H  H180  1  0.806200  0.596900  0.779200  1.0  0.1084
  H  H181  1  0.519300  0.380000  0.492100  1.0  0.1333
  H  H182  1  0.573700  0.474200  0.495900  1.0  0.0724
  H  H183  1  0.578300  0.522100  0.618300  1.0  0.076
  H  H184  1  0.524900  0.432500  0.618500  1.0  0.1153
  H  H185  1  0.388800  0.182900  0.625500  1.0  0.121
  H  H186  1  0.353700  0.213600  0.676500  1.0  0.0753
  H  H187  1  0.379700  0.471400  0.676300  1.0  0.0784
  H  H188  1  0.417000  0.447800  0.625600  1.0  0.1169
  H  H189  1  0.489900  0.140400  0.479200  1.0  0.1198
  H  H190  1  0.478100  0.013600  0.434900  1.0  0.0881
  H  H191  1  0.385600  0.953600  0.481000  1.0  0.0769
  H  H192  1  0.393600  0.079600  0.525000  1.0  0.1182
  H  H193  1  0.356100  0.693200  0.761100  1.0  0.117
  H  H194  1  0.367000  0.539800  0.764400  1.0  0.0765
  H  H195  1  0.268000  0.492100  0.684600  1.0  0.0975
  H  H196  1  0.255100  0.645900  0.678100  1.0  0.1023
  H  H197  1  0.227500  0.075400  0.697000  1.0  0.1147
  H  H198  1  0.179500  0.143100  0.646800  1.0  0.0737
  H  H199  1  0.166300  0.924300  0.574900  1.0  0.0875
  H  H200  1  0.214000  0.848900  0.623400  1.0  0.1171
  H  H201  1  0.361500  0.864000  0.821800  1.0  0.1216
  H  H202  1  0.397700  0.945400  0.876600  1.0  0.0741
  H  H203  1  0.343500  0.170100  0.837900  1.0  0.081
  H  H204  1  0.306200  0.096900  0.779200  1.0  0.1084
  H  H205  1  0.019300  0.880000  0.492100  1.0  0.1333
  H  H206  1  0.073700  0.974200  0.495900  1.0  0.0724
  H  H207  1  0.078300  0.022100  0.618300  1.0  0.076
  H  H208  1  0.024900  0.932500  0.618500  1.0  0.1153
  H  H209  1  0.888800  0.682900  0.625500  1.0  0.121
  H  H210  1  0.853700  0.713600  0.676500  1.0  0.0753
  H  H211  1  0.879700  0.971400  0.676300  1.0  0.0784
  H  H212  1  0.917000  0.947800  0.625600  1.0  0.1169
  H  H213  1  0.989900  0.640400  0.479200  1.0  0.1198
  H  H214  1  0.978100  0.513600  0.434900  1.0  0.0881
  H  H215  1  0.885600  0.453600  0.481000  1.0  0.0769
  H  H216  1  0.893600  0.579600  0.525000  1.0  0.1182
  C  C217  1  0.241800  0.590000  0.302600  1.0  0.3704
  C  C218  1  0.194100  0.579900  0.243700  1.0  0.3656
  C  C219  1  0.205300  0.713300  0.279100  1.0  0.3793
  C  C220  1  0.196800  0.812300  0.280000  1.0  -0.084
  C  C221  1  0.162300  0.846300  0.254600  1.0  -0.1315
  C  C222  1  0.155900  0.938400  0.253000  1.0  0.1446
  C  C223  1  0.214100  0.966600  0.300200  1.0  0.1339
  C  C224  1  0.222200  0.874400  0.303600  1.0  -0.0956
  C  C225  1  0.273500  0.546100  0.334500  1.0  -0.1112
  C  C226  1  0.284500  0.456500  0.327600  1.0  -0.0982
  C  C227  1  0.313300  0.416700  0.357800  1.0  0.1535
  C  C228  1  0.321100  0.545600  0.400200  1.0  0.1543
  C  C229  1  0.292400  0.591100  0.371300  1.0  -0.1255
  C  C230  1  0.171100  0.528600  0.206800  1.0  -0.0769
  C  C231  1  0.142600  0.573600  0.176100  1.0  -0.1389
  C  C232  1  0.121200  0.524100  0.143400  1.0  0.1721
  C  C233  1  0.152600  0.391900  0.166000  1.0  0.1479
  C  C234  1  0.175500  0.435900  0.201100  1.0  -0.1468
  C  C235  1  0.517900  0.663400  0.444300  1.0  0.3909
  C  C236  1  0.552100  0.791100  0.466500  1.0  0.3948
  C  C237  1  0.567900  0.705700  0.412900  1.0  0.3897
  C  C238  1  0.484200  0.602700  0.444900  1.0  -0.0621
  C  C239  1  0.469400  0.591100  0.482000  1.0  -0.172
  C  C240  1  0.436700  0.533800  0.479300  1.0  0.144
  C  C241  1  0.434000  0.505600  0.407500  1.0  0.1467
  C  C242  1  0.465800  0.559600  0.407000  1.0  -0.1503
  C  C243  1  0.592300  0.687600  0.380400  1.0  -0.0746
  C  C244  1  0.612300  0.757800  0.364300  1.0  -0.1507
  C  C245  1  0.633200  0.738800  0.334000  1.0  0.1483
  C  C246  1  0.617900  0.587500  0.333800  1.0  0.1689
  C  C247  1  0.595700  0.601100  0.364400  1.0  -0.1612
  C  C248  1  0.557700  0.874400  0.493300  1.0  -0.0639
  C  C249  1  0.531900  0.896000  0.520400  1.0  -0.1422
  C  C250  1  0.539100  0.972500  0.546900  1.0  0.1256
  C  C251  1  0.593600  0.007200  0.519900  1.0  0.1495
  C  C252  1  0.588800  0.932000  0.493100  1.0  -0.1356
  C  C253  1  0.741800  0.090000  0.302600  1.0  0.3704
  C  C254  1  0.694100  0.079900  0.243700  1.0  0.3656
  C  C255  1  0.705300  0.213300  0.279100  1.0  0.3793
  C  C256  1  0.696800  0.312300  0.280000  1.0  -0.084
  C  C257  1  0.662300  0.346300  0.254600  1.0  -0.1315
  C  C258  1  0.655900  0.438400  0.253000  1.0  0.1446
  C  C259  1  0.714100  0.466600  0.300200  1.0  0.1339
  C  C260  1  0.722200  0.374400  0.303600  1.0  -0.0956
  C  C261  1  0.773500  0.046100  0.334500  1.0  -0.1112
  C  C262  1  0.784500  0.956500  0.327600  1.0  -0.0982
  C  C263  1  0.813300  0.916700  0.357800  1.0  0.1535
  C  C264  1  0.821100  0.045600  0.400200  1.0  0.1543
  C  C265  1  0.792400  0.091100  0.371300  1.0  -0.1255
  C  C266  1  0.671100  0.028600  0.206800  1.0  -0.0769
  C  C267  1  0.642600  0.073600  0.176100  1.0  -0.1389
  C  C268  1  0.621200  0.024100  0.143400  1.0  0.1721
  C  C269  1  0.652600  0.891900  0.166000  1.0  0.1479
  C  C270  1  0.675500  0.935900  0.201100  1.0  -0.1468
  C  C271  1  0.017900  0.163400  0.444300  1.0  0.3909
  C  C272  1  0.052100  0.291100  0.466500  1.0  0.3948
  C  C273  1  0.067900  0.205700  0.412900  1.0  0.3897
  C  C274  1  0.984200  0.102700  0.444900  1.0  -0.0621
  C  C275  1  0.969400  0.091100  0.482000  1.0  -0.172
  C  C276  1  0.936700  0.033800  0.479300  1.0  0.144
  C  C277  1  0.934000  0.005600  0.407500  1.0  0.1467
  C  C278  1  0.965800  0.059600  0.407000  1.0  -0.1503
  C  C279  1  0.092300  0.187600  0.380400  1.0  -0.0746
  C  C280  1  0.112300  0.257800  0.364300  1.0  -0.1507
  C  C281  1  0.133200  0.238800  0.334000  1.0  0.1483
  C  C282  1  0.117900  0.087500  0.333800  1.0  0.1689
  C  C283  1  0.095700  0.101100  0.364400  1.0  -0.1612
  C  C284  1  0.057700  0.374400  0.493300  1.0  -0.0639
  C  C285  1  0.031900  0.396000  0.520400  1.0  -0.1422
  C  C286  1  0.039100  0.472500  0.546900  1.0  0.1256
  C  C287  1  0.093600  0.507200  0.519900  1.0  0.1495
  C  C288  1  0.088800  0.432000  0.493100  1.0  -0.1356
  C  C289  1  0.241800  0.410000  0.802600  1.0  0.3705
  C  C290  1  0.194100  0.420100  0.743700  1.0  0.3656
  C  C291  1  0.205300  0.286700  0.779100  1.0  0.3792
  C  C292  1  0.196800  0.187700  0.780000  1.0  -0.083
  C  C293  1  0.162300  0.153700  0.754600  1.0  -0.1321
  C  C294  1  0.155900  0.061600  0.753000  1.0  0.1449
  C  C295  1  0.214100  0.033400  0.800200  1.0  0.1338
  C  C296  1  0.222200  0.125600  0.803600  1.0  -0.096
  C  C297  1  0.273500  0.453900  0.834500  1.0  -0.1104
  C  C298  1  0.284500  0.543500  0.827600  1.0  -0.0977
  C  C299  1  0.313300  0.583300  0.857800  1.0  0.1541
  C  C300  1  0.321100  0.454400  0.900200  1.0  0.1547
  C  C301  1  0.292400  0.408900  0.871300  1.0  -0.1234
  C  C302  1  0.171100  0.471400  0.706800  1.0  -0.0771
  C  C303  1  0.142600  0.426400  0.676100  1.0  -0.1359
  C  C304  1  0.121200  0.475900  0.643400  1.0  0.1721
  C  C305  1  0.152600  0.608100  0.666000  1.0  0.1479
  C  C306  1  0.175500  0.564100  0.701100  1.0  -0.1482
  C  C307  1  0.517900  0.336600  0.944300  1.0  0.3911
  C  C308  1  0.552100  0.208900  0.966500  1.0  0.3948
  C  C309  1  0.567900  0.294300  0.912900  1.0  0.3898
  C  C310  1  0.484200  0.397300  0.944900  1.0  -0.0622
  C  C311  1  0.469400  0.408900  0.982000  1.0  -0.1714
  C  C312  1  0.436700  0.466200  0.979300  1.0  0.1437
  C  C313  1  0.434000  0.494400  0.907500  1.0  0.1465
  C  C314  1  0.465800  0.440400  0.907000  1.0  -0.1506
  C  C315  1  0.592300  0.312400  0.880400  1.0  -0.0749
  C  C316  1  0.612300  0.242200  0.864300  1.0  -0.1497
  C  C317  1  0.633200  0.261200  0.834000  1.0  0.1486
  C  C318  1  0.617900  0.412500  0.833800  1.0  0.169
  C  C319  1  0.595700  0.398900  0.864400  1.0  -0.1638
  C  C320  1  0.557700  0.125600  0.993300  1.0  -0.0633
  C  C321  1  0.531900  0.104000  0.020400  1.0  -0.1433
  C  C322  1  0.539100  0.027500  0.046900  1.0  0.1261
  C  C323  1  0.593600  0.992800  0.019900  1.0  0.147
  C  C324  1  0.588800  0.068000  0.993100  1.0  -0.1361
  C  C325  1  0.741800  0.910000  0.802600  1.0  0.3705
  C  C326  1  0.694100  0.920100  0.743700  1.0  0.3656
  C  C327  1  0.705300  0.786700  0.779100  1.0  0.3792
  C  C328  1  0.696800  0.687700  0.780000  1.0  -0.083
  C  C329  1  0.662300  0.653700  0.754600  1.0  -0.1321
  C  C330  1  0.655900  0.561600  0.753000  1.0  0.1449
  C  C331  1  0.714100  0.533400  0.800200  1.0  0.1338
  C  C332  1  0.722200  0.625600  0.803600  1.0  -0.096
  C  C333  1  0.773500  0.953900  0.834500  1.0  -0.1104
  C  C334  1  0.784500  0.043500  0.827600  1.0  -0.0977
  C  C335  1  0.813300  0.083300  0.857800  1.0  0.1541
  C  C336  1  0.821100  0.954400  0.900200  1.0  0.1547
  C  C337  1  0.792400  0.908900  0.871300  1.0  -0.1234
  C  C338  1  0.671100  0.971400  0.706800  1.0  -0.0771
  C  C339  1  0.642600  0.926400  0.676100  1.0  -0.1359
  C  C340  1  0.621200  0.975900  0.643400  1.0  0.1721
  C  C341  1  0.652600  0.108100  0.666000  1.0  0.1479
  C  C342  1  0.675500  0.064100  0.701100  1.0  -0.1482
  C  C343  1  0.017900  0.836600  0.944300  1.0  0.3911
  C  C344  1  0.052100  0.708900  0.966500  1.0  0.3948
  C  C345  1  0.067900  0.794300  0.912900  1.0  0.3898
  C  C346  1  0.984200  0.897300  0.944900  1.0  -0.0622
  C  C347  1  0.969400  0.908900  0.982000  1.0  -0.1714
  C  C348  1  0.936700  0.966200  0.979300  1.0  0.1437
  C  C349  1  0.934000  0.994400  0.907500  1.0  0.1465
  C  C350  1  0.965800  0.940400  0.907000  1.0  -0.1506
  C  C351  1  0.092300  0.812400  0.880400  1.0  -0.0749
  C  C352  1  0.112300  0.742200  0.864300  1.0  -0.1497
  C  C353  1  0.133200  0.761200  0.834000  1.0  0.1486
  C  C354  1  0.117900  0.912500  0.833800  1.0  0.169
  C  C355  1  0.095700  0.898900  0.864400  1.0  -0.1638
  C  C356  1  0.057700  0.625600  0.993300  1.0  -0.0633
  C  C357  1  0.031900  0.604000  0.020400  1.0  -0.1433
  C  C358  1  0.039100  0.527500  0.046900  1.0  0.1261
  C  C359  1  0.093600  0.492800  0.019900  1.0  0.147
  C  C360  1  0.088800  0.568000  0.993100  1.0  -0.1361
  C  C361  1  0.758200  0.590000  0.197400  1.0  0.3692
  C  C362  1  0.805900  0.579900  0.256300  1.0  0.3655
  C  C363  1  0.794700  0.713300  0.220900  1.0  0.379
  C  C364  1  0.803200  0.812300  0.220000  1.0  -0.0844
  C  C365  1  0.837700  0.846300  0.245400  1.0  -0.1306
  C  C366  1  0.844100  0.938400  0.247000  1.0  0.1451
  C  C367  1  0.785900  0.966600  0.199800  1.0  0.1341
  C  C368  1  0.777800  0.874400  0.196400  1.0  -0.0937
  C  C369  1  0.726500  0.546100  0.165500  1.0  -0.1087
  C  C370  1  0.715500  0.456500  0.172400  1.0  -0.0981
  C  C371  1  0.686700  0.416700  0.142200  1.0  0.1527
  C  C372  1  0.678900  0.545600  0.099800  1.0  0.1522
  C  C373  1  0.707600  0.591100  0.128700  1.0  -0.1266
  C  C374  1  0.828900  0.528600  0.293200  1.0  -0.0783
  C  C375  1  0.857400  0.573600  0.323900  1.0  -0.1398
  C  C376  1  0.878800  0.524100  0.356600  1.0  0.1725
  C  C377  1  0.847400  0.391900  0.334000  1.0  0.1475
  C  C378  1  0.824500  0.435900  0.298900  1.0  -0.1479
  C  C379  1  0.482100  0.663400  0.055700  1.0  0.3914
  C  C380  1  0.447900  0.791100  0.033500  1.0  0.3949
  C  C381  1  0.432100  0.705700  0.087100  1.0  0.3885
  C  C382  1  0.515800  0.602700  0.055100  1.0  -0.0607
  C  C383  1  0.530600  0.591100  0.018000  1.0  -0.1718
  C  C384  1  0.563300  0.533800  0.020700  1.0  0.1423
  C  C385  1  0.566000  0.505600  0.092500  1.0  0.1479
  C  C386  1  0.534200  0.559600  0.093000  1.0  -0.1511
  C  C387  1  0.407700  0.687600  0.119600  1.0  -0.0736
  C  C388  1  0.387700  0.757800  0.135700  1.0  -0.1491
  C  C389  1  0.366800  0.738800  0.166000  1.0  0.1472
  C  C390  1  0.382100  0.587500  0.166200  1.0  0.1676
  C  C391  1  0.404300  0.601100  0.135600  1.0  -0.1613
  C  C392  1  0.442300  0.874400  0.006700  1.0  -0.0653
  C  C393  1  0.468100  0.896000  0.979600  1.0  -0.1437
  C  C394  1  0.460900  0.972500  0.953100  1.0  0.1264
  C  C395  1  0.406400  0.007200  0.980100  1.0  0.1485
  C  C396  1  0.411200  0.932000  0.006900  1.0  -0.1352
  C  C397  1  0.258200  0.090000  0.197400  1.0  0.3692
  C  C398  1  0.305900  0.079900  0.256300  1.0  0.3655
  C  C399  1  0.294700  0.213300  0.220900  1.0  0.379
  C  C400  1  0.303200  0.312300  0.220000  1.0  -0.0844
  C  C401  1  0.337700  0.346300  0.245400  1.0  -0.1306
  C  C402  1  0.344100  0.438400  0.247000  1.0  0.1451
  C  C403  1  0.285900  0.466600  0.199800  1.0  0.1341
  C  C404  1  0.277800  0.374400  0.196400  1.0  -0.0937
  C  C405  1  0.226500  0.046100  0.165500  1.0  -0.1087
  C  C406  1  0.215500  0.956500  0.172400  1.0  -0.0981
  C  C407  1  0.186700  0.916700  0.142200  1.0  0.1527
  C  C408  1  0.178900  0.045600  0.099800  1.0  0.1522
  C  C409  1  0.207600  0.091100  0.128700  1.0  -0.1266
  C  C410  1  0.328900  0.028600  0.293200  1.0  -0.0783
  C  C411  1  0.357400  0.073600  0.323900  1.0  -0.1398
  C  C412  1  0.378800  0.024100  0.356600  1.0  0.1725
  C  C413  1  0.347400  0.891900  0.334000  1.0  0.1475
  C  C414  1  0.324500  0.935900  0.298900  1.0  -0.1479
  C  C415  1  0.982100  0.163400  0.055700  1.0  0.3914
  C  C416  1  0.947900  0.291100  0.033500  1.0  0.3949
  C  C417  1  0.932100  0.205700  0.087100  1.0  0.3885
  C  C418  1  0.015800  0.102700  0.055100  1.0  -0.0607
  C  C419  1  0.030600  0.091100  0.018000  1.0  -0.1718
  C  C420  1  0.063300  0.033800  0.020700  1.0  0.1423
  C  C421  1  0.066000  0.005600  0.092500  1.0  0.1479
  C  C422  1  0.034200  0.059600  0.093000  1.0  -0.1511
  C  C423  1  0.907700  0.187600  0.119600  1.0  -0.0736
  C  C424  1  0.887700  0.257800  0.135700  1.0  -0.1491
  C  C425  1  0.866800  0.238800  0.166000  1.0  0.1472
  C  C426  1  0.882100  0.087500  0.166200  1.0  0.1676
  C  C427  1  0.904300  0.101100  0.135600  1.0  -0.1613
  C  C428  1  0.942300  0.374400  0.006700  1.0  -0.0653
  C  C429  1  0.968100  0.396000  0.979600  1.0  -0.1437
  C  C430  1  0.960900  0.472500  0.953100  1.0  0.1264
  C  C431  1  0.906400  0.507200  0.980100  1.0  0.1485
  C  C432  1  0.911200  0.432000  0.006900  1.0  -0.1352
  C  C433  1  0.758200  0.410000  0.697400  1.0  0.3693
  C  C434  1  0.805900  0.420100  0.756300  1.0  0.3655
  C  C435  1  0.794700  0.286700  0.720900  1.0  0.3784
  C  C436  1  0.803200  0.187700  0.720000  1.0  -0.0831
  C  C437  1  0.837700  0.153700  0.745400  1.0  -0.131
  C  C438  1  0.844100  0.061600  0.747000  1.0  0.1449
  C  C439  1  0.785900  0.033400  0.699800  1.0  0.133
  C  C440  1  0.777800  0.125600  0.696400  1.0  -0.0936
  C  C441  1  0.726500  0.453900  0.665500  1.0  -0.1081
  C  C442  1  0.715500  0.543500  0.672400  1.0  -0.0984
  C  C443  1  0.686700  0.583300  0.642200  1.0  0.1521
  C  C444  1  0.678900  0.454400  0.599800  1.0  0.1521
  C  C445  1  0.707600  0.408900  0.628700  1.0  -0.1244
  C  C446  1  0.828900  0.471400  0.793200  1.0  -0.0785
  C  C447  1  0.857400  0.426400  0.823900  1.0  -0.1365
  C  C448  1  0.878800  0.475900  0.856600  1.0  0.1725
  C  C449  1  0.847400  0.608100  0.834000  1.0  0.1471
  C  C450  1  0.824500  0.564100  0.798900  1.0  -0.1475
  C  C451  1  0.482100  0.336600  0.555700  1.0  0.3915
  C  C452  1  0.447900  0.208900  0.533500  1.0  0.3949
  C  C453  1  0.432100  0.294300  0.587100  1.0  0.3886
  C  C454  1  0.515800  0.397300  0.555100  1.0  -0.061
  C  C455  1  0.530600  0.408900  0.518000  1.0  -0.1723
  C  C456  1  0.563300  0.466200  0.520700  1.0  0.1424
  C  C457  1  0.566000  0.494400  0.592500  1.0  0.1461
  C  C458  1  0.534200  0.440400  0.593000  1.0  -0.1515
  C  C459  1  0.407700  0.312400  0.619600  1.0  -0.0741
  C  C460  1  0.387700  0.242200  0.635700  1.0  -0.1467
  C  C461  1  0.366800  0.261200  0.666000  1.0  0.1481
  C  C462  1  0.382100  0.412500  0.666200  1.0  0.1674
  C  C463  1  0.404300  0.398900  0.635600  1.0  -0.1633
  C  C464  1  0.442300  0.125600  0.506700  1.0  -0.0637
  C  C465  1  0.468100  0.104000  0.479600  1.0  -0.1441
  C  C466  1  0.460900  0.027500  0.453100  1.0  0.1262
  C  C467  1  0.406400  0.992800  0.480100  1.0  0.1496
  C  C468  1  0.411200  0.068000  0.506900  1.0  -0.1352
  C  C469  1  0.258200  0.910000  0.697400  1.0  0.3693
  C  C470  1  0.305900  0.920100  0.756300  1.0  0.3655
  C  C471  1  0.294700  0.786700  0.720900  1.0  0.3784
  C  C472  1  0.303200  0.687700  0.720000  1.0  -0.0831
  C  C473  1  0.337700  0.653700  0.745400  1.0  -0.131
  C  C474  1  0.344100  0.561600  0.747000  1.0  0.1449
  C  C475  1  0.285900  0.533400  0.699800  1.0  0.133
  C  C476  1  0.277800  0.625600  0.696400  1.0  -0.0936
  C  C477  1  0.226500  0.953900  0.665500  1.0  -0.1081
  C  C478  1  0.215500  0.043500  0.672400  1.0  -0.0984
  C  C479  1  0.186700  0.083300  0.642200  1.0  0.1521
  C  C480  1  0.178900  0.954400  0.599800  1.0  0.1521
  C  C481  1  0.207600  0.908900  0.628700  1.0  -0.1244
  C  C482  1  0.328900  0.971400  0.793200  1.0  -0.0785
  C  C483  1  0.357400  0.926400  0.823900  1.0  -0.1365
  C  C484  1  0.378800  0.975900  0.856600  1.0  0.1725
  C  C485  1  0.347400  0.108100  0.834000  1.0  0.1471
  C  C486  1  0.324500  0.064100  0.798900  1.0  -0.1475
  C  C487  1  0.982100  0.836600  0.555700  1.0  0.3915
  C  C488  1  0.947900  0.708900  0.533500  1.0  0.3949
  C  C489  1  0.932100  0.794300  0.587100  1.0  0.3886
  C  C490  1  0.015800  0.897300  0.555100  1.0  -0.061
  C  C491  1  0.030600  0.908900  0.518000  1.0  -0.1723
  C  C492  1  0.063300  0.966200  0.520700  1.0  0.1424
  C  C493  1  0.066000  0.994400  0.592500  1.0  0.1461
  C  C494  1  0.034200  0.940400  0.593000  1.0  -0.1515
  C  C495  1  0.907700  0.812400  0.619600  1.0  -0.0741
  C  C496  1  0.887700  0.742200  0.635700  1.0  -0.1467
  C  C497  1  0.866800  0.761200  0.666000  1.0  0.1481
  C  C498  1  0.882100  0.912500  0.666200  1.0  0.1674
  C  C499  1  0.904300  0.898900  0.635600  1.0  -0.1633
  C  C500  1  0.942300  0.625600  0.506700  1.0  -0.0637
  C  C501  1  0.968100  0.604000  0.479600  1.0  -0.1441
  C  C502  1  0.960900  0.527500  0.453100  1.0  0.1262
  C  C503  1  0.906400  0.492800  0.480100  1.0  0.1496
  C  C504  1  0.911200  0.568000  0.506900  1.0  -0.1352
  I  I505  1  0.120220  0.151730  0.195730  1.0  -0.4538
  I  I506  1  0.227370  0.235550  0.290220  1.0  -0.4775
  I  I507  1  0.026280  0.347480  0.129880  1.0  -0.3649
  I  I508  1  0.119510  0.250630  0.055670  1.0  -0.4308
  I  I509  1  0.351900  0.404350  0.511260  1.0  -0.3237
  I  I510  1  0.398500  0.261300  0.402930  1.0  -0.4226
  I  I511  1  0.620220  0.651730  0.195730  1.0  -0.4538
  I  I512  1  0.727370  0.735550  0.290220  1.0  -0.4775
  I  I513  1  0.526280  0.847480  0.129880  1.0  -0.3649
  I  I514  1  0.619510  0.750630  0.055670  1.0  -0.4308
  I  I515  1  0.851900  0.904350  0.511260  1.0  -0.3237
  I  I516  1  0.898500  0.761300  0.402930  1.0  -0.4226
  I  I517  1  0.120220  0.848270  0.695730  1.0  -0.4536
  I  I518  1  0.227370  0.764450  0.790220  1.0  -0.4778
  I  I519  1  0.026280  0.652520  0.629880  1.0  -0.3654
  I  I520  1  0.119510  0.749370  0.555670  1.0  -0.4306
  I  I521  1  0.351900  0.595650  0.011260  1.0  -0.3237
  I  I522  1  0.398500  0.738700  0.902930  1.0  -0.4224
  I  I523  1  0.620220  0.348270  0.695730  1.0  -0.4536
  I  I524  1  0.727370  0.264450  0.790220  1.0  -0.4778
  I  I525  1  0.526280  0.152520  0.629880  1.0  -0.3654
  I  I526  1  0.619510  0.249370  0.555670  1.0  -0.4306
  I  I527  1  0.851900  0.095650  0.011260  1.0  -0.3237
  I  I528  1  0.898500  0.238700  0.902930  1.0  -0.4224
  I  I529  1  0.879780  0.151730  0.304270  1.0  -0.4523
  I  I530  1  0.772630  0.235550  0.209780  1.0  -0.4761
  I  I531  1  0.973720  0.347480  0.370120  1.0  -0.363
  I  I532  1  0.880490  0.250630  0.444330  1.0  -0.4298
  I  I533  1  0.648100  0.404350  0.988740  1.0  -0.3234
  I  I534  1  0.601500  0.261300  0.097070  1.0  -0.4227
  I  I535  1  0.379780  0.651730  0.304270  1.0  -0.4523
  I  I536  1  0.272630  0.735550  0.209780  1.0  -0.4761
  I  I537  1  0.473720  0.847480  0.370120  1.0  -0.363
  I  I538  1  0.380490  0.750630  0.444330  1.0  -0.4298
  I  I539  1  0.148100  0.904350  0.988740  1.0  -0.3234
  I  I540  1  0.101500  0.761300  0.097070  1.0  -0.4227
  I  I541  1  0.879780  0.848270  0.804270  1.0  -0.4522
  I  I542  1  0.772630  0.764450  0.709780  1.0  -0.4759
  I  I543  1  0.973720  0.652520  0.870120  1.0  -0.3631
  I  I544  1  0.880490  0.749370  0.944330  1.0  -0.4298
  I  I545  1  0.648100  0.595650  0.488740  1.0  -0.3237
  I  I546  1  0.601500  0.738700  0.597070  1.0  -0.4225
  I  I547  1  0.379780  0.348270  0.804270  1.0  -0.4522
  I  I548  1  0.272630  0.264450  0.709780  1.0  -0.4759
  I  I549  1  0.473720  0.152520  0.870120  1.0  -0.3631
  I  I550  1  0.380490  0.249370  0.944330  1.0  -0.4298
  I  I551  1  0.148100  0.095650  0.488740  1.0  -0.3237
  I  I552  1  0.101500  0.238700  0.597070  1.0  -0.4225
  N  N553  1  0.223100  0.539500  0.269800  1.0  -0.426
  N  N554  1  0.183400  0.667300  0.246900  1.0  -0.4819
  N  N555  1  0.233900  0.678900  0.308700  1.0  -0.3601
  N  N556  1  0.331500  0.459300  0.393500  1.0  -0.3209
  N  N557  1  0.125300  0.434900  0.137900  1.0  -0.318
  N  N558  1  0.180700  0.998200  0.275100  1.0  -0.3177
  N  N559  1  0.539700  0.644500  0.414900  1.0  -0.4353
  N  N560  1  0.574200  0.781800  0.436800  1.0  -0.4329
  N  N561  1  0.523900  0.733200  0.472200  1.0  -0.4495
  N  N562  1  0.419700  0.490700  0.443400  1.0  -0.3204
  N  N563  1  0.636300  0.654600  0.317900  1.0  -0.3358
  N  N564  1  0.569900  0.026700  0.547300  1.0  -0.3079
  N  N565  1  0.723100  0.039500  0.269800  1.0  -0.426
  N  N566  1  0.683400  0.167300  0.246900  1.0  -0.4819
  N  N567  1  0.733900  0.178900  0.308700  1.0  -0.3601
  N  N568  1  0.831500  0.959300  0.393500  1.0  -0.3209
  N  N569  1  0.625300  0.934900  0.137900  1.0  -0.318
  N  N570  1  0.680700  0.498200  0.275100  1.0  -0.3177
  N  N571  1  0.039700  0.144500  0.414900  1.0  -0.4353
  N  N572  1  0.074200  0.281800  0.436800  1.0  -0.4329
  N  N573  1  0.023900  0.233200  0.472200  1.0  -0.4495
  N  N574  1  0.919700  0.990700  0.443400  1.0  -0.3204
  N  N575  1  0.136300  0.154600  0.317900  1.0  -0.3358
  N  N576  1  0.069900  0.526700  0.547300  1.0  -0.3079
  N  N577  1  0.223100  0.460500  0.769800  1.0  -0.4259
  N  N578  1  0.183400  0.332700  0.746900  1.0  -0.4821
  N  N579  1  0.233900  0.321100  0.808700  1.0  -0.3598
  N  N580  1  0.331500  0.540700  0.893500  1.0  -0.3213
  N  N581  1  0.125300  0.565100  0.637900  1.0  -0.3162
  N  N582  1  0.180700  0.001800  0.775100  1.0  -0.319
  N  N583  1  0.539700  0.355500  0.914900  1.0  -0.4358
  N  N584  1  0.574200  0.218200  0.936800  1.0  -0.4316
  N  N585  1  0.523900  0.266800  0.972200  1.0  -0.4496
  N  N586  1  0.419700  0.509300  0.943400  1.0  -0.3196
  N  N587  1  0.636300  0.345400  0.817900  1.0  -0.3354
  N  N588  1  0.569900  0.973300  0.047300  1.0  -0.3072
  N  N589  1  0.723100  0.960500  0.769800  1.0  -0.4259
  N  N590  1  0.683400  0.832700  0.746900  1.0  -0.4821
  N  N591  1  0.733900  0.821100  0.808700  1.0  -0.3598
  N  N592  1  0.831500  0.040700  0.893500  1.0  -0.3213
  N  N593  1  0.625300  0.065100  0.637900  1.0  -0.3162
  N  N594  1  0.680700  0.501800  0.775100  1.0  -0.319
  N  N595  1  0.039700  0.855500  0.914900  1.0  -0.4358
  N  N596  1  0.074200  0.718200  0.936800  1.0  -0.4316
  N  N597  1  0.023900  0.766800  0.972200  1.0  -0.4496
  N  N598  1  0.919700  0.009300  0.943400  1.0  -0.3196
  N  N599  1  0.136300  0.845400  0.817900  1.0  -0.3354
  N  N600  1  0.069900  0.473300  0.047300  1.0  -0.3072
  N  N601  1  0.776900  0.539500  0.230200  1.0  -0.4258
  N  N602  1  0.816600  0.667300  0.253100  1.0  -0.4834
  N  N603  1  0.766100  0.678900  0.191300  1.0  -0.3626
  N  N604  1  0.668500  0.459300  0.106500  1.0  -0.321
  N  N605  1  0.874700  0.434900  0.362100  1.0  -0.3189
  N  N606  1  0.819300  0.998200  0.224900  1.0  -0.3176
  N  N607  1  0.460300  0.644500  0.085100  1.0  -0.4337
  N  N608  1  0.425800  0.781800  0.063200  1.0  -0.4338
  N  N609  1  0.476100  0.733200  0.027800  1.0  -0.4467
  N  N610  1  0.580300  0.490700  0.056600  1.0  -0.3174
  N  N611  1  0.363700  0.654600  0.182100  1.0  -0.3331
  N  N612  1  0.430100  0.026700  0.952700  1.0  -0.308
  N  N613  1  0.276900  0.039500  0.230200  1.0  -0.4258
  N  N614  1  0.316600  0.167300  0.253100  1.0  -0.4834
  N  N615  1  0.266100  0.178900  0.191300  1.0  -0.3626
  N  N616  1  0.168500  0.959300  0.106500  1.0  -0.321
  N  N617  1  0.374700  0.934900  0.362100  1.0  -0.3189
  N  N618  1  0.319300  0.498200  0.224900  1.0  -0.3176
  N  N619  1  0.960300  0.144500  0.085100  1.0  -0.4337
  N  N620  1  0.925800  0.281800  0.063200  1.0  -0.4338
  N  N621  1  0.976100  0.233200  0.027800  1.0  -0.4467
  N  N622  1  0.080300  0.990700  0.056600  1.0  -0.3174
  N  N623  1  0.863700  0.154600  0.182100  1.0  -0.3331
  N  N624  1  0.930100  0.526700  0.952700  1.0  -0.308
  N  N625  1  0.776900  0.460500  0.730200  1.0  -0.4254
  N  N626  1  0.816600  0.332700  0.753100  1.0  -0.4835
  N  N627  1  0.766100  0.321100  0.691300  1.0  -0.3637
  N  N628  1  0.668500  0.540700  0.606500  1.0  -0.3211
  N  N629  1  0.874700  0.565100  0.862100  1.0  -0.3189
  N  N630  1  0.819300  0.001800  0.724900  1.0  -0.3167
  N  N631  1  0.460300  0.355500  0.585100  1.0  -0.4348
  N  N632  1  0.425800  0.218200  0.563200  1.0  -0.4333
  N  N633  1  0.476100  0.266800  0.527800  1.0  -0.4466
  N  N634  1  0.580300  0.509300  0.556600  1.0  -0.3186
  N  N635  1  0.363700  0.345400  0.682100  1.0  -0.3335
  N  N636  1  0.430100  0.973300  0.452700  1.0  -0.3081
  N  N637  1  0.276900  0.960500  0.730200  1.0  -0.4254
  N  N638  1  0.316600  0.832700  0.753100  1.0  -0.4835
  N  N639  1  0.266100  0.821100  0.691300  1.0  -0.3637
  N  N640  1  0.168500  0.040700  0.606500  1.0  -0.3211
  N  N641  1  0.374700  0.065100  0.862100  1.0  -0.3189
  N  N642  1  0.319300  0.501800  0.724900  1.0  -0.3167
  N  N643  1  0.960300  0.855500  0.585100  1.0  -0.4348
  N  N644  1  0.925800  0.718200  0.563200  1.0  -0.4333
  N  N645  1  0.976100  0.766800  0.527800  1.0  -0.4466
  N  N646  1  0.080300  0.009300  0.556600  1.0  -0.3186
  N  N647  1  0.863700  0.845400  0.682100  1.0  -0.3335
  N  N648  1  0.930100  0.473300  0.452700  1.0  -0.3081
