# generated using pymatgen
data_ZnH8C12(IN2)2
_symmetry_space_group_name_H-M   'P 1'
_cell_length_a   34.84100000
_cell_length_b   14.74280000
_cell_length_c   31.04300000
_cell_angle_alpha   90.00000000
_cell_angle_beta   101.29900000
_cell_angle_gamma   90.00000000
_symmetry_Int_Tables_number   1
_chemical_formula_structural   ZnH8C12(IN2)2
_chemical_formula_sum   'Zn24 H192 C288 I48 N96'
_cell_volume   15636.30617887
_cell_formula_units_Z   24
loop_
 _symmetry_equiv_pos_site_id
 _symmetry_equiv_pos_as_xyz
  1  'x, y, z'
loop_
 _atom_site_type_symbol
 _atom_site_label
 _atom_site_symmetry_multiplicity
 _atom_site_fract_x
 _atom_site_fract_y
 _atom_site_fract_z
 _atom_site_occupancy
 _atom_site_charge
  Zn  Zn1  1  0.083690  0.368330  0.592430  1.0  0.8468
  Zn  Zn2  1  0.168820  0.135950  0.768850  1.0  0.868
  Zn  Zn3  1  0.374170  0.400160  0.940900  1.0  0.8903
  Zn  Zn4  1  0.583690  0.868330  0.592430  1.0  0.8468
  Zn  Zn5  1  0.668820  0.635950  0.768850  1.0  0.868
  Zn  Zn6  1  0.874170  0.900160  0.940900  1.0  0.8903
  Zn  Zn7  1  0.083690  0.631670  0.092430  1.0  0.8467
  Zn  Zn8  1  0.168820  0.864050  0.268850  1.0  0.8702
  Zn  Zn9  1  0.374170  0.599840  0.440900  1.0  0.8875
  Zn  Zn10  1  0.583690  0.131670  0.092430  1.0  0.8467
  Zn  Zn11  1  0.668820  0.364050  0.268850  1.0  0.8702
  Zn  Zn12  1  0.874170  0.099840  0.440900  1.0  0.8875
  Zn  Zn13  1  0.916310  0.368330  0.907570  1.0  0.8471
  Zn  Zn14  1  0.831180  0.135950  0.731150  1.0  0.8674
  Zn  Zn15  1  0.625830  0.400160  0.559100  1.0  0.8895
  Zn  Zn16  1  0.416310  0.868330  0.907570  1.0  0.8471
  Zn  Zn17  1  0.331180  0.635950  0.731150  1.0  0.8674
  Zn  Zn18  1  0.125830  0.900160  0.559100  1.0  0.8895
  Zn  Zn19  1  0.916310  0.631670  0.407570  1.0  0.8474
  Zn  Zn20  1  0.831180  0.864050  0.231150  1.0  0.8693
  Zn  Zn21  1  0.625830  0.599840  0.059100  1.0  0.8876
  Zn  Zn22  1  0.416310  0.131670  0.407570  1.0  0.8474
  Zn  Zn23  1  0.331180  0.364050  0.231150  1.0  0.8693
  Zn  Zn24  1  0.125830  0.099840  0.059100  1.0  0.8876
  H  H25  1  0.156800  0.332800  0.663400  1.0  0.072
  H  H26  1  0.100100  0.555800  0.624600  1.0  0.0785
  H  H27  1  0.193100  0.405400  0.722600  1.0  0.1101
  H  H28  1  0.135600  0.635900  0.681200  1.0  0.1185
  H  H29  1  0.145100  0.810000  0.737900  1.0  0.1122
  H  H30  1  0.244500  0.854400  0.825100  1.0  0.1047
  H  H31  1  0.285600  0.651600  0.878800  1.0  0.12
  H  H32  1  0.270500  0.427600  0.804600  1.0  0.1133
  H  H33  1  0.133700  0.963400  0.736400  1.0  0.0885
  H  H34  1  0.233200  0.007400  0.815900  1.0  0.0824
  H  H35  1  0.334200  0.576300  0.926300  1.0  0.0776
  H  H36  1  0.319800  0.360100  0.853600  1.0  0.0796
  H  H37  1  0.422500  0.478300  0.882500  1.0  0.0745
  H  H38  1  0.426300  0.525300  0.006500  1.0  0.0743
  H  H39  1  0.476100  0.564900  0.882700  1.0  0.1183
  H  H40  1  0.478600  0.621300  0.009800  1.0  0.1227
  H  H41  1  0.578700  0.554700  0.870700  1.0  0.1194
  H  H42  1  0.615400  0.812300  0.880300  1.0  0.1183
  H  H43  1  0.509800  0.859600  0.022500  1.0  0.1071
  H  H44  1  0.605100  0.919900  0.974300  1.0  0.116
  H  H45  1  0.617700  0.532300  0.819100  1.0  0.0797
  H  H46  1  0.655300  0.776100  0.832600  1.0  0.0717
  H  H47  1  0.521100  0.987300  0.066500  1.0  0.0939
  H  H48  1  0.615200  0.042700  0.020300  1.0  0.0841
  H  H49  1  0.656800  0.832800  0.663400  1.0  0.072
  H  H50  1  0.600100  0.055800  0.624600  1.0  0.0785
  H  H51  1  0.693100  0.905400  0.722600  1.0  0.1101
  H  H52  1  0.635600  0.135900  0.681200  1.0  0.1185
  H  H53  1  0.645100  0.310000  0.737900  1.0  0.1122
  H  H54  1  0.744500  0.354400  0.825100  1.0  0.1047
  H  H55  1  0.785600  0.151600  0.878800  1.0  0.12
  H  H56  1  0.770500  0.927600  0.804600  1.0  0.1133
  H  H57  1  0.633700  0.463400  0.736400  1.0  0.0885
  H  H58  1  0.733200  0.507400  0.815900  1.0  0.0824
  H  H59  1  0.834200  0.076300  0.926300  1.0  0.0776
  H  H60  1  0.819800  0.860100  0.853600  1.0  0.0796
  H  H61  1  0.922500  0.978300  0.882500  1.0  0.0745
  H  H62  1  0.926300  0.025300  0.006500  1.0  0.0743
  H  H63  1  0.976100  0.064900  0.882700  1.0  0.1183
  H  H64  1  0.978600  0.121300  0.009800  1.0  0.1227
  H  H65  1  0.078700  0.054700  0.870700  1.0  0.1194
  H  H66  1  0.115400  0.312300  0.880300  1.0  0.1183
  H  H67  1  0.009800  0.359600  0.022500  1.0  0.1071
  H  H68  1  0.105100  0.419900  0.974300  1.0  0.116
  H  H69  1  0.117700  0.032300  0.819100  1.0  0.0797
  H  H70  1  0.155300  0.276100  0.832600  1.0  0.0717
  H  H71  1  0.021100  0.487300  0.066500  1.0  0.0939
  H  H72  1  0.115200  0.542700  0.020300  1.0  0.0841
  H  H73  1  0.156800  0.667200  0.163400  1.0  0.0713
  H  H74  1  0.100100  0.444200  0.124600  1.0  0.0786
  H  H75  1  0.193100  0.594600  0.222600  1.0  0.1101
  H  H76  1  0.135600  0.364100  0.181200  1.0  0.1185
  H  H77  1  0.145100  0.190000  0.237900  1.0  0.1127
  H  H78  1  0.244500  0.145600  0.325100  1.0  0.1044
  H  H79  1  0.285600  0.348400  0.378800  1.0  0.1197
  H  H80  1  0.270500  0.572400  0.304600  1.0  0.1133
  H  H81  1  0.133700  0.036600  0.236400  1.0  0.0888
  H  H82  1  0.233200  0.992600  0.315900  1.0  0.0827
  H  H83  1  0.334200  0.423700  0.426300  1.0  0.0778
  H  H84  1  0.319800  0.639900  0.353600  1.0  0.0801
  H  H85  1  0.422500  0.521700  0.382500  1.0  0.0744
  H  H86  1  0.426300  0.474700  0.506500  1.0  0.0745
  H  H87  1  0.476100  0.435100  0.382700  1.0  0.1183
  H  H88  1  0.478600  0.378700  0.509800  1.0  0.1228
  H  H89  1  0.578700  0.445300  0.370700  1.0  0.1199
  H  H90  1  0.615400  0.187700  0.380300  1.0  0.118
  H  H91  1  0.509800  0.140400  0.522500  1.0  0.1072
  H  H92  1  0.605100  0.080100  0.474300  1.0  0.1161
  H  H93  1  0.617700  0.467700  0.319100  1.0  0.0793
  H  H94  1  0.655300  0.223900  0.332600  1.0  0.0703
  H  H95  1  0.521100  0.012700  0.566500  1.0  0.0941
  H  H96  1  0.615200  0.957300  0.520300  1.0  0.0839
  H  H97  1  0.656800  0.167200  0.163400  1.0  0.0713
  H  H98  1  0.600100  0.944200  0.124600  1.0  0.0786
  H  H99  1  0.693100  0.094600  0.222600  1.0  0.1101
  H  H100  1  0.635600  0.864100  0.181200  1.0  0.1185
  H  H101  1  0.645100  0.690000  0.237900  1.0  0.1127
  H  H102  1  0.744500  0.645600  0.325100  1.0  0.1044
  H  H103  1  0.785600  0.848400  0.378800  1.0  0.1197
  H  H104  1  0.770500  0.072400  0.304600  1.0  0.1133
  H  H105  1  0.633700  0.536600  0.236400  1.0  0.0888
  H  H106  1  0.733200  0.492600  0.315900  1.0  0.0827
  H  H107  1  0.834200  0.923700  0.426300  1.0  0.0778
  H  H108  1  0.819800  0.139900  0.353600  1.0  0.0801
  H  H109  1  0.922500  0.021700  0.382500  1.0  0.0744
  H  H110  1  0.926300  0.974700  0.506500  1.0  0.0745
  H  H111  1  0.976100  0.935100  0.382700  1.0  0.1183
  H  H112  1  0.978600  0.878700  0.509800  1.0  0.1228
  H  H113  1  0.078700  0.945300  0.370700  1.0  0.1199
  H  H114  1  0.115400  0.687700  0.380300  1.0  0.118
  H  H115  1  0.009800  0.640400  0.522500  1.0  0.1072
  H  H116  1  0.105100  0.580100  0.474300  1.0  0.1161
  H  H117  1  0.117700  0.967700  0.319100  1.0  0.0793
  H  H118  1  0.155300  0.723900  0.332600  1.0  0.0703
  H  H119  1  0.021100  0.512700  0.566500  1.0  0.0941
  H  H120  1  0.115200  0.457300  0.520300  1.0  0.0839
  H  H121  1  0.843200  0.332800  0.836600  1.0  0.0723
  H  H122  1  0.899900  0.555800  0.875400  1.0  0.0786
  H  H123  1  0.806900  0.405400  0.777400  1.0  0.1101
  H  H124  1  0.864400  0.635900  0.818800  1.0  0.118
  H  H125  1  0.854900  0.810000  0.762100  1.0  0.1125
  H  H126  1  0.755500  0.854400  0.674900  1.0  0.1036
  H  H127  1  0.714400  0.651600  0.621200  1.0  0.1199
  H  H128  1  0.729500  0.427600  0.695400  1.0  0.1124
  H  H129  1  0.866300  0.963400  0.763600  1.0  0.0859
  H  H130  1  0.766800  0.007400  0.684100  1.0  0.0822
  H  H131  1  0.665800  0.576300  0.573700  1.0  0.0771
  H  H132  1  0.680200  0.360100  0.646400  1.0  0.0798
  H  H133  1  0.577500  0.478300  0.617500  1.0  0.0747
  H  H134  1  0.573700  0.525300  0.493500  1.0  0.0745
  H  H135  1  0.523900  0.564900  0.617300  1.0  0.1181
  H  H136  1  0.521400  0.621300  0.490200  1.0  0.1217
  H  H137  1  0.421300  0.554700  0.629300  1.0  0.1197
  H  H138  1  0.384600  0.812300  0.619700  1.0  0.1184
  H  H139  1  0.490200  0.859600  0.477500  1.0  0.1068
  H  H140  1  0.394900  0.919900  0.525700  1.0  0.1158
  H  H141  1  0.382300  0.532300  0.680900  1.0  0.0797
  H  H142  1  0.344700  0.776100  0.667400  1.0  0.0709
  H  H143  1  0.478900  0.987300  0.433500  1.0  0.0937
  H  H144  1  0.384800  0.042700  0.479700  1.0  0.0838
  H  H145  1  0.343200  0.832800  0.836600  1.0  0.0723
  H  H146  1  0.399900  0.055800  0.875400  1.0  0.0786
  H  H147  1  0.306900  0.905400  0.777400  1.0  0.1101
  H  H148  1  0.364400  0.135900  0.818800  1.0  0.118
  H  H149  1  0.354900  0.310000  0.762100  1.0  0.1125
  H  H150  1  0.255500  0.354400  0.674900  1.0  0.1036
  H  H151  1  0.214400  0.151600  0.621200  1.0  0.1199
  H  H152  1  0.229500  0.927600  0.695400  1.0  0.1124
  H  H153  1  0.366300  0.463400  0.763600  1.0  0.0859
  H  H154  1  0.266800  0.507400  0.684100  1.0  0.0822
  H  H155  1  0.165800  0.076300  0.573700  1.0  0.0771
  H  H156  1  0.180200  0.860100  0.646400  1.0  0.0798
  H  H157  1  0.077500  0.978300  0.617500  1.0  0.0747
  H  H158  1  0.073700  0.025300  0.493500  1.0  0.0745
  H  H159  1  0.023900  0.064900  0.617300  1.0  0.1181
  H  H160  1  0.021400  0.121300  0.490200  1.0  0.1217
  H  H161  1  0.921300  0.054700  0.629300  1.0  0.1197
  H  H162  1  0.884600  0.312300  0.619700  1.0  0.1184
  H  H163  1  0.990200  0.359600  0.477500  1.0  0.1068
  H  H164  1  0.894900  0.419900  0.525700  1.0  0.1158
  H  H165  1  0.882300  0.032300  0.680900  1.0  0.0797
  H  H166  1  0.844700  0.276100  0.667400  1.0  0.0709
  H  H167  1  0.978900  0.487300  0.433500  1.0  0.0937
  H  H168  1  0.884800  0.542700  0.479700  1.0  0.0838
  H  H169  1  0.843200  0.667200  0.336600  1.0  0.0712
  H  H170  1  0.899900  0.444200  0.375400  1.0  0.079
  H  H171  1  0.806900  0.594600  0.277400  1.0  0.1104
  H  H172  1  0.864400  0.364100  0.318800  1.0  0.1188
  H  H173  1  0.854900  0.190000  0.262100  1.0  0.1122
  H  H174  1  0.755500  0.145600  0.174900  1.0  0.1036
  H  H175  1  0.714400  0.348400  0.121200  1.0  0.1198
  H  H176  1  0.729500  0.572400  0.195400  1.0  0.1121
  H  H177  1  0.866300  0.036600  0.263600  1.0  0.0864
  H  H178  1  0.766800  0.992600  0.184100  1.0  0.0818
  H  H179  1  0.665800  0.423700  0.073700  1.0  0.0771
  H  H180  1  0.680200  0.639900  0.146400  1.0  0.0807
  H  H181  1  0.577500  0.521700  0.117500  1.0  0.0745
  H  H182  1  0.573700  0.474700  0.993500  1.0  0.0743
  H  H183  1  0.523900  0.435100  0.117300  1.0  0.1179
  H  H184  1  0.521400  0.378700  0.990200  1.0  0.1222
  H  H185  1  0.421300  0.445300  0.129300  1.0  0.12
  H  H186  1  0.384600  0.187700  0.119700  1.0  0.1181
  H  H187  1  0.490200  0.140400  0.977500  1.0  0.1072
  H  H188  1  0.394900  0.080100  0.025700  1.0  0.1159
  H  H189  1  0.382300  0.467700  0.180900  1.0  0.0792
  H  H190  1  0.344700  0.223900  0.167400  1.0  0.0697
  H  H191  1  0.478900  0.012700  0.933500  1.0  0.094
  H  H192  1  0.384800  0.957300  0.979700  1.0  0.0837
  H  H193  1  0.343200  0.167200  0.336600  1.0  0.0712
  H  H194  1  0.399900  0.944200  0.375400  1.0  0.079
  H  H195  1  0.306900  0.094600  0.277400  1.0  0.1104
  H  H196  1  0.364400  0.864100  0.318800  1.0  0.1188
  H  H197  1  0.354900  0.690000  0.262100  1.0  0.1122
  H  H198  1  0.255500  0.645600  0.174900  1.0  0.1036
  H  H199  1  0.214400  0.848400  0.121200  1.0  0.1198
  H  H200  1  0.229500  0.072400  0.195400  1.0  0.1121
  H  H201  1  0.366300  0.536600  0.263600  1.0  0.0864
  H  H202  1  0.266800  0.492600  0.184100  1.0  0.0818
  H  H203  1  0.165800  0.923700  0.073700  1.0  0.0771
  H  H204  1  0.180200  0.139900  0.146400  1.0  0.0807
  H  H205  1  0.077500  0.021700  0.117500  1.0  0.0745
  H  H206  1  0.073700  0.974700  0.993500  1.0  0.0743
  H  H207  1  0.023900  0.935100  0.117300  1.0  0.1179
  H  H208  1  0.021400  0.878700  0.990200  1.0  0.1222
  H  H209  1  0.921300  0.945300  0.129300  1.0  0.12
  H  H210  1  0.884600  0.687700  0.119700  1.0  0.1181
  H  H211  1  0.990200  0.640400  0.977500  1.0  0.1072
  H  H212  1  0.894900  0.580100  0.025700  1.0  0.1159
  H  H213  1  0.882300  0.967700  0.180900  1.0  0.0792
  H  H214  1  0.844700  0.723900  0.167400  1.0  0.0697
  H  H215  1  0.978900  0.512700  0.933500  1.0  0.094
  H  H216  1  0.884800  0.457300  0.979700  1.0  0.0837
  C  C217  1  0.152300  0.394100  0.667600  1.0  0.1466
  C  C218  1  0.119100  0.525700  0.644700  1.0  0.155
  C  C219  1  0.174500  0.437400  0.702800  1.0  -0.1382
  C  C220  1  0.140300  0.574300  0.678500  1.0  -0.1031
  C  C221  1  0.169000  0.530300  0.708900  1.0  -0.0891
  C  C222  1  0.192200  0.582300  0.745700  1.0  0.3855
  C  C223  1  0.204800  0.715600  0.781600  1.0  0.4104
  C  C224  1  0.240900  0.592400  0.804800  1.0  0.3825
  C  C225  1  0.196400  0.813000  0.782100  1.0  -0.1207
  C  C226  1  0.272800  0.548000  0.836300  1.0  -0.0703
  C  C227  1  0.163000  0.848600  0.754900  1.0  -0.1432
  C  C228  1  0.222300  0.874800  0.805900  1.0  -0.1088
  C  C229  1  0.292000  0.592200  0.873000  1.0  -0.1476
  C  C230  1  0.283200  0.459300  0.829100  1.0  -0.1291
  C  C231  1  0.156700  0.940800  0.753500  1.0  0.1325
  C  C232  1  0.214900  0.966600  0.801100  1.0  0.1483
  C  C233  1  0.321100  0.546100  0.901500  1.0  0.1618
  C  C234  1  0.312600  0.419200  0.858900  1.0  0.153
  C  C235  1  0.434400  0.506100  0.908600  1.0  0.1419
  C  C236  1  0.436400  0.534500  0.981200  1.0  0.148
  C  C237  1  0.466100  0.558900  0.908200  1.0  -0.1701
  C  C238  1  0.468000  0.591700  0.983700  1.0  -0.1604
  C  C239  1  0.483500  0.603700  0.945900  1.0  -0.0512
  C  C240  1  0.517300  0.664100  0.945300  1.0  0.3504
  C  C241  1  0.567300  0.705500  0.913100  1.0  0.433
  C  C242  1  0.551100  0.791000  0.966300  1.0  0.3689
  C  C243  1  0.592000  0.687900  0.880800  1.0  -0.0793
  C  C244  1  0.556300  0.873900  0.994100  1.0  -0.0594
  C  C245  1  0.593200  0.602400  0.862500  1.0  -0.1577
  C  C246  1  0.615100  0.754100  0.868700  1.0  -0.1721
  C  C247  1  0.531400  0.896000  0.021500  1.0  -0.0886
  C  C248  1  0.588000  0.931600  0.993200  1.0  -0.0897
  C  C249  1  0.616600  0.589700  0.831300  1.0  0.1463
  C  C250  1  0.638000  0.732100  0.838700  1.0  0.1802
  C  C251  1  0.538300  0.973200  0.048100  1.0  0.1306
  C  C252  1  0.593700  0.005700  0.020500  1.0  0.1456
  C  C253  1  0.652300  0.894100  0.667600  1.0  0.1466
  C  C254  1  0.619100  0.025700  0.644700  1.0  0.155
  C  C255  1  0.674500  0.937400  0.702800  1.0  -0.1382
  C  C256  1  0.640300  0.074300  0.678500  1.0  -0.1031
  C  C257  1  0.669000  0.030300  0.708900  1.0  -0.0891
  C  C258  1  0.692200  0.082300  0.745700  1.0  0.3855
  C  C259  1  0.704800  0.215600  0.781600  1.0  0.4104
  C  C260  1  0.740900  0.092400  0.804800  1.0  0.3825
  C  C261  1  0.696400  0.313000  0.782100  1.0  -0.1207
  C  C262  1  0.772800  0.048000  0.836300  1.0  -0.0703
  C  C263  1  0.663000  0.348600  0.754900  1.0  -0.1432
  C  C264  1  0.722300  0.374800  0.805900  1.0  -0.1088
  C  C265  1  0.792000  0.092200  0.873000  1.0  -0.1476
  C  C266  1  0.783200  0.959300  0.829100  1.0  -0.1291
  C  C267  1  0.656700  0.440800  0.753500  1.0  0.1325
  C  C268  1  0.714900  0.466600  0.801100  1.0  0.1483
  C  C269  1  0.821100  0.046100  0.901500  1.0  0.1618
  C  C270  1  0.812600  0.919200  0.858900  1.0  0.153
  C  C271  1  0.934400  0.006100  0.908600  1.0  0.1419
  C  C272  1  0.936400  0.034500  0.981200  1.0  0.148
  C  C273  1  0.966100  0.058900  0.908200  1.0  -0.1701
  C  C274  1  0.968000  0.091700  0.983700  1.0  -0.1604
  C  C275  1  0.983500  0.103700  0.945900  1.0  -0.0512
  C  C276  1  0.017300  0.164100  0.945300  1.0  0.3504
  C  C277  1  0.067300  0.205500  0.913100  1.0  0.433
  C  C278  1  0.051100  0.291000  0.966300  1.0  0.3689
  C  C279  1  0.092000  0.187900  0.880800  1.0  -0.0793
  C  C280  1  0.056300  0.373900  0.994100  1.0  -0.0594
  C  C281  1  0.093200  0.102400  0.862500  1.0  -0.1577
  C  C282  1  0.115100  0.254100  0.868700  1.0  -0.1721
  C  C283  1  0.031400  0.396000  0.021500  1.0  -0.0886
  C  C284  1  0.088000  0.431600  0.993200  1.0  -0.0897
  C  C285  1  0.116600  0.089700  0.831300  1.0  0.1463
  C  C286  1  0.138000  0.232100  0.838700  1.0  0.1802
  C  C287  1  0.038300  0.473200  0.048100  1.0  0.1306
  C  C288  1  0.093700  0.505700  0.020500  1.0  0.1456
  C  C289  1  0.152300  0.605900  0.167600  1.0  0.1471
  C  C290  1  0.119100  0.474300  0.144700  1.0  0.1553
  C  C291  1  0.174500  0.562600  0.202800  1.0  -0.1401
  C  C292  1  0.140300  0.425700  0.178500  1.0  -0.1022
  C  C293  1  0.169000  0.469700  0.208900  1.0  -0.0892
  C  C294  1  0.192200  0.417700  0.245700  1.0  0.3858
  C  C295  1  0.204800  0.284400  0.281600  1.0  0.4107
  C  C296  1  0.240900  0.407600  0.304800  1.0  0.3825
  C  C297  1  0.196400  0.187000  0.282100  1.0  -0.1213
  C  C298  1  0.272800  0.452000  0.336300  1.0  -0.0696
  C  C299  1  0.163000  0.151400  0.254900  1.0  -0.1438
  C  C300  1  0.222300  0.125200  0.305900  1.0  -0.109
  C  C301  1  0.292000  0.407800  0.373000  1.0  -0.1459
  C  C302  1  0.283200  0.540700  0.329100  1.0  -0.13
  C  C303  1  0.156700  0.059200  0.253500  1.0  0.1329
  C  C304  1  0.214900  0.033400  0.301100  1.0  0.1479
  C  C305  1  0.321100  0.453900  0.401500  1.0  0.1623
  C  C306  1  0.312600  0.580800  0.358900  1.0  0.1541
  C  C307  1  0.434400  0.493900  0.408600  1.0  0.1416
  C  C308  1  0.436400  0.465500  0.481200  1.0  0.1482
  C  C309  1  0.466100  0.441100  0.408200  1.0  -0.1706
  C  C310  1  0.468000  0.408300  0.483700  1.0  -0.1597
  C  C311  1  0.483500  0.396300  0.445900  1.0  -0.0509
  C  C312  1  0.517300  0.335900  0.445300  1.0  0.3504
  C  C313  1  0.567300  0.294500  0.413100  1.0  0.4329
  C  C314  1  0.551100  0.209000  0.466300  1.0  0.3691
  C  C315  1  0.592000  0.312100  0.380800  1.0  -0.0795
  C  C316  1  0.556300  0.126100  0.494100  1.0  -0.0598
  C  C317  1  0.593200  0.397600  0.362500  1.0  -0.1597
  C  C318  1  0.615100  0.245900  0.368700  1.0  -0.1721
  C  C319  1  0.531400  0.104000  0.521500  1.0  -0.0902
  C  C320  1  0.588000  0.068400  0.493200  1.0  -0.0908
  C  C321  1  0.616600  0.410300  0.331300  1.0  0.1447
  C  C322  1  0.638000  0.267900  0.338700  1.0  0.1792
  C  C323  1  0.538300  0.026800  0.548100  1.0  0.1311
  C  C324  1  0.593700  0.994300  0.520500  1.0  0.1427
  C  C325  1  0.652300  0.105900  0.167600  1.0  0.1471
  C  C326  1  0.619100  0.974300  0.144700  1.0  0.1553
  C  C327  1  0.674500  0.062600  0.202800  1.0  -0.1401
  C  C328  1  0.640300  0.925700  0.178500  1.0  -0.1022
  C  C329  1  0.669000  0.969700  0.208900  1.0  -0.0892
  C  C330  1  0.692200  0.917700  0.245700  1.0  0.3858
  C  C331  1  0.704800  0.784400  0.281600  1.0  0.4107
  C  C332  1  0.740900  0.907600  0.304800  1.0  0.3825
  C  C333  1  0.696400  0.687000  0.282100  1.0  -0.1213
  C  C334  1  0.772800  0.952000  0.336300  1.0  -0.0696
  C  C335  1  0.663000  0.651400  0.254900  1.0  -0.1438
  C  C336  1  0.722300  0.625200  0.305900  1.0  -0.109
  C  C337  1  0.792000  0.907800  0.373000  1.0  -0.1459
  C  C338  1  0.783200  0.040700  0.329100  1.0  -0.13
  C  C339  1  0.656700  0.559200  0.253500  1.0  0.1329
  C  C340  1  0.714900  0.533400  0.301100  1.0  0.1479
  C  C341  1  0.821100  0.953900  0.401500  1.0  0.1623
  C  C342  1  0.812600  0.080800  0.358900  1.0  0.1541
  C  C343  1  0.934400  0.993900  0.408600  1.0  0.1416
  C  C344  1  0.936400  0.965500  0.481200  1.0  0.1482
  C  C345  1  0.966100  0.941100  0.408200  1.0  -0.1706
  C  C346  1  0.968000  0.908300  0.483700  1.0  -0.1597
  C  C347  1  0.983500  0.896300  0.445900  1.0  -0.0509
  C  C348  1  0.017300  0.835900  0.445300  1.0  0.3504
  C  C349  1  0.067300  0.794500  0.413100  1.0  0.4329
  C  C350  1  0.051100  0.709000  0.466300  1.0  0.3691
  C  C351  1  0.092000  0.812100  0.380800  1.0  -0.0795
  C  C352  1  0.056300  0.626100  0.494100  1.0  -0.0598
  C  C353  1  0.093200  0.897600  0.362500  1.0  -0.1597
  C  C354  1  0.115100  0.745900  0.368700  1.0  -0.1721
  C  C355  1  0.031400  0.604000  0.521500  1.0  -0.0902
  C  C356  1  0.088000  0.568400  0.493200  1.0  -0.0908
  C  C357  1  0.116600  0.910300  0.331300  1.0  0.1447
  C  C358  1  0.138000  0.767900  0.338700  1.0  0.1792
  C  C359  1  0.038300  0.526800  0.548100  1.0  0.1311
  C  C360  1  0.093700  0.494300  0.520500  1.0  0.1427
  C  C361  1  0.847700  0.394100  0.832400  1.0  0.1464
  C  C362  1  0.880900  0.525700  0.855300  1.0  0.1563
  C  C363  1  0.825500  0.437400  0.797200  1.0  -0.1393
  C  C364  1  0.859700  0.574300  0.821500  1.0  -0.1035
  C  C365  1  0.831000  0.530300  0.791100  1.0  -0.0893
  C  C366  1  0.807800  0.582300  0.754300  1.0  0.386
  C  C367  1  0.795200  0.715600  0.718400  1.0  0.4095
  C  C368  1  0.759100  0.592400  0.695200  1.0  0.3804
  C  C369  1  0.803600  0.813000  0.717900  1.0  -0.1208
  C  C370  1  0.727200  0.548000  0.663700  1.0  -0.0694
  C  C371  1  0.837000  0.848600  0.745100  1.0  -0.1429
  C  C372  1  0.777700  0.874800  0.694100  1.0  -0.1072
  C  C373  1  0.708000  0.592200  0.627000  1.0  -0.1472
  C  C374  1  0.716800  0.459300  0.670900  1.0  -0.128
  C  C375  1  0.843300  0.940800  0.746500  1.0  0.134
  C  C376  1  0.785100  0.966600  0.698900  1.0  0.149
  C  C377  1  0.678900  0.546100  0.598500  1.0  0.1606
  C  C378  1  0.687400  0.419200  0.641100  1.0  0.1539
  C  C379  1  0.565600  0.506100  0.591400  1.0  0.1428
  C  C380  1  0.563600  0.534500  0.518800  1.0  0.1473
  C  C381  1  0.533900  0.558900  0.591800  1.0  -0.1745
  C  C382  1  0.532000  0.591700  0.516300  1.0  -0.1607
  C  C383  1  0.516500  0.603700  0.554100  1.0  -0.0496
  C  C384  1  0.482700  0.664100  0.554700  1.0  0.3514
  C  C385  1  0.432700  0.705500  0.586900  1.0  0.4324
  C  C386  1  0.448900  0.791000  0.533700  1.0  0.3682
  C  C387  1  0.408000  0.687900  0.619200  1.0  -0.0783
  C  C388  1  0.443700  0.873900  0.505900  1.0  -0.0595
  C  C389  1  0.406800  0.602400  0.637500  1.0  -0.1582
  C  C390  1  0.384900  0.754100  0.631300  1.0  -0.172
  C  C391  1  0.468600  0.896000  0.478500  1.0  -0.0887
  C  C392  1  0.412000  0.931600  0.506800  1.0  -0.0908
  C  C393  1  0.383400  0.589700  0.668700  1.0  0.1464
  C  C394  1  0.362000  0.732100  0.661300  1.0  0.1792
  C  C395  1  0.461700  0.973200  0.451900  1.0  0.1311
  C  C396  1  0.406300  0.005700  0.479500  1.0  0.1431
  C  C397  1  0.347700  0.894100  0.832400  1.0  0.1464
  C  C398  1  0.380900  0.025700  0.855300  1.0  0.1563
  C  C399  1  0.325500  0.937400  0.797200  1.0  -0.1393
  C  C400  1  0.359700  0.074300  0.821500  1.0  -0.1035
  C  C401  1  0.331000  0.030300  0.791100  1.0  -0.0893
  C  C402  1  0.307800  0.082300  0.754300  1.0  0.386
  C  C403  1  0.295200  0.215600  0.718400  1.0  0.4095
  C  C404  1  0.259100  0.092400  0.695200  1.0  0.3804
  C  C405  1  0.303600  0.313000  0.717900  1.0  -0.1208
  C  C406  1  0.227200  0.048000  0.663700  1.0  -0.0694
  C  C407  1  0.337000  0.348600  0.745100  1.0  -0.1429
  C  C408  1  0.277700  0.374800  0.694100  1.0  -0.1072
  C  C409  1  0.208000  0.092200  0.627000  1.0  -0.1472
  C  C410  1  0.216800  0.959300  0.670900  1.0  -0.128
  C  C411  1  0.343300  0.440800  0.746500  1.0  0.134
  C  C412  1  0.285100  0.466600  0.698900  1.0  0.149
  C  C413  1  0.178900  0.046100  0.598500  1.0  0.1606
  C  C414  1  0.187400  0.919200  0.641100  1.0  0.1539
  C  C415  1  0.065600  0.006100  0.591400  1.0  0.1428
  C  C416  1  0.063600  0.034500  0.518800  1.0  0.1473
  C  C417  1  0.033900  0.058900  0.591800  1.0  -0.1745
  C  C418  1  0.032000  0.091700  0.516300  1.0  -0.1607
  C  C419  1  0.016500  0.103700  0.554100  1.0  -0.0496
  C  C420  1  0.982700  0.164100  0.554700  1.0  0.3514
  C  C421  1  0.932700  0.205500  0.586900  1.0  0.4324
  C  C422  1  0.948900  0.291000  0.533700  1.0  0.3682
  C  C423  1  0.908000  0.187900  0.619200  1.0  -0.0783
  C  C424  1  0.943700  0.373900  0.505900  1.0  -0.0595
  C  C425  1  0.906800  0.102400  0.637500  1.0  -0.1582
  C  C426  1  0.884900  0.254100  0.631300  1.0  -0.172
  C  C427  1  0.968600  0.396000  0.478500  1.0  -0.0887
  C  C428  1  0.912000  0.431600  0.506800  1.0  -0.0908
  C  C429  1  0.883400  0.089700  0.668700  1.0  0.1464
  C  C430  1  0.862000  0.232100  0.661300  1.0  0.1792
  C  C431  1  0.961700  0.473200  0.451900  1.0  0.1311
  C  C432  1  0.906300  0.505700  0.479500  1.0  0.1431
  C  C433  1  0.847700  0.605900  0.332400  1.0  0.146
  C  C434  1  0.880900  0.474300  0.355300  1.0  0.1563
  C  C435  1  0.825500  0.562600  0.297200  1.0  -0.1396
  C  C436  1  0.859700  0.425700  0.321500  1.0  -0.1025
  C  C437  1  0.831000  0.469700  0.291100  1.0  -0.0896
  C  C438  1  0.807800  0.417700  0.254300  1.0  0.3862
  C  C439  1  0.795200  0.284400  0.218400  1.0  0.4092
  C  C440  1  0.759100  0.407600  0.195200  1.0  0.3805
  C  C441  1  0.803600  0.187000  0.217900  1.0  -0.1205
  C  C442  1  0.727200  0.452000  0.163700  1.0  -0.0687
  C  C443  1  0.837000  0.151400  0.245100  1.0  -0.1434
  C  C444  1  0.777700  0.125200  0.194100  1.0  -0.1074
  C  C445  1  0.708000  0.407800  0.127000  1.0  -0.1454
  C  C446  1  0.716800  0.540700  0.170900  1.0  -0.1299
  C  C447  1  0.843300  0.059200  0.246500  1.0  0.134
  C  C448  1  0.785100  0.033400  0.198900  1.0  0.148
  C  C449  1  0.678900  0.453900  0.098500  1.0  0.1603
  C  C450  1  0.687400  0.580800  0.141100  1.0  0.1539
  C  C451  1  0.565600  0.493900  0.091400  1.0  0.1409
  C  C452  1  0.563600  0.465500  0.018800  1.0  0.1479
  C  C453  1  0.533900  0.441100  0.091800  1.0  -0.175
  C  C454  1  0.532000  0.408300  0.016300  1.0  -0.1605
  C  C455  1  0.516500  0.396300  0.054100  1.0  -0.0496
  C  C456  1  0.482700  0.335900  0.054700  1.0  0.3513
  C  C457  1  0.432700  0.294500  0.086900  1.0  0.4326
  C  C458  1  0.448900  0.209000  0.033700  1.0  0.3684
  C  C459  1  0.408000  0.312100  0.119200  1.0  -0.0784
  C  C460  1  0.443700  0.126100  0.005900  1.0  -0.0599
  C  C461  1  0.406800  0.397600  0.137500  1.0  -0.1594
  C  C462  1  0.384900  0.245900  0.131300  1.0  -0.1707
  C  C463  1  0.468600  0.104000  0.978500  1.0  -0.089
  C  C464  1  0.412000  0.068400  0.006800  1.0  -0.0908
  C  C465  1  0.383400  0.410300  0.168700  1.0  0.1451
  C  C466  1  0.362000  0.267900  0.161300  1.0  0.1805
  C  C467  1  0.461700  0.026800  0.951900  1.0  0.1309
  C  C468  1  0.406300  0.994300  0.979500  1.0  0.1439
  C  C469  1  0.347700  0.105900  0.332400  1.0  0.146
  C  C470  1  0.380900  0.974300  0.355300  1.0  0.1563
  C  C471  1  0.325500  0.062600  0.297200  1.0  -0.1396
  C  C472  1  0.359700  0.925700  0.321500  1.0  -0.1025
  C  C473  1  0.331000  0.969700  0.291100  1.0  -0.0896
  C  C474  1  0.307800  0.917700  0.254300  1.0  0.3862
  C  C475  1  0.295200  0.784400  0.218400  1.0  0.4092
  C  C476  1  0.259100  0.907600  0.195200  1.0  0.3805
  C  C477  1  0.303600  0.687000  0.217900  1.0  -0.1205
  C  C478  1  0.227200  0.952000  0.163700  1.0  -0.0687
  C  C479  1  0.337000  0.651400  0.245100  1.0  -0.1434
  C  C480  1  0.277700  0.625200  0.194100  1.0  -0.1074
  C  C481  1  0.208000  0.907800  0.127000  1.0  -0.1454
  C  C482  1  0.216800  0.040700  0.170900  1.0  -0.1299
  C  C483  1  0.343300  0.559200  0.246500  1.0  0.134
  C  C484  1  0.285100  0.533400  0.198900  1.0  0.148
  C  C485  1  0.178900  0.953900  0.098500  1.0  0.1603
  C  C486  1  0.187400  0.080800  0.141100  1.0  0.1539
  C  C487  1  0.065600  0.993900  0.091400  1.0  0.1409
  C  C488  1  0.063600  0.965500  0.018800  1.0  0.1479
  C  C489  1  0.033900  0.941100  0.091800  1.0  -0.175
  C  C490  1  0.032000  0.908300  0.016300  1.0  -0.1605
  C  C491  1  0.016500  0.896300  0.054100  1.0  -0.0496
  C  C492  1  0.982700  0.835900  0.054700  1.0  0.3513
  C  C493  1  0.932700  0.794500  0.086900  1.0  0.4326
  C  C494  1  0.948900  0.709000  0.033700  1.0  0.3684
  C  C495  1  0.908000  0.812100  0.119200  1.0  -0.0784
  C  C496  1  0.943700  0.626100  0.005900  1.0  -0.0599
  C  C497  1  0.906800  0.897600  0.137500  1.0  -0.1594
  C  C498  1  0.884900  0.745900  0.131300  1.0  -0.1707
  C  C499  1  0.968600  0.604000  0.978500  1.0  -0.089
  C  C500  1  0.912000  0.568400  0.006800  1.0  -0.0908
  C  C501  1  0.883400  0.910300  0.168700  1.0  0.1451
  C  C502  1  0.862000  0.767900  0.161300  1.0  0.1805
  C  C503  1  0.961700  0.526800  0.951900  1.0  0.1309
  C  C504  1  0.906300  0.494300  0.979500  1.0  0.1439
  I  I505  1  0.120410  0.253650  0.555540  1.0  -0.4376
  I  I506  1  0.026440  0.344910  0.631060  1.0  -0.3357
  I  I507  1  0.122750  0.151650  0.695120  1.0  -0.443
  I  I508  1  0.229750  0.233230  0.791160  1.0  -0.455
  I  I509  1  0.396960  0.262190  0.903040  1.0  -0.4546
  I  I510  1  0.351060  0.403440  0.013160  1.0  -0.3433
  I  I511  1  0.620410  0.753650  0.555540  1.0  -0.4376
  I  I512  1  0.526440  0.844910  0.631060  1.0  -0.3357
  I  I513  1  0.622750  0.651650  0.695120  1.0  -0.443
  I  I514  1  0.729750  0.733230  0.791160  1.0  -0.455
  I  I515  1  0.896960  0.762190  0.903040  1.0  -0.4546
  I  I516  1  0.851060  0.903440  0.013160  1.0  -0.3433
  I  I517  1  0.120410  0.746350  0.055540  1.0  -0.4377
  I  I518  1  0.026440  0.655090  0.131060  1.0  -0.3354
  I  I519  1  0.122750  0.848350  0.195120  1.0  -0.4435
  I  I520  1  0.229750  0.766770  0.291160  1.0  -0.4551
  I  I521  1  0.396960  0.737810  0.403040  1.0  -0.4545
  I  I522  1  0.351060  0.596560  0.513160  1.0  -0.3431
  I  I523  1  0.620410  0.246350  0.055540  1.0  -0.4377
  I  I524  1  0.526440  0.155090  0.131060  1.0  -0.3354
  I  I525  1  0.622750  0.348350  0.195120  1.0  -0.4435
  I  I526  1  0.729750  0.266770  0.291160  1.0  -0.4551
  I  I527  1  0.896960  0.237810  0.403040  1.0  -0.4545
  I  I528  1  0.851060  0.096560  0.513160  1.0  -0.3431
  I  I529  1  0.879590  0.253650  0.944460  1.0  -0.4343
  I  I530  1  0.973560  0.344910  0.868940  1.0  -0.3342
  I  I531  1  0.877250  0.151650  0.804880  1.0  -0.4441
  I  I532  1  0.770250  0.233230  0.708840  1.0  -0.4542
  I  I533  1  0.603040  0.262190  0.596960  1.0  -0.4547
  I  I534  1  0.648940  0.403440  0.486840  1.0  -0.3427
  I  I535  1  0.379590  0.753650  0.944460  1.0  -0.4343
  I  I536  1  0.473560  0.844910  0.868940  1.0  -0.3342
  I  I537  1  0.377250  0.651650  0.804880  1.0  -0.4441
  I  I538  1  0.270250  0.733230  0.708840  1.0  -0.4542
  I  I539  1  0.103040  0.762190  0.596960  1.0  -0.4547
  I  I540  1  0.148940  0.903440  0.486840  1.0  -0.3427
  I  I541  1  0.879590  0.746350  0.444460  1.0  -0.4344
  I  I542  1  0.973560  0.655090  0.368940  1.0  -0.3337
  I  I543  1  0.877250  0.848350  0.304880  1.0  -0.4446
  I  I544  1  0.770250  0.766770  0.208840  1.0  -0.4542
  I  I545  1  0.603040  0.737810  0.096960  1.0  -0.4545
  I  I546  1  0.648940  0.596560  0.986840  1.0  -0.3429
  I  I547  1  0.379590  0.246350  0.444460  1.0  -0.4344
  I  I548  1  0.473560  0.155090  0.368940  1.0  -0.3337
  I  I549  1  0.377250  0.348350  0.304880  1.0  -0.4446
  I  I550  1  0.270250  0.266770  0.208840  1.0  -0.4542
  I  I551  1  0.103040  0.237810  0.096960  1.0  -0.4545
  I  I552  1  0.148940  0.096560  0.986840  1.0  -0.3429
  N  N553  1  0.569100  0.027000  0.047700  1.0  -0.3033
  N  N554  1  0.124300  0.436400  0.638800  1.0  -0.3417
  N  N555  1  0.182400  0.669400  0.748900  1.0  -0.5127
  N  N556  1  0.221700  0.541000  0.771900  1.0  -0.4686
  N  N557  1  0.233400  0.680500  0.810900  1.0  -0.2985
  N  N558  1  0.182300  0.998400  0.775700  1.0  -0.3148
  N  N559  1  0.331300  0.461100  0.895100  1.0  -0.3267
  N  N560  1  0.637500  0.656000  0.818300  1.0  -0.3289
  N  N561  1  0.419300  0.491600  0.944600  1.0  -0.3211
  N  N562  1  0.539100  0.644900  0.915100  1.0  -0.4355
  N  N563  1  0.522600  0.733600  0.972800  1.0  -0.4545
  N  N564  1  0.573400  0.781100  0.937300  1.0  -0.406
  N  N565  1  0.069100  0.527000  0.047700  1.0  -0.3033
  N  N566  1  0.624300  0.936400  0.638800  1.0  -0.3417
  N  N567  1  0.682400  0.169400  0.748900  1.0  -0.5127
  N  N568  1  0.721700  0.041000  0.771900  1.0  -0.4686
  N  N569  1  0.733400  0.180500  0.810900  1.0  -0.2985
  N  N570  1  0.682300  0.498400  0.775700  1.0  -0.3148
  N  N571  1  0.831300  0.961100  0.895100  1.0  -0.3267
  N  N572  1  0.137500  0.156000  0.818300  1.0  -0.3289
  N  N573  1  0.919300  0.991600  0.944600  1.0  -0.3211
  N  N574  1  0.039100  0.144900  0.915100  1.0  -0.4355
  N  N575  1  0.022600  0.233600  0.972800  1.0  -0.4545
  N  N576  1  0.073400  0.281100  0.937300  1.0  -0.406
  N  N577  1  0.569100  0.973000  0.547700  1.0  -0.303
  N  N578  1  0.124300  0.563600  0.138800  1.0  -0.34
  N  N579  1  0.182400  0.330600  0.248900  1.0  -0.5131
  N  N580  1  0.221700  0.459000  0.271900  1.0  -0.4688
  N  N581  1  0.233400  0.319500  0.310900  1.0  -0.2981
  N  N582  1  0.182300  0.001600  0.275700  1.0  -0.3144
  N  N583  1  0.331300  0.538900  0.395100  1.0  -0.3276
  N  N584  1  0.637500  0.344000  0.318300  1.0  -0.3289
  N  N585  1  0.419300  0.508400  0.444600  1.0  -0.3193
  N  N586  1  0.539100  0.355100  0.415100  1.0  -0.4364
  N  N587  1  0.522600  0.266400  0.472800  1.0  -0.455
  N  N588  1  0.573400  0.218900  0.437300  1.0  -0.4048
  N  N589  1  0.069100  0.473000  0.547700  1.0  -0.303
  N  N590  1  0.624300  0.063600  0.138800  1.0  -0.34
  N  N591  1  0.682400  0.830600  0.248900  1.0  -0.5131
  N  N592  1  0.721700  0.959000  0.271900  1.0  -0.4688
  N  N593  1  0.733400  0.819500  0.310900  1.0  -0.2981
  N  N594  1  0.682300  0.501600  0.275700  1.0  -0.3144
  N  N595  1  0.831300  0.038900  0.395100  1.0  -0.3276
  N  N596  1  0.137500  0.844000  0.318300  1.0  -0.3289
  N  N597  1  0.919300  0.008400  0.444600  1.0  -0.3193
  N  N598  1  0.039100  0.855100  0.415100  1.0  -0.4364
  N  N599  1  0.022600  0.766400  0.472800  1.0  -0.455
  N  N600  1  0.073400  0.718900  0.437300  1.0  -0.4048
  N  N601  1  0.430900  0.027000  0.452300  1.0  -0.303
  N  N602  1  0.875700  0.436400  0.861200  1.0  -0.3407
  N  N603  1  0.817600  0.669400  0.751100  1.0  -0.5133
  N  N604  1  0.778300  0.541000  0.728100  1.0  -0.4686
  N  N605  1  0.766600  0.680500  0.689100  1.0  -0.302
  N  N606  1  0.817700  0.998400  0.724300  1.0  -0.3148
  N  N607  1  0.668700  0.461100  0.604900  1.0  -0.3274
  N  N608  1  0.362500  0.656000  0.681700  1.0  -0.3263
  N  N609  1  0.580700  0.491600  0.555400  1.0  -0.3186
  N  N610  1  0.460900  0.644900  0.584900  1.0  -0.4345
  N  N611  1  0.477400  0.733600  0.527200  1.0  -0.4513
  N  N612  1  0.426600  0.781100  0.562700  1.0  -0.4046
  N  N613  1  0.930900  0.527000  0.452300  1.0  -0.303
  N  N614  1  0.375700  0.936400  0.861200  1.0  -0.3407
  N  N615  1  0.317600  0.169400  0.751100  1.0  -0.5133
  N  N616  1  0.278300  0.041000  0.728100  1.0  -0.4686
  N  N617  1  0.266600  0.180500  0.689100  1.0  -0.302
  N  N618  1  0.317700  0.498400  0.724300  1.0  -0.3148
  N  N619  1  0.168700  0.961100  0.604900  1.0  -0.3274
  N  N620  1  0.862500  0.156000  0.681700  1.0  -0.3263
  N  N621  1  0.080700  0.991600  0.555400  1.0  -0.3186
  N  N622  1  0.960900  0.144900  0.584900  1.0  -0.4345
  N  N623  1  0.977400  0.233600  0.527200  1.0  -0.4513
  N  N624  1  0.926600  0.281100  0.562700  1.0  -0.4046
  N  N625  1  0.430900  0.973000  0.952300  1.0  -0.304
  N  N626  1  0.875700  0.563600  0.361200  1.0  -0.341
  N  N627  1  0.817600  0.330600  0.251100  1.0  -0.5134
  N  N628  1  0.778300  0.459000  0.228100  1.0  -0.4687
  N  N629  1  0.766600  0.319500  0.189100  1.0  -0.3032
  N  N630  1  0.817700  0.001600  0.224300  1.0  -0.3121
  N  N631  1  0.668700  0.538900  0.104900  1.0  -0.3272
  N  N632  1  0.362500  0.344000  0.181700  1.0  -0.3268
  N  N633  1  0.580700  0.508400  0.055400  1.0  -0.3187
  N  N634  1  0.460900  0.355100  0.084900  1.0  -0.4355
  N  N635  1  0.477400  0.266400  0.027200  1.0  -0.4517
  N  N636  1  0.426600  0.218900  0.062700  1.0  -0.4056
  N  N637  1  0.930900  0.473000  0.952300  1.0  -0.304
  N  N638  1  0.375700  0.063600  0.361200  1.0  -0.341
  N  N639  1  0.317600  0.830600  0.251100  1.0  -0.5134
  N  N640  1  0.278300  0.959000  0.228100  1.0  -0.4687
  N  N641  1  0.266600  0.819500  0.189100  1.0  -0.3032
  N  N642  1  0.317700  0.501600  0.224300  1.0  -0.3121
  N  N643  1  0.168700  0.038900  0.104900  1.0  -0.3272
  N  N644  1  0.862500  0.844000  0.181700  1.0  -0.3268
  N  N645  1  0.080700  0.008400  0.055400  1.0  -0.3187
  N  N646  1  0.960900  0.855100  0.084900  1.0  -0.4355
  N  N647  1  0.977400  0.766400  0.027200  1.0  -0.4517
  N  N648  1  0.926600  0.718900  0.062700  1.0  -0.4056
