# generated using pymatgen
data_ZnH8C12(BrN2)2
_symmetry_space_group_name_H-M   'P 1'
_cell_length_a   35.57700000
_cell_length_b   14.63400000
_cell_length_c   30.50000000
_cell_angle_alpha   90.00000000
_cell_angle_beta   102.33300000
_cell_angle_gamma   90.00000000
_symmetry_Int_Tables_number   1
_chemical_formula_structural   ZnH8C12(BrN2)2
_chemical_formula_sum   'Zn24 H192 C288 Br48 N96'
_cell_volume   15512.87960251
_cell_formula_units_Z   24
loop_
 _symmetry_equiv_pos_site_id
 _symmetry_equiv_pos_as_xyz
  1  'x, y, z'
loop_
 _atom_site_type_symbol
 _atom_site_label
 _atom_site_symmetry_multiplicity
 _atom_site_fract_x
 _atom_site_fract_y
 _atom_site_fract_z
 _atom_site_occupancy
 _atom_site_charge
  Zn  Zn1  1  0.327280  0.143780  0.728630  1.0  0.8825
  Zn  Zn2  1  0.417290  0.636240  0.404760  1.0  0.8603
  Zn  Zn3  1  0.119590  0.603150  0.059050  1.0  0.8457
  Zn  Zn4  1  0.827280  0.643780  0.728630  1.0  0.8825
  Zn  Zn5  1  0.917290  0.136240  0.404760  1.0  0.8603
  Zn  Zn6  1  0.619590  0.103150  0.059050  1.0  0.8457
  Zn  Zn7  1  0.327280  0.856220  0.228630  1.0  0.8834
  Zn  Zn8  1  0.417290  0.363760  0.904760  1.0  0.8607
  Zn  Zn9  1  0.119590  0.396850  0.559050  1.0  0.8455
  Zn  Zn10  1  0.827280  0.356220  0.228630  1.0  0.8834
  Zn  Zn11  1  0.917290  0.863760  0.904760  1.0  0.8607
  Zn  Zn12  1  0.619590  0.896850  0.559050  1.0  0.8455
  Zn  Zn13  1  0.672720  0.143780  0.771370  1.0  0.882
  Zn  Zn14  1  0.582710  0.636240  0.095240  1.0  0.8603
  Zn  Zn15  1  0.880410  0.603150  0.440950  1.0  0.846
  Zn  Zn16  1  0.172720  0.643780  0.771370  1.0  0.882
  Zn  Zn17  1  0.082710  0.136240  0.095240  1.0  0.8603
  Zn  Zn18  1  0.380410  0.103150  0.440950  1.0  0.846
  Zn  Zn19  1  0.672720  0.856220  0.271370  1.0  0.8833
  Zn  Zn20  1  0.582710  0.363760  0.595240  1.0  0.8609
  Zn  Zn21  1  0.880410  0.396850  0.940950  1.0  0.8461
  Zn  Zn22  1  0.172720  0.356220  0.271370  1.0  0.8833
  Zn  Zn23  1  0.082710  0.863760  0.595240  1.0  0.8609
  Zn  Zn24  1  0.380410  0.896850  0.940950  1.0  0.8461
  H  H25  1  0.158300  0.422200  0.072500  1.0  0.0858
  H  H26  1  0.207000  0.345400  0.120600  1.0  0.1215
  H  H27  1  0.227700  0.575600  0.193100  1.0  0.1145
  H  H28  1  0.178000  0.643500  0.144600  1.0  0.0908
  H  H29  1  0.250200  0.140900  0.172500  1.0  0.1087
  H  H30  1  0.264800  0.985500  0.176500  1.0  0.0879
  H  H31  1  0.361200  0.031900  0.260200  1.0  0.0872
  H  H32  1  0.349900  0.184000  0.260500  1.0  0.1231
  H  H33  1  0.399300  0.443500  0.374700  1.0  0.0812
  H  H34  1  0.360200  0.361300  0.319600  1.0  0.1271
  H  H35  1  0.306100  0.595400  0.274900  1.0  0.1171
  H  H36  1  0.346600  0.671500  0.331600  1.0  0.0872
  H  H37  1  0.478200  0.488400  0.432400  1.0  0.0911
  H  H38  1  0.487400  0.357600  0.474500  1.0  0.1236
  H  H39  1  0.396700  0.429900  0.525800  1.0  0.1207
  H  H40  1  0.389200  0.554400  0.480700  1.0  0.0873
  H  H41  1  0.443400  0.116800  0.665800  1.0  0.1131
  H  H42  1  0.403800  0.092100  0.713000  1.0  0.0914
  H  H43  1  0.324500  0.241800  0.640400  1.0  0.0893
  H  H44  1  0.363100  0.270600  0.590900  1.0  0.1223
  H  H45  1  0.521100  0.134100  0.495800  1.0  0.1229
  H  H46  1  0.571000  0.033100  0.496600  1.0  0.0942
  H  H47  1  0.568000  0.955300  0.617900  1.0  0.0805
  H  H48  1  0.518000  0.052200  0.620200  1.0  0.1204
  H  H49  1  0.658300  0.922200  0.072500  1.0  0.0858
  H  H50  1  0.707000  0.845400  0.120600  1.0  0.1215
  H  H51  1  0.727700  0.075600  0.193100  1.0  0.1145
  H  H52  1  0.678000  0.143500  0.144600  1.0  0.0908
  H  H53  1  0.750200  0.640900  0.172500  1.0  0.1087
  H  H54  1  0.764800  0.485500  0.176500  1.0  0.0879
  H  H55  1  0.861200  0.531900  0.260200  1.0  0.0872
  H  H56  1  0.849900  0.684000  0.260500  1.0  0.1231
  H  H57  1  0.899300  0.943500  0.374700  1.0  0.0812
  H  H58  1  0.860200  0.861300  0.319600  1.0  0.1271
  H  H59  1  0.806100  0.095400  0.274900  1.0  0.1171
  H  H60  1  0.846600  0.171500  0.331600  1.0  0.0872
  H  H61  1  0.978200  0.988400  0.432400  1.0  0.0911
  H  H62  1  0.987400  0.857600  0.474500  1.0  0.1236
  H  H63  1  0.896700  0.929900  0.525800  1.0  0.1207
  H  H64  1  0.889200  0.054400  0.480700  1.0  0.0873
  H  H65  1  0.943400  0.616800  0.665800  1.0  0.1131
  H  H66  1  0.903800  0.592100  0.713000  1.0  0.0914
  H  H67  1  0.824500  0.741800  0.640400  1.0  0.0893
  H  H68  1  0.863100  0.770600  0.590900  1.0  0.1223
  H  H69  1  0.021100  0.634100  0.495800  1.0  0.1229
  H  H70  1  0.071000  0.533100  0.496600  1.0  0.0942
  H  H71  1  0.068000  0.455300  0.617900  1.0  0.0805
  H  H72  1  0.018000  0.552200  0.620200  1.0  0.1204
  H  H73  1  0.158300  0.577800  0.572500  1.0  0.0862
  H  H74  1  0.207000  0.654600  0.620600  1.0  0.1213
  H  H75  1  0.227700  0.424400  0.693100  1.0  0.1148
  H  H76  1  0.178000  0.356500  0.644600  1.0  0.0912
  H  H77  1  0.250200  0.859100  0.672500  1.0  0.1086
  H  H78  1  0.264800  0.014500  0.676500  1.0  0.088
  H  H79  1  0.361200  0.968100  0.760200  1.0  0.0869
  H  H80  1  0.349900  0.816000  0.760500  1.0  0.1235
  H  H81  1  0.399300  0.556500  0.874700  1.0  0.0812
  H  H82  1  0.360200  0.638700  0.819600  1.0  0.1268
  H  H83  1  0.306100  0.404600  0.774900  1.0  0.1168
  H  H84  1  0.346600  0.328500  0.831600  1.0  0.0875
  H  H85  1  0.478200  0.511600  0.932400  1.0  0.0911
  H  H86  1  0.487400  0.642400  0.974500  1.0  0.1241
  H  H87  1  0.396700  0.570100  0.025800  1.0  0.1208
  H  H88  1  0.389200  0.445600  0.980700  1.0  0.0873
  H  H89  1  0.443400  0.883200  0.165800  1.0  0.1132
  H  H90  1  0.403800  0.907900  0.213000  1.0  0.092
  H  H91  1  0.324500  0.758200  0.140400  1.0  0.0898
  H  H92  1  0.363100  0.729400  0.090900  1.0  0.1223
  H  H93  1  0.521100  0.865900  0.995800  1.0  0.1229
  H  H94  1  0.571000  0.966900  0.996600  1.0  0.0941
  H  H95  1  0.568000  0.044700  0.117900  1.0  0.0803
  H  H96  1  0.518000  0.947800  0.120200  1.0  0.1202
  H  H97  1  0.658300  0.077800  0.572500  1.0  0.0862
  H  H98  1  0.707000  0.154600  0.620600  1.0  0.1213
  H  H99  1  0.727700  0.924400  0.693100  1.0  0.1148
  H  H100  1  0.678000  0.856500  0.644600  1.0  0.0912
  H  H101  1  0.750200  0.359100  0.672500  1.0  0.1086
  H  H102  1  0.764800  0.514500  0.676500  1.0  0.088
  H  H103  1  0.861200  0.468100  0.760200  1.0  0.0869
  H  H104  1  0.849900  0.316000  0.760500  1.0  0.1235
  H  H105  1  0.899300  0.056500  0.874700  1.0  0.0812
  H  H106  1  0.860200  0.138700  0.819600  1.0  0.1268
  H  H107  1  0.806100  0.904600  0.774900  1.0  0.1168
  H  H108  1  0.846600  0.828500  0.831600  1.0  0.0875
  H  H109  1  0.978200  0.011600  0.932400  1.0  0.0911
  H  H110  1  0.987400  0.142400  0.974500  1.0  0.1241
  H  H111  1  0.896700  0.070100  0.025800  1.0  0.1208
  H  H112  1  0.889200  0.945600  0.980700  1.0  0.0873
  H  H113  1  0.943400  0.383200  0.165800  1.0  0.1132
  H  H114  1  0.903800  0.407900  0.213000  1.0  0.092
  H  H115  1  0.824500  0.258200  0.140400  1.0  0.0898
  H  H116  1  0.863100  0.229400  0.090900  1.0  0.1223
  H  H117  1  0.021100  0.365900  0.995800  1.0  0.1229
  H  H118  1  0.071000  0.466900  0.996600  1.0  0.0941
  H  H119  1  0.068000  0.544700  0.117900  1.0  0.0803
  H  H120  1  0.018000  0.447800  0.120200  1.0  0.1202
  H  H121  1  0.841700  0.422200  0.427500  1.0  0.0863
  H  H122  1  0.793000  0.345400  0.379400  1.0  0.1206
  H  H123  1  0.772300  0.575600  0.306900  1.0  0.1159
  H  H124  1  0.822000  0.643500  0.355400  1.0  0.0904
  H  H125  1  0.749800  0.140900  0.327500  1.0  0.1094
  H  H126  1  0.735200  0.985500  0.323500  1.0  0.0885
  H  H127  1  0.638800  0.031900  0.239800  1.0  0.0869
  H  H128  1  0.650100  0.184000  0.239500  1.0  0.1233
  H  H129  1  0.600700  0.443500  0.125300  1.0  0.0805
  H  H130  1  0.639800  0.361300  0.180400  1.0  0.1268
  H  H131  1  0.693900  0.595400  0.225100  1.0  0.1166
  H  H132  1  0.653400  0.671500  0.168400  1.0  0.0871
  H  H133  1  0.521800  0.488400  0.067600  1.0  0.0914
  H  H134  1  0.512600  0.357600  0.025500  1.0  0.124
  H  H135  1  0.603300  0.429900  0.974200  1.0  0.1212
  H  H136  1  0.610800  0.554400  0.019300  1.0  0.0876
  H  H137  1  0.556600  0.116800  0.834200  1.0  0.1134
  H  H138  1  0.596200  0.092100  0.787000  1.0  0.0913
  H  H139  1  0.675500  0.241800  0.859600  1.0  0.09
  H  H140  1  0.636900  0.270600  0.909100  1.0  0.1219
  H  H141  1  0.478900  0.134100  0.004200  1.0  0.1231
  H  H142  1  0.429000  0.033100  0.003400  1.0  0.0947
  H  H143  1  0.432000  0.955300  0.882100  1.0  0.0798
  H  H144  1  0.482000  0.052200  0.879800  1.0  0.1203
  H  H145  1  0.341700  0.922200  0.427500  1.0  0.0863
  H  H146  1  0.293000  0.845400  0.379400  1.0  0.1206
  H  H147  1  0.272300  0.075600  0.306900  1.0  0.1159
  H  H148  1  0.322000  0.143500  0.355400  1.0  0.0904
  H  H149  1  0.249800  0.640900  0.327500  1.0  0.1094
  H  H150  1  0.235200  0.485500  0.323500  1.0  0.0885
  H  H151  1  0.138800  0.531900  0.239800  1.0  0.0869
  H  H152  1  0.150100  0.684000  0.239500  1.0  0.1233
  H  H153  1  0.100700  0.943500  0.125300  1.0  0.0805
  H  H154  1  0.139800  0.861300  0.180400  1.0  0.1268
  H  H155  1  0.193900  0.095400  0.225100  1.0  0.1166
  H  H156  1  0.153400  0.171500  0.168400  1.0  0.0871
  H  H157  1  0.021800  0.988400  0.067600  1.0  0.0914
  H  H158  1  0.012600  0.857600  0.025500  1.0  0.124
  H  H159  1  0.103300  0.929900  0.974200  1.0  0.1212
  H  H160  1  0.110800  0.054400  0.019300  1.0  0.0876
  H  H161  1  0.056600  0.616800  0.834200  1.0  0.1134
  H  H162  1  0.096200  0.592100  0.787000  1.0  0.0913
  H  H163  1  0.175500  0.741800  0.859600  1.0  0.09
  H  H164  1  0.136900  0.770600  0.909100  1.0  0.1219
  H  H165  1  0.978900  0.634100  0.004200  1.0  0.1231
  H  H166  1  0.929000  0.533100  0.003400  1.0  0.0947
  H  H167  1  0.932000  0.455300  0.882100  1.0  0.0798
  H  H168  1  0.982000  0.552200  0.879800  1.0  0.1203
  H  H169  1  0.841700  0.577800  0.927500  1.0  0.0863
  H  H170  1  0.793000  0.654600  0.879400  1.0  0.1205
  H  H171  1  0.772300  0.424400  0.806900  1.0  0.1157
  H  H172  1  0.822000  0.356500  0.855400  1.0  0.0912
  H  H173  1  0.749800  0.859100  0.827500  1.0  0.1096
  H  H174  1  0.735200  0.014500  0.823500  1.0  0.0883
  H  H175  1  0.638800  0.968100  0.739800  1.0  0.0868
  H  H176  1  0.650100  0.816000  0.739500  1.0  0.1228
  H  H177  1  0.600700  0.556500  0.625300  1.0  0.0803
  H  H178  1  0.639800  0.638700  0.680400  1.0  0.1266
  H  H179  1  0.693900  0.404600  0.725100  1.0  0.1167
  H  H180  1  0.653400  0.328500  0.668400  1.0  0.0876
  H  H181  1  0.521800  0.511600  0.567600  1.0  0.0914
  H  H182  1  0.512600  0.642400  0.525500  1.0  0.124
  H  H183  1  0.603300  0.570100  0.474200  1.0  0.1213
  H  H184  1  0.610800  0.445600  0.519300  1.0  0.0874
  H  H185  1  0.556600  0.883200  0.334200  1.0  0.1133
  H  H186  1  0.596200  0.907900  0.287000  1.0  0.0917
  H  H187  1  0.675500  0.758200  0.359600  1.0  0.0894
  H  H188  1  0.636900  0.729400  0.409100  1.0  0.1221
  H  H189  1  0.478900  0.865900  0.504200  1.0  0.1234
  H  H190  1  0.429000  0.966900  0.503400  1.0  0.0948
  H  H191  1  0.432000  0.044700  0.382100  1.0  0.0799
  H  H192  1  0.482000  0.947800  0.379800  1.0  0.1202
  H  H193  1  0.341700  0.077800  0.927500  1.0  0.0863
  H  H194  1  0.293000  0.154600  0.879400  1.0  0.1205
  H  H195  1  0.272300  0.924400  0.806900  1.0  0.1157
  H  H196  1  0.322000  0.856500  0.855400  1.0  0.0912
  H  H197  1  0.249800  0.359100  0.827500  1.0  0.1096
  H  H198  1  0.235200  0.514500  0.823500  1.0  0.0883
  H  H199  1  0.138800  0.468100  0.739800  1.0  0.0868
  H  H200  1  0.150100  0.316000  0.739500  1.0  0.1228
  H  H201  1  0.100700  0.056500  0.625300  1.0  0.0803
  H  H202  1  0.139800  0.138700  0.680400  1.0  0.1266
  H  H203  1  0.193900  0.904600  0.725100  1.0  0.1167
  H  H204  1  0.153400  0.828500  0.668400  1.0  0.0876
  H  H205  1  0.021800  0.011600  0.567600  1.0  0.0914
  H  H206  1  0.012600  0.142400  0.525500  1.0  0.124
  H  H207  1  0.103300  0.070100  0.474200  1.0  0.1213
  H  H208  1  0.110800  0.945600  0.519300  1.0  0.0874
  H  H209  1  0.056600  0.383200  0.334200  1.0  0.1133
  H  H210  1  0.096200  0.407900  0.287000  1.0  0.0917
  H  H211  1  0.175500  0.258200  0.359600  1.0  0.0894
  H  H212  1  0.136900  0.229400  0.409100  1.0  0.1221
  H  H213  1  0.978900  0.365900  0.504200  1.0  0.1234
  H  H214  1  0.929000  0.466900  0.503400  1.0  0.0948
  H  H215  1  0.932000  0.544700  0.382100  1.0  0.0799
  H  H216  1  0.982000  0.447800  0.379800  1.0  0.1202
  C  C217  1  0.172300  0.453000  0.097300  1.0  0.169
  C  C218  1  0.201700  0.406100  0.126000  1.0  -0.1444
  C  C219  1  0.222650  0.451600  0.162540  1.0  -0.0929
  C  C220  1  0.213630  0.542800  0.169000  1.0  -0.1139
  C  C221  1  0.184120  0.583100  0.139600  1.0  0.1587
  C  C222  1  0.254240  0.406900  0.194120  1.0  0.3205
  C  C223  1  0.289230  0.281800  0.218000  1.0  0.2767
  C  C224  1  0.304000  0.415200  0.253940  1.0  0.3454
  C  C225  1  0.297960  0.180800  0.216500  1.0  -0.0804
  C  C226  1  0.272790  0.120200  0.191200  1.0  -0.0708
  C  C227  1  0.281630  0.026500  0.193900  1.0  0.1562
  C  C228  1  0.338200  0.054000  0.243300  1.0  0.1712
  C  C229  1  0.331900  0.145300  0.243200  1.0  -0.1537
  C  C230  1  0.380500  0.473900  0.353900  1.0  0.1637
  C  C231  1  0.357200  0.424200  0.321300  1.0  -0.0884
  C  C232  1  0.328890  0.468800  0.290580  1.0  -0.1056
  C  C233  1  0.325020  0.563600  0.294800  1.0  -0.0984
  C  C234  1  0.349510  0.608800  0.328600  1.0  0.1551
  C  C235  1  0.461140  0.474900  0.450710  1.0  0.1494
  C  C236  1  0.467370  0.397000  0.476600  1.0  -0.1493
  C  C237  1  0.443150  0.378300  0.505820  1.0  -0.0529
  C  C238  1  0.413400  0.439700  0.506700  1.0  -0.1207
  C  C239  1  0.409100  0.513800  0.479500  1.0  0.1444
  C  C240  1  0.448600  0.294500  0.534820  1.0  0.3893
  C  C241  1  0.481250  0.167000  0.558790  1.0  0.364
  C  C242  1  0.433350  0.213600  0.590740  1.0  0.4
  C  C243  1  0.408480  0.197800  0.623100  1.0  -0.0437
  C  C244  1  0.419200  0.144000  0.659900  1.0  -0.1386
  C  C245  1  0.395200  0.129200  0.688200  1.0  0.1591
  C  C246  1  0.349000  0.216400  0.645900  1.0  0.1514
  C  C247  1  0.372100  0.234100  0.615900  1.0  -0.1431
  C  C248  1  0.513390  0.102700  0.557580  1.0  -0.0635
  C  C249  1  0.530000  0.097700  0.520800  1.0  -0.141
  C  C250  1  0.560210  0.037600  0.521800  1.0  0.1444
  C  C251  1  0.558400  0.991700  0.593100  1.0  0.1335
  C  C252  1  0.528300  0.049200  0.594600  1.0  -0.16
  C  C253  1  0.672300  0.953000  0.097300  1.0  0.169
  C  C254  1  0.701700  0.906100  0.126000  1.0  -0.1444
  C  C255  1  0.722650  0.951600  0.162540  1.0  -0.0929
  C  C256  1  0.713630  0.042800  0.169000  1.0  -0.1139
  C  C257  1  0.684120  0.083100  0.139600  1.0  0.1587
  C  C258  1  0.754240  0.906900  0.194120  1.0  0.3205
  C  C259  1  0.789230  0.781800  0.218000  1.0  0.2767
  C  C260  1  0.804000  0.915200  0.253940  1.0  0.3454
  C  C261  1  0.797960  0.680800  0.216500  1.0  -0.0804
  C  C262  1  0.772790  0.620200  0.191200  1.0  -0.0708
  C  C263  1  0.781630  0.526500  0.193900  1.0  0.1562
  C  C264  1  0.838200  0.554000  0.243300  1.0  0.1712
  C  C265  1  0.831900  0.645300  0.243200  1.0  -0.1537
  C  C266  1  0.880500  0.973900  0.353900  1.0  0.1637
  C  C267  1  0.857200  0.924200  0.321300  1.0  -0.0884
  C  C268  1  0.828890  0.968800  0.290580  1.0  -0.1056
  C  C269  1  0.825020  0.063600  0.294800  1.0  -0.0984
  C  C270  1  0.849510  0.108800  0.328600  1.0  0.1551
  C  C271  1  0.961140  0.974900  0.450710  1.0  0.1494
  C  C272  1  0.967370  0.897000  0.476600  1.0  -0.1493
  C  C273  1  0.943150  0.878300  0.505820  1.0  -0.0529
  C  C274  1  0.913400  0.939700  0.506700  1.0  -0.1207
  C  C275  1  0.909100  0.013800  0.479500  1.0  0.1444
  C  C276  1  0.948600  0.794500  0.534820  1.0  0.3893
  C  C277  1  0.981250  0.667000  0.558790  1.0  0.364
  C  C278  1  0.933350  0.713600  0.590740  1.0  0.4
  C  C279  1  0.908480  0.697800  0.623100  1.0  -0.0437
  C  C280  1  0.919200  0.644000  0.659900  1.0  -0.1386
  C  C281  1  0.895200  0.629200  0.688200  1.0  0.1591
  C  C282  1  0.849000  0.716400  0.645900  1.0  0.1514
  C  C283  1  0.872100  0.734100  0.615900  1.0  -0.1431
  C  C284  1  0.013390  0.602700  0.557580  1.0  -0.0635
  C  C285  1  0.030000  0.597700  0.520800  1.0  -0.141
  C  C286  1  0.060210  0.537600  0.521800  1.0  0.1444
  C  C287  1  0.058400  0.491700  0.593100  1.0  0.1335
  C  C288  1  0.028300  0.549200  0.594600  1.0  -0.16
  C  C289  1  0.172300  0.547000  0.597300  1.0  0.1689
  C  C290  1  0.201700  0.593900  0.626000  1.0  -0.1465
  C  C291  1  0.222650  0.548400  0.662540  1.0  -0.0931
  C  C292  1  0.213630  0.457200  0.669000  1.0  -0.1129
  C  C293  1  0.184120  0.416900  0.639600  1.0  0.1587
  C  C294  1  0.254240  0.593100  0.694120  1.0  0.3205
  C  C295  1  0.289230  0.718200  0.718000  1.0  0.2771
  C  C296  1  0.304000  0.584800  0.753940  1.0  0.3454
  C  C297  1  0.297960  0.819200  0.716500  1.0  -0.0818
  C  C298  1  0.272790  0.879800  0.691200  1.0  -0.0707
  C  C299  1  0.281630  0.973500  0.693900  1.0  0.1566
  C  C300  1  0.338200  0.946000  0.743300  1.0  0.1708
  C  C301  1  0.331900  0.854700  0.743200  1.0  -0.1539
  C  C302  1  0.380500  0.526100  0.853900  1.0  0.1634
  C  C303  1  0.357200  0.575800  0.821300  1.0  -0.0885
  C  C304  1  0.328890  0.531200  0.790580  1.0  -0.1056
  C  C305  1  0.325020  0.436400  0.794800  1.0  -0.0985
  C  C306  1  0.349510  0.391200  0.828600  1.0  0.1546
  C  C307  1  0.461140  0.525100  0.950710  1.0  0.1488
  C  C308  1  0.467370  0.603000  0.976600  1.0  -0.1496
  C  C309  1  0.443150  0.621700  0.005820  1.0  -0.0516
  C  C310  1  0.413400  0.560300  0.006700  1.0  -0.1202
  C  C311  1  0.409100  0.486200  0.979500  1.0  0.1461
  C  C312  1  0.448600  0.705500  0.034820  1.0  0.3906
  C  C313  1  0.481250  0.833000  0.058790  1.0  0.3639
  C  C314  1  0.433350  0.786400  0.090740  1.0  0.4004
  C  C315  1  0.408480  0.802200  0.123100  1.0  -0.044
  C  C316  1  0.419200  0.856000  0.159900  1.0  -0.1386
  C  C317  1  0.395200  0.870800  0.188200  1.0  0.1588
  C  C318  1  0.349000  0.783600  0.145900  1.0  0.1523
  C  C319  1  0.372100  0.765900  0.115900  1.0  -0.1412
  C  C320  1  0.513390  0.897300  0.057580  1.0  -0.063
  C  C321  1  0.530000  0.902300  0.020800  1.0  -0.1394
  C  C322  1  0.560210  0.962400  0.021800  1.0  0.1455
  C  C323  1  0.558400  0.008300  0.093100  1.0  0.1326
  C  C324  1  0.528300  0.950800  0.094600  1.0  -0.1602
  C  C325  1  0.672300  0.047000  0.597300  1.0  0.1689
  C  C326  1  0.701700  0.093900  0.626000  1.0  -0.1465
  C  C327  1  0.722650  0.048400  0.662540  1.0  -0.0931
  C  C328  1  0.713630  0.957200  0.669000  1.0  -0.1129
  C  C329  1  0.684120  0.916900  0.639600  1.0  0.1587
  C  C330  1  0.754240  0.093100  0.694120  1.0  0.3205
  C  C331  1  0.789230  0.218200  0.718000  1.0  0.2771
  C  C332  1  0.804000  0.084800  0.753940  1.0  0.3454
  C  C333  1  0.797960  0.319200  0.716500  1.0  -0.0818
  C  C334  1  0.772790  0.379800  0.691200  1.0  -0.0707
  C  C335  1  0.781630  0.473500  0.693900  1.0  0.1566
  C  C336  1  0.838200  0.446000  0.743300  1.0  0.1708
  C  C337  1  0.831900  0.354700  0.743200  1.0  -0.1539
  C  C338  1  0.880500  0.026100  0.853900  1.0  0.1634
  C  C339  1  0.857200  0.075800  0.821300  1.0  -0.0885
  C  C340  1  0.828890  0.031200  0.790580  1.0  -0.1056
  C  C341  1  0.825020  0.936400  0.794800  1.0  -0.0985
  C  C342  1  0.849510  0.891200  0.828600  1.0  0.1546
  C  C343  1  0.961140  0.025100  0.950710  1.0  0.1488
  C  C344  1  0.967370  0.103000  0.976600  1.0  -0.1496
  C  C345  1  0.943150  0.121700  0.005820  1.0  -0.0516
  C  C346  1  0.913400  0.060300  0.006700  1.0  -0.1202
  C  C347  1  0.909100  0.986200  0.979500  1.0  0.1461
  C  C348  1  0.948600  0.205500  0.034820  1.0  0.3906
  C  C349  1  0.981250  0.333000  0.058790  1.0  0.3639
  C  C350  1  0.933350  0.286400  0.090740  1.0  0.4004
  C  C351  1  0.908480  0.302200  0.123100  1.0  -0.044
  C  C352  1  0.919200  0.356000  0.159900  1.0  -0.1386
  C  C353  1  0.895200  0.370800  0.188200  1.0  0.1588
  C  C354  1  0.849000  0.283600  0.145900  1.0  0.1523
  C  C355  1  0.872100  0.265900  0.115900  1.0  -0.1412
  C  C356  1  0.013390  0.397300  0.057580  1.0  -0.063
  C  C357  1  0.030000  0.402300  0.020800  1.0  -0.1394
  C  C358  1  0.060210  0.462400  0.021800  1.0  0.1455
  C  C359  1  0.058400  0.508300  0.093100  1.0  0.1326
  C  C360  1  0.028300  0.450800  0.094600  1.0  -0.1602
  C  C361  1  0.827700  0.453000  0.402700  1.0  0.1702
  C  C362  1  0.798300  0.406100  0.374000  1.0  -0.1448
  C  C363  1  0.777350  0.451600  0.337460  1.0  -0.0922
  C  C364  1  0.786370  0.542800  0.331000  1.0  -0.1134
  C  C365  1  0.815880  0.583100  0.360400  1.0  0.1599
  C  C366  1  0.745760  0.406900  0.305880  1.0  0.3205
  C  C367  1  0.710770  0.281800  0.282000  1.0  0.2786
  C  C368  1  0.696000  0.415200  0.246060  1.0  0.3471
  C  C369  1  0.702040  0.180800  0.283500  1.0  -0.0796
  C  C370  1  0.727210  0.120200  0.308800  1.0  -0.0697
  C  C371  1  0.718370  0.026500  0.306100  1.0  0.1565
  C  C372  1  0.661800  0.054000  0.256700  1.0  0.1703
  C  C373  1  0.668100  0.145300  0.256800  1.0  -0.1555
  C  C374  1  0.619500  0.473900  0.146100  1.0  0.1641
  C  C375  1  0.642800  0.424200  0.178700  1.0  -0.0883
  C  C376  1  0.671110  0.468800  0.209420  1.0  -0.1046
  C  C377  1  0.674980  0.563600  0.205200  1.0  -0.0997
  C  C378  1  0.650490  0.608800  0.171400  1.0  0.1562
  C  C379  1  0.538860  0.474900  0.049290  1.0  0.1494
  C  C380  1  0.532630  0.397000  0.023400  1.0  -0.1478
  C  C381  1  0.556850  0.378300  0.994180  1.0  -0.0524
  C  C382  1  0.586600  0.439700  0.993300  1.0  -0.1204
  C  C383  1  0.590900  0.513800  0.020500  1.0  0.1463
  C  C384  1  0.551400  0.294500  0.965180  1.0  0.3897
  C  C385  1  0.518750  0.167000  0.941210  1.0  0.3637
  C  C386  1  0.566650  0.213600  0.909260  1.0  0.4002
  C  C387  1  0.591520  0.197800  0.876900  1.0  -0.0441
  C  C388  1  0.580800  0.144000  0.840100  1.0  -0.1373
  C  C389  1  0.604800  0.129200  0.811800  1.0  0.158
  C  C390  1  0.651000  0.216400  0.854100  1.0  0.1534
  C  C391  1  0.627900  0.234100  0.884100  1.0  -0.144
  C  C392  1  0.486610  0.102700  0.942420  1.0  -0.0639
  C  C393  1  0.470000  0.097700  0.979200  1.0  -0.1399
  C  C394  1  0.439790  0.037600  0.978200  1.0  0.1456
  C  C395  1  0.441600  0.991700  0.906900  1.0  0.1333
  C  C396  1  0.471700  0.049200  0.905400  1.0  -0.1582
  C  C397  1  0.327700  0.953000  0.402700  1.0  0.1702
  C  C398  1  0.298300  0.906100  0.374000  1.0  -0.1448
  C  C399  1  0.277350  0.951600  0.337460  1.0  -0.0922
  C  C400  1  0.286370  0.042800  0.331000  1.0  -0.1134
  C  C401  1  0.315880  0.083100  0.360400  1.0  0.1599
  C  C402  1  0.245760  0.906900  0.305880  1.0  0.3205
  C  C403  1  0.210770  0.781800  0.282000  1.0  0.2786
  C  C404  1  0.196000  0.915200  0.246060  1.0  0.3471
  C  C405  1  0.202040  0.680800  0.283500  1.0  -0.0796
  C  C406  1  0.227210  0.620200  0.308800  1.0  -0.0697
  C  C407  1  0.218370  0.526500  0.306100  1.0  0.1565
  C  C408  1  0.161800  0.554000  0.256700  1.0  0.1703
  C  C409  1  0.168100  0.645300  0.256800  1.0  -0.1555
  C  C410  1  0.119500  0.973900  0.146100  1.0  0.1641
  C  C411  1  0.142800  0.924200  0.178700  1.0  -0.0883
  C  C412  1  0.171110  0.968800  0.209420  1.0  -0.1046
  C  C413  1  0.174980  0.063600  0.205200  1.0  -0.0997
  C  C414  1  0.150490  0.108800  0.171400  1.0  0.1562
  C  C415  1  0.038860  0.974900  0.049290  1.0  0.1494
  C  C416  1  0.032630  0.897000  0.023400  1.0  -0.1478
  C  C417  1  0.056850  0.878300  0.994180  1.0  -0.0524
  C  C418  1  0.086600  0.939700  0.993300  1.0  -0.1204
  C  C419  1  0.090900  0.013800  0.020500  1.0  0.1463
  C  C420  1  0.051400  0.794500  0.965180  1.0  0.3897
  C  C421  1  0.018750  0.667000  0.941210  1.0  0.3637
  C  C422  1  0.066650  0.713600  0.909260  1.0  0.4002
  C  C423  1  0.091520  0.697800  0.876900  1.0  -0.0441
  C  C424  1  0.080800  0.644000  0.840100  1.0  -0.1373
  C  C425  1  0.104800  0.629200  0.811800  1.0  0.158
  C  C426  1  0.151000  0.716400  0.854100  1.0  0.1534
  C  C427  1  0.127900  0.734100  0.884100  1.0  -0.144
  C  C428  1  0.986610  0.602700  0.942420  1.0  -0.0639
  C  C429  1  0.970000  0.597700  0.979200  1.0  -0.1399
  C  C430  1  0.939790  0.537600  0.978200  1.0  0.1456
  C  C431  1  0.941600  0.491700  0.906900  1.0  0.1333
  C  C432  1  0.971700  0.549200  0.905400  1.0  -0.1582
  C  C433  1  0.827700  0.547000  0.902700  1.0  0.1693
  C  C434  1  0.798300  0.593900  0.874000  1.0  -0.1469
  C  C435  1  0.777350  0.548400  0.837460  1.0  -0.0928
  C  C436  1  0.786370  0.457200  0.831000  1.0  -0.1131
  C  C437  1  0.815880  0.416900  0.860400  1.0  0.1607
  C  C438  1  0.745760  0.593100  0.805880  1.0  0.3206
  C  C439  1  0.710770  0.718200  0.782000  1.0  0.2787
  C  C440  1  0.696000  0.584800  0.746060  1.0  0.3471
  C  C441  1  0.702040  0.819200  0.783500  1.0  -0.0804
  C  C442  1  0.727210  0.879800  0.808800  1.0  -0.0702
  C  C443  1  0.718370  0.973500  0.806100  1.0  0.1561
  C  C444  1  0.661800  0.946000  0.756700  1.0  0.1699
  C  C445  1  0.668100  0.854700  0.756800  1.0  -0.1549
  C  C446  1  0.619500  0.526100  0.646100  1.0  0.1641
  C  C447  1  0.642800  0.575800  0.678700  1.0  -0.0881
  C  C448  1  0.671110  0.531200  0.709420  1.0  -0.1048
  C  C449  1  0.674980  0.436400  0.705200  1.0  -0.0989
  C  C450  1  0.650490  0.391200  0.671400  1.0  0.1554
  C  C451  1  0.538860  0.525100  0.549290  1.0  0.1494
  C  C452  1  0.532630  0.603000  0.523400  1.0  -0.1497
  C  C453  1  0.556850  0.621700  0.494180  1.0  -0.0516
  C  C454  1  0.586600  0.560300  0.493300  1.0  -0.1208
  C  C455  1  0.590900  0.486200  0.520500  1.0  0.1453
  C  C456  1  0.551400  0.705500  0.465180  1.0  0.3911
  C  C457  1  0.518750  0.833000  0.441210  1.0  0.3639
  C  C458  1  0.566650  0.786400  0.409260  1.0  0.4005
  C  C459  1  0.591520  0.802200  0.376900  1.0  -0.0445
  C  C460  1  0.580800  0.856000  0.340100  1.0  -0.1378
  C  C461  1  0.604800  0.870800  0.311800  1.0  0.1582
  C  C462  1  0.651000  0.783600  0.354100  1.0  0.1533
  C  C463  1  0.627900  0.765900  0.384100  1.0  -0.1414
  C  C464  1  0.486610  0.897300  0.442420  1.0  -0.0638
  C  C465  1  0.470000  0.902300  0.479200  1.0  -0.1383
  C  C466  1  0.439790  0.962400  0.478200  1.0  0.1456
  C  C467  1  0.441600  0.008300  0.406900  1.0  0.1339
  C  C468  1  0.471700  0.950800  0.405400  1.0  -0.1591
  C  C469  1  0.327700  0.047000  0.902700  1.0  0.1693
  C  C470  1  0.298300  0.093900  0.874000  1.0  -0.1469
  C  C471  1  0.277350  0.048400  0.837460  1.0  -0.0928
  C  C472  1  0.286370  0.957200  0.831000  1.0  -0.1131
  C  C473  1  0.315880  0.916900  0.860400  1.0  0.1607
  C  C474  1  0.245760  0.093100  0.805880  1.0  0.3206
  C  C475  1  0.210770  0.218200  0.782000  1.0  0.2787
  C  C476  1  0.196000  0.084800  0.746060  1.0  0.3471
  C  C477  1  0.202040  0.319200  0.783500  1.0  -0.0804
  C  C478  1  0.227210  0.379800  0.808800  1.0  -0.0702
  C  C479  1  0.218370  0.473500  0.806100  1.0  0.1561
  C  C480  1  0.161800  0.446000  0.756700  1.0  0.1699
  C  C481  1  0.168100  0.354700  0.756800  1.0  -0.1549
  C  C482  1  0.119500  0.026100  0.646100  1.0  0.1641
  C  C483  1  0.142800  0.075800  0.678700  1.0  -0.0881
  C  C484  1  0.171110  0.031200  0.709420  1.0  -0.1048
  C  C485  1  0.174980  0.936400  0.705200  1.0  -0.0989
  C  C486  1  0.150490  0.891200  0.671400  1.0  0.1554
  C  C487  1  0.038860  0.025100  0.549290  1.0  0.1494
  C  C488  1  0.032630  0.103000  0.523400  1.0  -0.1497
  C  C489  1  0.056850  0.121700  0.494180  1.0  -0.0516
  C  C490  1  0.086600  0.060300  0.493300  1.0  -0.1208
  C  C491  1  0.090900  0.986200  0.520500  1.0  0.1453
  C  C492  1  0.051400  0.205500  0.465180  1.0  0.3911
  C  C493  1  0.018750  0.333000  0.441210  1.0  0.3639
  C  C494  1  0.066650  0.286400  0.409260  1.0  0.4005
  C  C495  1  0.091520  0.302200  0.376900  1.0  -0.0445
  C  C496  1  0.080800  0.356000  0.340100  1.0  -0.1378
  C  C497  1  0.104800  0.370800  0.311800  1.0  0.1582
  C  C498  1  0.151000  0.283600  0.354100  1.0  0.1533
  C  C499  1  0.127900  0.265900  0.384100  1.0  -0.1414
  C  C500  1  0.986610  0.397300  0.442420  1.0  -0.0638
  C  C501  1  0.970000  0.402300  0.479200  1.0  -0.1383
  C  C502  1  0.939790  0.462400  0.478200  1.0  0.1456
  C  C503  1  0.941600  0.508300  0.406900  1.0  0.1339
  C  C504  1  0.971700  0.450800  0.405400  1.0  -0.1591
  Br  Br505  1  0.272340  0.235680  0.709410  1.0  -0.4449
  Br  Br506  1  0.368940  0.151650  0.800650  1.0  -0.4447
  Br  Br507  1  0.382310  0.744340  0.436780  1.0  -0.4645
  Br  Br508  1  0.469490  0.667780  0.372200  1.0  -0.4265
  Br  Br509  1  0.104450  0.738240  0.093920  1.0  -0.4651
  Br  Br510  1  0.134550  0.599580  0.988170  1.0  -0.4261
  Br  Br511  1  0.772340  0.735680  0.709410  1.0  -0.4449
  Br  Br512  1  0.868940  0.651650  0.800650  1.0  -0.4447
  Br  Br513  1  0.882310  0.244340  0.436780  1.0  -0.4645
  Br  Br514  1  0.969490  0.167780  0.372200  1.0  -0.4265
  Br  Br515  1  0.604450  0.238240  0.093920  1.0  -0.4651
  Br  Br516  1  0.634550  0.099580  0.988170  1.0  -0.4261
  Br  Br517  1  0.272340  0.764320  0.209410  1.0  -0.4449
  Br  Br518  1  0.368940  0.848350  0.300650  1.0  -0.445
  Br  Br519  1  0.382310  0.255660  0.936780  1.0  -0.4645
  Br  Br520  1  0.469490  0.332220  0.872200  1.0  -0.4265
  Br  Br521  1  0.104450  0.261760  0.593920  1.0  -0.4656
  Br  Br522  1  0.134550  0.400420  0.488170  1.0  -0.4258
  Br  Br523  1  0.772340  0.264320  0.209410  1.0  -0.4449
  Br  Br524  1  0.868940  0.348350  0.300650  1.0  -0.445
  Br  Br525  1  0.882310  0.755660  0.936780  1.0  -0.4645
  Br  Br526  1  0.969490  0.832220  0.872200  1.0  -0.4265
  Br  Br527  1  0.604450  0.761760  0.593920  1.0  -0.4656
  Br  Br528  1  0.634550  0.900420  0.488170  1.0  -0.4258
  Br  Br529  1  0.727660  0.235680  0.790590  1.0  -0.4416
  Br  Br530  1  0.631060  0.151650  0.699350  1.0  -0.4437
  Br  Br531  1  0.617690  0.744340  0.063220  1.0  -0.4649
  Br  Br532  1  0.530510  0.667780  0.127800  1.0  -0.4286
  Br  Br533  1  0.895550  0.738240  0.406080  1.0  -0.4653
  Br  Br534  1  0.865450  0.599580  0.511830  1.0  -0.427
  Br  Br535  1  0.227660  0.735680  0.790590  1.0  -0.4416
  Br  Br536  1  0.131060  0.651650  0.699350  1.0  -0.4437
  Br  Br537  1  0.117690  0.244340  0.063220  1.0  -0.4649
  Br  Br538  1  0.030510  0.167780  0.127800  1.0  -0.4286
  Br  Br539  1  0.395550  0.238240  0.406080  1.0  -0.4653
  Br  Br540  1  0.365450  0.099580  0.511830  1.0  -0.427
  Br  Br541  1  0.727660  0.764320  0.290590  1.0  -0.4414
  Br  Br542  1  0.631060  0.848350  0.199350  1.0  -0.4439
  Br  Br543  1  0.617690  0.255660  0.563220  1.0  -0.4654
  Br  Br544  1  0.530510  0.332220  0.627800  1.0  -0.4284
  Br  Br545  1  0.895550  0.261760  0.906080  1.0  -0.4657
  Br  Br546  1  0.865450  0.400420  0.011830  1.0  -0.427
  Br  Br547  1  0.227660  0.264320  0.290590  1.0  -0.4414
  Br  Br548  1  0.131060  0.348350  0.199350  1.0  -0.4439
  Br  Br549  1  0.117690  0.755660  0.563220  1.0  -0.4654
  Br  Br550  1  0.030510  0.832220  0.627800  1.0  -0.4284
  Br  Br551  1  0.395550  0.761760  0.906080  1.0  -0.4657
  Br  Br552  1  0.365450  0.900420  0.011830  1.0  -0.427
  N  N553  1  0.163150  0.538900  0.103390  1.0  -0.3142
  N  N554  1  0.313540  0.994500  0.220870  1.0  -0.3084
  N  N555  1  0.377490  0.565400  0.357430  1.0  -0.3386
  N  N556  1  0.260380  0.315900  0.188140  1.0  -0.3052
  N  N557  1  0.312560  0.327100  0.251110  1.0  -0.3682
  N  N558  1  0.274630  0.458800  0.226980  1.0  -0.4849
  N  N559  1  0.432090  0.531500  0.450670  1.0  -0.2988
  N  N560  1  0.574480  0.985600  0.557670  1.0  -0.3054
  N  N561  1  0.360000  0.164700  0.682450  1.0  -0.3187
  N  N562  1  0.425940  0.287600  0.564540  1.0  -0.4432
  N  N563  1  0.475700  0.236000  0.529130  1.0  -0.4765
  N  N564  1  0.461080  0.152800  0.590360  1.0  -0.4468
  N  N565  1  0.663150  0.038900  0.103390  1.0  -0.3142
  N  N566  1  0.813540  0.494500  0.220870  1.0  -0.3084
  N  N567  1  0.877490  0.065400  0.357430  1.0  -0.3386
  N  N568  1  0.760380  0.815900  0.188140  1.0  -0.3052
  N  N569  1  0.812560  0.827100  0.251110  1.0  -0.3682
  N  N570  1  0.774630  0.958800  0.226980  1.0  -0.4849
  N  N571  1  0.932090  0.031500  0.450670  1.0  -0.2988
  N  N572  1  0.074480  0.485600  0.557670  1.0  -0.3054
  N  N573  1  0.860000  0.664700  0.682450  1.0  -0.3187
  N  N574  1  0.925940  0.787600  0.564540  1.0  -0.4432
  N  N575  1  0.975700  0.736000  0.529130  1.0  -0.4765
  N  N576  1  0.961080  0.652800  0.590360  1.0  -0.4468
  N  N577  1  0.163150  0.461100  0.603390  1.0  -0.3152
  N  N578  1  0.313540  0.005500  0.720870  1.0  -0.3102
  N  N579  1  0.377490  0.434600  0.857430  1.0  -0.3372
  N  N580  1  0.260380  0.684100  0.688140  1.0  -0.3046
  N  N581  1  0.312560  0.672900  0.751110  1.0  -0.3682
  N  N582  1  0.274630  0.541200  0.726980  1.0  -0.4836
  N  N583  1  0.432090  0.468500  0.950670  1.0  -0.3005
  N  N584  1  0.574480  0.014400  0.057670  1.0  -0.3063
  N  N585  1  0.360000  0.835300  0.182450  1.0  -0.3184
  N  N586  1  0.425940  0.712400  0.064540  1.0  -0.443
  N  N587  1  0.475700  0.764000  0.029130  1.0  -0.4767
  N  N588  1  0.461080  0.847200  0.090360  1.0  -0.447
  N  N589  1  0.663150  0.961100  0.603390  1.0  -0.3152
  N  N590  1  0.813540  0.505500  0.720870  1.0  -0.3102
  N  N591  1  0.877490  0.934600  0.857430  1.0  -0.3372
  N  N592  1  0.760380  0.184100  0.688140  1.0  -0.3046
  N  N593  1  0.812560  0.172900  0.751110  1.0  -0.3682
  N  N594  1  0.774630  0.041200  0.726980  1.0  -0.4836
  N  N595  1  0.932090  0.968500  0.950670  1.0  -0.3005
  N  N596  1  0.074480  0.514400  0.057670  1.0  -0.3063
  N  N597  1  0.860000  0.335300  0.182450  1.0  -0.3184
  N  N598  1  0.925940  0.212400  0.064540  1.0  -0.443
  N  N599  1  0.975700  0.264000  0.029130  1.0  -0.4767
  N  N600  1  0.961080  0.347200  0.090360  1.0  -0.447
  N  N601  1  0.836850  0.538900  0.396610  1.0  -0.3156
  N  N602  1  0.686460  0.994500  0.279130  1.0  -0.3085
  N  N603  1  0.622510  0.565400  0.142570  1.0  -0.3347
  N  N604  1  0.739620  0.315900  0.311860  1.0  -0.3031
  N  N605  1  0.687440  0.327100  0.248890  1.0  -0.3655
  N  N606  1  0.725370  0.458800  0.273020  1.0  -0.4838
  N  N607  1  0.567910  0.531500  0.049330  1.0  -0.2988
  N  N608  1  0.425520  0.985600  0.942330  1.0  -0.3073
  N  N609  1  0.640000  0.164700  0.817550  1.0  -0.3201
  N  N610  1  0.574060  0.287600  0.935460  1.0  -0.4433
  N  N611  1  0.524300  0.236000  0.970870  1.0  -0.4796
  N  N612  1  0.538920  0.152800  0.909640  1.0  -0.4474
  N  N613  1  0.336850  0.038900  0.396610  1.0  -0.3156
  N  N614  1  0.186460  0.494500  0.279130  1.0  -0.3085
  N  N615  1  0.122510  0.065400  0.142570  1.0  -0.3347
  N  N616  1  0.239620  0.815900  0.311860  1.0  -0.3031
  N  N617  1  0.187440  0.827100  0.248890  1.0  -0.3655
  N  N618  1  0.225370  0.958800  0.273020  1.0  -0.4838
  N  N619  1  0.067910  0.031500  0.049330  1.0  -0.2988
  N  N620  1  0.925520  0.485600  0.942330  1.0  -0.3073
  N  N621  1  0.140000  0.664700  0.817550  1.0  -0.3201
  N  N622  1  0.074060  0.787600  0.935460  1.0  -0.4433
  N  N623  1  0.024300  0.736000  0.970870  1.0  -0.4796
  N  N624  1  0.038920  0.652800  0.909640  1.0  -0.4474
  N  N625  1  0.836850  0.461100  0.896610  1.0  -0.3137
  N  N626  1  0.686460  0.005500  0.779130  1.0  -0.3083
  N  N627  1  0.622510  0.434600  0.642570  1.0  -0.3358
  N  N628  1  0.739620  0.684100  0.811860  1.0  -0.304
  N  N629  1  0.687440  0.672900  0.748890  1.0  -0.3655
  N  N630  1  0.725370  0.541200  0.773020  1.0  -0.4827
  N  N631  1  0.567910  0.468500  0.549330  1.0  -0.2982
  N  N632  1  0.425520  0.014400  0.442330  1.0  -0.3063
  N  N633  1  0.640000  0.835300  0.317550  1.0  -0.3202
  N  N634  1  0.574060  0.712400  0.435460  1.0  -0.4437
  N  N635  1  0.524300  0.764000  0.470870  1.0  -0.4799
  N  N636  1  0.538920  0.847200  0.409640  1.0  -0.4468
  N  N637  1  0.336850  0.961100  0.896610  1.0  -0.3137
  N  N638  1  0.186460  0.505500  0.779130  1.0  -0.3083
  N  N639  1  0.122510  0.934600  0.642570  1.0  -0.3358
  N  N640  1  0.239620  0.184100  0.811860  1.0  -0.304
  N  N641  1  0.187440  0.172900  0.748890  1.0  -0.3655
  N  N642  1  0.225370  0.041200  0.773020  1.0  -0.4827
  N  N643  1  0.067910  0.968500  0.549330  1.0  -0.2982
  N  N644  1  0.925520  0.514400  0.442330  1.0  -0.3063
  N  N645  1  0.140000  0.335300  0.317550  1.0  -0.3202
  N  N646  1  0.074060  0.212400  0.435460  1.0  -0.4437
  N  N647  1  0.024300  0.264000  0.470870  1.0  -0.4799
  N  N648  1  0.038920  0.347200  0.409640  1.0  -0.4468
