# generated using pymatgen
data_CdH3C9(NO)4
_symmetry_space_group_name_H-M   'P 1'
_cell_length_a   10.13820000
_cell_length_b   12.91390000
_cell_length_c   11.73410000
_cell_angle_alpha   90.00000000
_cell_angle_beta   110.04000000
_cell_angle_gamma   90.00000000
_symmetry_Int_Tables_number   1
_chemical_formula_structural   CdH3C9(NO)4
_chemical_formula_sum   'Cd4 H12 C36 N16 O16'
_cell_volume   1443.25609844
_cell_formula_units_Z   4
loop_
 _symmetry_equiv_pos_site_id
 _symmetry_equiv_pos_as_xyz
  1  'x, y, z'
loop_
 _atom_site_type_symbol
 _atom_site_label
 _atom_site_symmetry_multiplicity
 _atom_site_fract_x
 _atom_site_fract_y
 _atom_site_fract_z
 _atom_site_occupancy
 _atom_site_charge
  Cd  Cd1  1  0.787410  0.146010  0.227550  1.0  1.0748
  Cd  Cd2  1  0.212590  0.646010  0.272450  1.0  1.0742
  Cd  Cd3  1  0.212590  0.853990  0.772450  1.0  1.0738
  Cd  Cd4  1  0.787410  0.353990  0.727550  1.0  1.0745
  H  H5  1  0.275700  0.133600  0.227300  1.0  0.1237
  H  H6  1  0.429100  0.899000  0.087200  1.0  0.1263
  H  H7  1  0.042600  0.879500  0.107700  1.0  0.1314
  H  H8  1  0.724300  0.633600  0.272700  1.0  0.1232
  H  H9  1  0.570900  0.399000  0.412800  1.0  0.126
  H  H10  1  0.957400  0.379500  0.392300  1.0  0.1307
  H  H11  1  0.724300  0.866400  0.772700  1.0  0.1234
  H  H12  1  0.570900  0.101000  0.912800  1.0  0.1256
  H  H13  1  0.957400  0.120500  0.892300  1.0  0.1311
  H  H14  1  0.275700  0.366400  0.727300  1.0  0.1237
  H  H15  1  0.429100  0.601000  0.587200  1.0  0.1263
  H  H16  1  0.042600  0.620500  0.607700  1.0  0.1312
  C  C17  1  0.140000  0.013600  0.174000  1.0  -0.1595
  C  C18  1  0.264900  0.068000  0.192600  1.0  0.0328
  C  C19  1  0.372300  0.026400  0.160400  1.0  -0.121
  C  C20  1  0.356700  0.928100  0.108100  1.0  -0.0179
  C  C21  1  0.232400  0.874000  0.087600  1.0  -0.0419
  C  C22  1  0.125200  0.916600  0.121000  1.0  -0.0131
  C  C23  1  0.025500  0.061100  0.207600  1.0  0.683
  C  C24  1  0.509100  0.083600  0.184600  1.0  0.7408
  C  C25  1  0.215700  0.770200  0.031700  1.0  0.3606
  C  C26  1  0.860000  0.513600  0.326000  1.0  -0.1586
  C  C27  1  0.735100  0.568000  0.307400  1.0  0.0329
  C  C28  1  0.627700  0.526400  0.339600  1.0  -0.1203
  C  C29  1  0.643300  0.428100  0.391900  1.0  -0.0196
  C  C30  1  0.767600  0.374000  0.412400  1.0  -0.0428
  C  C31  1  0.874800  0.416600  0.379000  1.0  -0.0137
  C  C32  1  0.974500  0.561100  0.292400  1.0  0.6861
  C  C33  1  0.490900  0.583600  0.315400  1.0  0.7401
  C  C34  1  0.784300  0.270200  0.468300  1.0  0.3601
  C  C35  1  0.860000  0.986400  0.826000  1.0  -0.1599
  C  C36  1  0.735100  0.932000  0.807400  1.0  0.0329
  C  C37  1  0.627700  0.973600  0.839600  1.0  -0.1215
  C  C38  1  0.643300  0.071900  0.891900  1.0  -0.02
  C  C39  1  0.767600  0.126000  0.912400  1.0  -0.0423
  C  C40  1  0.874800  0.083400  0.879000  1.0  -0.0134
  C  C41  1  0.974500  0.938900  0.792400  1.0  0.686
  C  C42  1  0.490900  0.916400  0.815400  1.0  0.7405
  C  C43  1  0.784300  0.229800  0.968300  1.0  0.36
  C  C44  1  0.140000  0.486400  0.674000  1.0  -0.1599
  C  C45  1  0.264900  0.432000  0.692600  1.0  0.033
  C  C46  1  0.372300  0.473600  0.660400  1.0  -0.1211
  C  C47  1  0.356700  0.571900  0.608100  1.0  -0.0185
  C  C48  1  0.232400  0.626000  0.587600  1.0  -0.0417
  C  C49  1  0.125200  0.583400  0.621000  1.0  -0.0132
  C  C50  1  0.025500  0.438900  0.707600  1.0  0.6834
  C  C51  1  0.509100  0.416400  0.684600  1.0  0.7408
  C  C52  1  0.215700  0.729800  0.531700  1.0  0.3604
  N  N53  1  0.231500  0.747600  0.926000  1.0  -0.2205
  N  N54  1  0.212600  0.644100  0.912200  1.0  -0.0591
  N  N55  1  0.187200  0.606700  0.005400  1.0  -0.0689
  N  N56  1  0.188300  0.684000  0.082300  1.0  -0.2026
  N  N57  1  0.768500  0.247600  0.574000  1.0  -0.2232
  N  N58  1  0.787400  0.144100  0.587800  1.0  -0.0608
  N  N59  1  0.812800  0.106700  0.494600  1.0  -0.0694
  N  N60  1  0.811700  0.184000  0.417700  1.0  -0.1991
  N  N61  1  0.768500  0.252400  0.074000  1.0  -0.2233
  N  N62  1  0.787400  0.355900  0.087800  1.0  -0.0628
  N  N63  1  0.812800  0.393300  0.994600  1.0  -0.0704
  N  N64  1  0.811700  0.316000  0.917700  1.0  -0.1983
  N  N65  1  0.231500  0.752400  0.426000  1.0  -0.2207
  N  N66  1  0.212600  0.855900  0.412200  1.0  -0.0599
  N  N67  1  0.187200  0.893300  0.505400  1.0  -0.0706
  N  N68  1  0.188300  0.816000  0.582300  1.0  -0.2022
  O  O69  1  0.514000  0.178400  0.198100  1.0  -0.5662
  O  O70  1  0.616300  0.028700  0.194200  1.0  -0.5772
  O  O71  1  0.038600  0.151000  0.252600  1.0  -0.6423
  O  O72  1  0.911800  0.011800  0.187300  1.0  -0.5759
  O  O73  1  0.486000  0.678400  0.301900  1.0  -0.5651
  O  O74  1  0.383700  0.528700  0.305800  1.0  -0.578
  O  O75  1  0.961400  0.651000  0.247400  1.0  -0.6458
  O  O76  1  0.088200  0.511800  0.312700  1.0  -0.5758
  O  O77  1  0.486000  0.821600  0.801900  1.0  -0.5682
  O  O78  1  0.383700  0.971300  0.805800  1.0  -0.5772
  O  O79  1  0.961400  0.849000  0.747400  1.0  -0.6459
  O  O80  1  0.088200  0.988200  0.812700  1.0  -0.5772
  O  O81  1  0.514000  0.321600  0.698100  1.0  -0.5692
  O  O82  1  0.616300  0.471300  0.694200  1.0  -0.5779
  O  O83  1  0.038600  0.349000  0.752600  1.0  -0.6435
  O  O84  1  0.911800  0.488200  0.687300  1.0  -0.5765
