# generated using pymatgen
data_Zn2H3C9N4O5
_symmetry_space_group_name_H-M   'P 1'
_cell_length_a   10.39730000
_cell_length_b   23.43100000
_cell_length_c   6.92700000
_cell_angle_alpha   90.00000000
_cell_angle_beta   90.00000000
_cell_angle_gamma   90.00000000
_symmetry_Int_Tables_number   1
_chemical_formula_structural   Zn2H3C9N4O5
_chemical_formula_sum   'Zn8 H12 C36 N16 O20'
_cell_volume   1687.54975715
_cell_formula_units_Z   4
loop_
 _symmetry_equiv_pos_site_id
 _symmetry_equiv_pos_as_xyz
  1  'x, y, z'
loop_
 _atom_site_type_symbol
 _atom_site_label
 _atom_site_symmetry_multiplicity
 _atom_site_fract_x
 _atom_site_fract_y
 _atom_site_fract_z
 _atom_site_occupancy
 _atom_site_charge
  Zn  Zn1  1  0.500000  0.365960  0.250000  1.0  1.0313
  Zn  Zn2  1  0.000000  0.865960  0.250000  1.0  1.0313
  Zn  Zn3  1  0.500000  0.634040  0.750000  1.0  1.0307
  Zn  Zn4  1  0.000000  0.134040  0.750000  1.0  1.0307
  Zn  Zn5  1  0.500000  0.500000  0.000000  1.0  1.0237
  Zn  Zn6  1  0.000000  0.000000  0.000000  1.0  1.0237
  Zn  Zn7  1  0.500000  0.500000  0.500000  1.0  1.0237
  Zn  Zn8  1  0.000000  0.000000  0.500000  1.0  1.0237
  H  H9  1  0.193400  0.236100  0.250000  1.0  0.0988
  H  H10  1  0.693400  0.736100  0.250000  1.0  0.0988
  H  H11  1  0.806600  0.763900  0.750000  1.0  0.0979
  H  H12  1  0.306600  0.263900  0.750000  1.0  0.0979
  H  H13  1  0.806600  0.236100  0.250000  1.0  0.0982
  H  H14  1  0.306600  0.736100  0.250000  1.0  0.0982
  H  H15  1  0.193400  0.763900  0.750000  1.0  0.0985
  H  H16  1  0.693400  0.263900  0.750000  1.0  0.0985
  H  H17  1  0.000000  0.385000  0.250000  1.0  0.1097
  H  H18  1  0.500000  0.885000  0.250000  1.0  0.1097
  H  H19  1  0.000000  0.615000  0.750000  1.0  0.1089
  H  H20  1  0.500000  0.115000  0.750000  1.0  0.1089
  C  C21  1  0.116000  0.255900  0.250000  1.0  -0.0368
  C  C22  1  0.115700  0.315400  0.250000  1.0  -0.1537
  C  C23  1  0.240800  0.348700  0.250000  1.0  0.6858
  C  C24  1  0.616000  0.755900  0.250000  1.0  -0.0368
  C  C25  1  0.615700  0.815400  0.250000  1.0  -0.1537
  C  C26  1  0.740800  0.848700  0.250000  1.0  0.6858
  C  C27  1  0.884000  0.744100  0.750000  1.0  -0.0366
  C  C28  1  0.884300  0.684600  0.750000  1.0  -0.1533
  C  C29  1  0.759200  0.651300  0.750000  1.0  0.6856
  C  C30  1  0.384000  0.244100  0.750000  1.0  -0.0366
  C  C31  1  0.384300  0.184600  0.750000  1.0  -0.1533
  C  C32  1  0.259200  0.151300  0.750000  1.0  0.6856
  C  C33  1  0.884000  0.255900  0.250000  1.0  -0.0364
  C  C34  1  0.884300  0.315400  0.250000  1.0  -0.1535
  C  C35  1  0.759200  0.348700  0.250000  1.0  0.6855
  C  C36  1  0.384000  0.755900  0.250000  1.0  -0.0364
  C  C37  1  0.384300  0.815400  0.250000  1.0  -0.1535
  C  C38  1  0.259200  0.848700  0.250000  1.0  0.6855
  C  C39  1  0.116000  0.744100  0.750000  1.0  -0.0371
  C  C40  1  0.115700  0.684600  0.750000  1.0  -0.153
  C  C41  1  0.240800  0.651300  0.750000  1.0  0.6856
  C  C42  1  0.616000  0.244100  0.750000  1.0  -0.0371
  C  C43  1  0.615700  0.184600  0.750000  1.0  -0.153
  C  C44  1  0.740800  0.151300  0.750000  1.0  0.6856
  C  C45  1  0.000000  0.162300  0.250000  1.0  0.3326
  C  C46  1  0.000000  0.226400  0.250000  1.0  -0.0252
  C  C47  1  0.000000  0.345300  0.250000  1.0  0.0408
  C  C48  1  0.500000  0.662300  0.250000  1.0  0.3326
  C  C49  1  0.500000  0.726400  0.250000  1.0  -0.0252
  C  C50  1  0.500000  0.845300  0.250000  1.0  0.0408
  C  C51  1  0.000000  0.837700  0.750000  1.0  0.3315
  C  C52  1  0.000000  0.773600  0.750000  1.0  -0.025
  C  C53  1  0.000000  0.654700  0.750000  1.0  0.0421
  C  C54  1  0.500000  0.337700  0.750000  1.0  0.3315
  C  C55  1  0.500000  0.273600  0.750000  1.0  -0.025
  C  C56  1  0.500000  0.154700  0.750000  1.0  0.0421
  N  N57  1  0.000000  0.130730  0.409200  1.0  -0.295
  N  N58  1  0.000000  0.077000  0.342000  1.0  -0.0632
  N  N59  1  0.500000  0.630730  0.409200  1.0  -0.295
  N  N60  1  0.500000  0.577000  0.342000  1.0  -0.0632
  N  N61  1  0.000000  0.869270  0.909200  1.0  -0.2951
  N  N62  1  0.000000  0.923000  0.842000  1.0  -0.0635
  N  N63  1  0.500000  0.369270  0.909200  1.0  -0.2951
  N  N64  1  0.500000  0.423000  0.842000  1.0  -0.0635
  N  N65  1  0.000000  0.130730  0.090800  1.0  -0.2947
  N  N66  1  0.000000  0.077000  0.158000  1.0  -0.0645
  N  N67  1  0.500000  0.630730  0.090800  1.0  -0.2947
  N  N68  1  0.500000  0.577000  0.158000  1.0  -0.0645
  N  N69  1  0.000000  0.869270  0.590800  1.0  -0.2947
  N  N70  1  0.000000  0.923000  0.658000  1.0  -0.0644
  N  N71  1  0.500000  0.369270  0.590800  1.0  -0.2947
  N  N72  1  0.500000  0.423000  0.658000  1.0  -0.0644
  O  O73  1  0.500000  0.451700  0.250000  1.0  -0.7929
  O  O74  1  0.000000  0.951700  0.250000  1.0  -0.7929
  O  O75  1  0.500000  0.548300  0.750000  1.0  -0.7933
  O  O76  1  0.000000  0.048300  0.750000  1.0  -0.7933
  O  O77  1  0.342600  0.319700  0.250000  1.0  -0.5881
  O  O78  1  0.236900  0.400700  0.250000  1.0  -0.5076
  O  O79  1  0.842600  0.819700  0.250000  1.0  -0.5881
  O  O80  1  0.736900  0.900700  0.250000  1.0  -0.5076
  O  O81  1  0.657400  0.680300  0.750000  1.0  -0.5888
  O  O82  1  0.763100  0.599300  0.750000  1.0  -0.5051
  O  O83  1  0.157400  0.180300  0.750000  1.0  -0.5888
  O  O84  1  0.263100  0.099300  0.750000  1.0  -0.5051
  O  O85  1  0.657400  0.319700  0.250000  1.0  -0.5884
  O  O86  1  0.763100  0.400700  0.250000  1.0  -0.5063
  O  O87  1  0.157400  0.819700  0.250000  1.0  -0.5884
  O  O88  1  0.263100  0.900700  0.250000  1.0  -0.5063
  O  O89  1  0.342600  0.680300  0.750000  1.0  -0.5892
  O  O90  1  0.236900  0.599300  0.750000  1.0  -0.5053
  O  O91  1  0.842600  0.180300  0.750000  1.0  -0.5892
  O  O92  1  0.736900  0.099300  0.750000  1.0  -0.5053
