# generated using pymatgen
data_DyH12C24(NO2)3
_symmetry_space_group_name_H-M   'P 1'
_cell_length_a   33.13800000
_cell_length_b   9.89300000
_cell_length_c   26.95900000
_cell_angle_alpha   90.00000000
_cell_angle_beta   106.75100000
_cell_angle_gamma   90.00000000
_symmetry_Int_Tables_number   1
_chemical_formula_structural   DyH12C24(NO2)3
_chemical_formula_sum   'Dy8 H96 C192 N24 O48'
_cell_volume   8463.05081815
_cell_formula_units_Z   8
loop_
 _symmetry_equiv_pos_site_id
 _symmetry_equiv_pos_as_xyz
  1  'x, y, z'
loop_
 _atom_site_type_symbol
 _atom_site_label
 _atom_site_symmetry_multiplicity
 _atom_site_fract_x
 _atom_site_fract_y
 _atom_site_fract_z
 _atom_site_occupancy
 _atom_site_charge
  Dy  Dy1  1  0.052780  0.113240  0.501900  1.0  2.2556
  Dy  Dy2  1  0.552780  0.613240  0.501900  1.0  2.2556
  Dy  Dy3  1  0.947220  0.113240  0.998100  1.0  2.2572
  Dy  Dy4  1  0.447220  0.613240  0.998100  1.0  2.2572
  Dy  Dy5  1  0.947220  0.886760  0.498100  1.0  2.2577
  Dy  Dy6  1  0.447220  0.386760  0.498100  1.0  2.2577
  Dy  Dy7  1  0.052780  0.886760  0.001900  1.0  2.2553
  Dy  Dy8  1  0.552780  0.386760  0.001900  1.0  2.2553
  H  H9  1  0.381100  0.416300  0.846600  1.0  0.0938
  H  H10  1  0.186600  0.223000  0.637200  1.0  0.1094
  H  H11  1  0.504600  0.910100  0.617500  1.0  0.1046
  H  H12  1  0.268400  0.914300  0.577700  1.0  0.1101
  H  H13  1  0.258700  0.208500  0.677000  1.0  0.1059
  H  H14  1  0.195800  0.921800  0.539900  1.0  0.1039
  H  H15  1  0.484200  0.183100  0.861800  1.0  0.1109
  H  H16  1  0.406500  0.668700  0.544500  1.0  0.0998
  H  H17  1  0.362500  0.788800  0.583000  1.0  0.1093
  H  H18  1  0.346700  0.307700  0.768700  1.0  0.1087
  H  H19  1  0.450800  0.078200  0.783200  1.0  0.1066
  H  H20  1  0.462300  0.018300  0.660000  1.0  0.1015
  H  H21  1  0.881100  0.916300  0.846600  1.0  0.0938
  H  H22  1  0.686600  0.723000  0.637200  1.0  0.1094
  H  H23  1  0.004600  0.410100  0.617500  1.0  0.1046
  H  H24  1  0.768400  0.414300  0.577700  1.0  0.1101
  H  H25  1  0.758700  0.708500  0.677000  1.0  0.1059
  H  H26  1  0.695800  0.421800  0.539900  1.0  0.1039
  H  H27  1  0.984200  0.683100  0.861800  1.0  0.1109
  H  H28  1  0.906500  0.168700  0.544500  1.0  0.0998
  H  H29  1  0.862500  0.288800  0.583000  1.0  0.1093
  H  H30  1  0.846700  0.807700  0.768700  1.0  0.1087
  H  H31  1  0.950800  0.578200  0.783200  1.0  0.1066
  H  H32  1  0.962300  0.518300  0.660000  1.0  0.1015
  H  H33  1  0.618900  0.416300  0.653400  1.0  0.0941
  H  H34  1  0.813400  0.223000  0.862800  1.0  0.1094
  H  H35  1  0.495400  0.910100  0.882500  1.0  0.105
  H  H36  1  0.731600  0.914300  0.922300  1.0  0.11
  H  H37  1  0.741300  0.208500  0.823000  1.0  0.1062
  H  H38  1  0.804200  0.921800  0.960100  1.0  0.1042
  H  H39  1  0.515800  0.183100  0.638200  1.0  0.1107
  H  H40  1  0.593500  0.668700  0.955500  1.0  0.1
  H  H41  1  0.637500  0.788800  0.917000  1.0  0.1084
  H  H42  1  0.653300  0.307700  0.731300  1.0  0.1082
  H  H43  1  0.549200  0.078200  0.716800  1.0  0.1062
  H  H44  1  0.537700  0.018300  0.840000  1.0  0.1019
  H  H45  1  0.118900  0.916300  0.653400  1.0  0.0941
  H  H46  1  0.313400  0.723000  0.862800  1.0  0.1094
  H  H47  1  0.995400  0.410100  0.882500  1.0  0.105
  H  H48  1  0.231600  0.414300  0.922300  1.0  0.11
  H  H49  1  0.241300  0.708500  0.823000  1.0  0.1062
  H  H50  1  0.304200  0.421800  0.960100  1.0  0.1042
  H  H51  1  0.015800  0.683100  0.638200  1.0  0.1107
  H  H52  1  0.093500  0.168700  0.955500  1.0  0.1
  H  H53  1  0.137500  0.288800  0.917000  1.0  0.1084
  H  H54  1  0.153300  0.807700  0.731300  1.0  0.1082
  H  H55  1  0.049200  0.578200  0.716800  1.0  0.1062
  H  H56  1  0.037700  0.518300  0.840000  1.0  0.1019
  H  H57  1  0.618900  0.583700  0.153400  1.0  0.0941
  H  H58  1  0.813400  0.777000  0.362800  1.0  0.1093
  H  H59  1  0.495400  0.089900  0.382500  1.0  0.1048
  H  H60  1  0.731600  0.085700  0.422300  1.0  0.1102
  H  H61  1  0.741300  0.791500  0.323000  1.0  0.1062
  H  H62  1  0.804200  0.078200  0.460100  1.0  0.104
  H  H63  1  0.515800  0.816900  0.138200  1.0  0.1107
  H  H64  1  0.593500  0.331300  0.455500  1.0  0.0995
  H  H65  1  0.637500  0.211200  0.417000  1.0  0.1084
  H  H66  1  0.653300  0.692300  0.231300  1.0  0.1083
  H  H67  1  0.549200  0.921800  0.216800  1.0  0.1061
  H  H68  1  0.537700  0.981700  0.340000  1.0  0.102
  H  H69  1  0.118900  0.083700  0.153400  1.0  0.0941
  H  H70  1  0.313400  0.277000  0.362800  1.0  0.1093
  H  H71  1  0.995400  0.589900  0.382500  1.0  0.1048
  H  H72  1  0.231600  0.585700  0.422300  1.0  0.1102
  H  H73  1  0.241300  0.291500  0.323000  1.0  0.1062
  H  H74  1  0.304200  0.578200  0.460100  1.0  0.104
  H  H75  1  0.015800  0.316900  0.138200  1.0  0.1107
  H  H76  1  0.093500  0.831300  0.455500  1.0  0.0995
  H  H77  1  0.137500  0.711200  0.417000  1.0  0.1084
  H  H78  1  0.153300  0.192300  0.231300  1.0  0.1083
  H  H79  1  0.049200  0.421800  0.216800  1.0  0.1061
  H  H80  1  0.037700  0.481700  0.340000  1.0  0.102
  H  H81  1  0.381100  0.583700  0.346600  1.0  0.0939
  H  H82  1  0.186600  0.777000  0.137200  1.0  0.1095
  H  H83  1  0.504600  0.089900  0.117500  1.0  0.1045
  H  H84  1  0.268400  0.085700  0.077700  1.0  0.1101
  H  H85  1  0.258700  0.791500  0.177000  1.0  0.106
  H  H86  1  0.195800  0.078200  0.039900  1.0  0.1039
  H  H87  1  0.484200  0.816900  0.361800  1.0  0.1108
  H  H88  1  0.406500  0.331300  0.044500  1.0  0.0996
  H  H89  1  0.362500  0.211200  0.083000  1.0  0.1091
  H  H90  1  0.346700  0.692300  0.268700  1.0  0.1089
  H  H91  1  0.450800  0.921800  0.283200  1.0  0.1067
  H  H92  1  0.462300  0.981700  0.160000  1.0  0.1022
  H  H93  1  0.881100  0.083700  0.346600  1.0  0.0939
  H  H94  1  0.686600  0.277000  0.137200  1.0  0.1095
  H  H95  1  0.004600  0.589900  0.117500  1.0  0.1045
  H  H96  1  0.768400  0.585700  0.077700  1.0  0.1101
  H  H97  1  0.758700  0.291500  0.177000  1.0  0.106
  H  H98  1  0.695800  0.578200  0.039900  1.0  0.1039
  H  H99  1  0.984200  0.316900  0.361800  1.0  0.1108
  H  H100  1  0.906500  0.831300  0.044500  1.0  0.0996
  H  H101  1  0.862500  0.711200  0.083000  1.0  0.1091
  H  H102  1  0.846700  0.192300  0.268700  1.0  0.1089
  H  H103  1  0.950800  0.421800  0.283200  1.0  0.1067
  H  H104  1  0.962300  0.481700  0.160000  1.0  0.1022
  C  C105  1  0.458320  0.379100  0.911740  1.0  0.7803
  C  C106  1  0.184000  0.075700  0.582990  1.0  -0.1413
  C  C107  1  0.137870  0.089400  0.556240  1.0  0.6917
  C  C108  1  0.270830  0.062100  0.631000  1.0  -0.1116
  C  C109  1  0.487330  0.703400  0.551190  1.0  0.7247
  C  C110  1  0.395220  0.347400  0.833600  1.0  -0.0587
  C  C111  1  0.316890  0.056300  0.654100  1.0  0.3888
  C  C112  1  0.203140  0.160000  0.624900  1.0  -0.0803
  C  C113  1  0.475990  0.883600  0.611200  1.0  -0.0421
  C  C114  1  0.436190  0.311500  0.861070  1.0  -0.1202
  C  C115  1  0.459920  0.778500  0.577100  1.0  -0.1221
  C  C116  1  0.251810  0.976900  0.590000  1.0  -0.0867
  C  C117  1  0.246090  0.151500  0.648400  1.0  -0.0479
  C  C118  1  0.375410  0.117100  0.717900  1.0  0.4034
  C  C119  1  0.208640  0.982800  0.567000  1.0  -0.0663
  C  C120  1  0.456530  0.209800  0.842600  1.0  -0.0172
  C  C121  1  0.417480  0.741800  0.567300  1.0  -0.0681
  C  C122  1  0.391450  0.811700  0.590500  1.0  -0.0393
  C  C123  1  0.374720  0.283300  0.787200  1.0  -0.0378
  C  C124  1  0.436580  0.146900  0.796200  1.0  -0.0667
  C  C125  1  0.381020  0.987200  0.651700  1.0  0.3728
  C  C126  1  0.395540  0.183900  0.768300  1.0  -0.1179
  C  C127  1  0.408350  0.915400  0.624900  1.0  -0.1128
  C  C128  1  0.450820  0.949200  0.635600  1.0  -0.0556
  C  C129  1  0.958320  0.879100  0.911740  1.0  0.7803
  C  C130  1  0.684000  0.575700  0.582990  1.0  -0.1413
  C  C131  1  0.637870  0.589400  0.556240  1.0  0.6917
  C  C132  1  0.770830  0.562100  0.631000  1.0  -0.1116
  C  C133  1  0.987330  0.203400  0.551190  1.0  0.7247
  C  C134  1  0.895220  0.847400  0.833600  1.0  -0.0587
  C  C135  1  0.816890  0.556300  0.654100  1.0  0.3888
  C  C136  1  0.703140  0.660000  0.624900  1.0  -0.0803
  C  C137  1  0.975990  0.383600  0.611200  1.0  -0.0421
  C  C138  1  0.936190  0.811500  0.861070  1.0  -0.1202
  C  C139  1  0.959920  0.278500  0.577100  1.0  -0.1221
  C  C140  1  0.751810  0.476900  0.590000  1.0  -0.0867
  C  C141  1  0.746090  0.651500  0.648400  1.0  -0.0479
  C  C142  1  0.875410  0.617100  0.717900  1.0  0.4034
  C  C143  1  0.708640  0.482800  0.567000  1.0  -0.0663
  C  C144  1  0.956530  0.709800  0.842600  1.0  -0.0172
  C  C145  1  0.917480  0.241800  0.567300  1.0  -0.0681
  C  C146  1  0.891450  0.311700  0.590500  1.0  -0.0393
  C  C147  1  0.874720  0.783300  0.787200  1.0  -0.0378
  C  C148  1  0.936580  0.646900  0.796200  1.0  -0.0667
  C  C149  1  0.881020  0.487200  0.651700  1.0  0.3728
  C  C150  1  0.895540  0.683900  0.768300  1.0  -0.1179
  C  C151  1  0.908350  0.415400  0.624900  1.0  -0.1128
  C  C152  1  0.950820  0.449200  0.635600  1.0  -0.0556
  C  C153  1  0.541680  0.379100  0.588260  1.0  0.7811
  C  C154  1  0.816000  0.075700  0.917010  1.0  -0.141
  C  C155  1  0.862130  0.089400  0.943760  1.0  0.6911
  C  C156  1  0.729170  0.062100  0.869000  1.0  -0.1117
  C  C157  1  0.512670  0.703400  0.948810  1.0  0.7252
  C  C158  1  0.604780  0.347400  0.666400  1.0  -0.0585
  C  C159  1  0.683110  0.056300  0.845900  1.0  0.3896
  C  C160  1  0.796860  0.160000  0.875100  1.0  -0.0805
  C  C161  1  0.524010  0.883600  0.888800  1.0  -0.0433
  C  C162  1  0.563810  0.311500  0.638930  1.0  -0.1199
  C  C163  1  0.540080  0.778500  0.922900  1.0  -0.123
  C  C164  1  0.748190  0.976900  0.910000  1.0  -0.0875
  C  C165  1  0.753910  0.151500  0.851600  1.0  -0.0483
  C  C166  1  0.624590  0.117100  0.782100  1.0  0.4032
  C  C167  1  0.791360  0.982800  0.933000  1.0  -0.0654
  C  C168  1  0.543470  0.209800  0.657400  1.0  -0.0178
  C  C169  1  0.582520  0.741800  0.932700  1.0  -0.0676
  C  C170  1  0.608550  0.811700  0.909500  1.0  -0.0378
  C  C171  1  0.625280  0.283300  0.712800  1.0  -0.037
  C  C172  1  0.563420  0.146900  0.703800  1.0  -0.0659
  C  C173  1  0.618980  0.987200  0.848300  1.0  0.3733
  C  C174  1  0.604460  0.183900  0.731700  1.0  -0.1176
  C  C175  1  0.591650  0.915400  0.875100  1.0  -0.1141
  C  C176  1  0.549180  0.949200  0.864400  1.0  -0.0551
  C  C177  1  0.041680  0.879100  0.588260  1.0  0.7811
  C  C178  1  0.316000  0.575700  0.917010  1.0  -0.141
  C  C179  1  0.362130  0.589400  0.943760  1.0  0.6911
  C  C180  1  0.229170  0.562100  0.869000  1.0  -0.1117
  C  C181  1  0.012670  0.203400  0.948810  1.0  0.7252
  C  C182  1  0.104780  0.847400  0.666400  1.0  -0.0585
  C  C183  1  0.183110  0.556300  0.845900  1.0  0.3896
  C  C184  1  0.296860  0.660000  0.875100  1.0  -0.0805
  C  C185  1  0.024010  0.383600  0.888800  1.0  -0.0433
  C  C186  1  0.063810  0.811500  0.638930  1.0  -0.1199
  C  C187  1  0.040080  0.278500  0.922900  1.0  -0.123
  C  C188  1  0.248190  0.476900  0.910000  1.0  -0.0875
  C  C189  1  0.253910  0.651500  0.851600  1.0  -0.0483
  C  C190  1  0.124590  0.617100  0.782100  1.0  0.4032
  C  C191  1  0.291360  0.482800  0.933000  1.0  -0.0654
  C  C192  1  0.043470  0.709800  0.657400  1.0  -0.0178
  C  C193  1  0.082520  0.241800  0.932700  1.0  -0.0676
  C  C194  1  0.108550  0.311700  0.909500  1.0  -0.0378
  C  C195  1  0.125280  0.783300  0.712800  1.0  -0.037
  C  C196  1  0.063420  0.646900  0.703800  1.0  -0.0659
  C  C197  1  0.118980  0.487200  0.848300  1.0  0.3733
  C  C198  1  0.104460  0.683900  0.731700  1.0  -0.1176
  C  C199  1  0.091650  0.415400  0.875100  1.0  -0.1141
  C  C200  1  0.049180  0.449200  0.864400  1.0  -0.0551
  C  C201  1  0.541680  0.620900  0.088260  1.0  0.7809
  C  C202  1  0.816000  0.924300  0.417010  1.0  -0.1411
  C  C203  1  0.862130  0.910600  0.443760  1.0  0.6907
  C  C204  1  0.729170  0.937900  0.369000  1.0  -0.1118
  C  C205  1  0.512670  0.296600  0.448810  1.0  0.7249
  C  C206  1  0.604780  0.652600  0.166400  1.0  -0.0583
  C  C207  1  0.683110  0.943700  0.345900  1.0  0.3895
  C  C208  1  0.796860  0.840000  0.375100  1.0  -0.0824
  C  C209  1  0.524010  0.116400  0.388800  1.0  -0.0434
  C  C210  1  0.563810  0.688500  0.138930  1.0  -0.1203
  C  C211  1  0.540080  0.221500  0.422900  1.0  -0.123
  C  C212  1  0.748190  0.023100  0.410000  1.0  -0.0872
  C  C213  1  0.753910  0.848500  0.351600  1.0  -0.0485
  C  C214  1  0.624590  0.882900  0.282100  1.0  0.403
  C  C215  1  0.791360  0.017200  0.433000  1.0  -0.0646
  C  C216  1  0.543470  0.790200  0.157400  1.0  -0.0176
  C  C217  1  0.582520  0.258200  0.432700  1.0  -0.0685
  C  C218  1  0.608550  0.188300  0.409500  1.0  -0.0373
  C  C219  1  0.625280  0.716700  0.212800  1.0  -0.0378
  C  C220  1  0.563420  0.853100  0.203800  1.0  -0.0664
  C  C221  1  0.618980  0.012800  0.348300  1.0  0.3737
  C  C222  1  0.604460  0.816100  0.231700  1.0  -0.1175
  C  C223  1  0.591650  0.084600  0.375100  1.0  -0.1138
  C  C224  1  0.549180  0.050800  0.364400  1.0  -0.0543
  C  C225  1  0.041680  0.120900  0.088260  1.0  0.7809
  C  C226  1  0.316000  0.424300  0.417010  1.0  -0.1411
  C  C227  1  0.362130  0.410600  0.443760  1.0  0.6907
  C  C228  1  0.229170  0.437900  0.369000  1.0  -0.1118
  C  C229  1  0.012670  0.796600  0.448810  1.0  0.7249
  C  C230  1  0.104780  0.152600  0.166400  1.0  -0.0583
  C  C231  1  0.183110  0.443700  0.345900  1.0  0.3895
  C  C232  1  0.296860  0.340000  0.375100  1.0  -0.0824
  C  C233  1  0.024010  0.616400  0.388800  1.0  -0.0434
  C  C234  1  0.063810  0.188500  0.138930  1.0  -0.1203
  C  C235  1  0.040080  0.721500  0.422900  1.0  -0.123
  C  C236  1  0.248190  0.523100  0.410000  1.0  -0.0872
  C  C237  1  0.253910  0.348500  0.351600  1.0  -0.0485
  C  C238  1  0.124590  0.382900  0.282100  1.0  0.403
  C  C239  1  0.291360  0.517200  0.433000  1.0  -0.0646
  C  C240  1  0.043470  0.290200  0.157400  1.0  -0.0176
  C  C241  1  0.082520  0.758200  0.432700  1.0  -0.0685
  C  C242  1  0.108550  0.688300  0.409500  1.0  -0.0373
  C  C243  1  0.125280  0.216700  0.212800  1.0  -0.0378
  C  C244  1  0.063420  0.353100  0.203800  1.0  -0.0664
  C  C245  1  0.118980  0.512800  0.348300  1.0  0.3737
  C  C246  1  0.104460  0.316100  0.231700  1.0  -0.1175
  C  C247  1  0.091650  0.584600  0.375100  1.0  -0.1138
  C  C248  1  0.049180  0.550800  0.364400  1.0  -0.0543
  C  C249  1  0.458320  0.620900  0.411740  1.0  0.7799
  C  C250  1  0.184000  0.924300  0.082990  1.0  -0.1421
  C  C251  1  0.137870  0.910600  0.056240  1.0  0.6909
  C  C252  1  0.270830  0.937900  0.131000  1.0  -0.1117
  C  C253  1  0.487330  0.296600  0.051190  1.0  0.7246
  C  C254  1  0.395220  0.652600  0.333600  1.0  -0.0572
  C  C255  1  0.316890  0.943700  0.154100  1.0  0.3888
  C  C256  1  0.203140  0.840000  0.124900  1.0  -0.0812
  C  C257  1  0.475990  0.116400  0.111200  1.0  -0.0422
  C  C258  1  0.436190  0.688500  0.361070  1.0  -0.1202
  C  C259  1  0.459920  0.221500  0.077100  1.0  -0.1221
  C  C260  1  0.251810  0.023100  0.090000  1.0  -0.0867
  C  C261  1  0.246090  0.848500  0.148400  1.0  -0.0475
  C  C262  1  0.375410  0.882900  0.217900  1.0  0.4031
  C  C263  1  0.208640  0.017200  0.067000  1.0  -0.0652
  C  C264  1  0.456530  0.790200  0.342600  1.0  -0.0174
  C  C265  1  0.417480  0.258200  0.067300  1.0  -0.0682
  C  C266  1  0.391450  0.188300  0.090500  1.0  -0.0393
  C  C267  1  0.374720  0.716700  0.287200  1.0  -0.0378
  C  C268  1  0.436580  0.853100  0.296200  1.0  -0.0664
  C  C269  1  0.381020  0.012800  0.151700  1.0  0.3732
  C  C270  1  0.395540  0.816100  0.268300  1.0  -0.1175
  C  C271  1  0.408350  0.084600  0.124900  1.0  -0.1128
  C  C272  1  0.450820  0.050800  0.135600  1.0  -0.0548
  C  C273  1  0.958320  0.120900  0.411740  1.0  0.7799
  C  C274  1  0.684000  0.424300  0.082990  1.0  -0.1421
  C  C275  1  0.637870  0.410600  0.056240  1.0  0.6909
  C  C276  1  0.770830  0.437900  0.131000  1.0  -0.1117
  C  C277  1  0.987330  0.796600  0.051190  1.0  0.7246
  C  C278  1  0.895220  0.152600  0.333600  1.0  -0.0572
  C  C279  1  0.816890  0.443700  0.154100  1.0  0.3888
  C  C280  1  0.703140  0.340000  0.124900  1.0  -0.0812
  C  C281  1  0.975990  0.616400  0.111200  1.0  -0.0422
  C  C282  1  0.936190  0.188500  0.361070  1.0  -0.1202
  C  C283  1  0.959920  0.721500  0.077100  1.0  -0.1221
  C  C284  1  0.751810  0.523100  0.090000  1.0  -0.0867
  C  C285  1  0.746090  0.348500  0.148400  1.0  -0.0475
  C  C286  1  0.875410  0.382900  0.217900  1.0  0.4031
  C  C287  1  0.708640  0.517200  0.067000  1.0  -0.0652
  C  C288  1  0.956530  0.290200  0.342600  1.0  -0.0174
  C  C289  1  0.917480  0.758200  0.067300  1.0  -0.0682
  C  C290  1  0.891450  0.688300  0.090500  1.0  -0.0393
  C  C291  1  0.874720  0.216700  0.287200  1.0  -0.0378
  C  C292  1  0.936580  0.353100  0.296200  1.0  -0.0664
  C  C293  1  0.881020  0.512800  0.151700  1.0  0.3732
  C  C294  1  0.895540  0.316100  0.268300  1.0  -0.1175
  C  C295  1  0.908350  0.584600  0.124900  1.0  -0.1128
  C  C296  1  0.950820  0.550800  0.135600  1.0  -0.0548
  N  N297  1  0.333180  0.123400  0.698990  1.0  -0.4669
  N  N298  1  0.339420  0.985700  0.629610  1.0  -0.4072
  N  N299  1  0.400740  0.051400  0.695900  1.0  -0.4471
  N  N300  1  0.833180  0.623400  0.698990  1.0  -0.4669
  N  N301  1  0.839420  0.485700  0.629610  1.0  -0.4072
  N  N302  1  0.900740  0.551400  0.695900  1.0  -0.4471
  N  N303  1  0.666820  0.123400  0.801010  1.0  -0.4664
  N  N304  1  0.660580  0.985700  0.870390  1.0  -0.4057
  N  N305  1  0.599260  0.051400  0.804100  1.0  -0.4469
  N  N306  1  0.166820  0.623400  0.801010  1.0  -0.4664
  N  N307  1  0.160580  0.485700  0.870390  1.0  -0.4057
  N  N308  1  0.099260  0.551400  0.804100  1.0  -0.4469
  N  N309  1  0.666820  0.876600  0.301010  1.0  -0.4674
  N  N310  1  0.660580  0.014300  0.370390  1.0  -0.4056
  N  N311  1  0.599260  0.948600  0.304100  1.0  -0.4469
  N  N312  1  0.166820  0.376600  0.301010  1.0  -0.4674
  N  N313  1  0.160580  0.514300  0.370390  1.0  -0.4056
  N  N314  1  0.099260  0.448600  0.304100  1.0  -0.4469
  N  N315  1  0.333180  0.876600  0.198990  1.0  -0.4672
  N  N316  1  0.339420  0.014300  0.129610  1.0  -0.4064
  N  N317  1  0.400740  0.948600  0.195900  1.0  -0.4472
  N  N318  1  0.833180  0.376600  0.198990  1.0  -0.4672
  N  N319  1  0.839420  0.514300  0.129610  1.0  -0.4064
  N  N320  1  0.900740  0.448600  0.195900  1.0  -0.4472
  O  O321  1  0.117430  0.181900  0.568210  1.0  -0.6029
  O  O322  1  0.121180  0.006900  0.520200  1.0  -0.6822
  O  O323  1  0.475120  0.593700  0.529230  1.0  -0.8349
  O  O324  1  0.522580  0.755600  0.552450  1.0  -0.6664
  O  O325  1  0.440950  0.480000  0.924720  1.0  -0.7002
  O  O326  1  0.492490  0.325600  0.937470  1.0  -0.6837
  O  O327  1  0.617430  0.681900  0.568210  1.0  -0.6036
  O  O328  1  0.621180  0.506900  0.520200  1.0  -0.6822
  O  O329  1  0.975120  0.093700  0.529230  1.0  -0.8349
  O  O330  1  0.022580  0.255600  0.552450  1.0  -0.6664
  O  O331  1  0.940950  0.980000  0.924720  1.0  -0.7002
  O  O332  1  0.992490  0.825600  0.937470  1.0  -0.6837
  O  O333  1  0.882570  0.181900  0.931790  1.0  -0.6048
  O  O334  1  0.878820  0.006900  0.979800  1.0  -0.6829
  O  O335  1  0.524880  0.593700  0.970770  1.0  -0.8354
  O  O336  1  0.477420  0.755600  0.947550  1.0  -0.6634
  O  O337  1  0.559050  0.480000  0.575280  1.0  -0.6997
  O  O338  1  0.507510  0.325600  0.562530  1.0  -0.6837
  O  O339  1  0.382570  0.681900  0.931790  1.0  -0.6041
  O  O340  1  0.378820  0.506900  0.979800  1.0  -0.6829
  O  O341  1  0.024880  0.093700  0.970770  1.0  -0.8354
  O  O342  1  0.977420  0.255600  0.947550  1.0  -0.6634
  O  O343  1  0.059050  0.980000  0.575280  1.0  -0.6997
  O  O344  1  0.007510  0.825600  0.562530  1.0  -0.6837
  O  O345  1  0.882570  0.818100  0.431790  1.0  -0.6033
  O  O346  1  0.878820  0.993100  0.479800  1.0  -0.6816
  O  O347  1  0.524880  0.406300  0.470770  1.0  -0.8369
  O  O348  1  0.477420  0.244400  0.447550  1.0  -0.6643
  O  O349  1  0.559050  0.520000  0.075280  1.0  -0.6996
  O  O350  1  0.507510  0.674400  0.062530  1.0  -0.683
  O  O351  1  0.382570  0.318100  0.431790  1.0  -0.6039
  O  O352  1  0.378820  0.493100  0.479800  1.0  -0.6816
  O  O353  1  0.024880  0.906300  0.470770  1.0  -0.8369
  O  O354  1  0.977420  0.744400  0.447550  1.0  -0.6643
  O  O355  1  0.059050  0.020000  0.075280  1.0  -0.6996
  O  O356  1  0.007510  0.174400  0.062530  1.0  -0.683
  O  O357  1  0.117430  0.818100  0.068210  1.0  -0.6034
  O  O358  1  0.121180  0.993100  0.020200  1.0  -0.6838
  O  O359  1  0.475120  0.406300  0.029230  1.0  -0.8357
  O  O360  1  0.522580  0.244400  0.052450  1.0  -0.666
  O  O361  1  0.440950  0.520000  0.424720  1.0  -0.7006
  O  O362  1  0.492490  0.674400  0.437470  1.0  -0.6837
  O  O363  1  0.617430  0.318100  0.068210  1.0  -0.6027
  O  O364  1  0.621180  0.493100  0.020200  1.0  -0.6838
  O  O365  1  0.975120  0.906300  0.029230  1.0  -0.8357
  O  O366  1  0.022580  0.744400  0.052450  1.0  -0.666
  O  O367  1  0.940950  0.020000  0.424720  1.0  -0.7006
  O  O368  1  0.992490  0.174400  0.437470  1.0  -0.6837
