# generated using pymatgen
data_TbH12C24(NO2)3
_symmetry_space_group_name_H-M   'P 1'
_cell_length_a   33.13700000
_cell_length_b   9.71450000
_cell_length_c   27.31400000
_cell_angle_alpha   90.00000000
_cell_angle_beta   107.64200000
_cell_angle_gamma   90.00000000
_symmetry_Int_Tables_number   1
_chemical_formula_structural   TbH12C24(NO2)3
_chemical_formula_sum   'Tb8 H96 C192 N24 O48'
_cell_volume   8379.10457728
_cell_formula_units_Z   8
loop_
 _symmetry_equiv_pos_site_id
 _symmetry_equiv_pos_as_xyz
  1  'x, y, z'
loop_
 _atom_site_type_symbol
 _atom_site_label
 _atom_site_symmetry_multiplicity
 _atom_site_fract_x
 _atom_site_fract_y
 _atom_site_fract_z
 _atom_site_occupancy
 _atom_site_charge
  Tb  Tb1  1  0.052280  0.113140  0.502380  1.0  2.2391
  Tb  Tb2  1  0.552280  0.613140  0.502380  1.0  2.2388
  Tb  Tb3  1  0.947720  0.113140  0.997620  1.0  2.2359
  Tb  Tb4  1  0.447720  0.613140  0.997620  1.0  2.2335
  Tb  Tb5  1  0.947720  0.886860  0.497620  1.0  2.2389
  Tb  Tb6  1  0.447720  0.386860  0.497620  1.0  2.2389
  Tb  Tb7  1  0.052280  0.886860  0.002380  1.0  2.2336
  Tb  Tb8  1  0.552280  0.386860  0.002380  1.0  2.2335
  H  H9  1  0.364500  0.786700  0.582700  1.0  0.1029
  H  H10  1  0.408000  0.667000  0.544700  1.0  0.1049
  H  H11  1  0.506200  0.912300  0.618900  1.0  0.1011
  H  H12  1  0.259900  0.197600  0.678100  1.0  0.1074
  H  H13  1  0.379500  0.408600  0.846600  1.0  0.0986
  H  H14  1  0.186900  0.213200  0.637100  1.0  0.1053
  H  H15  1  0.269800  0.912500  0.575300  1.0  0.107
  H  H16  1  0.196500  0.921900  0.535300  1.0  0.1056
  H  H17  1  0.464100  0.019600  0.661600  1.0  0.1088
  H  H18  1  0.346100  0.300400  0.768500  1.0  0.1026
  H  H19  1  0.485200  0.184500  0.861000  1.0  0.1075
  H  H20  1  0.452700  0.080300  0.782100  1.0  0.1025
  H  H21  1  0.864500  0.286700  0.582700  1.0  0.1029
  H  H22  1  0.908000  0.167000  0.544700  1.0  0.1049
  H  H23  1  0.006200  0.412300  0.618900  1.0  0.1011
  H  H24  1  0.759900  0.697600  0.678100  1.0  0.1074
  H  H25  1  0.879500  0.908600  0.846600  1.0  0.0986
  H  H26  1  0.686900  0.713200  0.637100  1.0  0.1053
  H  H27  1  0.769800  0.412500  0.575300  1.0  0.107
  H  H28  1  0.696500  0.421900  0.535300  1.0  0.1056
  H  H29  1  0.964100  0.519600  0.661600  1.0  0.1088
  H  H30  1  0.846100  0.800400  0.768500  1.0  0.1026
  H  H31  1  0.985200  0.684500  0.861000  1.0  0.1075
  H  H32  1  0.952700  0.580300  0.782100  1.0  0.1025
  H  H33  1  0.635500  0.786700  0.917300  1.0  0.1025
  H  H34  1  0.592000  0.667000  0.955300  1.0  0.1048
  H  H35  1  0.493800  0.912300  0.881100  1.0  0.1011
  H  H36  1  0.740100  0.197600  0.821900  1.0  0.1076
  H  H37  1  0.620500  0.408600  0.653400  1.0  0.0994
  H  H38  1  0.813100  0.213200  0.862900  1.0  0.1051
  H  H39  1  0.730200  0.912500  0.924700  1.0  0.1072
  H  H40  1  0.803500  0.921900  0.964700  1.0  0.1062
  H  H41  1  0.535900  0.019600  0.838400  1.0  0.1094
  H  H42  1  0.653900  0.300400  0.731500  1.0  0.1021
  H  H43  1  0.514800  0.184500  0.639000  1.0  0.1068
  H  H44  1  0.547300  0.080300  0.717900  1.0  0.1018
  H  H45  1  0.135500  0.286700  0.917300  1.0  0.1025
  H  H46  1  0.092000  0.167000  0.955300  1.0  0.1048
  H  H47  1  0.993800  0.412300  0.881100  1.0  0.1011
  H  H48  1  0.240100  0.697600  0.821900  1.0  0.1076
  H  H49  1  0.120500  0.908600  0.653400  1.0  0.0994
  H  H50  1  0.313100  0.713200  0.862900  1.0  0.1051
  H  H51  1  0.230200  0.412500  0.924700  1.0  0.1072
  H  H52  1  0.303500  0.421900  0.964700  1.0  0.1062
  H  H53  1  0.035900  0.519600  0.838400  1.0  0.1094
  H  H54  1  0.153900  0.800400  0.731500  1.0  0.1021
  H  H55  1  0.014800  0.684500  0.639000  1.0  0.1068
  H  H56  1  0.047300  0.580300  0.717900  1.0  0.1018
  H  H57  1  0.635500  0.213300  0.417300  1.0  0.1024
  H  H58  1  0.592000  0.333000  0.455300  1.0  0.1047
  H  H59  1  0.493800  0.087700  0.381100  1.0  0.101
  H  H60  1  0.740100  0.802400  0.321900  1.0  0.1072
  H  H61  1  0.620500  0.591400  0.153400  1.0  0.0993
  H  H62  1  0.813100  0.786800  0.362900  1.0  0.1048
  H  H63  1  0.730200  0.087500  0.424700  1.0  0.1071
  H  H64  1  0.803500  0.078100  0.464700  1.0  0.1062
  H  H65  1  0.535900  0.980400  0.338400  1.0  0.1095
  H  H66  1  0.653900  0.699600  0.231500  1.0  0.1021
  H  H67  1  0.514800  0.815500  0.139000  1.0  0.1067
  H  H68  1  0.547300  0.919700  0.217900  1.0  0.1018
  H  H69  1  0.135500  0.713300  0.417300  1.0  0.1024
  H  H70  1  0.092000  0.833000  0.455300  1.0  0.1047
  H  H71  1  0.993800  0.587700  0.381100  1.0  0.101
  H  H72  1  0.240100  0.302400  0.321900  1.0  0.1072
  H  H73  1  0.120500  0.091400  0.153400  1.0  0.0993
  H  H74  1  0.313100  0.286800  0.362900  1.0  0.1048
  H  H75  1  0.230200  0.587500  0.424700  1.0  0.1071
  H  H76  1  0.303500  0.578100  0.464700  1.0  0.1062
  H  H77  1  0.035900  0.480400  0.338400  1.0  0.1095
  H  H78  1  0.153900  0.199600  0.231500  1.0  0.1021
  H  H79  1  0.014800  0.315500  0.139000  1.0  0.1067
  H  H80  1  0.047300  0.419700  0.217900  1.0  0.1018
  H  H81  1  0.364500  0.213300  0.082700  1.0  0.1026
  H  H82  1  0.408000  0.333000  0.044700  1.0  0.105
  H  H83  1  0.506200  0.087700  0.118900  1.0  0.101
  H  H84  1  0.259900  0.802400  0.178100  1.0  0.1075
  H  H85  1  0.379500  0.591400  0.346600  1.0  0.0989
  H  H86  1  0.186900  0.786800  0.137100  1.0  0.1049
  H  H87  1  0.269800  0.087500  0.075300  1.0  0.1068
  H  H88  1  0.196500  0.078100  0.035300  1.0  0.1058
  H  H89  1  0.464100  0.980400  0.161600  1.0  0.1094
  H  H90  1  0.346100  0.699600  0.268500  1.0  0.1029
  H  H91  1  0.485200  0.815500  0.361000  1.0  0.1076
  H  H92  1  0.452700  0.919700  0.282100  1.0  0.1023
  H  H93  1  0.864500  0.713300  0.082700  1.0  0.1026
  H  H94  1  0.908000  0.833000  0.044700  1.0  0.105
  H  H95  1  0.006200  0.587700  0.118900  1.0  0.101
  H  H96  1  0.759900  0.302400  0.178100  1.0  0.1075
  H  H97  1  0.879500  0.091400  0.346600  1.0  0.0989
  H  H98  1  0.686900  0.286800  0.137100  1.0  0.1049
  H  H99  1  0.769800  0.587500  0.075300  1.0  0.1068
  H  H100  1  0.696500  0.578100  0.035300  1.0  0.1058
  H  H101  1  0.964100  0.480400  0.161600  1.0  0.1094
  H  H102  1  0.846100  0.199600  0.268500  1.0  0.1029
  H  H103  1  0.985200  0.315500  0.361000  1.0  0.1076
  H  H104  1  0.952700  0.419700  0.282100  1.0  0.1023
  C  C105  1  0.376420  0.114600  0.717600  1.0  0.3974
  C  C106  1  0.318090  0.052400  0.653590  1.0  0.4117
  C  C107  1  0.382480  0.984500  0.651700  1.0  0.3773
  C  C108  1  0.138320  0.085400  0.554880  1.0  0.6929
  C  C109  1  0.461470  0.780100  0.578130  1.0  -0.1293
  C  C110  1  0.489440  0.708200  0.552060  1.0  0.7303
  C  C111  1  0.393620  0.810100  0.590900  1.0  -0.034
  C  C112  1  0.271710  0.057500  0.629780  1.0  -0.1174
  C  C113  1  0.184760  0.070900  0.582120  1.0  -0.1186
  C  C114  1  0.419130  0.740900  0.567700  1.0  -0.0758
  C  C115  1  0.477540  0.884800  0.612300  1.0  0.0109
  C  C116  1  0.247250  0.143300  0.648500  1.0  -0.0391
  C  C117  1  0.457310  0.375000  0.911920  1.0  0.7611
  C  C118  1  0.394310  0.341500  0.833410  1.0  -0.0599
  C  C119  1  0.203630  0.151600  0.624300  1.0  -0.0739
  C  C120  1  0.410040  0.912800  0.625700  1.0  -0.0727
  C  C121  1  0.435610  0.307300  0.860820  1.0  -0.1316
  C  C122  1  0.252920  0.973900  0.587800  1.0  -0.0835
  C  C123  1  0.209390  0.979600  0.563900  1.0  -0.0675
  C  C124  1  0.452530  0.949800  0.637000  1.0  -0.0575
  C  C125  1  0.374610  0.278100  0.786800  1.0  -0.0649
  C  C126  1  0.457080  0.209300  0.841900  1.0  0.0194
  C  C127  1  0.396250  0.182900  0.767000  1.0  -0.1179
  C  C128  1  0.437770  0.147300  0.795200  1.0  -0.0671
  C  C129  1  0.876420  0.614600  0.717600  1.0  0.3974
  C  C130  1  0.818090  0.552400  0.653590  1.0  0.4117
  C  C131  1  0.882480  0.484500  0.651700  1.0  0.3773
  C  C132  1  0.638320  0.585400  0.554880  1.0  0.6929
  C  C133  1  0.961470  0.280100  0.578130  1.0  -0.1293
  C  C134  1  0.989440  0.208200  0.552060  1.0  0.7303
  C  C135  1  0.893620  0.310100  0.590900  1.0  -0.034
  C  C136  1  0.771710  0.557500  0.629780  1.0  -0.1174
  C  C137  1  0.684760  0.570900  0.582120  1.0  -0.1186
  C  C138  1  0.919130  0.240900  0.567700  1.0  -0.0758
  C  C139  1  0.977540  0.384800  0.612300  1.0  0.0109
  C  C140  1  0.747250  0.643300  0.648500  1.0  -0.0391
  C  C141  1  0.957310  0.875000  0.911920  1.0  0.7611
  C  C142  1  0.894310  0.841500  0.833410  1.0  -0.0599
  C  C143  1  0.703630  0.651600  0.624300  1.0  -0.0739
  C  C144  1  0.910040  0.412800  0.625700  1.0  -0.0727
  C  C145  1  0.935610  0.807300  0.860820  1.0  -0.1316
  C  C146  1  0.752920  0.473900  0.587800  1.0  -0.0835
  C  C147  1  0.709390  0.479600  0.563900  1.0  -0.0675
  C  C148  1  0.952530  0.449800  0.637000  1.0  -0.0575
  C  C149  1  0.874610  0.778100  0.786800  1.0  -0.0649
  C  C150  1  0.957080  0.709300  0.841900  1.0  0.0194
  C  C151  1  0.896250  0.682900  0.767000  1.0  -0.1179
  C  C152  1  0.937770  0.647300  0.795200  1.0  -0.0671
  C  C153  1  0.623580  0.114600  0.782400  1.0  0.3972
  C  C154  1  0.681910  0.052400  0.846410  1.0  0.4129
  C  C155  1  0.617520  0.984500  0.848300  1.0  0.3773
  C  C156  1  0.861680  0.085400  0.945120  1.0  0.6934
  C  C157  1  0.538530  0.780100  0.921870  1.0  -0.1288
  C  C158  1  0.510560  0.708200  0.947940  1.0  0.731
  C  C159  1  0.606380  0.810100  0.909100  1.0  -0.0324
  C  C160  1  0.728290  0.057500  0.870220  1.0  -0.1173
  C  C161  1  0.815240  0.070900  0.917880  1.0  -0.1186
  C  C162  1  0.580870  0.740900  0.932300  1.0  -0.0764
  C  C163  1  0.522460  0.884800  0.887700  1.0  0.0093
  C  C164  1  0.752750  0.143300  0.851500  1.0  -0.0381
  C  C165  1  0.542690  0.375000  0.588080  1.0  0.7612
  C  C166  1  0.605690  0.341500  0.666590  1.0  -0.0593
  C  C167  1  0.796370  0.151600  0.875700  1.0  -0.0746
  C  C168  1  0.589960  0.912800  0.874300  1.0  -0.0748
  C  C169  1  0.564390  0.307300  0.639180  1.0  -0.1313
  C  C170  1  0.747080  0.973900  0.912200  1.0  -0.083
  C  C171  1  0.790610  0.979600  0.936100  1.0  -0.0667
  C  C172  1  0.547470  0.949800  0.863000  1.0  -0.0565
  C  C173  1  0.625390  0.278100  0.713200  1.0  -0.0649
  C  C174  1  0.542920  0.209300  0.658100  1.0  0.0182
  C  C175  1  0.603750  0.182900  0.733000  1.0  -0.1179
  C  C176  1  0.562230  0.147300  0.704800  1.0  -0.0668
  C  C177  1  0.123580  0.614600  0.782400  1.0  0.3972
  C  C178  1  0.181910  0.552400  0.846410  1.0  0.4129
  C  C179  1  0.117520  0.484500  0.848300  1.0  0.3773
  C  C180  1  0.361680  0.585400  0.945120  1.0  0.6934
  C  C181  1  0.038530  0.280100  0.921870  1.0  -0.1288
  C  C182  1  0.010560  0.208200  0.947940  1.0  0.731
  C  C183  1  0.106380  0.310100  0.909100  1.0  -0.0324
  C  C184  1  0.228290  0.557500  0.870220  1.0  -0.1173
  C  C185  1  0.315240  0.570900  0.917880  1.0  -0.1186
  C  C186  1  0.080870  0.240900  0.932300  1.0  -0.0764
  C  C187  1  0.022460  0.384800  0.887700  1.0  0.0093
  C  C188  1  0.252750  0.643300  0.851500  1.0  -0.0381
  C  C189  1  0.042690  0.875000  0.588080  1.0  0.7612
  C  C190  1  0.105690  0.841500  0.666590  1.0  -0.0593
  C  C191  1  0.296370  0.651600  0.875700  1.0  -0.0746
  C  C192  1  0.089960  0.412800  0.874300  1.0  -0.0748
  C  C193  1  0.064390  0.807300  0.639180  1.0  -0.1313
  C  C194  1  0.247080  0.473900  0.912200  1.0  -0.083
  C  C195  1  0.290610  0.479600  0.936100  1.0  -0.0667
  C  C196  1  0.047470  0.449800  0.863000  1.0  -0.0565
  C  C197  1  0.125390  0.778100  0.713200  1.0  -0.0649
  C  C198  1  0.042920  0.709300  0.658100  1.0  0.0182
  C  C199  1  0.103750  0.682900  0.733000  1.0  -0.1179
  C  C200  1  0.062230  0.647300  0.704800  1.0  -0.0668
  C  C201  1  0.623580  0.885400  0.282400  1.0  0.3968
  C  C202  1  0.681910  0.947600  0.346410  1.0  0.413
  C  C203  1  0.617520  0.015500  0.348300  1.0  0.3775
  C  C204  1  0.861680  0.914600  0.445120  1.0  0.693
  C  C205  1  0.538530  0.219900  0.421870  1.0  -0.1287
  C  C206  1  0.510560  0.291800  0.447940  1.0  0.7306
  C  C207  1  0.606380  0.189900  0.409100  1.0  -0.032
  C  C208  1  0.728290  0.942500  0.370220  1.0  -0.1174
  C  C209  1  0.815240  0.929100  0.417880  1.0  -0.1181
  C  C210  1  0.580870  0.259100  0.432300  1.0  -0.0767
  C  C211  1  0.522460  0.115200  0.387700  1.0  0.0096
  C  C212  1  0.752750  0.856700  0.351500  1.0  -0.0389
  C  C213  1  0.542690  0.625000  0.088080  1.0  0.7613
  C  C214  1  0.605690  0.658500  0.166590  1.0  -0.0603
  C  C215  1  0.796370  0.848400  0.375700  1.0  -0.0766
  C  C216  1  0.589960  0.087200  0.374300  1.0  -0.0747
  C  C217  1  0.564390  0.692700  0.139180  1.0  -0.1319
  C  C218  1  0.747080  0.026100  0.412200  1.0  -0.0832
  C  C219  1  0.790610  0.020400  0.436100  1.0  -0.0677
  C  C220  1  0.547470  0.050200  0.363000  1.0  -0.0566
  C  C221  1  0.625390  0.721900  0.213200  1.0  -0.0651
  C  C222  1  0.542920  0.790700  0.158100  1.0  0.018
  C  C223  1  0.603750  0.817100  0.233000  1.0  -0.1182
  C  C224  1  0.562230  0.852700  0.204800  1.0  -0.0667
  C  C225  1  0.123580  0.385400  0.282400  1.0  0.3968
  C  C226  1  0.181910  0.447600  0.346410  1.0  0.413
  C  C227  1  0.117520  0.515500  0.348300  1.0  0.3775
  C  C228  1  0.361680  0.414600  0.445120  1.0  0.693
  C  C229  1  0.038530  0.719900  0.421870  1.0  -0.1287
  C  C230  1  0.010560  0.791800  0.447940  1.0  0.7306
  C  C231  1  0.106380  0.689900  0.409100  1.0  -0.032
  C  C232  1  0.228290  0.442500  0.370220  1.0  -0.1174
  C  C233  1  0.315240  0.429100  0.417880  1.0  -0.1181
  C  C234  1  0.080870  0.759100  0.432300  1.0  -0.0767
  C  C235  1  0.022460  0.615200  0.387700  1.0  0.0096
  C  C236  1  0.252750  0.356700  0.351500  1.0  -0.0389
  C  C237  1  0.042690  0.125000  0.088080  1.0  0.7613
  C  C238  1  0.105690  0.158500  0.166590  1.0  -0.0603
  C  C239  1  0.296370  0.348400  0.375700  1.0  -0.0766
  C  C240  1  0.089960  0.587200  0.374300  1.0  -0.0747
  C  C241  1  0.064390  0.192700  0.139180  1.0  -0.1319
  C  C242  1  0.247080  0.526100  0.412200  1.0  -0.0832
  C  C243  1  0.290610  0.520400  0.436100  1.0  -0.0677
  C  C244  1  0.047470  0.550200  0.363000  1.0  -0.0566
  C  C245  1  0.125390  0.221900  0.213200  1.0  -0.0651
  C  C246  1  0.042920  0.290700  0.158100  1.0  0.018
  C  C247  1  0.103750  0.317100  0.233000  1.0  -0.1182
  C  C248  1  0.062230  0.352700  0.204800  1.0  -0.0667
  C  C249  1  0.376420  0.885400  0.217600  1.0  0.3971
  C  C250  1  0.318090  0.947600  0.153590  1.0  0.4117
  C  C251  1  0.382480  0.015500  0.151700  1.0  0.3774
  C  C252  1  0.138320  0.914600  0.054880  1.0  0.6923
  C  C253  1  0.461470  0.219900  0.078130  1.0  -0.1294
  C  C254  1  0.489440  0.291800  0.052060  1.0  0.7299
  C  C255  1  0.393620  0.189900  0.090900  1.0  -0.0346
  C  C256  1  0.271710  0.942500  0.129780  1.0  -0.1175
  C  C257  1  0.184760  0.929100  0.082120  1.0  -0.119
  C  C258  1  0.419130  0.259100  0.067700  1.0  -0.0753
  C  C259  1  0.477540  0.115200  0.112300  1.0  0.0111
  C  C260  1  0.247250  0.856700  0.148500  1.0  -0.0398
  C  C261  1  0.457310  0.625000  0.411920  1.0  0.761
  C  C262  1  0.394310  0.658500  0.333410  1.0  -0.0594
  C  C263  1  0.203630  0.848400  0.124300  1.0  -0.0744
  C  C264  1  0.410040  0.087200  0.125700  1.0  -0.0727
  C  C265  1  0.435610  0.692700  0.360820  1.0  -0.1316
  C  C266  1  0.252920  0.026100  0.087800  1.0  -0.0834
  C  C267  1  0.209390  0.020400  0.063900  1.0  -0.0677
  C  C268  1  0.452530  0.050200  0.137000  1.0  -0.0574
  C  C269  1  0.374610  0.721900  0.286800  1.0  -0.0647
  C  C270  1  0.457080  0.790700  0.341900  1.0  0.0189
  C  C271  1  0.396250  0.817100  0.267000  1.0  -0.118
  C  C272  1  0.437770  0.852700  0.295200  1.0  -0.0665
  C  C273  1  0.876420  0.385400  0.217600  1.0  0.3971
  C  C274  1  0.818090  0.447600  0.153590  1.0  0.4117
  C  C275  1  0.882480  0.515500  0.151700  1.0  0.3774
  C  C276  1  0.638320  0.414600  0.054880  1.0  0.6923
  C  C277  1  0.961470  0.719900  0.078130  1.0  -0.1294
  C  C278  1  0.989440  0.791800  0.052060  1.0  0.7299
  C  C279  1  0.893620  0.689900  0.090900  1.0  -0.0346
  C  C280  1  0.771710  0.442500  0.129780  1.0  -0.1175
  C  C281  1  0.684760  0.429100  0.082120  1.0  -0.119
  C  C282  1  0.919130  0.759100  0.067700  1.0  -0.0753
  C  C283  1  0.977540  0.615200  0.112300  1.0  0.0111
  C  C284  1  0.747250  0.356700  0.148500  1.0  -0.0398
  C  C285  1  0.957310  0.125000  0.411920  1.0  0.761
  C  C286  1  0.894310  0.158500  0.333410  1.0  -0.0594
  C  C287  1  0.703630  0.348400  0.124300  1.0  -0.0744
  C  C288  1  0.910040  0.587200  0.125700  1.0  -0.0727
  C  C289  1  0.935610  0.192700  0.360820  1.0  -0.1316
  C  C290  1  0.752920  0.526100  0.087800  1.0  -0.0834
  C  C291  1  0.709390  0.520400  0.063900  1.0  -0.0677
  C  C292  1  0.952530  0.550200  0.137000  1.0  -0.0574
  C  C293  1  0.874610  0.221900  0.286800  1.0  -0.0647
  C  C294  1  0.957080  0.290700  0.341900  1.0  0.0189
  C  C295  1  0.896250  0.317100  0.267000  1.0  -0.118
  C  C296  1  0.937770  0.352700  0.295200  1.0  -0.0665
  N  N297  1  0.340900  0.981300  0.629060  1.0  -0.4137
  N  N298  1  0.334190  0.121100  0.697990  1.0  -0.4397
  N  N299  1  0.401830  0.049700  0.695570  1.0  -0.4526
  N  N300  1  0.840900  0.481300  0.629060  1.0  -0.4137
  N  N301  1  0.834190  0.621100  0.697990  1.0  -0.4397
  N  N302  1  0.901830  0.549700  0.695570  1.0  -0.4526
  N  N303  1  0.659100  0.981300  0.870940  1.0  -0.4124
  N  N304  1  0.665810  0.121100  0.802010  1.0  -0.4404
  N  N305  1  0.598170  0.049700  0.804430  1.0  -0.4543
  N  N306  1  0.159100  0.481300  0.870940  1.0  -0.4124
  N  N307  1  0.165810  0.621100  0.802010  1.0  -0.4404
  N  N308  1  0.098170  0.549700  0.804430  1.0  -0.4543
  N  N309  1  0.659100  0.018700  0.370940  1.0  -0.4124
  N  N310  1  0.665810  0.878900  0.302010  1.0  -0.4413
  N  N311  1  0.598170  0.950300  0.304430  1.0  -0.4543
  N  N312  1  0.159100  0.518700  0.370940  1.0  -0.4124
  N  N313  1  0.165810  0.378900  0.302010  1.0  -0.4413
  N  N314  1  0.098170  0.450300  0.304430  1.0  -0.4543
  N  N315  1  0.340900  0.018700  0.129060  1.0  -0.4128
  N  N316  1  0.334190  0.878900  0.197990  1.0  -0.4398
  N  N317  1  0.401830  0.950300  0.195570  1.0  -0.4526
  N  N318  1  0.840900  0.518700  0.129060  1.0  -0.4128
  N  N319  1  0.834190  0.378900  0.197990  1.0  -0.4398
  N  N320  1  0.901830  0.450300  0.195570  1.0  -0.4526
  O  O321  1  0.118250  0.179900  0.567190  1.0  -0.6397
  O  O322  1  0.477550  0.596600  0.529430  1.0  -0.8339
  O  O323  1  0.524480  0.761800  0.554320  1.0  -0.6565
  O  O324  1  0.120950  0.001500  0.519770  1.0  -0.7228
  O  O325  1  0.439680  0.475000  0.924430  1.0  -0.6777
  O  O326  1  0.491860  0.321100  0.937050  1.0  -0.7408
  O  O327  1  0.618250  0.679900  0.567190  1.0  -0.6396
  O  O328  1  0.977550  0.096600  0.529430  1.0  -0.8339
  O  O329  1  0.024480  0.261800  0.554320  1.0  -0.6565
  O  O330  1  0.620950  0.501500  0.519770  1.0  -0.7228
  O  O331  1  0.939680  0.975000  0.924430  1.0  -0.6777
  O  O332  1  0.991860  0.821100  0.937050  1.0  -0.7408
  O  O333  1  0.881750  0.179900  0.932810  1.0  -0.6404
  O  O334  1  0.522450  0.596600  0.970570  1.0  -0.8345
  O  O335  1  0.475520  0.761800  0.945680  1.0  -0.6542
  O  O336  1  0.879050  0.001500  0.980230  1.0  -0.7266
  O  O337  1  0.560320  0.475000  0.575570  1.0  -0.6777
  O  O338  1  0.508140  0.321100  0.562950  1.0  -0.7402
  O  O339  1  0.381750  0.679900  0.932810  1.0  -0.6403
  O  O340  1  0.022450  0.096600  0.970570  1.0  -0.8345
  O  O341  1  0.975520  0.261800  0.945680  1.0  -0.6542
  O  O342  1  0.379050  0.501500  0.980230  1.0  -0.7266
  O  O343  1  0.060320  0.975000  0.575570  1.0  -0.6777
  O  O344  1  0.008140  0.821100  0.562950  1.0  -0.7402
  O  O345  1  0.881750  0.820100  0.432810  1.0  -0.6402
  O  O346  1  0.522450  0.403400  0.470570  1.0  -0.8369
  O  O347  1  0.475520  0.238200  0.445680  1.0  -0.655
  O  O348  1  0.879050  0.998500  0.480230  1.0  -0.7264
  O  O349  1  0.560320  0.525000  0.075570  1.0  -0.6774
  O  O350  1  0.508140  0.678900  0.062950  1.0  -0.7388
  O  O351  1  0.381750  0.320100  0.432810  1.0  -0.6401
  O  O352  1  0.022450  0.903400  0.470570  1.0  -0.8369
  O  O353  1  0.975520  0.738200  0.445680  1.0  -0.655
  O  O354  1  0.379050  0.498500  0.480230  1.0  -0.7264
  O  O355  1  0.060320  0.025000  0.075570  1.0  -0.6774
  O  O356  1  0.008140  0.178900  0.062950  1.0  -0.7388
  O  O357  1  0.118250  0.820100  0.067190  1.0  -0.6404
  O  O358  1  0.477550  0.403400  0.029430  1.0  -0.8358
  O  O359  1  0.524480  0.238200  0.054320  1.0  -0.6571
  O  O360  1  0.120950  0.998500  0.019770  1.0  -0.7237
  O  O361  1  0.439680  0.525000  0.424430  1.0  -0.6779
  O  O362  1  0.491860  0.678900  0.437050  1.0  -0.7402
  O  O363  1  0.618250  0.320100  0.067190  1.0  -0.6403
  O  O364  1  0.977550  0.903400  0.029430  1.0  -0.8358
  O  O365  1  0.024480  0.738200  0.054320  1.0  -0.6571
  O  O366  1  0.620950  0.498500  0.019770  1.0  -0.7237
  O  O367  1  0.939680  0.025000  0.424430  1.0  -0.6779
  O  O368  1  0.991860  0.178900  0.437050  1.0  -0.7402
