# generated using pymatgen
data_EuH4C12(SO4)2
_symmetry_space_group_name_H-M   'P 1'
_cell_length_a   11.76360000
_cell_length_b   16.36090000
_cell_length_c   11.58900000
_cell_angle_alpha   90.00000000
_cell_angle_beta   113.31400000
_cell_angle_gamma   90.00000000
_symmetry_Int_Tables_number   1
_chemical_formula_structural   EuH4C12(SO4)2
_chemical_formula_sum   'Eu4 H16 C48 S8 O32'
_cell_volume   2048.33738735
_cell_formula_units_Z   4
loop_
 _symmetry_equiv_pos_site_id
 _symmetry_equiv_pos_as_xyz
  1  'x, y, z'
loop_
 _atom_site_type_symbol
 _atom_site_label
 _atom_site_symmetry_multiplicity
 _atom_site_fract_x
 _atom_site_fract_y
 _atom_site_fract_z
 _atom_site_occupancy
 _atom_site_charge
  Eu  Eu1  1  0.190220  0.534460  0.575940  1.0  2.1281
  Eu  Eu2  1  0.809780  0.034460  0.924060  1.0  2.1326
  Eu  Eu3  1  0.809780  0.465540  0.424060  1.0  2.1331
  Eu  Eu4  1  0.190220  0.965540  0.075940  1.0  2.129
  H  H5  1  0.758600  0.861100  0.680500  1.0  0.1341
  H  H6  1  0.730100  0.733700  0.562200  1.0  0.1412
  H  H7  1  0.667700  0.264200  0.587200  1.0  0.1418
  H  H8  1  0.553100  0.391800  0.532800  1.0  0.1385
  H  H9  1  0.241400  0.361100  0.819500  1.0  0.1343
  H  H10  1  0.269900  0.233700  0.937800  1.0  0.1411
  H  H11  1  0.332300  0.764200  0.912800  1.0  0.1421
  H  H12  1  0.446900  0.891800  0.967200  1.0  0.1392
  H  H13  1  0.241400  0.138900  0.319500  1.0  0.1367
  H  H14  1  0.269900  0.266300  0.437800  1.0  0.1412
  H  H15  1  0.332300  0.735800  0.412800  1.0  0.142
  H  H16  1  0.446900  0.608200  0.467200  1.0  0.1404
  H  H17  1  0.758600  0.638900  0.180500  1.0  0.1342
  H  H18  1  0.730100  0.766300  0.062200  1.0  0.1414
  H  H19  1  0.667700  0.235800  0.087200  1.0  0.1419
  H  H20  1  0.553100  0.108200  0.032800  1.0  0.1384
  C  C21  1  0.676300  0.172600  0.795900  1.0  0.7365
  C  C22  1  0.945500  0.854200  0.727400  1.0  -0.1732
  C  C23  1  0.822900  0.831500  0.673200  1.0  -0.0391
  C  C24  1  0.806900  0.757900  0.605300  1.0  -0.0206
  C  C25  1  0.916000  0.725600  0.609200  1.0  -0.1756
  C  C26  1  0.002500  0.924600  0.809800  1.0  0.757
  C  C27  1  0.935100  0.648200  0.553600  1.0  0.7866
  C  C28  1  0.613700  0.247400  0.732100  1.0  -0.1524
  C  C29  1  0.622100  0.284900  0.630300  1.0  -0.0301
  C  C30  1  0.404700  0.441400  0.657800  1.0  0.7553
  C  C31  1  0.492600  0.374000  0.672100  1.0  -0.1602
  C  C32  1  0.554900  0.358000  0.598000  1.0  -0.0337
  C  C33  1  0.323700  0.672600  0.704100  1.0  0.7388
  C  C34  1  0.054500  0.354200  0.772600  1.0  -0.1733
  C  C35  1  0.177100  0.331500  0.826800  1.0  -0.0393
  C  C36  1  0.193100  0.257900  0.894700  1.0  -0.0208
  C  C37  1  0.084000  0.225600  0.890800  1.0  -0.1722
  C  C38  1  0.997500  0.424600  0.690200  1.0  0.7568
  C  C39  1  0.064900  0.148200  0.946400  1.0  0.7871
  C  C40  1  0.386300  0.747400  0.767900  1.0  -0.155
  C  C41  1  0.377900  0.784900  0.869700  1.0  -0.0303
  C  C42  1  0.595300  0.941400  0.842200  1.0  0.7537
  C  C43  1  0.507400  0.874000  0.827900  1.0  -0.1629
  C  C44  1  0.445100  0.858000  0.902000  1.0  -0.0338
  C  C45  1  0.323700  0.827400  0.204100  1.0  0.7455
  C  C46  1  0.054500  0.145800  0.272600  1.0  -0.1734
  C  C47  1  0.177100  0.168500  0.326800  1.0  -0.0397
  C  C48  1  0.193100  0.242100  0.394700  1.0  -0.0213
  C  C49  1  0.084000  0.274400  0.390800  1.0  -0.1769
  C  C50  1  0.997500  0.075400  0.190200  1.0  0.7577
  C  C51  1  0.064900  0.351800  0.446400  1.0  0.7867
  C  C52  1  0.386300  0.752600  0.267900  1.0  -0.1548
  C  C53  1  0.377900  0.715100  0.369700  1.0  -0.0301
  C  C54  1  0.595300  0.558600  0.342200  1.0  0.7533
  C  C55  1  0.507400  0.626000  0.327900  1.0  -0.16
  C  C56  1  0.445100  0.642000  0.402000  1.0  -0.0338
  C  C57  1  0.676300  0.327400  0.295900  1.0  0.7366
  C  C58  1  0.945500  0.645800  0.227400  1.0  -0.1734
  C  C59  1  0.822900  0.668500  0.173200  1.0  -0.0389
  C  C60  1  0.806900  0.742100  0.105300  1.0  -0.0209
  C  C61  1  0.916000  0.774400  0.109200  1.0  -0.1754
  C  C62  1  0.002500  0.575400  0.309800  1.0  0.757
  C  C63  1  0.935100  0.851800  0.053600  1.0  0.7863
  C  C64  1  0.613700  0.252600  0.232100  1.0  -0.1554
  C  C65  1  0.622100  0.215100  0.130300  1.0  -0.0305
  C  C66  1  0.404700  0.058600  0.157800  1.0  0.7556
  C  C67  1  0.492600  0.126000  0.172100  1.0  -0.1598
  C  C68  1  0.554900  0.142000  0.098000  1.0  -0.0334
  S  S69  1  0.039950  0.784350  0.697680  1.0  0.1958
  S  S70  1  0.520160  0.301290  0.787430  1.0  0.1744
  S  S71  1  0.960050  0.284350  0.802320  1.0  0.1987
  S  S72  1  0.479840  0.801290  0.712570  1.0  0.1708
  S  S73  1  0.960050  0.215650  0.302320  1.0  0.1987
  S  S74  1  0.479840  0.698710  0.212570  1.0  0.1709
  S  S75  1  0.039950  0.715650  0.197680  1.0  0.196
  S  S76  1  0.520160  0.198710  0.287430  1.0  0.1744
  O  O77  1  0.041400  0.637970  0.552400  1.0  -0.6815
  O  O78  1  0.931500  0.975990  0.829100  1.0  -0.7679
  O  O79  1  0.118600  0.929210  0.856700  1.0  -0.6151
  O  O80  1  0.350500  0.447200  0.731700  1.0  -0.7062
  O  O81  1  0.847700  0.598700  0.513900  1.0  -0.6747
  O  O82  1  0.688600  0.159200  0.906500  1.0  -0.6449
  O  O83  1  0.718000  0.122910  0.737100  1.0  -0.6101
  O  O84  1  0.384100  0.490800  0.568200  1.0  -0.6088
  O  O85  1  0.958600  0.137970  0.947600  1.0  -0.6803
  O  O86  1  0.068500  0.475990  0.670900  1.0  -0.7681
  O  O87  1  0.881400  0.429210  0.643300  1.0  -0.6149
  O  O88  1  0.649500  0.947200  0.768300  1.0  -0.7057
  O  O89  1  0.152300  0.098700  0.986100  1.0  -0.675
  O  O90  1  0.311400  0.659200  0.593500  1.0  -0.6436
  O  O91  1  0.282000  0.622910  0.762900  1.0  -0.6097
  O  O92  1  0.615900  0.990800  0.931800  1.0  -0.61
  O  O93  1  0.958600  0.362030  0.447600  1.0  -0.6806
  O  O94  1  0.068500  0.024010  0.170900  1.0  -0.7672
  O  O95  1  0.881400  0.070790  0.143300  1.0  -0.614
  O  O96  1  0.649500  0.552800  0.268300  1.0  -0.7048
  O  O97  1  0.152300  0.401300  0.486100  1.0  -0.6752
  O  O98  1  0.311400  0.840800  0.093500  1.0  -0.6438
  O  O99  1  0.282000  0.877090  0.262900  1.0  -0.6104
  O  O100  1  0.615900  0.509200  0.431800  1.0  -0.6091
  O  O101  1  0.041400  0.862030  0.052400  1.0  -0.6818
  O  O102  1  0.931500  0.524010  0.329100  1.0  -0.7678
  O  O103  1  0.118600  0.570790  0.356700  1.0  -0.6149
  O  O104  1  0.350500  0.052800  0.231700  1.0  -0.7047
  O  O105  1  0.847700  0.901300  0.013900  1.0  -0.6751
  O  O106  1  0.688600  0.340800  0.406500  1.0  -0.6445
  O  O107  1  0.718000  0.377090  0.237100  1.0  -0.6111
  O  O108  1  0.384100  0.009200  0.068200  1.0  -0.6092
