# generated using pymatgen
data_Eu3H8C24S4Br2Cl3O16
_symmetry_space_group_name_H-M   'P 1'
_cell_length_a   16.28500000
_cell_length_b   11.93140000
_cell_length_c   12.20990000
_cell_angle_alpha   90.00000000
_cell_angle_beta   90.00000000
_cell_angle_gamma   90.00000000
_symmetry_Int_Tables_number   1
_chemical_formula_structural   Eu3H8C24S4Br2Cl3O16
_chemical_formula_sum   'Eu6 H16 C48 S8 Br4 Cl6 O32'
_cell_volume   2372.41835601
_cell_formula_units_Z   2
loop_
 _symmetry_equiv_pos_site_id
 _symmetry_equiv_pos_as_xyz
  1  'x, y, z'
loop_
 _atom_site_type_symbol
 _atom_site_label
 _atom_site_symmetry_multiplicity
 _atom_site_fract_x
 _atom_site_fract_y
 _atom_site_fract_z
 _atom_site_occupancy
 _atom_site_charge
  Eu  Eu1  1  0.970450  0.160600  0.282160  1.0  2.1405
  Eu  Eu2  1  0.029550  0.839400  0.282160  1.0  2.1405
  Eu  Eu3  1  0.529550  0.660600  0.717840  1.0  2.1403
  Eu  Eu4  1  0.470450  0.339400  0.717840  1.0  2.1404
  Eu  Eu5  1  0.000000  0.500000  0.197270  1.0  2.0839
  Eu  Eu6  1  0.500000  0.000000  0.802730  1.0  2.085
  H  H7  1  0.665800  0.285400  0.546500  1.0  0.1033
  H  H8  1  0.688400  0.967400  0.066000  1.0  0.1056
  H  H9  1  0.779100  0.250900  0.416700  1.0  0.0807
  H  H10  1  0.816200  0.913100  0.160800  1.0  0.0995
  H  H11  1  0.334200  0.714600  0.546500  1.0  0.1035
  H  H12  1  0.311600  0.032600  0.066000  1.0  0.1047
  H  H13  1  0.220900  0.749100  0.416700  1.0  0.0808
  H  H14  1  0.183800  0.086900  0.160800  1.0  0.0989
  H  H15  1  0.834200  0.785400  0.453500  1.0  0.1033
  H  H16  1  0.811600  0.467400  0.934000  1.0  0.1051
  H  H17  1  0.720900  0.750900  0.583300  1.0  0.0823
  H  H18  1  0.683800  0.413100  0.839200  1.0  0.0991
  H  H19  1  0.165800  0.214600  0.453500  1.0  0.1035
  H  H20  1  0.188400  0.532600  0.934000  1.0  0.1037
  H  H21  1  0.279100  0.249100  0.583300  1.0  0.0818
  H  H22  1  0.316200  0.586900  0.839200  1.0  0.0985
  C  C23  1  0.650900  0.503000  0.641700  1.0  0.6966
  C  C24  1  0.872400  0.688700  0.153400  1.0  0.7562
  C  C25  1  0.709000  0.444800  0.571600  1.0  -0.2208
  C  C26  1  0.820000  0.409700  0.442900  1.0  -0.1849
  C  C27  1  0.888200  0.429600  0.365300  1.0  0.7079
  C  C28  1  0.706500  0.339400  0.528500  1.0  -0.0462
  C  C29  1  0.802100  0.753000  0.108500  1.0  -0.1876
  C  C30  1  0.603300  0.804100  0.936500  1.0  0.7746
  C  C31  1  0.710800  0.893900  0.064600  1.0  -0.0967
  C  C32  1  0.676200  0.805200  0.008500  1.0  -0.2201
  C  C33  1  0.771000  0.319700  0.454300  1.0  -0.0448
  C  C34  1  0.783500  0.862200  0.119800  1.0  -0.0494
  C  C35  1  0.349100  0.497000  0.641700  1.0  0.6958
  C  C36  1  0.127600  0.311300  0.153400  1.0  0.7556
  C  C37  1  0.291000  0.555200  0.571600  1.0  -0.2208
  C  C38  1  0.180000  0.590300  0.442900  1.0  -0.1846
  C  C39  1  0.111800  0.570400  0.365300  1.0  0.7043
  C  C40  1  0.293500  0.660600  0.528500  1.0  -0.047
  C  C41  1  0.197900  0.247000  0.108500  1.0  -0.1869
  C  C42  1  0.396700  0.195900  0.936500  1.0  0.7752
  C  C43  1  0.289200  0.106100  0.064600  1.0  -0.0974
  C  C44  1  0.323800  0.194800  0.008500  1.0  -0.2207
  C  C45  1  0.229000  0.680300  0.454300  1.0  -0.0439
  C  C46  1  0.216500  0.137800  0.119800  1.0  -0.05
  C  C47  1  0.849100  0.003000  0.358300  1.0  0.6953
  C  C48  1  0.627600  0.188700  0.846600  1.0  0.7541
  C  C49  1  0.791000  0.944800  0.428400  1.0  -0.221
  C  C50  1  0.680000  0.909700  0.557100  1.0  -0.1852
  C  C51  1  0.611800  0.929600  0.634700  1.0  0.7098
  C  C52  1  0.793500  0.839400  0.471500  1.0  -0.0465
  C  C53  1  0.697900  0.253000  0.891500  1.0  -0.1878
  C  C54  1  0.896700  0.304100  0.063500  1.0  0.7775
  C  C55  1  0.789200  0.393900  0.935400  1.0  -0.0956
  C  C56  1  0.823800  0.305200  0.991500  1.0  -0.22
  C  C57  1  0.729000  0.819700  0.545700  1.0  -0.0446
  C  C58  1  0.716500  0.362200  0.880200  1.0  -0.05
  C  C59  1  0.150900  0.997000  0.358300  1.0  0.6971
  C  C60  1  0.372400  0.811300  0.846600  1.0  0.7555
  C  C61  1  0.209000  0.055200  0.428400  1.0  -0.2207
  C  C62  1  0.320000  0.090300  0.557100  1.0  -0.1844
  C  C63  1  0.388200  0.070400  0.634700  1.0  0.703
  C  C64  1  0.206500  0.160600  0.471500  1.0  -0.0464
  C  C65  1  0.302100  0.747000  0.891500  1.0  -0.1872
  C  C66  1  0.103300  0.695900  0.063500  1.0  0.7758
  C  C67  1  0.210800  0.606100  0.935400  1.0  -0.0978
  C  C68  1  0.176200  0.694800  0.991500  1.0  -0.2205
  C  C69  1  0.271000  0.180300  0.545700  1.0  -0.0437
  C  C70  1  0.283500  0.637800  0.880200  1.0  -0.0498
  S  S71  1  0.790130  0.520800  0.520900  1.0  0.1669
  S  S72  1  0.733280  0.685400  0.023600  1.0  0.1542
  S  S73  1  0.209870  0.479200  0.520900  1.0  0.1676
  S  S74  1  0.266720  0.314600  0.023600  1.0  0.1523
  S  S75  1  0.709870  0.020800  0.479100  1.0  0.1667
  S  S76  1  0.766720  0.185400  0.976400  1.0  0.1539
  S  S77  1  0.290130  0.979200  0.479100  1.0  0.1673
  S  S78  1  0.233280  0.814600  0.976400  1.0  0.1531
  Br  Br79  1  0.969900  0.195000  0.515000  1.0  0.1725
  Br  Br80  1  0.030100  0.805000  0.515000  1.0  0.167
  Br  Br81  1  0.530100  0.695000  0.485000  1.0  0.1683
  Br  Br82  1  0.469900  0.305000  0.485000  1.0  0.1714
  Cl  Cl83  1  0.987300  0.204500  0.500000  1.0  0.0649
  Cl  Cl84  1  0.012700  0.795500  0.500000  1.0  0.0647
  Cl  Cl85  1  0.512700  0.704500  0.500000  1.0  0.0639
  Cl  Cl86  1  0.487300  0.295500  0.500000  1.0  0.0637
  Cl  Cl87  1  0.000000  0.000000  0.119700  1.0  -0.5076
  Cl  Cl88  1  0.500000  0.500000  0.880300  1.0  -0.5074
  O  O89  1  0.916500  0.353000  0.302000  1.0  -0.8057
  O  O90  1  0.922700  0.735900  0.215300  1.0  -0.7614
  O  O91  1  0.668400  0.599500  0.677600  1.0  -0.6921
  O  O92  1  0.580600  0.461900  0.658700  1.0  -0.7971
  O  O93  1  0.914000  0.528400  0.357400  1.0  -0.6285
  O  O94  1  0.875900  0.586800  0.128200  1.0  -0.6041
  O  O95  1  0.555600  0.885200  0.941100  1.0  -0.7113
  O  O96  1  0.594400  0.718000  0.881300  1.0  -0.7558
  O  O97  1  0.083500  0.647000  0.302000  1.0  -0.8059
  O  O98  1  0.077300  0.264100  0.215300  1.0  -0.7594
  O  O99  1  0.331600  0.400500  0.677600  1.0  -0.6913
  O  O100  1  0.419400  0.538100  0.658700  1.0  -0.798
  O  O101  1  0.086000  0.471600  0.357400  1.0  -0.6284
  O  O102  1  0.124100  0.413200  0.128200  1.0  -0.6039
  O  O103  1  0.444400  0.114800  0.941100  1.0  -0.7103
  O  O104  1  0.405600  0.282000  0.881300  1.0  -0.7544
  O  O105  1  0.583500  0.853000  0.698000  1.0  -0.8071
  O  O106  1  0.577300  0.235900  0.784700  1.0  -0.7596
  O  O107  1  0.831600  0.099500  0.322400  1.0  -0.6932
  O  O108  1  0.919400  0.961900  0.341300  1.0  -0.7973
  O  O109  1  0.586000  0.028400  0.642600  1.0  -0.6271
  O  O110  1  0.624100  0.086800  0.871800  1.0  -0.6042
  O  O111  1  0.944400  0.385200  0.058900  1.0  -0.7118
  O  O112  1  0.905600  0.218000  0.118700  1.0  -0.7561
  O  O113  1  0.416500  0.147000  0.698000  1.0  -0.8053
  O  O114  1  0.422700  0.764100  0.784700  1.0  -0.7617
  O  O115  1  0.168400  0.900500  0.322400  1.0  -0.6921
  O  O116  1  0.080600  0.038100  0.341300  1.0  -0.7967
  O  O117  1  0.414000  0.971600  0.642600  1.0  -0.6292
  O  O118  1  0.375900  0.913200  0.871800  1.0  -0.6043
  O  O119  1  0.055600  0.614800  0.058900  1.0  -0.7121
  O  O120  1  0.094400  0.782000  0.118700  1.0  -0.7536
