# generated using pymatgen
data_NdH4C12(SO4)2
_symmetry_space_group_name_H-M   'P 1'
_cell_length_a   11.73800000
_cell_length_b   16.58180000
_cell_length_c   11.57850000
_cell_angle_alpha   90.00000000
_cell_angle_beta   113.51400000
_cell_angle_gamma   90.00000000
_symmetry_Int_Tables_number   1
_chemical_formula_structural   NdH4C12(SO4)2
_chemical_formula_sum   'Nd4 H16 C48 S8 O32'
_cell_volume   2066.47286580
_cell_formula_units_Z   4
loop_
 _symmetry_equiv_pos_site_id
 _symmetry_equiv_pos_as_xyz
  1  'x, y, z'
loop_
 _atom_site_type_symbol
 _atom_site_label
 _atom_site_symmetry_multiplicity
 _atom_site_fract_x
 _atom_site_fract_y
 _atom_site_fract_z
 _atom_site_occupancy
 _atom_site_charge
  Nd  Nd1  1  0.309940  0.534070  0.424740  1.0  2.3251
  Nd  Nd2  1  0.690060  0.034070  0.075260  1.0  2.3174
  Nd  Nd3  1  0.690060  0.465930  0.575260  1.0  2.317
  Nd  Nd4  1  0.309940  0.965930  0.924740  1.0  2.3252
  H  H5  1  0.742000  0.861000  0.321300  1.0  0.1329
  H  H6  1  0.832300  0.262200  0.411300  1.0  0.1357
  H  H7  1  0.943700  0.392400  0.464200  1.0  0.1356
  H  H8  1  0.771700  0.735500  0.437800  1.0  0.1359
  H  H9  1  0.258000  0.361000  0.178700  1.0  0.1302
  H  H10  1  0.167700  0.762200  0.088700  1.0  0.135
  H  H11  1  0.056300  0.892400  0.035800  1.0  0.1352
  H  H12  1  0.228300  0.235500  0.062200  1.0  0.1356
  H  H13  1  0.258000  0.139000  0.678700  1.0  0.1317
  H  H14  1  0.167700  0.737800  0.588700  1.0  0.1353
  H  H15  1  0.056300  0.607600  0.535800  1.0  0.1348
  H  H16  1  0.228300  0.264500  0.562200  1.0  0.1355
  H  H17  1  0.742000  0.639000  0.821300  1.0  0.1356
  H  H18  1  0.832300  0.237800  0.911300  1.0  0.1355
  H  H19  1  0.943700  0.107600  0.964200  1.0  0.1372
  H  H20  1  0.771700  0.764500  0.937800  1.0  0.1356
  C  C21  1  0.677800  0.831400  0.328000  1.0  -0.0164
  C  C22  1  0.877400  0.283700  0.368300  1.0  -0.0638
  C  C23  1  0.943400  0.358300  0.400300  1.0  -0.0296
  C  C24  1  0.006700  0.373400  0.324400  1.0  -0.1698
  C  C25  1  0.092900  0.442000  0.339600  1.0  0.7405
  C  C26  1  0.888500  0.247400  0.266600  1.0  -0.1412
  C  C27  1  0.553100  0.853500  0.273200  1.0  -0.1867
  C  C28  1  0.694200  0.758900  0.394600  1.0  -0.0362
  C  C29  1  0.586900  0.725900  0.390500  1.0  -0.1834
  C  C30  1  0.565200  0.649000  0.445900  1.0  0.7714
  C  C31  1  0.825800  0.172000  0.205600  1.0  0.742
  C  C32  1  0.494300  0.922900  0.191300  1.0  0.761
  C  C33  1  0.322200  0.331400  0.172000  1.0  -0.0168
  C  C34  1  0.122600  0.783700  0.131700  1.0  -0.0645
  C  C35  1  0.056600  0.858300  0.099700  1.0  -0.0303
  C  C36  1  0.993300  0.873400  0.175600  1.0  -0.1675
  C  C37  1  0.907100  0.942000  0.160400  1.0  0.7413
  C  C38  1  0.111500  0.747400  0.233400  1.0  -0.1421
  C  C39  1  0.446900  0.353500  0.226800  1.0  -0.1889
  C  C40  1  0.305800  0.258900  0.105400  1.0  -0.0357
  C  C41  1  0.413100  0.225900  0.109500  1.0  -0.1817
  C  C42  1  0.434800  0.149000  0.054100  1.0  0.7704
  C  C43  1  0.174200  0.672000  0.294400  1.0  0.7334
  C  C44  1  0.505700  0.422900  0.308700  1.0  0.7613
  C  C45  1  0.322200  0.168600  0.672000  1.0  -0.0164
  C  C46  1  0.122600  0.716300  0.631700  1.0  -0.0646
  C  C47  1  0.056600  0.641700  0.599700  1.0  -0.0308
  C  C48  1  0.993300  0.626600  0.675600  1.0  -0.1658
  C  C49  1  0.907100  0.558000  0.660400  1.0  0.742
  C  C50  1  0.111500  0.752600  0.733400  1.0  -0.1422
  C  C51  1  0.446900  0.146500  0.726800  1.0  -0.1883
  C  C52  1  0.305800  0.241100  0.605400  1.0  -0.0372
  C  C53  1  0.413100  0.274100  0.609500  1.0  -0.1811
  C  C54  1  0.434800  0.351000  0.554100  1.0  0.7704
  C  C55  1  0.174200  0.828000  0.794400  1.0  0.7327
  C  C56  1  0.505700  0.077100  0.808700  1.0  0.7614
  C  C57  1  0.677800  0.668600  0.828000  1.0  -0.0165
  C  C58  1  0.877400  0.216300  0.868300  1.0  -0.0647
  C  C59  1  0.943400  0.141700  0.900300  1.0  -0.029
  C  C60  1  0.006700  0.126600  0.824400  1.0  -0.1701
  C  C61  1  0.092900  0.058000  0.839600  1.0  0.7406
  C  C62  1  0.888500  0.252600  0.766600  1.0  -0.1375
  C  C63  1  0.553100  0.646500  0.773200  1.0  -0.1894
  C  C64  1  0.694200  0.741100  0.894600  1.0  -0.0362
  C  C65  1  0.586900  0.774100  0.890500  1.0  -0.1832
  C  C66  1  0.565200  0.851000  0.945900  1.0  0.7712
  C  C67  1  0.825800  0.328000  0.705600  1.0  0.7353
  C  C68  1  0.494300  0.577100  0.691300  1.0  0.762
  S  S69  1  0.980500  0.300600  0.211430  1.0  0.1814
  S  S70  1  0.460580  0.783840  0.303560  1.0  0.1851
  S  S71  1  0.019500  0.800600  0.288570  1.0  0.1816
  S  S72  1  0.539420  0.283840  0.196440  1.0  0.1834
  S  S73  1  0.019500  0.699400  0.788570  1.0  0.181
  S  S74  1  0.539420  0.216160  0.696440  1.0  0.1827
  S  S75  1  0.980500  0.199400  0.711430  1.0  0.1812
  S  S76  1  0.460580  0.716160  0.803560  1.0  0.1842
  O  O77  1  0.460600  0.637900  0.444700  1.0  -0.6474
  O  O78  1  0.147700  0.445700  0.264700  1.0  -0.7084
  O  O79  1  0.110400  0.491600  0.426800  1.0  -0.6782
  O  O80  1  0.813500  0.160200  0.092900  1.0  -0.667
  O  O81  1  0.378100  0.927400  0.147700  1.0  -0.6353
  O  O82  1  0.655800  0.599700  0.483500  1.0  -0.6894
  O  O83  1  0.787600  0.122400  0.266700  1.0  -0.605
  O  O84  1  0.563200  0.974100  0.167900  1.0  -0.775
  O  O85  1  0.539400  0.137900  0.055300  1.0  -0.6473
  O  O86  1  0.852300  0.945700  0.235300  1.0  -0.7095
  O  O87  1  0.889600  0.991600  0.073200  1.0  -0.6755
  O  O88  1  0.186500  0.660200  0.407100  1.0  -0.6691
  O  O89  1  0.621900  0.427400  0.352300  1.0  -0.6381
  O  O90  1  0.344200  0.099700  0.016500  1.0  -0.6899
  O  O91  1  0.212400  0.622400  0.233300  1.0  -0.6048
  O  O92  1  0.436800  0.474100  0.332100  1.0  -0.7755
  O  O93  1  0.539400  0.362100  0.555300  1.0  -0.6473
  O  O94  1  0.852300  0.554300  0.735300  1.0  -0.7086
  O  O95  1  0.889600  0.508400  0.573200  1.0  -0.6772
  O  O96  1  0.186500  0.839800  0.907100  1.0  -0.669
  O  O97  1  0.621900  0.072600  0.852300  1.0  -0.6373
  O  O98  1  0.344200  0.400300  0.516500  1.0  -0.6898
  O  O99  1  0.212400  0.877600  0.733300  1.0  -0.6067
  O  O100  1  0.436800  0.025900  0.832100  1.0  -0.7755
  O  O101  1  0.460600  0.862100  0.944700  1.0  -0.6473
  O  O102  1  0.147700  0.054300  0.764700  1.0  -0.7079
  O  O103  1  0.110400  0.008400  0.926800  1.0  -0.678
  O  O104  1  0.813500  0.339800  0.592900  1.0  -0.6675
  O  O105  1  0.378100  0.572600  0.647700  1.0  -0.6344
  O  O106  1  0.655800  0.900300  0.983500  1.0  -0.6895
  O  O107  1  0.787600  0.377600  0.766700  1.0  -0.6056
  O  O108  1  0.563200  0.525900  0.667900  1.0  -0.7747
