# generated using pymatgen
data_ZnH14C23NO4
_symmetry_space_group_name_H-M   'P 1'
_cell_length_a   27.73640000
_cell_length_b   27.73640000
_cell_length_c   27.73640000
_cell_angle_alpha   90.00000000
_cell_angle_beta   90.00000000
_cell_angle_gamma   90.00000000
_symmetry_Int_Tables_number   1
_chemical_formula_structural   ZnH14C23NO4
_chemical_formula_sum   'Zn12 H168 C276 N12 O48'
_cell_volume   21337.83122040
_cell_formula_units_Z   12
loop_
 _symmetry_equiv_pos_site_id
 _symmetry_equiv_pos_as_xyz
  1  'x, y, z'
loop_
 _atom_site_type_symbol
 _atom_site_label
 _atom_site_symmetry_multiplicity
 _atom_site_fract_x
 _atom_site_fract_y
 _atom_site_fract_z
 _atom_site_occupancy
 _atom_site_charge
  Zn  Zn1  1  0.000000  0.801260  0.500000  1.0  0.8978
  Zn  Zn2  1  0.000000  0.198740  0.500000  1.0  0.8978
  Zn  Zn3  1  0.500000  0.000000  0.801260  1.0  0.8975
  Zn  Zn4  1  0.500000  0.000000  0.198740  1.0  0.8969
  Zn  Zn5  1  0.801260  0.500000  0.000000  1.0  0.8972
  Zn  Zn6  1  0.198740  0.500000  0.000000  1.0  0.8984
  Zn  Zn7  1  0.301260  0.500000  0.000000  1.0  0.8969
  Zn  Zn8  1  0.698740  0.500000  0.000000  1.0  0.8981
  Zn  Zn9  1  0.500000  0.000000  0.698740  1.0  0.8966
  Zn  Zn10  1  0.500000  0.000000  0.301260  1.0  0.8974
  Zn  Zn11  1  0.000000  0.301260  0.500000  1.0  0.8975
  Zn  Zn12  1  0.000000  0.698740  0.500000  1.0  0.8975
  H  H13  1  0.828750  0.672690  0.674270  1.0  0.0875
  H  H14  1  0.891290  0.671310  0.608380  1.0  0.0969
  H  H15  1  0.171250  0.327310  0.674270  1.0  0.0883
  H  H16  1  0.108710  0.328690  0.608380  1.0  0.0979
  H  H17  1  0.171250  0.672690  0.325730  1.0  0.0876
  H  H18  1  0.108710  0.671310  0.391620  1.0  0.0973
  H  H19  1  0.828750  0.327310  0.325730  1.0  0.0889
  H  H20  1  0.891290  0.328690  0.391620  1.0  0.0974
  H  H21  1  0.674270  0.828750  0.672690  1.0  0.084
  H  H22  1  0.608380  0.891290  0.671310  1.0  0.0933
  H  H23  1  0.674270  0.171250  0.327310  1.0  0.087
  H  H24  1  0.608380  0.108710  0.328690  1.0  0.0953
  H  H25  1  0.325730  0.171250  0.672690  1.0  0.0848
  H  H26  1  0.391620  0.108710  0.671310  1.0  0.0952
  H  H27  1  0.325730  0.828750  0.327310  1.0  0.0871
  H  H28  1  0.391620  0.891290  0.328690  1.0  0.0961
  H  H29  1  0.672690  0.674270  0.828750  1.0  0.0847
  H  H30  1  0.671310  0.608380  0.891290  1.0  0.0951
  H  H31  1  0.327310  0.674270  0.171250  1.0  0.0859
  H  H32  1  0.328690  0.608380  0.108710  1.0  0.0964
  H  H33  1  0.672690  0.325730  0.171250  1.0  0.0843
  H  H34  1  0.671310  0.391620  0.108710  1.0  0.095
  H  H35  1  0.327310  0.325730  0.828750  1.0  0.0862
  H  H36  1  0.328690  0.391620  0.891290  1.0  0.0966
  H  H37  1  0.172690  0.328750  0.825730  1.0  0.0849
  H  H38  1  0.171310  0.391290  0.891620  1.0  0.0949
  H  H39  1  0.827310  0.671250  0.825730  1.0  0.0863
  H  H40  1  0.828690  0.608710  0.891620  1.0  0.0964
  H  H41  1  0.172690  0.671250  0.174270  1.0  0.0848
  H  H42  1  0.171310  0.608710  0.108380  1.0  0.0953
  H  H43  1  0.827310  0.328750  0.174270  1.0  0.0859
  H  H44  1  0.828690  0.391290  0.108380  1.0  0.0963
  H  H45  1  0.328750  0.174270  0.827310  1.0  0.0892
  H  H46  1  0.391290  0.108380  0.828690  1.0  0.0948
  H  H47  1  0.671250  0.174270  0.172690  1.0  0.0868
  H  H48  1  0.608710  0.108380  0.171310  1.0  0.0943
  H  H49  1  0.671250  0.825730  0.827310  1.0  0.0894
  H  H50  1  0.608710  0.891620  0.828690  1.0  0.0948
  H  H51  1  0.328750  0.825730  0.172690  1.0  0.0867
  H  H52  1  0.391290  0.891620  0.171310  1.0  0.0943
  H  H53  1  0.174270  0.172690  0.671250  1.0  0.086
  H  H54  1  0.108380  0.171310  0.608710  1.0  0.0977
  H  H55  1  0.174270  0.827310  0.328750  1.0  0.0866
  H  H56  1  0.108380  0.828690  0.391290  1.0  0.0984
  H  H57  1  0.825730  0.172690  0.328750  1.0  0.0863
  H  H58  1  0.891620  0.171310  0.391290  1.0  0.0981
  H  H59  1  0.825730  0.827310  0.671250  1.0  0.087
  H  H60  1  0.891620  0.828690  0.608710  1.0  0.0986
  H  H61  1  0.171250  0.327310  0.325730  1.0  0.0886
  H  H62  1  0.108710  0.328690  0.391620  1.0  0.0977
  H  H63  1  0.828750  0.672690  0.325730  1.0  0.0879
  H  H64  1  0.891290  0.671310  0.391620  1.0  0.0972
  H  H65  1  0.828750  0.327310  0.674270  1.0  0.0885
  H  H66  1  0.891290  0.328690  0.608380  1.0  0.0975
  H  H67  1  0.171250  0.672690  0.674270  1.0  0.0874
  H  H68  1  0.108710  0.671310  0.608380  1.0  0.097
  H  H69  1  0.325730  0.171250  0.327310  1.0  0.0868
  H  H70  1  0.391620  0.108710  0.328690  1.0  0.0958
  H  H71  1  0.325730  0.828750  0.672690  1.0  0.0847
  H  H72  1  0.391620  0.891290  0.671310  1.0  0.0952
  H  H73  1  0.674270  0.828750  0.327310  1.0  0.0872
  H  H74  1  0.608380  0.891290  0.328690  1.0  0.0953
  H  H75  1  0.674270  0.171250  0.672690  1.0  0.0841
  H  H76  1  0.608380  0.108710  0.671310  1.0  0.0933
  H  H77  1  0.327310  0.325730  0.171250  1.0  0.0857
  H  H78  1  0.328690  0.391620  0.108710  1.0  0.0962
  H  H79  1  0.672690  0.325730  0.828750  1.0  0.0847
  H  H80  1  0.671310  0.391620  0.891290  1.0  0.0951
  H  H81  1  0.327310  0.674270  0.828750  1.0  0.0864
  H  H82  1  0.328690  0.608380  0.891290  1.0  0.0964
  H  H83  1  0.672690  0.674270  0.171250  1.0  0.0845
  H  H84  1  0.671310  0.608380  0.108710  1.0  0.0952
  H  H85  1  0.827310  0.671250  0.174270  1.0  0.086
  H  H86  1  0.828690  0.608710  0.108380  1.0  0.0966
  H  H87  1  0.172690  0.328750  0.174270  1.0  0.0846
  H  H88  1  0.171310  0.391290  0.108380  1.0  0.0952
  H  H89  1  0.827310  0.328750  0.825730  1.0  0.0864
  H  H90  1  0.828690  0.391290  0.891620  1.0  0.0962
  H  H91  1  0.172690  0.671250  0.825730  1.0  0.0849
  H  H92  1  0.171310  0.608710  0.891620  1.0  0.095
  H  H93  1  0.671250  0.825730  0.172690  1.0  0.0865
  H  H94  1  0.608710  0.891620  0.171310  1.0  0.0944
  H  H95  1  0.328750  0.825730  0.827310  1.0  0.0894
  H  H96  1  0.391290  0.891620  0.828690  1.0  0.0948
  H  H97  1  0.328750  0.174270  0.172690  1.0  0.0871
  H  H98  1  0.391290  0.108380  0.171310  1.0  0.0943
  H  H99  1  0.671250  0.174270  0.827310  1.0  0.0891
  H  H100  1  0.608710  0.108380  0.828690  1.0  0.0948
  H  H101  1  0.825730  0.827310  0.328750  1.0  0.0872
  H  H102  1  0.891620  0.828690  0.391290  1.0  0.0985
  H  H103  1  0.825730  0.172690  0.671250  1.0  0.086
  H  H104  1  0.891620  0.171310  0.608710  1.0  0.098
  H  H105  1  0.174270  0.827310  0.671250  1.0  0.0866
  H  H106  1  0.108380  0.828690  0.608710  1.0  0.0985
  H  H107  1  0.174270  0.172690  0.328750  1.0  0.0861
  H  H108  1  0.108380  0.171310  0.391290  1.0  0.0975
  H  H109  1  0.749220  0.814360  0.686420  1.0  0.0891
  H  H110  1  0.250780  0.185640  0.686420  1.0  0.0895
  H  H111  1  0.250780  0.814360  0.313580  1.0  0.0901
  H  H112  1  0.749220  0.185640  0.313580  1.0  0.0887
  H  H113  1  0.686420  0.749220  0.814360  1.0  0.0885
  H  H114  1  0.686420  0.250780  0.185640  1.0  0.089
  H  H115  1  0.313580  0.250780  0.814360  1.0  0.0881
  H  H116  1  0.313580  0.749220  0.185640  1.0  0.0878
  H  H117  1  0.813580  0.685640  0.750780  1.0  0.0906
  H  H118  1  0.186420  0.685640  0.249220  1.0  0.0915
  H  H119  1  0.813580  0.314360  0.249220  1.0  0.091
  H  H120  1  0.186420  0.314360  0.750780  1.0  0.0914
  H  H121  1  0.250780  0.185640  0.313580  1.0  0.0887
  H  H122  1  0.749220  0.814360  0.313580  1.0  0.0901
  H  H123  1  0.749220  0.185640  0.686420  1.0  0.0894
  H  H124  1  0.250780  0.814360  0.686420  1.0  0.0891
  H  H125  1  0.313580  0.250780  0.185640  1.0  0.0881
  H  H126  1  0.313580  0.749220  0.814360  1.0  0.0878
  H  H127  1  0.686420  0.749220  0.185640  1.0  0.0887
  H  H128  1  0.686420  0.250780  0.814360  1.0  0.0888
  H  H129  1  0.186420  0.314360  0.249220  1.0  0.0914
  H  H130  1  0.813580  0.314360  0.750780  1.0  0.091
  H  H131  1  0.186420  0.685640  0.750780  1.0  0.0915
  H  H132  1  0.813580  0.685640  0.249220  1.0  0.0906
  H  H133  1  0.924560  0.875880  0.500000  1.0  0.0911
  H  H134  1  0.921480  0.970260  0.500000  1.0  0.1132
  H  H135  1  0.075440  0.124120  0.500000  1.0  0.0936
  H  H136  1  0.078520  0.029740  0.500000  1.0  0.1123
  H  H137  1  0.075440  0.875880  0.500000  1.0  0.0942
  H  H138  1  0.078520  0.970260  0.500000  1.0  0.1123
  H  H139  1  0.924560  0.124120  0.500000  1.0  0.0906
  H  H140  1  0.921480  0.029740  0.500000  1.0  0.1132
  H  H141  1  0.500000  0.924560  0.875880  1.0  0.0908
  H  H142  1  0.500000  0.921480  0.970260  1.0  0.1105
  H  H143  1  0.500000  0.075440  0.124120  1.0  0.0935
  H  H144  1  0.500000  0.078520  0.029740  1.0  0.1108
  H  H145  1  0.500000  0.075440  0.875880  1.0  0.0931
  H  H146  1  0.500000  0.078520  0.970260  1.0  0.1105
  H  H147  1  0.500000  0.924560  0.124120  1.0  0.0911
  H  H148  1  0.500000  0.921480  0.029740  1.0  0.1104
  H  H149  1  0.875880  0.500000  0.924560  1.0  0.0933
  H  H150  1  0.970260  0.500000  0.921480  1.0  0.111
  H  H151  1  0.124120  0.500000  0.075440  1.0  0.0932
  H  H152  1  0.029740  0.500000  0.078520  1.0  0.1094
  H  H153  1  0.875880  0.500000  0.075440  1.0  0.0932
  H  H154  1  0.970260  0.500000  0.078520  1.0  0.1098
  H  H155  1  0.124120  0.500000  0.924560  1.0  0.0938
  H  H156  1  0.029740  0.500000  0.921480  1.0  0.1107
  H  H157  1  0.375880  0.424560  0.000000  1.0  0.0928
  H  H158  1  0.470260  0.421480  0.000000  1.0  0.1086
  H  H159  1  0.624120  0.575440  0.000000  1.0  0.0905
  H  H160  1  0.531660  0.579580  0.000000  1.0  0.0774
  H  H161  1  0.375880  0.575440  0.000000  1.0  0.0906
  H  H162  1  0.468340  0.579580  0.000000  1.0  0.0773
  H  H163  1  0.624120  0.424560  0.000000  1.0  0.0931
  H  H164  1  0.529740  0.421480  0.000000  1.0  0.1085
  H  H165  1  0.424560  0.000000  0.624120  1.0  0.0925
  H  H166  1  0.421480  0.000000  0.529740  1.0  0.1124
  H  H167  1  0.575440  0.000000  0.375880  1.0  0.0931
  H  H168  1  0.578520  0.000000  0.470260  1.0  0.1211
  H  H169  1  0.575440  0.000000  0.624120  1.0  0.0888
  H  H170  1  0.579580  0.000000  0.531660  1.0  0.0839
  H  H171  1  0.424560  0.000000  0.375880  1.0  0.0924
  H  H172  1  0.421480  0.000000  0.470260  1.0  0.1124
  H  H173  1  0.000000  0.375880  0.575440  1.0  0.0879
  H  H174  1  0.000000  0.468340  0.579580  1.0  0.0776
  H  H175  1  0.000000  0.624120  0.424560  1.0  0.0924
  H  H176  1  0.000000  0.529740  0.421480  1.0  0.1102
  H  H177  1  0.000000  0.375880  0.424560  1.0  0.0924
  H  H178  1  0.000000  0.470260  0.421480  1.0  0.1101
  H  H179  1  0.000000  0.624120  0.575440  1.0  0.0879
  H  H180  1  0.000000  0.531660  0.579580  1.0  0.0773
  C  C181  1  0.842730  0.707960  0.658460  1.0  -0.1284
  C  C182  1  0.877430  0.707210  0.622820  1.0  -0.1189
  C  C183  1  0.157270  0.292040  0.658460  1.0  -0.13
  C  C184  1  0.122570  0.292790  0.622820  1.0  -0.1198
  C  C185  1  0.157270  0.707960  0.341540  1.0  -0.1279
  C  C186  1  0.122570  0.707210  0.377180  1.0  -0.1185
  C  C187  1  0.842730  0.292040  0.341540  1.0  -0.1293
  C  C188  1  0.877430  0.292790  0.377180  1.0  -0.1198
  C  C189  1  0.658460  0.842730  0.707960  1.0  -0.1228
  C  C190  1  0.622820  0.877430  0.707210  1.0  -0.1118
  C  C191  1  0.658460  0.157270  0.292040  1.0  -0.1223
  C  C192  1  0.622820  0.122570  0.292790  1.0  -0.1115
  C  C193  1  0.341540  0.157270  0.707960  1.0  -0.1233
  C  C194  1  0.377180  0.122570  0.707210  1.0  -0.1116
  C  C195  1  0.341540  0.842730  0.292040  1.0  -0.1217
  C  C196  1  0.377180  0.877430  0.292790  1.0  -0.1118
  C  C197  1  0.707960  0.658460  0.842730  1.0  -0.1201
  C  C198  1  0.707210  0.622820  0.877430  1.0  -0.1151
  C  C199  1  0.292040  0.658460  0.157270  1.0  -0.1202
  C  C200  1  0.292790  0.622820  0.122570  1.0  -0.1159
  C  C201  1  0.707960  0.341540  0.157270  1.0  -0.1198
  C  C202  1  0.707210  0.377180  0.122570  1.0  -0.1148
  C  C203  1  0.292040  0.341540  0.842730  1.0  -0.1209
  C  C204  1  0.292790  0.377180  0.877430  1.0  -0.1161
  C  C205  1  0.207960  0.342730  0.841540  1.0  -0.1207
  C  C206  1  0.207210  0.377430  0.877180  1.0  -0.1155
  C  C207  1  0.792040  0.657270  0.841540  1.0  -0.1215
  C  C208  1  0.792790  0.622570  0.877180  1.0  -0.1158
  C  C209  1  0.207960  0.657270  0.158460  1.0  -0.1215
  C  C210  1  0.207210  0.622570  0.122820  1.0  -0.115
  C  C211  1  0.792040  0.342730  0.158460  1.0  -0.1215
  C  C212  1  0.792790  0.377430  0.122820  1.0  -0.1165
  C  C213  1  0.342730  0.158460  0.792040  1.0  -0.1192
  C  C214  1  0.377430  0.122820  0.792790  1.0  -0.1111
  C  C215  1  0.657270  0.158460  0.207960  1.0  -0.1206
  C  C216  1  0.622570  0.122820  0.207210  1.0  -0.1105
  C  C217  1  0.657270  0.841540  0.792040  1.0  -0.1197
  C  C218  1  0.622570  0.877180  0.792790  1.0  -0.1105
  C  C219  1  0.342730  0.841540  0.207960  1.0  -0.121
  C  C220  1  0.377430  0.877180  0.207210  1.0  -0.1105
  C  C221  1  0.158460  0.207960  0.657270  1.0  -0.1287
  C  C222  1  0.122820  0.207210  0.622570  1.0  -0.1188
  C  C223  1  0.158460  0.792040  0.342730  1.0  -0.1295
  C  C224  1  0.122820  0.792790  0.377430  1.0  -0.1204
  C  C225  1  0.841540  0.207960  0.342730  1.0  -0.1282
  C  C226  1  0.877180  0.207210  0.377430  1.0  -0.1189
  C  C227  1  0.841540  0.792040  0.657270  1.0  -0.1302
  C  C228  1  0.877180  0.792790  0.622570  1.0  -0.1194
  C  C229  1  0.157270  0.292040  0.341540  1.0  -0.1291
  C  C230  1  0.122570  0.292790  0.377180  1.0  -0.12
  C  C231  1  0.842730  0.707960  0.341540  1.0  -0.128
  C  C232  1  0.877430  0.707210  0.377180  1.0  -0.1186
  C  C233  1  0.842730  0.292040  0.658460  1.0  -0.1303
  C  C234  1  0.877430  0.292790  0.622820  1.0  -0.1197
  C  C235  1  0.157270  0.707960  0.658460  1.0  -0.1282
  C  C236  1  0.122570  0.707210  0.622820  1.0  -0.1188
  C  C237  1  0.341540  0.157270  0.292040  1.0  -0.1216
  C  C238  1  0.377180  0.122570  0.292790  1.0  -0.1116
  C  C239  1  0.341540  0.842730  0.707960  1.0  -0.1233
  C  C240  1  0.377180  0.877430  0.707210  1.0  -0.1117
  C  C241  1  0.658460  0.842730  0.292040  1.0  -0.1221
  C  C242  1  0.622820  0.877430  0.292790  1.0  -0.1119
  C  C243  1  0.658460  0.157270  0.707960  1.0  -0.1229
  C  C244  1  0.622820  0.122570  0.707210  1.0  -0.1115
  C  C245  1  0.292040  0.341540  0.157270  1.0  -0.1202
  C  C246  1  0.292790  0.377180  0.122570  1.0  -0.1162
  C  C247  1  0.707960  0.341540  0.842730  1.0  -0.1203
  C  C248  1  0.707210  0.377180  0.877430  1.0  -0.1152
  C  C249  1  0.292040  0.658460  0.842730  1.0  -0.1207
  C  C250  1  0.292790  0.622820  0.877430  1.0  -0.1157
  C  C251  1  0.707960  0.658460  0.157270  1.0  -0.1199
  C  C252  1  0.707210  0.622820  0.122570  1.0  -0.1149
  C  C253  1  0.792040  0.657270  0.158460  1.0  -0.1218
  C  C254  1  0.792790  0.622570  0.122820  1.0  -0.1162
  C  C255  1  0.207960  0.342730  0.158460  1.0  -0.121
  C  C256  1  0.207210  0.377430  0.122820  1.0  -0.1152
  C  C257  1  0.792040  0.342730  0.841540  1.0  -0.1214
  C  C258  1  0.792790  0.377430  0.877180  1.0  -0.1163
  C  C259  1  0.207960  0.657270  0.841540  1.0  -0.121
  C  C260  1  0.207210  0.622570  0.877180  1.0  -0.1151
  C  C261  1  0.657270  0.841540  0.207960  1.0  -0.1212
  C  C262  1  0.622570  0.877180  0.207210  1.0  -0.1103
  C  C263  1  0.342730  0.841540  0.792040  1.0  -0.1196
  C  C264  1  0.377430  0.877180  0.792790  1.0  -0.1113
  C  C265  1  0.342730  0.158460  0.207960  1.0  -0.1205
  C  C266  1  0.377430  0.122820  0.207210  1.0  -0.1107
  C  C267  1  0.657270  0.158460  0.792040  1.0  -0.1194
  C  C268  1  0.622570  0.122820  0.792790  1.0  -0.1104
  C  C269  1  0.841540  0.792040  0.342730  1.0  -0.1296
  C  C270  1  0.877180  0.792790  0.377430  1.0  -0.1197
  C  C271  1  0.841540  0.207960  0.657270  1.0  -0.1282
  C  C272  1  0.877180  0.207210  0.622570  1.0  -0.1189
  C  C273  1  0.158460  0.792040  0.657270  1.0  -0.1302
  C  C274  1  0.122820  0.792790  0.622570  1.0  -0.1201
  C  C275  1  0.158460  0.207960  0.342730  1.0  -0.1286
  C  C276  1  0.122820  0.207210  0.377430  1.0  -0.1187
  C  C277  1  0.000000  0.973790  0.500000  1.0  0.0708
  C  C278  1  0.000000  0.026210  0.500000  1.0  0.0706
  C  C279  1  0.500000  0.000000  0.973790  1.0  0.0707
  C  C280  1  0.500000  0.000000  0.026210  1.0  0.0706
  C  C281  1  0.973790  0.500000  0.000000  1.0  0.071
  C  C282  1  0.026210  0.500000  0.000000  1.0  0.0707
  C  C283  1  0.473790  0.500000  0.000000  1.0  0.0573
  C  C284  1  0.526210  0.500000  0.000000  1.0  0.0571
  C  C285  1  0.500000  0.000000  0.526210  1.0  0.0622
  C  C286  1  0.500000  0.000000  0.473790  1.0  0.0664
  C  C287  1  0.000000  0.473790  0.500000  1.0  0.0574
  C  C288  1  0.000000  0.526210  0.500000  1.0  0.0568
  C  C289  1  0.933370  0.750000  0.566630  1.0  0.7026
  C  C290  1  0.895730  0.750000  0.604270  1.0  -0.1102
  C  C291  1  0.823850  0.750000  0.676150  1.0  0.0352
  C  C292  1  0.785860  0.750000  0.714140  1.0  0.0185
  C  C293  1  0.066630  0.250000  0.566630  1.0  0.7025
  C  C294  1  0.104270  0.250000  0.604270  1.0  -0.1101
  C  C295  1  0.176150  0.250000  0.676150  1.0  0.0357
  C  C296  1  0.214140  0.250000  0.714140  1.0  0.0168
  C  C297  1  0.066630  0.750000  0.433370  1.0  0.7017
  C  C298  1  0.104270  0.750000  0.395730  1.0  -0.11
  C  C299  1  0.176150  0.750000  0.323850  1.0  0.035
  C  C300  1  0.214140  0.750000  0.285860  1.0  0.0163
  C  C301  1  0.933370  0.250000  0.433370  1.0  0.702
  C  C302  1  0.895730  0.250000  0.395730  1.0  -0.1102
  C  C303  1  0.823850  0.250000  0.323850  1.0  0.0344
  C  C304  1  0.785860  0.250000  0.285860  1.0  0.018
  C  C305  1  0.566630  0.933370  0.750000  1.0  0.7016
  C  C306  1  0.604270  0.895730  0.750000  1.0  -0.1091
  C  C307  1  0.676150  0.823850  0.750000  1.0  0.034
  C  C308  1  0.714140  0.785860  0.750000  1.0  0.02
  C  C309  1  0.566630  0.066630  0.250000  1.0  0.7015
  C  C310  1  0.604270  0.104270  0.250000  1.0  -0.1096
  C  C311  1  0.676150  0.176150  0.250000  1.0  0.0345
  C  C312  1  0.714140  0.214140  0.250000  1.0  0.0201
  C  C313  1  0.433370  0.066630  0.750000  1.0  0.7017
  C  C314  1  0.395730  0.104270  0.750000  1.0  -0.1098
  C  C315  1  0.323850  0.176150  0.750000  1.0  0.034
  C  C316  1  0.285860  0.214140  0.750000  1.0  0.0219
  C  C317  1  0.433370  0.933370  0.250000  1.0  0.702
  C  C318  1  0.395730  0.895730  0.250000  1.0  -0.1093
  C  C319  1  0.323850  0.823850  0.250000  1.0  0.0334
  C  C320  1  0.285860  0.785860  0.250000  1.0  0.0216
  C  C321  1  0.750000  0.566630  0.933370  1.0  0.7013
  C  C322  1  0.750000  0.604270  0.895730  1.0  -0.1092
  C  C323  1  0.750000  0.676150  0.823850  1.0  0.031
  C  C324  1  0.750000  0.714140  0.785860  1.0  0.0234
  C  C325  1  0.250000  0.566630  0.066630  1.0  0.7019
  C  C326  1  0.250000  0.604270  0.104270  1.0  -0.1094
  C  C327  1  0.250000  0.676150  0.176150  1.0  0.0317
  C  C328  1  0.250000  0.714140  0.214140  1.0  0.0237
  C  C329  1  0.750000  0.433370  0.066630  1.0  0.7018
  C  C330  1  0.750000  0.395730  0.104270  1.0  -0.109
  C  C331  1  0.750000  0.323850  0.176150  1.0  0.0309
  C  C332  1  0.750000  0.285860  0.214140  1.0  0.0236
  C  C333  1  0.250000  0.433370  0.933370  1.0  0.7015
  C  C334  1  0.250000  0.395730  0.895730  1.0  -0.1087
  C  C335  1  0.250000  0.323850  0.823850  1.0  0.0301
  C  C336  1  0.250000  0.285860  0.785860  1.0  0.0232
  C  C337  1  0.066630  0.250000  0.433370  1.0  0.7017
  C  C338  1  0.104270  0.250000  0.395730  1.0  -0.11
  C  C339  1  0.176150  0.250000  0.323850  1.0  0.035
  C  C340  1  0.214140  0.250000  0.285860  1.0  0.0163
  C  C341  1  0.933370  0.750000  0.433370  1.0  0.702
  C  C342  1  0.895730  0.750000  0.395730  1.0  -0.1102
  C  C343  1  0.823850  0.750000  0.323850  1.0  0.0344
  C  C344  1  0.785860  0.750000  0.285860  1.0  0.018
  C  C345  1  0.933370  0.250000  0.566630  1.0  0.7026
  C  C346  1  0.895730  0.250000  0.604270  1.0  -0.1102
  C  C347  1  0.823850  0.250000  0.676150  1.0  0.0352
  C  C348  1  0.785860  0.250000  0.714140  1.0  0.0185
  C  C349  1  0.066630  0.750000  0.566630  1.0  0.7025
  C  C350  1  0.104270  0.750000  0.604270  1.0  -0.1101
  C  C351  1  0.176150  0.750000  0.676150  1.0  0.0357
  C  C352  1  0.214140  0.750000  0.714140  1.0  0.0169
  C  C353  1  0.433370  0.066630  0.250000  1.0  0.7017
  C  C354  1  0.395730  0.104270  0.250000  1.0  -0.1098
  C  C355  1  0.323850  0.176150  0.250000  1.0  0.034
  C  C356  1  0.285860  0.214140  0.250000  1.0  0.0219
  C  C357  1  0.433370  0.933370  0.750000  1.0  0.702
  C  C358  1  0.395730  0.895730  0.750000  1.0  -0.1093
  C  C359  1  0.323850  0.823850  0.750000  1.0  0.0335
  C  C360  1  0.285860  0.785860  0.750000  1.0  0.0217
  C  C361  1  0.566630  0.933370  0.250000  1.0  0.7016
  C  C362  1  0.604270  0.895730  0.250000  1.0  -0.1091
  C  C363  1  0.676150  0.823850  0.250000  1.0  0.0339
  C  C364  1  0.714140  0.785860  0.250000  1.0  0.0199
  C  C365  1  0.566630  0.066630  0.750000  1.0  0.7015
  C  C366  1  0.604270  0.104270  0.750000  1.0  -0.1096
  C  C367  1  0.676150  0.176150  0.750000  1.0  0.0345
  C  C368  1  0.714140  0.214140  0.750000  1.0  0.0201
  C  C369  1  0.250000  0.433370  0.066630  1.0  0.7018
  C  C370  1  0.250000  0.395730  0.104270  1.0  -0.109
  C  C371  1  0.250000  0.323850  0.176150  1.0  0.0309
  C  C372  1  0.250000  0.285860  0.214140  1.0  0.0236
  C  C373  1  0.750000  0.433370  0.933370  1.0  0.7014
  C  C374  1  0.750000  0.395730  0.895730  1.0  -0.1087
  C  C375  1  0.750000  0.323850  0.823850  1.0  0.0302
  C  C376  1  0.750000  0.285860  0.785860  1.0  0.0232
  C  C377  1  0.250000  0.566630  0.933370  1.0  0.7013
  C  C378  1  0.250000  0.604270  0.895730  1.0  -0.1093
  C  C379  1  0.250000  0.676150  0.823850  1.0  0.031
  C  C380  1  0.250000  0.714140  0.785860  1.0  0.0234
  C  C381  1  0.750000  0.566630  0.066630  1.0  0.7019
  C  C382  1  0.750000  0.604270  0.104270  1.0  -0.1093
  C  C383  1  0.750000  0.676150  0.176150  1.0  0.0317
  C  C384  1  0.750000  0.714140  0.214140  1.0  0.0237
  C  C385  1  0.750000  0.784910  0.715090  1.0  -0.1102
  C  C386  1  0.250000  0.215090  0.715090  1.0  -0.1095
  C  C387  1  0.250000  0.784910  0.284910  1.0  -0.1093
  C  C388  1  0.750000  0.215090  0.284910  1.0  -0.1082
  C  C389  1  0.715090  0.750000  0.784910  1.0  -0.1099
  C  C390  1  0.715090  0.250000  0.215090  1.0  -0.1108
  C  C391  1  0.284910  0.250000  0.784910  1.0  -0.1114
  C  C392  1  0.284910  0.750000  0.215090  1.0  -0.1123
  C  C393  1  0.784910  0.715090  0.750000  1.0  -0.1104
  C  C394  1  0.215090  0.715090  0.250000  1.0  -0.1085
  C  C395  1  0.784910  0.284910  0.250000  1.0  -0.1112
  C  C396  1  0.215090  0.284910  0.750000  1.0  -0.1094
  C  C397  1  0.250000  0.215090  0.284910  1.0  -0.1081
  C  C398  1  0.750000  0.784910  0.284910  1.0  -0.1093
  C  C399  1  0.750000  0.215090  0.715090  1.0  -0.1096
  C  C400  1  0.250000  0.784910  0.715090  1.0  -0.1102
  C  C401  1  0.284910  0.250000  0.215090  1.0  -0.1123
  C  C402  1  0.284910  0.750000  0.784910  1.0  -0.1115
  C  C403  1  0.715090  0.750000  0.215090  1.0  -0.1108
  C  C404  1  0.715090  0.250000  0.784910  1.0  -0.1099
  C  C405  1  0.215090  0.284910  0.250000  1.0  -0.1093
  C  C406  1  0.784910  0.284910  0.750000  1.0  -0.1113
  C  C407  1  0.215090  0.715090  0.750000  1.0  -0.1087
  C  C408  1  0.784910  0.715090  0.250000  1.0  -0.1102
  C  C409  1  0.959200  0.898000  0.500000  1.0  0.2645
  C  C410  1  0.956900  0.949400  0.500000  1.0  -0.1495
  C  C411  1  0.040800  0.102000  0.500000  1.0  0.2643
  C  C412  1  0.043100  0.050600  0.500000  1.0  -0.1502
  C  C413  1  0.040800  0.898000  0.500000  1.0  0.2614
  C  C414  1  0.043100  0.949400  0.500000  1.0  -0.1511
  C  C415  1  0.959200  0.102000  0.500000  1.0  0.2649
  C  C416  1  0.956900  0.050600  0.500000  1.0  -0.1485
  C  C417  1  0.500000  0.959200  0.898000  1.0  0.2632
  C  C418  1  0.500000  0.956900  0.949400  1.0  -0.1505
  C  C419  1  0.500000  0.040800  0.102000  1.0  0.2636
  C  C420  1  0.500000  0.043100  0.050600  1.0  -0.152
  C  C421  1  0.500000  0.040800  0.898000  1.0  0.2622
  C  C422  1  0.500000  0.043100  0.949400  1.0  -0.153
  C  C423  1  0.500000  0.959200  0.102000  1.0  0.2631
  C  C424  1  0.500000  0.956900  0.050600  1.0  -0.1509
  C  C425  1  0.898000  0.500000  0.959200  1.0  0.2648
  C  C426  1  0.949400  0.500000  0.956900  1.0  -0.1504
  C  C427  1  0.102000  0.500000  0.040800  1.0  0.2665
  C  C428  1  0.050600  0.500000  0.043100  1.0  -0.1489
  C  C429  1  0.898000  0.500000  0.040800  1.0  0.263
  C  C430  1  0.949400  0.500000  0.043100  1.0  -0.1484
  C  C431  1  0.102000  0.500000  0.959200  1.0  0.2653
  C  C432  1  0.050600  0.500000  0.956900  1.0  -0.1491
  C  C433  1  0.398000  0.459200  0.000000  1.0  0.261
  C  C434  1  0.449400  0.456900  0.000000  1.0  -0.1529
  C  C435  1  0.602000  0.540800  0.000000  1.0  0.2322
  C  C436  1  0.550600  0.543100  0.000000  1.0  0.0448
  C  C437  1  0.398000  0.540800  0.000000  1.0  0.2303
  C  C438  1  0.449400  0.543100  0.000000  1.0  0.0454
  C  C439  1  0.602000  0.459200  0.000000  1.0  0.2606
  C  C440  1  0.550600  0.456900  0.000000  1.0  -0.1515
  C  C441  1  0.459200  0.000000  0.602000  1.0  0.2644
  C  C442  1  0.456900  0.000000  0.550600  1.0  -0.1502
  C  C443  1  0.540800  0.000000  0.398000  1.0  0.239
  C  C444  1  0.543100  0.000000  0.449400  1.0  -0.1683
  C  C445  1  0.540800  0.000000  0.602000  1.0  0.2511
  C  C446  1  0.543100  0.000000  0.550600  1.0  0.049
  C  C447  1  0.459200  0.000000  0.398000  1.0  0.2642
  C  C448  1  0.456900  0.000000  0.449400  1.0  -0.1511
  C  C449  1  0.000000  0.398000  0.540800  1.0  0.2349
  C  C450  1  0.000000  0.449400  0.543100  1.0  0.0508
  C  C451  1  0.000000  0.602000  0.459200  1.0  0.2662
  C  C452  1  0.000000  0.550600  0.456900  1.0  -0.1488
  C  C453  1  0.000000  0.398000  0.459200  1.0  0.2655
  C  C454  1  0.000000  0.449400  0.456900  1.0  -0.1482
  C  C455  1  0.000000  0.602000  0.540800  1.0  0.2366
  C  C456  1  0.000000  0.550600  0.543100  1.0  0.0506
  N  N457  1  0.000000  0.874110  0.500000  1.0  -0.2153
  N  N458  1  0.000000  0.125890  0.500000  1.0  -0.2143
  N  N459  1  0.500000  0.000000  0.874110  1.0  -0.2132
  N  N460  1  0.500000  0.000000  0.125890  1.0  -0.2138
  N  N461  1  0.874110  0.500000  0.000000  1.0  -0.2148
  N  N462  1  0.125890  0.500000  0.000000  1.0  -0.212
  N  N463  1  0.374110  0.500000  0.000000  1.0  -0.2146
  N  N464  1  0.625890  0.500000  0.000000  1.0  -0.2118
  N  N465  1  0.500000  0.000000  0.625890  1.0  -0.2151
  N  N466  1  0.500000  0.000000  0.374110  1.0  -0.2131
  N  N467  1  0.000000  0.374110  0.500000  1.0  -0.2173
  N  N468  1  0.000000  0.625890  0.500000  1.0  -0.2142
  O  O469  1  0.948380  0.789610  0.551420  1.0  -0.618
  O  O470  1  0.051620  0.210390  0.551420  1.0  -0.6175
  O  O471  1  0.051620  0.789610  0.448580  1.0  -0.6177
  O  O472  1  0.948380  0.210390  0.448580  1.0  -0.6173
  O  O473  1  0.551420  0.948380  0.789610  1.0  -0.6142
  O  O474  1  0.551420  0.051620  0.210390  1.0  -0.6132
  O  O475  1  0.448580  0.051620  0.789610  1.0  -0.6147
  O  O476  1  0.448580  0.948380  0.210390  1.0  -0.614
  O  O477  1  0.789610  0.551420  0.948380  1.0  -0.6155
  O  O478  1  0.210390  0.551420  0.051620  1.0  -0.6144
  O  O479  1  0.789610  0.448580  0.051620  1.0  -0.6148
  O  O480  1  0.210390  0.448580  0.948380  1.0  -0.6148
  O  O481  1  0.289610  0.448380  0.948580  1.0  -0.615
  O  O482  1  0.710390  0.551620  0.948580  1.0  -0.6142
  O  O483  1  0.289610  0.551620  0.051420  1.0  -0.6149
  O  O484  1  0.710390  0.448380  0.051420  1.0  -0.6143
  O  O485  1  0.448380  0.051420  0.710390  1.0  -0.6136
  O  O486  1  0.551620  0.051420  0.289610  1.0  -0.6143
  O  O487  1  0.551620  0.948580  0.710390  1.0  -0.6136
  O  O488  1  0.448380  0.948580  0.289610  1.0  -0.6142
  O  O489  1  0.051420  0.289610  0.551620  1.0  -0.6179
  O  O490  1  0.051420  0.710390  0.448380  1.0  -0.6182
  O  O491  1  0.948580  0.289610  0.448380  1.0  -0.6187
  O  O492  1  0.948580  0.710390  0.551620  1.0  -0.6177
  O  O493  1  0.051620  0.210390  0.448580  1.0  -0.6175
  O  O494  1  0.948380  0.789610  0.448580  1.0  -0.618
  O  O495  1  0.948380  0.210390  0.551420  1.0  -0.6176
  O  O496  1  0.051620  0.789610  0.551420  1.0  -0.6177
  O  O497  1  0.448580  0.051620  0.210390  1.0  -0.6137
  O  O498  1  0.448580  0.948380  0.789610  1.0  -0.6145
  O  O499  1  0.551420  0.948380  0.210390  1.0  -0.6135
  O  O500  1  0.551420  0.051620  0.789610  1.0  -0.6143
  O  O501  1  0.210390  0.448580  0.051620  1.0  -0.6145
  O  O502  1  0.789610  0.448580  0.948380  1.0  -0.6155
  O  O503  1  0.210390  0.551420  0.948380  1.0  -0.6144
  O  O504  1  0.789610  0.551420  0.051620  1.0  -0.6151
  O  O505  1  0.710390  0.551620  0.051420  1.0  -0.6143
  O  O506  1  0.289610  0.448380  0.051420  1.0  -0.6149
  O  O507  1  0.710390  0.448380  0.948580  1.0  -0.6144
  O  O508  1  0.289610  0.551620  0.948580  1.0  -0.6151
  O  O509  1  0.551620  0.948580  0.289610  1.0  -0.6143
  O  O510  1  0.448380  0.948580  0.710390  1.0  -0.6137
  O  O511  1  0.448380  0.051420  0.289610  1.0  -0.6144
  O  O512  1  0.551620  0.051420  0.710390  1.0  -0.6133
  O  O513  1  0.948580  0.710390  0.448380  1.0  -0.6179
  O  O514  1  0.948580  0.289610  0.551620  1.0  -0.6185
  O  O515  1  0.051420  0.710390  0.551620  1.0  -0.6177
  O  O516  1  0.051420  0.289610  0.448380  1.0  -0.6181
