# generated using pymatgen
data_EuH18C33(NO)6
_symmetry_space_group_name_H-M   'P 1'
_cell_length_a   8.17370000
_cell_length_b   15.00920000
_cell_length_c   37.57400000
_cell_angle_alpha   90.00000000
_cell_angle_beta   101.82800000
_cell_angle_gamma   90.00000000
_symmetry_Int_Tables_number   1
_chemical_formula_structural   EuH18C33(NO)6
_chemical_formula_sum   'Eu4 H72 C132 N24 O24'
_cell_volume   4511.73036479
_cell_formula_units_Z   4
loop_
 _symmetry_equiv_pos_site_id
 _symmetry_equiv_pos_as_xyz
  1  'x, y, z'
loop_
 _atom_site_type_symbol
 _atom_site_label
 _atom_site_symmetry_multiplicity
 _atom_site_fract_x
 _atom_site_fract_y
 _atom_site_fract_z
 _atom_site_occupancy
 _atom_site_charge
  Eu  Eu1  1  0.319910  0.098390  0.985550  1.0  2.1259
  Eu  Eu2  1  0.680090  0.098390  0.514460  1.0  2.1267
  Eu  Eu3  1  0.680090  0.901610  0.014450  1.0  2.1268
  Eu  Eu4  1  0.319910  0.901610  0.485550  1.0  2.1258
  H  H5  1  0.861900  0.245100  0.999100  1.0  0.1058
  H  H6  1  0.922800  0.093400  0.158200  1.0  0.3153
  H  H7  1  0.315400  0.577100  0.955500  1.0  0.1057
  H  H8  1  0.632300  0.036400  0.308200  1.0  0.2937
  H  H9  1  0.508700  0.981500  0.368800  1.0  0.1098
  H  H10  1  0.048600  0.088500  0.093600  1.0  0.1132
  H  H11  1  0.728700  0.051900  0.260400  1.0  0.1011
  H  H12  1  0.420200  0.189300  0.429400  1.0  0.0897
  H  H13  1  0.143900  0.336800  0.062700  1.0  0.0708
  H  H14  1  0.480000  0.290100  0.386700  1.0  0.1188
  H  H15  1  0.515300  0.374000  0.925100  1.0  0.0899
  H  H16  1  0.038000  0.397200  0.109900  1.0  0.0999
  H  H17  1  0.827200  0.070700  0.206900  1.0  0.1108
  H  H18  1  0.711400  0.478800  0.916100  1.0  0.1104
  H  H19  1  0.417700  0.371500  0.024600  1.0  0.0769
  H  H20  1  0.806400  0.332700  0.218900  1.0  0.0838
  H  H21  1  0.712100  0.316400  0.271700  1.0  0.1105
  H  H22  1  0.053000  0.522500  0.940300  1.0  0.2852
  H  H23  1  0.138100  0.245100  0.500900  1.0  0.1059
  H  H24  1  0.077200  0.093400  0.341800  1.0  0.3148
  H  H25  1  0.684600  0.577100  0.544500  1.0  0.1056
  H  H26  1  0.367700  0.036400  0.191800  1.0  0.2936
  H  H27  1  0.491300  0.981500  0.131200  1.0  0.1095
  H  H28  1  0.951400  0.088500  0.406400  1.0  0.114
  H  H29  1  0.271300  0.051900  0.239600  1.0  0.1009
  H  H30  1  0.579800  0.189300  0.070600  1.0  0.0904
  H  H31  1  0.856100  0.336800  0.437300  1.0  0.0712
  H  H32  1  0.520000  0.290100  0.113300  1.0  0.1186
  H  H33  1  0.484700  0.374000  0.574900  1.0  0.0891
  H  H34  1  0.962000  0.397200  0.390100  1.0  0.1002
  H  H35  1  0.172800  0.070700  0.293100  1.0  0.1112
  H  H36  1  0.288600  0.478800  0.583900  1.0  0.1099
  H  H37  1  0.582300  0.371500  0.475400  1.0  0.0758
  H  H38  1  0.193600  0.332700  0.281100  1.0  0.0832
  H  H39  1  0.287900  0.316400  0.228300  1.0  0.1105
  H  H40  1  0.947000  0.522500  0.559700  1.0  0.285
  H  H41  1  0.138100  0.754900  0.000900  1.0  0.1061
  H  H42  1  0.077200  0.906600  0.841800  1.0  0.3103
  H  H43  1  0.684600  0.422900  0.044500  1.0  0.1057
  H  H44  1  0.367700  0.963600  0.691800  1.0  0.2947
  H  H45  1  0.491300  0.018500  0.631200  1.0  0.1097
  H  H46  1  0.951400  0.911500  0.906400  1.0  0.1132
  H  H47  1  0.271300  0.948100  0.739600  1.0  0.1017
  H  H48  1  0.579800  0.810700  0.570600  1.0  0.0904
  H  H49  1  0.856100  0.663200  0.937300  1.0  0.0713
  H  H50  1  0.520000  0.709900  0.613300  1.0  0.1208
  H  H51  1  0.484700  0.626000  0.074900  1.0  0.0891
  H  H52  1  0.962000  0.602800  0.890100  1.0  0.1
  H  H53  1  0.172800  0.929300  0.793100  1.0  0.1113
  H  H54  1  0.288600  0.521200  0.083900  1.0  0.1081
  H  H55  1  0.582300  0.628500  0.975400  1.0  0.0761
  H  H56  1  0.193600  0.667300  0.781100  1.0  0.0841
  H  H57  1  0.287900  0.683600  0.728300  1.0  0.1101
  H  H58  1  0.947000  0.477500  0.059700  1.0  0.2854
  H  H59  1  0.861900  0.754900  0.499100  1.0  0.106
  H  H60  1  0.922800  0.906600  0.658200  1.0  0.3107
  H  H61  1  0.315400  0.422900  0.455500  1.0  0.1058
  H  H62  1  0.632300  0.963600  0.808200  1.0  0.2951
  H  H63  1  0.508700  0.018500  0.868800  1.0  0.11
  H  H64  1  0.048600  0.911500  0.593600  1.0  0.1126
  H  H65  1  0.728700  0.948100  0.760400  1.0  0.1017
  H  H66  1  0.420200  0.810700  0.929400  1.0  0.0895
  H  H67  1  0.143900  0.663200  0.562700  1.0  0.0706
  H  H68  1  0.480000  0.709900  0.886700  1.0  0.1211
  H  H69  1  0.515300  0.626000  0.425100  1.0  0.09
  H  H70  1  0.038000  0.602800  0.609900  1.0  0.0994
  H  H71  1  0.827200  0.929300  0.706900  1.0  0.1113
  H  H72  1  0.711400  0.521200  0.416100  1.0  0.1087
  H  H73  1  0.417700  0.628500  0.524600  1.0  0.0766
  H  H74  1  0.806400  0.667300  0.718900  1.0  0.0839
  H  H75  1  0.712100  0.683600  0.771700  1.0  0.1106
  H  H76  1  0.053000  0.477500  0.440300  1.0  0.2844
  C  C77  1  0.107400  0.206800  0.073400  1.0  -0.1546
  C  C78  1  0.830400  0.290900  0.982500  1.0  -0.0889
  C  C79  1  0.542600  0.233600  0.970200  1.0  0.6632
  C  C80  1  0.668200  0.298700  0.963400  1.0  -0.1455
  C  C81  1  0.944200  0.353200  0.976100  1.0  0.1202
  C  C82  1  0.389000  0.546000  0.973400  1.0  -0.1304
  C  C83  1  0.177100  0.169800  0.043100  1.0  0.6418
  C  C84  1  0.543600  0.193100  0.353700  1.0  0.1329
  C  C85  1  0.508800  0.042600  0.372900  1.0  -0.1179
  C  C86  1  0.990100  0.187300  0.125600  1.0  0.1546
  C  C87  1  0.554900  0.101700  0.348500  1.0  0.2068
  C  C88  1  0.829000  0.204700  0.208000  1.0  -0.1306
  C  C89  1  0.433500  0.012800  0.431500  1.0  0.6675
  C  C90  1  0.166100  0.436100  0.976000  1.0  0.323
  C  C91  1  0.463400  0.076100  0.403300  1.0  -0.0675
  C  C92  1  0.903300  0.424100  0.952100  1.0  0.1727
  C  C93  1  0.895100  0.216800  0.174200  1.0  0.363
  C  C94  1  0.048700  0.149900  0.096900  1.0  -0.0798
  C  C95  1  0.743900  0.109000  0.252000  1.0  -0.1109
  C  C96  1  0.986700  0.278300  0.130900  1.0  0.1823
  C  C97  1  0.452900  0.168500  0.408600  1.0  -0.0715
  C  C98  1  0.103900  0.299300  0.078600  1.0  -0.0515
  C  C99  1  0.490100  0.229000  0.383700  1.0  -0.1362
  C  C100  1  0.639700  0.166500  0.304700  1.0  0.3231
  C  C101  1  0.624700  0.369600  0.938200  1.0  -0.0372
  C  C102  1  0.042200  0.335800  0.107000  1.0  -0.1379
  C  C103  1  0.707000  0.181700  0.271200  1.0  -0.0883
  C  C104  1  0.804200  0.120100  0.220000  1.0  -0.1167
  C  C105  1  0.741400  0.432400  0.932500  1.0  -0.0825
  C  C106  1  0.451000  0.423600  0.014700  1.0  -0.0693
  C  C107  1  0.337000  0.468700  0.988100  1.0  -0.0398
  C  C108  1  0.791700  0.275600  0.227400  1.0  -0.041
  C  C109  1  0.733600  0.266400  0.258800  1.0  -0.1356
  C  C110  1  0.892600  0.206800  0.426600  1.0  -0.1537
  C  C111  1  0.169600  0.290900  0.517500  1.0  -0.0896
  C  C112  1  0.457400  0.233600  0.529800  1.0  0.6613
  C  C113  1  0.331800  0.298700  0.536600  1.0  -0.1446
  C  C114  1  0.055800  0.353200  0.523900  1.0  0.1218
  C  C115  1  0.611000  0.546000  0.526600  1.0  -0.1299
  C  C116  1  0.822900  0.169800  0.456900  1.0  0.6426
  C  C117  1  0.456400  0.193100  0.146300  1.0  0.133
  C  C118  1  0.491200  0.042600  0.127100  1.0  -0.118
  C  C119  1  0.009900  0.187300  0.374400  1.0  0.1552
  C  C120  1  0.445100  0.101700  0.151500  1.0  0.2066
  C  C121  1  0.171000  0.204700  0.292000  1.0  -0.13
  C  C122  1  0.566500  0.012800  0.068500  1.0  0.6666
  C  C123  1  0.833900  0.436100  0.524000  1.0  0.3232
  C  C124  1  0.536600  0.076100  0.096700  1.0  -0.0679
  C  C125  1  0.096700  0.424100  0.547900  1.0  0.1718
  C  C126  1  0.104900  0.216800  0.325800  1.0  0.363
  C  C127  1  0.951300  0.149900  0.403100  1.0  -0.0793
  C  C128  1  0.256100  0.109000  0.248000  1.0  -0.11
  C  C129  1  0.013300  0.278300  0.369100  1.0  0.1825
  C  C130  1  0.547100  0.168500  0.091400  1.0  -0.0732
  C  C131  1  0.896100  0.299300  0.421400  1.0  -0.0515
  C  C132  1  0.509900  0.229000  0.116300  1.0  -0.1363
  C  C133  1  0.360300  0.166500  0.195300  1.0  0.3229
  C  C134  1  0.375300  0.369600  0.561800  1.0  -0.0403
  C  C135  1  0.957800  0.335800  0.393000  1.0  -0.1369
  C  C136  1  0.293000  0.181700  0.228800  1.0  -0.0887
  C  C137  1  0.195800  0.120100  0.280000  1.0  -0.1162
  C  C138  1  0.258600  0.432400  0.567500  1.0  -0.0836
  C  C139  1  0.549000  0.423600  0.485300  1.0  -0.0677
  C  C140  1  0.663000  0.468700  0.511900  1.0  -0.0407
  C  C141  1  0.208300  0.275600  0.272600  1.0  -0.0421
  C  C142  1  0.266400  0.266400  0.241200  1.0  -0.1343
  C  C143  1  0.892600  0.793200  0.926600  1.0  -0.1543
  C  C144  1  0.169600  0.709100  0.017500  1.0  -0.0902
  C  C145  1  0.457400  0.766400  0.029800  1.0  0.6622
  C  C146  1  0.331800  0.701300  0.036600  1.0  -0.1455
  C  C147  1  0.055800  0.646800  0.023900  1.0  0.1214
  C  C148  1  0.611000  0.454000  0.026600  1.0  -0.1304
  C  C149  1  0.822900  0.830200  0.956900  1.0  0.642
  C  C150  1  0.456400  0.806900  0.646300  1.0  0.1317
  C  C151  1  0.491200  0.957400  0.627100  1.0  -0.1122
  C  C152  1  0.009900  0.812700  0.874400  1.0  0.1548
  C  C153  1  0.445100  0.898300  0.651500  1.0  0.2082
  C  C154  1  0.171000  0.795300  0.792000  1.0  -0.1301
  C  C155  1  0.566500  0.987200  0.568500  1.0  0.6665
  C  C156  1  0.833900  0.563900  0.024000  1.0  0.3237
  C  C157  1  0.536600  0.923900  0.596700  1.0  -0.0673
  C  C158  1  0.096700  0.575900  0.047900  1.0  0.1702
  C  C159  1  0.104900  0.783200  0.825800  1.0  0.3624
  C  C160  1  0.951300  0.850100  0.903100  1.0  -0.0803
  C  C161  1  0.256100  0.891000  0.748000  1.0  -0.1099
  C  C162  1  0.013300  0.721700  0.869100  1.0  0.1828
  C  C163  1  0.547100  0.831500  0.591400  1.0  -0.073
  C  C164  1  0.896100  0.700700  0.921400  1.0  -0.0507
  C  C165  1  0.509900  0.771000  0.616300  1.0  -0.1366
  C  C166  1  0.360300  0.833500  0.695300  1.0  0.3222
  C  C167  1  0.375300  0.630400  0.061800  1.0  -0.0406
  C  C168  1  0.957800  0.664200  0.893000  1.0  -0.1378
  C  C169  1  0.293000  0.818300  0.728800  1.0  -0.0889
  C  C170  1  0.195800  0.879900  0.780000  1.0  -0.1168
  C  C171  1  0.258600  0.567600  0.067500  1.0  -0.0831
  C  C172  1  0.549000  0.576400  0.985300  1.0  -0.0683
  C  C173  1  0.663000  0.531300  0.011900  1.0  -0.04
  C  C174  1  0.208300  0.724400  0.772600  1.0  -0.045
  C  C175  1  0.266400  0.733600  0.741200  1.0  -0.1336
  C  C176  1  0.107400  0.793200  0.573400  1.0  -0.1542
  C  C177  1  0.830400  0.709100  0.482500  1.0  -0.0898
  C  C178  1  0.542600  0.766400  0.470200  1.0  0.6634
  C  C179  1  0.668200  0.701300  0.463400  1.0  -0.1421
  C  C180  1  0.944200  0.646800  0.476100  1.0  0.1208
  C  C181  1  0.389000  0.454000  0.473400  1.0  -0.1297
  C  C182  1  0.177100  0.830200  0.543100  1.0  0.6429
  C  C183  1  0.543600  0.806900  0.853700  1.0  0.1315
  C  C184  1  0.508800  0.957400  0.872900  1.0  -0.1126
  C  C185  1  0.990100  0.812700  0.625600  1.0  0.1544
  C  C186  1  0.554900  0.898300  0.848500  1.0  0.209
  C  C187  1  0.829000  0.795300  0.708000  1.0  -0.1309
  C  C188  1  0.433500  0.987200  0.931500  1.0  0.6655
  C  C189  1  0.166100  0.563900  0.476000  1.0  0.3233
  C  C190  1  0.463400  0.923900  0.903300  1.0  -0.0668
  C  C191  1  0.903300  0.575900  0.452100  1.0  0.1725
  C  C192  1  0.895100  0.783200  0.674200  1.0  0.3627
  C  C193  1  0.048700  0.850100  0.596900  1.0  -0.0807
  C  C194  1  0.743900  0.891000  0.752000  1.0  -0.1102
  C  C195  1  0.986700  0.721700  0.630900  1.0  0.183
  C  C196  1  0.452900  0.831500  0.908600  1.0  -0.0714
  C  C197  1  0.103900  0.700700  0.578600  1.0  -0.0508
  C  C198  1  0.490100  0.771000  0.883700  1.0  -0.136
  C  C199  1  0.639700  0.833500  0.804700  1.0  0.3228
  C  C200  1  0.624700  0.630400  0.438200  1.0  -0.0384
  C  C201  1  0.042200  0.664200  0.607000  1.0  -0.1372
  C  C202  1  0.707000  0.818300  0.771200  1.0  -0.0879
  C  C203  1  0.804200  0.879900  0.720000  1.0  -0.1159
  C  C204  1  0.741400  0.567600  0.432500  1.0  -0.0809
  C  C205  1  0.451000  0.576400  0.514700  1.0  -0.0695
  C  C206  1  0.337000  0.531300  0.488100  1.0  -0.0394
  C  C207  1  0.791700  0.724400  0.727400  1.0  -0.0427
  C  C208  1  0.733600  0.733600  0.758800  1.0  -0.1348
  N  N209  1  0.045400  0.475100  0.952700  1.0  -0.2411
  N  N210  1  0.932500  0.149300  0.154130  1.0  -0.2471
  N  N211  1  0.113500  0.362200  0.991120  1.0  -0.431
  N  N212  1  0.925000  0.297400  0.161730  1.0  -0.5174
  N  N213  1  0.614700  0.087100  0.317430  1.0  -0.2781
  N  N214  1  0.599200  0.235000  0.325400  1.0  -0.4797
  N  N215  1  0.954600  0.475100  0.547300  1.0  -0.2395
  N  N216  1  0.067500  0.149300  0.345870  1.0  -0.2466
  N  N217  1  0.886500  0.362200  0.508880  1.0  -0.4315
  N  N218  1  0.075000  0.297400  0.338270  1.0  -0.5184
  N  N219  1  0.385300  0.087100  0.182570  1.0  -0.2766
  N  N220  1  0.400800  0.235000  0.174600  1.0  -0.4795
  N  N221  1  0.954600  0.524900  0.047300  1.0  -0.2408
  N  N222  1  0.067500  0.850700  0.845870  1.0  -0.2448
  N  N223  1  0.886500  0.637800  0.008880  1.0  -0.4306
  N  N224  1  0.075000  0.702600  0.838270  1.0  -0.5218
  N  N225  1  0.385300  0.912900  0.682570  1.0  -0.276
  N  N226  1  0.400800  0.765000  0.674600  1.0  -0.4774
  N  N227  1  0.045400  0.524900  0.452700  1.0  -0.2409
  N  N228  1  0.932500  0.850700  0.654130  1.0  -0.2461
  N  N229  1  0.113500  0.637800  0.491120  1.0  -0.4295
  N  N230  1  0.925000  0.702600  0.661730  1.0  -0.5221
  N  N231  1  0.614700  0.912900  0.817430  1.0  -0.2762
  N  N232  1  0.599200  0.765000  0.825400  1.0  -0.4774
  O  O233  1  0.149800  0.089600  0.033670  1.0  -0.6985
  O  O234  1  0.389600  0.240300  0.954590  1.0  -0.6639
  O  O235  1  0.265500  0.218000  0.026740  1.0  -0.6848
  O  O236  1  0.496500  0.026500  0.465200  1.0  -0.8622
  O  O237  1  0.588500  0.170100  0.992170  1.0  -0.6537
  O  O238  1  0.346000  0.944000  0.422560  1.0  -0.6756
  O  O239  1  0.850200  0.089600  0.466330  1.0  -0.6966
  O  O240  1  0.610400  0.240300  0.545410  1.0  -0.6642
  O  O241  1  0.734500  0.218000  0.473260  1.0  -0.6842
  O  O242  1  0.503500  0.026500  0.034800  1.0  -0.8618
  O  O243  1  0.411500  0.170100  0.507830  1.0  -0.6558
  O  O244  1  0.654000  0.944000  0.077440  1.0  -0.6763
  O  O245  1  0.850200  0.910400  0.966330  1.0  -0.701
  O  O246  1  0.610400  0.759700  0.045410  1.0  -0.6645
  O  O247  1  0.734500  0.782000  0.973260  1.0  -0.6854
  O  O248  1  0.503500  0.973500  0.534800  1.0  -0.8614
  O  O249  1  0.411500  0.829900  0.007830  1.0  -0.6549
  O  O250  1  0.654000  0.056000  0.577440  1.0  -0.6771
  O  O251  1  0.149800  0.910400  0.533670  1.0  -0.7015
  O  O252  1  0.389600  0.759700  0.454590  1.0  -0.6657
  O  O253  1  0.265500  0.782000  0.526740  1.0  -0.6854
  O  O254  1  0.496500  0.973500  0.965200  1.0  -0.8617
  O  O255  1  0.588500  0.829900  0.492170  1.0  -0.656
  O  O256  1  0.346000  0.056000  0.922560  1.0  -0.6768
