# generated using pymatgen
data_DyH12C24(NO)6
_symmetry_space_group_name_H-M   'P 1'
_cell_length_a   29.16200000
_cell_length_b   21.92400000
_cell_length_c   14.95500000
_cell_angle_alpha   90.00000000
_cell_angle_beta   103.38000000
_cell_angle_gamma   90.00000000
_symmetry_Int_Tables_number   1
_chemical_formula_structural   DyH12C24(NO)6
_chemical_formula_sum   'Dy8 H96 C192 N48 O48'
_cell_volume   9301.91564880
_cell_formula_units_Z   8
loop_
 _symmetry_equiv_pos_site_id
 _symmetry_equiv_pos_as_xyz
  1  'x, y, z'
loop_
 _atom_site_type_symbol
 _atom_site_label
 _atom_site_symmetry_multiplicity
 _atom_site_fract_x
 _atom_site_fract_y
 _atom_site_fract_z
 _atom_site_occupancy
 _atom_site_charge
  Dy  Dy1  1  0.235400  0.752040  0.327450  1.0  2.2925
  Dy  Dy2  1  0.734020  0.263310  0.905540  1.0  2.3049
  Dy  Dy3  1  0.764600  0.252040  0.172550  1.0  2.2926
  Dy  Dy4  1  0.265980  0.763310  0.594460  1.0  2.3058
  Dy  Dy5  1  0.764600  0.247960  0.672550  1.0  2.2917
  Dy  Dy6  1  0.265980  0.736690  0.094460  1.0  2.2951
  Dy  Dy7  1  0.235400  0.747960  0.827450  1.0  2.2935
  Dy  Dy8  1  0.734020  0.236690  0.405540  1.0  2.2993
  H  H9  1  0.912900  0.170200  0.836200  1.0  0.1143
  H  H10  1  0.972300  0.140400  0.952200  1.0  0.1252
  H  H11  1  0.920400  0.241200  0.129800  1.0  0.1304
  H  H12  1  0.857200  0.270500  0.009100  1.0  0.1172
  H  H13  1  0.148500  0.979300  0.140100  1.0  0.1187
  H  H14  1  0.195700  0.904400  0.114600  1.0  0.1007
  H  H15  1  0.136000  0.902500  0.849500  1.0  0.1014
  H  H16  1  0.084300  0.975900  0.869900  1.0  0.1216
  H  H17  1  0.158600  0.047100  0.478800  1.0  0.1316
  H  H18  1  0.211100  0.971700  0.532800  1.0  0.1243
  H  H19  1  0.148800  0.861700  0.325400  1.0  0.1288
  H  H20  1  0.096200  0.939100  0.270100  1.0  0.1097
  H  H21  1  0.411400  0.675900  0.567800  1.0  0.1102
  H  H22  1  0.474500  0.639900  0.503400  1.0  0.1289
  H  H23  1  0.423800  0.742600  0.282700  1.0  0.1123
  H  H24  1  0.362200  0.777400  0.342400  1.0  0.14
  H  H25  1  0.605200  0.445200  0.332900  1.0  0.1089
  H  H26  1  0.654300  0.364300  0.331600  1.0  0.1351
  H  H27  1  0.723200  0.466500  0.180900  1.0  0.1144
  H  H28  1  0.677600  0.547600  0.194700  1.0  0.1294
  H  H29  1  0.646500  0.480400  0.511800  1.0  0.1153
  H  H30  1  0.691900  0.404200  0.590900  1.0  0.1103
  H  H31  1  0.615400  0.404100  0.776500  1.0  0.113
  H  H32  1  0.567600  0.476300  0.698600  1.0  0.1297
  H  H33  1  0.087100  0.670200  0.663800  1.0  0.1142
  H  H34  1  0.027700  0.640400  0.547800  1.0  0.1252
  H  H35  1  0.079600  0.741200  0.370200  1.0  0.1307
  H  H36  1  0.142800  0.770500  0.490900  1.0  0.1185
  H  H37  1  0.851500  0.479300  0.359900  1.0  0.1192
  H  H38  1  0.804300  0.404400  0.385400  1.0  0.1013
  H  H39  1  0.864000  0.402500  0.650500  1.0  0.1004
  H  H40  1  0.915700  0.475900  0.630100  1.0  0.1219
  H  H41  1  0.841400  0.547100  0.021200  1.0  0.1323
  H  H42  1  0.788900  0.471700  0.967200  1.0  0.1241
  H  H43  1  0.851200  0.361700  0.174600  1.0  0.1289
  H  H44  1  0.903800  0.439100  0.229900  1.0  0.1098
  H  H45  1  0.588600  0.175900  0.932200  1.0  0.1113
  H  H46  1  0.525500  0.139900  0.996600  1.0  0.1285
  H  H47  1  0.576200  0.242600  0.217300  1.0  0.1124
  H  H48  1  0.637800  0.277400  0.157600  1.0  0.1401
  H  H49  1  0.394800  0.945200  0.167100  1.0  0.1097
  H  H50  1  0.345700  0.864300  0.168400  1.0  0.1348
  H  H51  1  0.276800  0.966500  0.319100  1.0  0.1153
  H  H52  1  0.322400  0.047600  0.305300  1.0  0.1295
  H  H53  1  0.353500  0.980400  0.988200  1.0  0.1156
  H  H54  1  0.308100  0.904200  0.909100  1.0  0.1101
  H  H55  1  0.384600  0.904100  0.723500  1.0  0.1143
  H  H56  1  0.432400  0.976300  0.801400  1.0  0.1297
  H  H57  1  0.087100  0.829800  0.163800  1.0  0.1149
  H  H58  1  0.027700  0.859600  0.047800  1.0  0.1249
  H  H59  1  0.079600  0.758800  0.870200  1.0  0.1309
  H  H60  1  0.142800  0.729500  0.990900  1.0  0.1174
  H  H61  1  0.851500  0.020700  0.859900  1.0  0.1193
  H  H62  1  0.804300  0.095600  0.885400  1.0  0.1012
  H  H63  1  0.864000  0.097500  0.150500  1.0  0.1012
  H  H64  1  0.915700  0.024100  0.130100  1.0  0.1215
  H  H65  1  0.841400  0.952900  0.521200  1.0  0.1312
  H  H66  1  0.788900  0.028300  0.467200  1.0  0.1237
  H  H67  1  0.851200  0.138300  0.674600  1.0  0.1291
  H  H68  1  0.903800  0.060900  0.729900  1.0  0.1098
  H  H69  1  0.588600  0.324100  0.432200  1.0  0.1113
  H  H70  1  0.525500  0.360100  0.496600  1.0  0.1283
  H  H71  1  0.576200  0.257400  0.717300  1.0  0.1129
  H  H72  1  0.637800  0.222600  0.657600  1.0  0.1402
  H  H73  1  0.394800  0.554800  0.667100  1.0  0.1096
  H  H74  1  0.345700  0.635700  0.668400  1.0  0.1352
  H  H75  1  0.276800  0.533500  0.819100  1.0  0.115
  H  H76  1  0.322400  0.452400  0.805300  1.0  0.1304
  H  H77  1  0.353500  0.519600  0.488200  1.0  0.1156
  H  H78  1  0.308100  0.595800  0.409100  1.0  0.1102
  H  H79  1  0.384600  0.595900  0.223500  1.0  0.1145
  H  H80  1  0.432400  0.523700  0.301400  1.0  0.1294
  H  H81  1  0.912900  0.329800  0.336200  1.0  0.1144
  H  H82  1  0.972300  0.359600  0.452200  1.0  0.1251
  H  H83  1  0.920400  0.258800  0.629800  1.0  0.1301
  H  H84  1  0.857200  0.229500  0.509100  1.0  0.1176
  H  H85  1  0.148500  0.520700  0.640100  1.0  0.1185
  H  H86  1  0.195700  0.595600  0.614600  1.0  0.1006
  H  H87  1  0.136000  0.597500  0.349500  1.0  0.1018
  H  H88  1  0.084300  0.524100  0.369900  1.0  0.121
  H  H89  1  0.158600  0.452900  0.978800  1.0  0.1334
  H  H90  1  0.211100  0.528300  0.032800  1.0  0.1239
  H  H91  1  0.148800  0.638300  0.825400  1.0  0.1289
  H  H92  1  0.096200  0.560900  0.770100  1.0  0.1099
  H  H93  1  0.411400  0.824100  0.067800  1.0  0.1105
  H  H94  1  0.474500  0.860100  0.003400  1.0  0.1282
  H  H95  1  0.423800  0.757400  0.782700  1.0  0.1123
  H  H96  1  0.362200  0.722600  0.842400  1.0  0.1402
  H  H97  1  0.605200  0.054800  0.832900  1.0  0.1087
  H  H98  1  0.654300  0.135700  0.831600  1.0  0.1351
  H  H99  1  0.723200  0.033500  0.680900  1.0  0.1146
  H  H100  1  0.677600  0.952400  0.694700  1.0  0.1297
  H  H101  1  0.646500  0.019600  0.011800  1.0  0.1158
  H  H102  1  0.691900  0.095800  0.090900  1.0  0.1107
  H  H103  1  0.615400  0.095900  0.276500  1.0  0.1133
  H  H104  1  0.567600  0.023700  0.198600  1.0  0.1296
  C  C105  1  0.839100  0.243200  0.830000  1.0  0.6823
  C  C106  1  0.879100  0.224800  0.910600  1.0  -0.1013
  C  C107  1  0.914200  0.184300  0.895300  1.0  -0.0341
  C  C108  1  0.948900  0.165800  0.964300  1.0  -0.1034
  C  C109  1  0.951000  0.184000  0.054000  1.0  0.1622
  C  C110  1  0.917900  0.225800  0.070900  1.0  -0.1551
  C  C111  1  0.880600  0.244700  0.997900  1.0  0.0357
  C  C112  1  0.017800  0.120500  0.143800  1.0  0.3548
  C  C113  1  0.069800  0.063000  0.244000  1.0  0.3337
  C  C114  1  0.062000  0.052100  0.093600  1.0  0.3306
  C  C115  1  0.106700  0.984600  0.011100  1.0  0.2305
  C  C116  1  0.144000  0.963000  0.081400  1.0  -0.1479
  C  C117  1  0.173200  0.919500  0.065100  1.0  -0.0304
  C  C118  1  0.171800  0.895300  0.977400  1.0  -0.0692
  C  C119  1  0.138000  0.917500  0.908400  1.0  -0.0107
  C  C120  1  0.106300  0.961200  0.920600  1.0  -0.153
  C  C121  1  0.205600  0.847700  0.967100  1.0  0.6811
  C  C122  1  0.125100  0.005400  0.359700  1.0  0.1971
  C  C123  1  0.157600  0.011100  0.445600  1.0  -0.1955
  C  C124  1  0.187400  0.964900  0.480300  1.0  -0.0274
  C  C125  1  0.183300  0.906300  0.438300  1.0  -0.0805
  C  C126  1  0.150700  0.898600  0.356800  1.0  -0.0965
  C  C127  1  0.120500  0.946400  0.321400  1.0  -0.1661
  C  C128  1  0.213700  0.855700  0.485000  1.0  0.671
  C  C129  1  0.336900  0.739000  0.498500  1.0  0.6929
  C  C130  1  0.380700  0.726500  0.461300  1.0  -0.1595
  C  C131  1  0.413600  0.688800  0.509800  1.0  -0.0436
  C  C132  1  0.452700  0.668000  0.472300  1.0  -0.0896
  C  C133  1  0.455900  0.692000  0.388200  1.0  0.0228
  C  C134  1  0.421700  0.729700  0.340900  1.0  -0.113
  C  C135  1  0.384100  0.749800  0.374800  1.0  -0.1457
  C  C136  1  0.523300  0.626900  0.367200  1.0  0.4505
  C  C137  1  0.562500  0.556700  0.467600  1.0  0.5386
  C  C138  1  0.580900  0.570000  0.330200  1.0  0.1972
  C  C139  1  0.635600  0.506700  0.266900  1.0  0.2513
  C  C140  1  0.630100  0.450100  0.304400  1.0  -0.1136
  C  C141  1  0.658800  0.400600  0.302400  1.0  -0.1542
  C  C142  1  0.694700  0.406000  0.255500  1.0  -0.0822
  C  C143  1  0.700100  0.462400  0.214000  1.0  -0.0582
  C  C144  1  0.672200  0.510700  0.221100  1.0  -0.207
  C  C145  1  0.600700  0.486800  0.593700  1.0  0.2485
  C  C146  1  0.639300  0.464600  0.564600  1.0  -0.1947
  C  C147  1  0.667000  0.419600  0.613100  1.0  -0.018
  C  C148  1  0.658900  0.396800  0.693700  1.0  -0.1512
  C  C149  1  0.621500  0.419200  0.722400  1.0  -0.0255
  C  C150  1  0.592900  0.462400  0.676000  1.0  -0.1822
  C  C151  1  0.687200  0.343500  0.741700  1.0  0.6981
  C  C152  1  0.722000  0.351200  0.241100  1.0  0.6649
  C  C153  1  0.160900  0.743200  0.670000  1.0  0.6823
  C  C154  1  0.120900  0.724800  0.589400  1.0  -0.1017
  C  C155  1  0.085800  0.684300  0.604700  1.0  -0.0356
  C  C156  1  0.051100  0.665800  0.535700  1.0  -0.1043
  C  C157  1  0.049000  0.684000  0.446000  1.0  0.1649
  C  C158  1  0.082100  0.725800  0.429100  1.0  -0.1554
  C  C159  1  0.119400  0.744700  0.502100  1.0  0.0328
  C  C160  1  0.982200  0.620500  0.356200  1.0  0.354
  C  C161  1  0.930200  0.563000  0.256000  1.0  0.3333
  C  C162  1  0.938000  0.552100  0.406400  1.0  0.3289
  C  C163  1  0.893300  0.484600  0.488900  1.0  0.2253
  C  C164  1  0.856000  0.463000  0.418600  1.0  -0.1477
  C  C165  1  0.826800  0.419500  0.434900  1.0  -0.0314
  C  C166  1  0.828200  0.395300  0.522600  1.0  -0.0696
  C  C167  1  0.862000  0.417500  0.591600  1.0  -0.0133
  C  C168  1  0.893700  0.461200  0.579400  1.0  -0.1518
  C  C169  1  0.794400  0.347700  0.532900  1.0  0.6825
  C  C170  1  0.874900  0.505400  0.140300  1.0  0.197
  C  C171  1  0.842400  0.511100  0.054400  1.0  -0.199
  C  C172  1  0.812600  0.464900  0.019700  1.0  -0.0293
  C  C173  1  0.816700  0.406300  0.061700  1.0  -0.082
  C  C174  1  0.849300  0.398600  0.143200  1.0  -0.0971
  C  C175  1  0.879500  0.446400  0.178600  1.0  -0.1644
  C  C176  1  0.786300  0.355700  0.015000  1.0  0.6684
  C  C177  1  0.663100  0.239000  0.001500  1.0  0.6932
  C  C178  1  0.619300  0.226500  0.038700  1.0  -0.1591
  C  C179  1  0.586400  0.188800  0.990200  1.0  -0.0444
  C  C180  1  0.547300  0.168000  0.027700  1.0  -0.0904
  C  C181  1  0.544100  0.192000  0.111800  1.0  0.0207
  C  C182  1  0.578300  0.229700  0.159100  1.0  -0.1118
  C  C183  1  0.615900  0.249800  0.125200  1.0  -0.1461
  C  C184  1  0.476700  0.126900  0.132800  1.0  0.4498
  C  C185  1  0.437500  0.056700  0.032400  1.0  0.5421
  C  C186  1  0.419100  0.070000  0.169800  1.0  0.1983
  C  C187  1  0.364400  0.006700  0.233100  1.0  0.2516
  C  C188  1  0.369900  0.950100  0.195600  1.0  -0.1152
  C  C189  1  0.341200  0.900600  0.197600  1.0  -0.1549
  C  C190  1  0.305300  0.906000  0.244500  1.0  -0.0825
  C  C191  1  0.299900  0.962400  0.286000  1.0  -0.0576
  C  C192  1  0.327800  0.010700  0.278900  1.0  -0.2054
  C  C193  1  0.399300  0.986800  0.906300  1.0  0.251
  C  C194  1  0.360700  0.964600  0.935400  1.0  -0.1943
  C  C195  1  0.333000  0.919600  0.886900  1.0  -0.0198
  C  C196  1  0.341100  0.896800  0.806300  1.0  -0.1523
  C  C197  1  0.378500  0.919200  0.777600  1.0  -0.0221
  C  C198  1  0.407100  0.962400  0.824000  1.0  -0.184
  C  C199  1  0.312800  0.843500  0.758300  1.0  0.6974
  C  C200  1  0.278000  0.851200  0.258900  1.0  0.6652
  C  C201  1  0.160900  0.756800  0.170000  1.0  0.683
  C  C202  1  0.120900  0.775200  0.089400  1.0  -0.1018
  C  C203  1  0.085800  0.815700  0.104700  1.0  -0.0347
  C  C204  1  0.051100  0.834200  0.035700  1.0  -0.1037
  C  C205  1  0.049000  0.816000  0.946000  1.0  0.1648
  C  C206  1  0.082100  0.774200  0.929100  1.0  -0.1561
  C  C207  1  0.119400  0.755300  0.002100  1.0  0.0315
  C  C208  1  0.982200  0.879500  0.856200  1.0  0.3538
  C  C209  1  0.930200  0.937000  0.756000  1.0  0.3334
  C  C210  1  0.938000  0.947900  0.906400  1.0  0.3288
  C  C211  1  0.893300  0.015400  0.988900  1.0  0.2321
  C  C212  1  0.856000  0.037000  0.918600  1.0  -0.1471
  C  C213  1  0.826800  0.080500  0.934900  1.0  -0.0317
  C  C214  1  0.828200  0.104700  0.022600  1.0  -0.07
  C  C215  1  0.862000  0.082500  0.091600  1.0  -0.0123
  C  C216  1  0.893700  0.038800  0.079400  1.0  -0.154
  C  C217  1  0.794400  0.152300  0.032900  1.0  0.6825
  C  C218  1  0.874900  0.994600  0.640300  1.0  0.1967
  C  C219  1  0.842400  0.988900  0.554400  1.0  -0.199
  C  C220  1  0.812600  0.035100  0.519700  1.0  -0.0292
  C  C221  1  0.816700  0.093700  0.561700  1.0  -0.0819
  C  C222  1  0.849300  0.101400  0.643200  1.0  -0.0976
  C  C223  1  0.879500  0.053600  0.678600  1.0  -0.1643
  C  C224  1  0.786300  0.144300  0.515000  1.0  0.669
  C  C225  1  0.663100  0.261000  0.501500  1.0  0.6924
  C  C226  1  0.619300  0.273500  0.538700  1.0  -0.1611
  C  C227  1  0.586400  0.311200  0.490200  1.0  -0.0437
  C  C228  1  0.547300  0.332000  0.527700  1.0  -0.0914
  C  C229  1  0.544100  0.308000  0.611800  1.0  0.0197
  C  C230  1  0.578300  0.270300  0.659100  1.0  -0.113
  C  C231  1  0.615900  0.250200  0.625200  1.0  -0.1464
  C  C232  1  0.476700  0.373100  0.632800  1.0  0.4499
  C  C233  1  0.437500  0.443300  0.532400  1.0  0.5414
  C  C234  1  0.419100  0.430000  0.669800  1.0  0.1989
  C  C235  1  0.364400  0.493300  0.733100  1.0  0.2497
  C  C236  1  0.369900  0.549900  0.695600  1.0  -0.1153
  C  C237  1  0.341200  0.599400  0.697600  1.0  -0.154
  C  C238  1  0.305300  0.594000  0.744500  1.0  -0.0834
  C  C239  1  0.299900  0.537600  0.786000  1.0  -0.0579
  C  C240  1  0.327800  0.489300  0.778900  1.0  -0.2075
  C  C241  1  0.399300  0.513200  0.406300  1.0  0.2483
  C  C242  1  0.360700  0.535400  0.435400  1.0  -0.1941
  C  C243  1  0.333000  0.580400  0.386900  1.0  -0.0194
  C  C244  1  0.341100  0.603200  0.306300  1.0  -0.1533
  C  C245  1  0.378500  0.580800  0.277600  1.0  -0.0232
  C  C246  1  0.407100  0.537600  0.324000  1.0  -0.1836
  C  C247  1  0.312800  0.656500  0.258300  1.0  0.6976
  C  C248  1  0.278000  0.648800  0.758900  1.0  0.6656
  C  C249  1  0.839100  0.256800  0.330000  1.0  0.6829
  C  C250  1  0.879100  0.275200  0.410600  1.0  -0.1015
  C  C251  1  0.914200  0.315700  0.395300  1.0  -0.0339
  C  C252  1  0.948900  0.334200  0.464300  1.0  -0.103
  C  C253  1  0.951000  0.316000  0.554000  1.0  0.1614
  C  C254  1  0.917900  0.274200  0.570900  1.0  -0.1557
  C  C255  1  0.880600  0.255300  0.497900  1.0  0.0349
  C  C256  1  0.017800  0.379500  0.643800  1.0  0.3549
  C  C257  1  0.069800  0.437000  0.744000  1.0  0.3324
  C  C258  1  0.062000  0.447900  0.593600  1.0  0.3307
  C  C259  1  0.106700  0.515400  0.511100  1.0  0.2243
  C  C260  1  0.144000  0.537000  0.581400  1.0  -0.1472
  C  C261  1  0.173200  0.580500  0.565100  1.0  -0.0314
  C  C262  1  0.171800  0.604700  0.477400  1.0  -0.0683
  C  C263  1  0.138000  0.582500  0.408400  1.0  -0.0116
  C  C264  1  0.106300  0.538800  0.420600  1.0  -0.15
  C  C265  1  0.205600  0.652300  0.467100  1.0  0.6811
  C  C266  1  0.125100  0.494600  0.859700  1.0  0.1968
  C  C267  1  0.157600  0.488900  0.945600  1.0  -0.2006
  C  C268  1  0.187400  0.535100  0.980300  1.0  -0.0288
  C  C269  1  0.183300  0.593700  0.938300  1.0  -0.0805
  C  C270  1  0.150700  0.601400  0.856800  1.0  -0.0973
  C  C271  1  0.120500  0.553600  0.821400  1.0  -0.166
  C  C272  1  0.213700  0.644300  0.985000  1.0  0.6712
  C  C273  1  0.336900  0.761000  0.998500  1.0  0.694
  C  C274  1  0.380700  0.773500  0.961300  1.0  -0.1602
  C  C275  1  0.413600  0.811200  0.009800  1.0  -0.0442
  C  C276  1  0.452700  0.832000  0.972300  1.0  -0.09
  C  C277  1  0.455900  0.808000  0.888200  1.0  0.024
  C  C278  1  0.421700  0.770300  0.840900  1.0  -0.1136
  C  C279  1  0.384100  0.750200  0.874800  1.0  -0.145
  C  C280  1  0.523300  0.873100  0.867200  1.0  0.4495
  C  C281  1  0.562500  0.943300  0.967600  1.0  0.5377
  C  C282  1  0.580900  0.930000  0.830200  1.0  0.1967
  C  C283  1  0.635600  0.993300  0.766900  1.0  0.2505
  C  C284  1  0.630100  0.049900  0.804400  1.0  -0.1139
  C  C285  1  0.658800  0.099400  0.802400  1.0  -0.1529
  C  C286  1  0.694700  0.094000  0.755500  1.0  -0.082
  C  C287  1  0.700100  0.037600  0.714000  1.0  -0.0578
  C  C288  1  0.672200  0.989300  0.721100  1.0  -0.2057
  C  C289  1  0.600700  0.013200  0.093700  1.0  0.2491
  C  C290  1  0.639300  0.035400  0.064600  1.0  -0.1938
  C  C291  1  0.667000  0.080400  0.113100  1.0  -0.0178
  C  C292  1  0.658900  0.103200  0.193700  1.0  -0.1525
  C  C293  1  0.621500  0.080800  0.222400  1.0  -0.0244
  C  C294  1  0.592900  0.037600  0.176000  1.0  -0.1841
  C  C295  1  0.687200  0.156500  0.241700  1.0  0.6983
  C  C296  1  0.722000  0.148800  0.741100  1.0  0.665
  N  N297  1  0.983900  0.165500  0.135400  1.0  -0.3071
  N  N298  1  0.074000  0.028700  0.014800  1.0  -0.3296
  N  N299  1  0.093600  0.050700  0.333800  1.0  -0.421
  N  N300  1  0.039700  0.108900  0.233400  1.0  -0.2848
  N  N301  1  0.085200  0.035400  0.175300  1.0  -0.3681
  N  N302  1  0.028100  0.094300  0.070600  1.0  -0.241
  N  N303  1  0.492200  0.672600  0.343200  1.0  -0.4091
  N  N304  1  0.548500  0.614800  0.301600  1.0  -0.3338
  N  N305  1  0.606800  0.556000  0.264000  1.0  -0.3995
  N  N306  1  0.590000  0.540900  0.410100  1.0  -0.2986
  N  N307  1  0.531300  0.599800  0.449000  1.0  -0.2931
  N  N308  1  0.569700  0.529100  0.550100  1.0  -0.3071
  N  N309  1  0.016100  0.665500  0.364600  1.0  -0.3044
  N  N310  1  0.926000  0.528700  0.485200  1.0  -0.3266
  N  N311  1  0.906400  0.550700  0.166200  1.0  -0.4263
  N  N312  1  0.960300  0.608900  0.266600  1.0  -0.2883
  N  N313  1  0.914800  0.535400  0.324700  1.0  -0.3681
  N  N314  1  0.971900  0.594300  0.429400  1.0  -0.242
  N  N315  1  0.507800  0.172600  0.156800  1.0  -0.4059
  N  N316  1  0.451500  0.114800  0.198400  1.0  -0.3315
  N  N317  1  0.393200  0.056000  0.236000  1.0  -0.3957
  N  N318  1  0.410000  0.040900  0.089900  1.0  -0.2972
  N  N319  1  0.468700  0.099800  0.051000  1.0  -0.2919
  N  N320  1  0.430300  0.029100  0.949900  1.0  -0.3078
  N  N321  1  0.016100  0.834500  0.864600  1.0  -0.3049
  N  N322  1  0.926000  0.971300  0.985200  1.0  -0.329
  N  N323  1  0.906400  0.949300  0.666200  1.0  -0.4242
  N  N324  1  0.960300  0.891100  0.766600  1.0  -0.2855
  N  N325  1  0.914800  0.964600  0.824700  1.0  -0.3671
  N  N326  1  0.971900  0.905700  0.929400  1.0  -0.2424
  N  N327  1  0.507800  0.327400  0.656800  1.0  -0.4068
  N  N328  1  0.451500  0.385200  0.698400  1.0  -0.3318
  N  N329  1  0.393200  0.444000  0.736000  1.0  -0.3992
  N  N330  1  0.410000  0.459100  0.589900  1.0  -0.2956
  N  N331  1  0.468700  0.400200  0.551000  1.0  -0.2924
  N  N332  1  0.430300  0.470900  0.449900  1.0  -0.3091
  N  N333  1  0.983900  0.334500  0.635400  1.0  -0.3073
  N  N334  1  0.074000  0.471300  0.514800  1.0  -0.3278
  N  N335  1  0.093600  0.449300  0.833800  1.0  -0.4235
  N  N336  1  0.039700  0.391100  0.733400  1.0  -0.2855
  N  N337  1  0.085200  0.464600  0.675300  1.0  -0.3674
  N  N338  1  0.028100  0.405700  0.570600  1.0  -0.2437
  N  N339  1  0.492200  0.827400  0.843200  1.0  -0.4082
  N  N340  1  0.548500  0.885200  0.801600  1.0  -0.3329
  N  N341  1  0.606800  0.944000  0.764000  1.0  -0.398
  N  N342  1  0.590000  0.959100  0.910100  1.0  -0.2976
  N  N343  1  0.531300  0.900200  0.949000  1.0  -0.2939
  N  N344  1  0.569700  0.970900  0.050100  1.0  -0.3093
  O  O345  1  0.802200  0.266700  0.841700  1.0  -0.694
  O  O346  1  0.842000  0.229400  0.750400  1.0  -0.6274
  O  O347  1  0.201800  0.826800  0.884100  1.0  -0.6076
  O  O348  1  0.234200  0.823700  0.031400  1.0  -0.6219
  O  O349  1  0.210400  0.804000  0.450200  1.0  -0.6758
  O  O350  1  0.242200  0.866100  0.558000  1.0  -0.6407
  O  O351  1  0.301100  0.766600  0.449200  1.0  -0.7119
  O  O352  1  0.338900  0.721600  0.576800  1.0  -0.5924
  O  O353  1  0.723900  0.323900  0.713200  1.0  -0.6866
  O  O354  1  0.678200  0.326600  0.814100  1.0  -0.6044
  O  O355  1  0.715200  0.300300  0.273600  1.0  -0.6924
  O  O356  1  0.755800  0.357400  0.200200  1.0  -0.6434
  O  O357  1  0.197800  0.766700  0.658300  1.0  -0.6941
  O  O358  1  0.158000  0.729400  0.749600  1.0  -0.6273
  O  O359  1  0.798200  0.326800  0.615900  1.0  -0.6084
  O  O360  1  0.765800  0.323700  0.468600  1.0  -0.6223
  O  O361  1  0.789600  0.304000  0.049800  1.0  -0.676
  O  O362  1  0.757800  0.366100  0.942000  1.0  -0.6416
  O  O363  1  0.698900  0.266600  0.050800  1.0  -0.7113
  O  O364  1  0.661100  0.221600  0.923200  1.0  -0.5939
  O  O365  1  0.276100  0.823900  0.786800  1.0  -0.6874
  O  O366  1  0.321800  0.826600  0.685900  1.0  -0.6025
  O  O367  1  0.284800  0.800300  0.226400  1.0  -0.6916
  O  O368  1  0.244200  0.857400  0.299800  1.0  -0.6426
  O  O369  1  0.197800  0.733300  0.158300  1.0  -0.6949
  O  O370  1  0.158000  0.770600  0.249600  1.0  -0.6272
  O  O371  1  0.798200  0.173200  0.115900  1.0  -0.6075
  O  O372  1  0.765800  0.176300  0.968600  1.0  -0.6221
  O  O373  1  0.789600  0.196000  0.549800  1.0  -0.6764
  O  O374  1  0.757800  0.133900  0.442000  1.0  -0.6416
  O  O375  1  0.698900  0.233400  0.550800  1.0  -0.711
  O  O376  1  0.661100  0.278400  0.423200  1.0  -0.5946
  O  O377  1  0.276100  0.676100  0.286800  1.0  -0.6862
  O  O378  1  0.321800  0.673400  0.185900  1.0  -0.6022
  O  O379  1  0.284800  0.699700  0.726400  1.0  -0.6919
  O  O380  1  0.244200  0.642600  0.799800  1.0  -0.6425
  O  O381  1  0.802200  0.233300  0.341700  1.0  -0.6956
  O  O382  1  0.842000  0.270600  0.250400  1.0  -0.6284
  O  O383  1  0.201800  0.673200  0.384100  1.0  -0.6076
  O  O384  1  0.234200  0.676300  0.531400  1.0  -0.6215
  O  O385  1  0.210400  0.696000  0.950200  1.0  -0.6761
  O  O386  1  0.242200  0.633900  0.058000  1.0  -0.6423
  O  O387  1  0.301100  0.733400  0.949200  1.0  -0.7105
  O  O388  1  0.338900  0.778400  0.076800  1.0  -0.5922
  O  O389  1  0.723900  0.176100  0.213200  1.0  -0.6867
  O  O390  1  0.678200  0.173400  0.314100  1.0  -0.6035
  O  O391  1  0.715200  0.199700  0.773600  1.0  -0.6929
  O  O392  1  0.755800  0.142600  0.700200  1.0  -0.6441
