# generated using pymatgen
data_In2H16C30N5O11
_symmetry_space_group_name_H-M   'P 1'
_cell_length_a   12.36510000
_cell_length_b   12.36510000
_cell_length_c   37.48490000
_cell_angle_alpha   90.00000000
_cell_angle_beta   90.00000000
_cell_angle_gamma   120.00000000
_symmetry_Int_Tables_number   1
_chemical_formula_structural   In2H16C30N5O11
_chemical_formula_sum   'In12 H96 C180 N30 O66'
_cell_volume   4963.43403319
_cell_formula_units_Z   6
loop_
 _symmetry_equiv_pos_site_id
 _symmetry_equiv_pos_as_xyz
  1  'x, y, z'
loop_
 _atom_site_type_symbol
 _atom_site_label
 _atom_site_symmetry_multiplicity
 _atom_site_fract_x
 _atom_site_fract_y
 _atom_site_fract_z
 _atom_site_occupancy
 _atom_site_charge
  In  In1  1  0.550720  0.166620  0.380570  1.0  1.5496
  In  In2  1  0.833380  0.384100  0.047230  1.0  1.5503
  In  In3  1  0.615900  0.449280  0.713900  1.0  1.5503
  In  In4  1  0.449280  0.833380  0.880570  1.0  1.5494
  In  In5  1  0.166620  0.615900  0.547230  1.0  1.5507
  In  In6  1  0.384100  0.550720  0.213900  1.0  1.5507
  In  In7  1  0.166620  0.550720  0.286100  1.0  1.55
  In  In8  1  0.384100  0.833380  0.619430  1.0  1.5493
  In  In9  1  0.449280  0.615900  0.952770  1.0  1.5505
  In  In10  1  0.833380  0.449280  0.786100  1.0  1.5509
  In  In11  1  0.615900  0.166620  0.119430  1.0  1.5492
  In  In12  1  0.550720  0.384100  0.452770  1.0  1.55
  H  H13  1  0.285600  0.798500  0.329000  1.0  0.078
  H  H14  1  0.399100  0.378500  0.276200  1.0  0.0802
  H  H15  1  0.036900  0.852500  0.382800  1.0  0.1101
  H  H16  1  0.932700  0.546500  0.323500  1.0  0.0849
  H  H17  1  0.660100  0.712200  0.246100  1.0  0.092
  H  H18  1  0.733600  0.532400  0.322300  1.0  0.1033
  H  H19  1  0.795800  0.704900  0.286700  1.0  0.0978
  H  H20  1  0.879700  0.655300  0.362200  1.0  0.1147
  H  H21  1  0.201500  0.487100  0.995670  1.0  0.0772
  H  H22  1  0.621500  0.020600  0.942870  1.0  0.0814
  H  H23  1  0.147500  0.184400  0.049470  1.0  0.1111
  H  H24  1  0.453500  0.386200  0.990170  1.0  0.0848
  H  H25  1  0.287800  0.947900  0.912770  1.0  0.0932
  H  H26  1  0.467600  0.201200  0.988970  1.0  0.1032
  H  H27  1  0.295100  0.090900  0.953370  1.0  0.0971
  H  H28  1  0.344700  0.224400  0.028870  1.0  0.115
  H  H29  1  0.512900  0.714400  0.662330  1.0  0.0782
  H  H30  1  0.979400  0.600900  0.609530  1.0  0.0805
  H  H31  1  0.815600  0.963100  0.716130  1.0  0.1104
  H  H32  1  0.613800  0.067300  0.656830  1.0  0.0844
  H  H33  1  0.052100  0.339900  0.579430  1.0  0.0916
  H  H34  1  0.798800  0.266400  0.655630  1.0  0.1034
  H  H35  1  0.909100  0.204200  0.620030  1.0  0.0981
  H  H36  1  0.775600  0.120300  0.695530  1.0  0.1154
  H  H37  1  0.714400  0.201500  0.829000  1.0  0.0775
  H  H38  1  0.600900  0.621500  0.776200  1.0  0.0795
  H  H39  1  0.963100  0.147500  0.882800  1.0  0.1098
  H  H40  1  0.067300  0.453500  0.823500  1.0  0.0852
  H  H41  1  0.339900  0.287800  0.746100  1.0  0.0911
  H  H42  1  0.266400  0.467600  0.822300  1.0  0.1026
  H  H43  1  0.204200  0.295100  0.786700  1.0  0.098
  H  H44  1  0.120300  0.344700  0.862200  1.0  0.1149
  H  H45  1  0.798500  0.512900  0.495670  1.0  0.0773
  H  H46  1  0.378500  0.979400  0.442870  1.0  0.0818
  H  H47  1  0.852500  0.815600  0.549470  1.0  0.1113
  H  H48  1  0.546500  0.613800  0.490170  1.0  0.0846
  H  H49  1  0.712200  0.052100  0.412770  1.0  0.093
  H  H50  1  0.532400  0.798800  0.488970  1.0  0.1033
  H  H51  1  0.704900  0.909100  0.453370  1.0  0.0963
  H  H52  1  0.655300  0.775600  0.528870  1.0  0.1146
  H  H53  1  0.487100  0.285600  0.162330  1.0  0.0776
  H  H54  1  0.020600  0.399100  0.109530  1.0  0.0809
  H  H55  1  0.184400  0.036900  0.216130  1.0  0.1103
  H  H56  1  0.386200  0.932700  0.156830  1.0  0.0846
  H  H57  1  0.947900  0.660100  0.079430  1.0  0.092
  H  H58  1  0.201200  0.733600  0.155630  1.0  0.1034
  H  H59  1  0.090900  0.795800  0.120030  1.0  0.0975
  H  H60  1  0.224400  0.879700  0.195530  1.0  0.1158
  H  H61  1  0.798500  0.285600  0.337670  1.0  0.0782
  H  H62  1  0.378500  0.399100  0.390470  1.0  0.0809
  H  H63  1  0.852500  0.036900  0.283870  1.0  0.1103
  H  H64  1  0.546500  0.932700  0.343170  1.0  0.0846
  H  H65  1  0.712200  0.660100  0.420570  1.0  0.0926
  H  H66  1  0.532400  0.733600  0.344370  1.0  0.1037
  H  H67  1  0.704900  0.795800  0.379970  1.0  0.0973
  H  H68  1  0.655300  0.879700  0.304470  1.0  0.1161
  H  H69  1  0.487100  0.201500  0.671000  1.0  0.078
  H  H70  1  0.020600  0.621500  0.723800  1.0  0.0793
  H  H71  1  0.184400  0.147500  0.617200  1.0  0.1093
  H  H72  1  0.386200  0.453500  0.676500  1.0  0.0851
  H  H73  1  0.947900  0.287800  0.753900  1.0  0.092
  H  H74  1  0.201200  0.467600  0.677700  1.0  0.1031
  H  H75  1  0.090900  0.295100  0.713300  1.0  0.0982
  H  H76  1  0.224400  0.344700  0.637800  1.0  0.1147
  H  H77  1  0.714400  0.512900  0.004330  1.0  0.0772
  H  H78  1  0.600900  0.979400  0.057130  1.0  0.081
  H  H79  1  0.963100  0.815600  0.950530  1.0  0.1113
  H  H80  1  0.067300  0.613800  0.009830  1.0  0.085
  H  H81  1  0.339900  0.052100  0.087230  1.0  0.0939
  H  H82  1  0.266400  0.798800  0.011030  1.0  0.1035
  H  H83  1  0.204200  0.909100  0.046630  1.0  0.0974
  H  H84  1  0.120300  0.775600  0.971130  1.0  0.1151
  H  H85  1  0.201500  0.714400  0.837670  1.0  0.0779
  H  H86  1  0.621500  0.600900  0.890470  1.0  0.0804
  H  H87  1  0.147500  0.963100  0.783870  1.0  0.11
  H  H88  1  0.453500  0.067300  0.843170  1.0  0.0842
  H  H89  1  0.287800  0.339900  0.920570  1.0  0.0922
  H  H90  1  0.467600  0.266400  0.844370  1.0  0.1038
  H  H91  1  0.295100  0.204200  0.879970  1.0  0.0976
  H  H92  1  0.344700  0.120300  0.804470  1.0  0.1159
  H  H93  1  0.512900  0.798500  0.171000  1.0  0.0777
  H  H94  1  0.979400  0.378500  0.223800  1.0  0.0799
  H  H95  1  0.815600  0.852500  0.117200  1.0  0.1101
  H  H96  1  0.613800  0.546500  0.176500  1.0  0.0851
  H  H97  1  0.052100  0.712200  0.253900  1.0  0.092
  H  H98  1  0.798800  0.532400  0.177700  1.0  0.1029
  H  H99  1  0.909100  0.704900  0.213300  1.0  0.098
  H  H100  1  0.775600  0.655300  0.137800  1.0  0.1152
  H  H101  1  0.285600  0.487100  0.504330  1.0  0.0769
  H  H102  1  0.399100  0.020600  0.557130  1.0  0.0821
  H  H103  1  0.036900  0.184400  0.450530  1.0  0.1103
  H  H104  1  0.932700  0.386200  0.509830  1.0  0.0845
  H  H105  1  0.660100  0.947900  0.587230  1.0  0.0933
  H  H106  1  0.733600  0.201200  0.511030  1.0  0.1037
  H  H107  1  0.795800  0.090900  0.546630  1.0  0.0958
  H  H108  1  0.879700  0.224400  0.471130  1.0  0.1146
  C  C109  1  0.123600  0.647400  0.431400  1.0  0.0478
  C  C110  1  0.203200  0.771800  0.335100  1.0  0.1862
  C  C111  1  0.480400  0.445100  0.278200  1.0  0.1722
  C  C112  1  0.557600  0.436600  0.303100  1.0  -0.2103
  C  C113  1  0.056900  0.805100  0.367800  1.0  -0.0039
  C  C114  1  0.507600  0.322400  0.327900  1.0  0.6734
  C  C115  1  0.995100  0.622400  0.332400  1.0  0.1559
  C  C116  1  0.633700  0.641700  0.260300  1.0  0.1462
  C  C117  1  0.678300  0.535400  0.306100  1.0  -0.0272
  C  C118  1  0.715100  0.637500  0.284700  1.0  -0.0921
  C  C119  1  0.282400  0.969800  0.372100  1.0  0.6761
  C  C120  1  0.962300  0.687500  0.355200  1.0  -0.1576
  C  C121  1  0.995500  0.410200  0.401700  1.0  0.0122
  C  C122  1  0.177800  0.847900  0.357700  1.0  -0.1535
  C  C123  1  0.352600  0.476200  0.098070  1.0  0.0507
  C  C124  1  0.228200  0.431400  0.001770  1.0  0.1883
  C  C125  1  0.554900  0.035300  0.944870  1.0  0.1702
  C  C126  1  0.563400  0.121000  0.969770  1.0  -0.2146
  C  C127  1  0.194900  0.251800  0.034470  1.0  -0.0064
  C  C128  1  0.677600  0.185200  0.994570  1.0  0.6696
  C  C129  1  0.377600  0.372700  0.999070  1.0  0.1548
  C  C130  1  0.358300  0.992000  0.926970  1.0  0.1464
  C  C131  1  0.464600  0.142900  0.972770  1.0  -0.023
  C  C132  1  0.362500  0.077600  0.951370  1.0  -0.0966
  C  C133  1  0.030200  0.312600  0.038770  1.0  0.679
  C  C134  1  0.312500  0.274800  0.021870  1.0  -0.1549
  C  C135  1  0.589800  0.585300  0.068370  1.0  0.0134
  C  C136  1  0.152100  0.329900  0.024370  1.0  -0.1562
  C  C137  1  0.523800  0.876400  0.764730  1.0  0.0512
  C  C138  1  0.568600  0.796800  0.668430  1.0  0.1877
  C  C139  1  0.964700  0.519600  0.611530  1.0  0.171
  C  C140  1  0.879000  0.442400  0.636430  1.0  -0.2152
  C  C141  1  0.748200  0.943100  0.701130  1.0  -0.0023
  C  C142  1  0.814800  0.492400  0.661230  1.0  0.6725
  C  C143  1  0.627300  0.004900  0.665730  1.0  0.1555
  C  C144  1  0.008000  0.366300  0.593630  1.0  0.1456
  C  C145  1  0.857100  0.321700  0.639430  1.0  -0.0252
  C  C146  1  0.922400  0.284900  0.618030  1.0  -0.0955
  C  C147  1  0.687400  0.717600  0.705430  1.0  0.6744
  C  C148  1  0.725200  0.037700  0.688530  1.0  -0.1531
  C  C149  1  0.414700  0.004500  0.735030  1.0  0.0127
  C  C150  1  0.670100  0.822200  0.691030  1.0  -0.1543
  C  C151  1  0.876400  0.352600  0.931400  1.0  0.0463
  C  C152  1  0.796800  0.228200  0.835100  1.0  0.1875
  C  C153  1  0.519600  0.554900  0.778200  1.0  0.1724
  C  C154  1  0.442400  0.563400  0.803100  1.0  -0.2111
  C  C155  1  0.943100  0.194900  0.867800  1.0  -0.0061
  C  C156  1  0.492400  0.677600  0.827900  1.0  0.6729
  C  C157  1  0.004900  0.377600  0.832400  1.0  0.1567
  C  C158  1  0.366300  0.358300  0.760300  1.0  0.1458
  C  C159  1  0.321700  0.464600  0.806100  1.0  -0.0265
  C  C160  1  0.284900  0.362500  0.784700  1.0  -0.0939
  C  C161  1  0.717600  0.030200  0.872100  1.0  0.6774
  C  C162  1  0.037700  0.312500  0.855200  1.0  -0.1559
  C  C163  1  0.004500  0.589800  0.901700  1.0  0.0139
  C  C164  1  0.822200  0.152100  0.857700  1.0  -0.1537
  C  C165  1  0.647400  0.523800  0.598070  1.0  0.0503
  C  C166  1  0.771800  0.568600  0.501770  1.0  0.1875
  C  C167  1  0.445100  0.964700  0.444870  1.0  0.1704
  C  C168  1  0.436600  0.879000  0.469770  1.0  -0.2148
  C  C169  1  0.805100  0.748200  0.534470  1.0  -0.0059
  C  C170  1  0.322400  0.814800  0.494570  1.0  0.67
  C  C171  1  0.622400  0.627300  0.499070  1.0  0.1557
  C  C172  1  0.641700  0.008000  0.426970  1.0  0.1472
  C  C173  1  0.535400  0.857100  0.472770  1.0  -0.0255
  C  C174  1  0.637500  0.922400  0.451370  1.0  -0.0972
  C  C175  1  0.969800  0.687400  0.538770  1.0  0.6799
  C  C176  1  0.687500  0.725200  0.521870  1.0  -0.1531
  C  C177  1  0.410200  0.414700  0.568370  1.0  0.0121
  C  C178  1  0.847900  0.670100  0.524370  1.0  -0.1552
  C  C179  1  0.476200  0.123600  0.264730  1.0  0.0521
  C  C180  1  0.431400  0.203200  0.168430  1.0  0.1885
  C  C181  1  0.035300  0.480400  0.111530  1.0  0.1713
  C  C182  1  0.121000  0.557600  0.136430  1.0  -0.2147
  C  C183  1  0.251800  0.056900  0.201130  1.0  -0.0018
  C  C184  1  0.185200  0.507600  0.161230  1.0  0.6713
  C  C185  1  0.372700  0.995100  0.165730  1.0  0.1546
  C  C186  1  0.992000  0.633700  0.093630  1.0  0.1454
  C  C187  1  0.142900  0.678300  0.139430  1.0  -0.0262
  C  C188  1  0.077600  0.715100  0.118030  1.0  -0.0925
  C  C189  1  0.312600  0.282400  0.205430  1.0  0.6755
  C  C190  1  0.274800  0.962300  0.188530  1.0  -0.1545
  C  C191  1  0.585300  0.995500  0.235030  1.0  0.0142
  C  C192  1  0.329900  0.177800  0.191030  1.0  -0.1525
  C  C193  1  0.771800  0.203200  0.331570  1.0  0.1877
  C  C194  1  0.445100  0.480400  0.388470  1.0  0.1709
  C  C195  1  0.436600  0.557600  0.363570  1.0  -0.2155
  C  C196  1  0.805100  0.056900  0.298870  1.0  -0.002
  C  C197  1  0.322400  0.507600  0.338770  1.0  0.6727
  C  C198  1  0.622400  0.995100  0.334270  1.0  0.1556
  C  C199  1  0.641700  0.633700  0.406370  1.0  0.146
  C  C200  1  0.535400  0.678300  0.360570  1.0  -0.025
  C  C201  1  0.637500  0.715100  0.381970  1.0  -0.0932
  C  C202  1  0.969800  0.282400  0.294570  1.0  0.6742
  C  C203  1  0.687500  0.962300  0.311470  1.0  -0.153
  C  C204  1  0.410200  0.995500  0.264970  1.0  0.0335
  C  C205  1  0.847900  0.177800  0.308970  1.0  -0.1538
  C  C206  1  0.431400  0.228200  0.664900  1.0  0.1859
  C  C207  1  0.035300  0.554900  0.721800  1.0  0.1718
  C  C208  1  0.121000  0.563400  0.696900  1.0  -0.2114
  C  C209  1  0.251800  0.194900  0.632200  1.0  -0.0044
  C  C210  1  0.185200  0.677600  0.672100  1.0  0.6736
  C  C211  1  0.372700  0.377600  0.667600  1.0  0.1563
  C  C212  1  0.992000  0.358300  0.739700  1.0  0.146
  C  C213  1  0.142900  0.464600  0.693900  1.0  -0.027
  C  C214  1  0.077600  0.362500  0.715300  1.0  -0.0938
  C  C215  1  0.312600  0.030200  0.627900  1.0  0.6757
  C  C216  1  0.274800  0.312500  0.644800  1.0  -0.1571
  C  C217  1  0.585300  0.589800  0.598300  1.0  0.0325
  C  C218  1  0.329900  0.152100  0.642300  1.0  -0.1537
  C  C219  1  0.796800  0.568600  0.998230  1.0  0.188
  C  C220  1  0.519600  0.964700  0.055130  1.0  0.1696
  C  C221  1  0.442400  0.879000  0.030230  1.0  -0.2135
  C  C222  1  0.943100  0.748200  0.965530  1.0  -0.0066
  C  C223  1  0.492400  0.814800  0.005430  1.0  0.6692
  C  C224  1  0.004900  0.627300  0.000930  1.0  0.1543
  C  C225  1  0.366300  0.008000  0.073030  1.0  0.1464
  C  C226  1  0.321700  0.857100  0.027230  1.0  -0.0225
  C  C227  1  0.284900  0.922400  0.048630  1.0  -0.0964
  C  C228  1  0.717600  0.687400  0.961230  1.0  0.6785
  C  C229  1  0.037700  0.725200  0.978130  1.0  -0.154
  C  C230  1  0.004500  0.414700  0.931630  1.0  0.0319
  C  C231  1  0.822200  0.670100  0.975630  1.0  -0.155
  C  C232  1  0.228200  0.796800  0.831570  1.0  0.1887
  C  C233  1  0.554900  0.519600  0.888470  1.0  0.1708
  C  C234  1  0.563400  0.442400  0.863570  1.0  -0.2156
  C  C235  1  0.194900  0.943100  0.798870  1.0  -0.0026
  C  C236  1  0.677600  0.492400  0.838770  1.0  0.6703
  C  C237  1  0.377600  0.004900  0.834270  1.0  0.1544
  C  C238  1  0.358300  0.366300  0.906370  1.0  0.1454
  C  C239  1  0.464600  0.321700  0.860570  1.0  -0.0263
  C  C240  1  0.362500  0.284900  0.881970  1.0  -0.0949
  C  C241  1  0.030200  0.717600  0.794570  1.0  0.6743
  C  C242  1  0.312500  0.037700  0.811470  1.0  -0.1543
  C  C243  1  0.589800  0.004500  0.764970  1.0  0.0324
  C  C244  1  0.152100  0.822200  0.808970  1.0  -0.1532
  C  C245  1  0.568600  0.771800  0.164900  1.0  0.1874
  C  C246  1  0.964700  0.445100  0.221800  1.0  0.1713
  C  C247  1  0.879000  0.436600  0.196900  1.0  -0.2105
  C  C248  1  0.748200  0.805100  0.132200  1.0  -0.0057
  C  C249  1  0.814800  0.322400  0.172100  1.0  0.6729
  C  C250  1  0.627300  0.622400  0.167600  1.0  0.1555
  C  C251  1  0.008000  0.641700  0.239700  1.0  0.146
  C  C252  1  0.857100  0.535400  0.193900  1.0  -0.0262
  C  C253  1  0.922400  0.637500  0.215300  1.0  -0.0921
  C  C254  1  0.687400  0.969800  0.127900  1.0  0.6756
  C  C255  1  0.725200  0.687500  0.144800  1.0  -0.1565
  C  C256  1  0.414700  0.410200  0.098300  1.0  0.0311
  C  C257  1  0.670100  0.847900  0.142300  1.0  -0.1532
  C  C258  1  0.203200  0.431400  0.498230  1.0  0.1876
  C  C259  1  0.480400  0.035300  0.555130  1.0  0.1703
  C  C260  1  0.557600  0.121000  0.530230  1.0  -0.2154
  C  C261  1  0.056900  0.251800  0.465530  1.0  -0.0074
  C  C262  1  0.507600  0.185200  0.505430  1.0  0.6698
  C  C263  1  0.995100  0.372700  0.500930  1.0  0.1558
  C  C264  1  0.633700  0.992000  0.573030  1.0  0.1474
  C  C265  1  0.678300  0.142900  0.527230  1.0  -0.0251
  C  C266  1  0.715100  0.077600  0.548630  1.0  -0.0971
  C  C267  1  0.282400  0.312600  0.461230  1.0  0.679
  C  C268  1  0.962300  0.274800  0.478130  1.0  -0.1535
  C  C269  1  0.995500  0.585300  0.431630  1.0  0.0333
  C  C270  1  0.177800  0.329900  0.475630  1.0  -0.1543
  C  C271  1  0.791600  0.395800  0.416670  1.0  0.6832
  C  C272  1  0.187600  0.593800  0.416670  1.0  0.0484
  C  C273  1  0.930200  0.465100  0.416670  1.0  -0.0277
  C  C274  1  0.604200  0.395800  0.083330  1.0  0.683
  C  C275  1  0.406200  0.593800  0.083330  1.0  0.0477
  C  C276  1  0.534900  0.465100  0.083330  1.0  -0.0282
  C  C277  1  0.604200  0.208400  0.750000  1.0  0.6859
  C  C278  1  0.406200  0.812400  0.750000  1.0  0.0469
  C  C279  1  0.534900  0.069800  0.750000  1.0  -0.0284
  C  C280  1  0.208400  0.604200  0.916670  1.0  0.683
  C  C281  1  0.812400  0.406200  0.916670  1.0  0.0473
  C  C282  1  0.069800  0.534900  0.916670  1.0  -0.0276
  C  C283  1  0.395800  0.604200  0.583330  1.0  0.6832
  C  C284  1  0.593800  0.406200  0.583330  1.0  0.0488
  C  C285  1  0.465100  0.534900  0.583330  1.0  -0.0282
  C  C286  1  0.395800  0.791600  0.250000  1.0  0.6856
  C  C287  1  0.593800  0.187600  0.250000  1.0  0.0464
  C  C288  1  0.465100  0.930200  0.250000  1.0  -0.0289
  N  N289  1  0.515800  0.544300  0.256720  1.0  -0.3508
  N  N290  1  0.123600  0.476200  0.402000  1.0  -0.3985
  N  N291  1  0.113800  0.663900  0.322470  1.0  -0.3035
  N  N292  1  0.455700  0.971500  0.923390  1.0  -0.353
  N  N293  1  0.523800  0.647400  0.068670  1.0  -0.4002
  N  N294  1  0.336100  0.449900  0.989140  1.0  -0.3053
  N  N295  1  0.028500  0.484200  0.590050  1.0  -0.352
  N  N296  1  0.352600  0.876400  0.735330  1.0  -0.3975
  N  N297  1  0.550100  0.886200  0.655800  1.0  -0.3056
  N  N298  1  0.484200  0.455700  0.756720  1.0  -0.3501
  N  N299  1  0.876400  0.523800  0.902000  1.0  -0.3961
  N  N300  1  0.886200  0.336100  0.822470  1.0  -0.304
  N  N301  1  0.544300  0.028500  0.423390  1.0  -0.3522
  N  N302  1  0.476200  0.352600  0.568670  1.0  -0.402
  N  N303  1  0.663900  0.550100  0.489140  1.0  -0.3054
  N  N304  1  0.971500  0.515800  0.090050  1.0  -0.352
  N  N305  1  0.647400  0.123600  0.235330  1.0  -0.3975
  N  N306  1  0.449900  0.113800  0.155800  1.0  -0.304
  N  N307  1  0.544300  0.515800  0.409950  1.0  -0.3516
  N  N308  1  0.663900  0.113800  0.344200  1.0  -0.3068
  N  N309  1  0.971500  0.455700  0.743280  1.0  -0.3512
  N  N310  1  0.449900  0.336100  0.677530  1.0  -0.3048
  N  N311  1  0.484200  0.028500  0.076610  1.0  -0.3522
  N  N312  1  0.886200  0.550100  0.010860  1.0  -0.3056
  N  N313  1  0.455700  0.484200  0.909950  1.0  -0.3523
  N  N314  1  0.336100  0.886200  0.844200  1.0  -0.3053
  N  N315  1  0.028500  0.544300  0.243280  1.0  -0.3505
  N  N316  1  0.550100  0.663900  0.177530  1.0  -0.3057
  N  N317  1  0.515800  0.971500  0.576610  1.0  -0.3527
  N  N318  1  0.113800  0.449900  0.510860  1.0  -0.3078
  O  O319  1  0.596300  0.311300  0.343110  1.0  -0.5938
  O  O320  1  0.390900  0.003300  0.359810  1.0  -0.5998
  O  O321  1  0.397300  0.253300  0.332680  1.0  -0.5225
  O  O322  1  0.257300  0.027500  0.394100  1.0  -0.5648
  O  O323  1  0.736900  0.286700  0.403490  1.0  -0.6315
  O  O324  1  0.688700  0.285000  0.009780  1.0  -0.5966
  O  O325  1  0.996700  0.387600  0.026480  1.0  -0.5988
  O  O326  1  0.746700  0.144000  0.999350  1.0  -0.5275
  O  O327  1  0.972500  0.229800  0.060770  1.0  -0.5639
  O  O328  1  0.713300  0.450200  0.070160  1.0  -0.6306
  O  O329  1  0.715000  0.403700  0.676440  1.0  -0.5952
  O  O330  1  0.612400  0.609100  0.693140  1.0  -0.5994
  O  O331  1  0.856000  0.602700  0.666010  1.0  -0.5241
  O  O332  1  0.770200  0.742700  0.727430  1.0  -0.5666
  O  O333  1  0.549800  0.263100  0.736820  1.0  -0.6323
  O  O334  1  0.403700  0.688700  0.843110  1.0  -0.5944
  O  O335  1  0.609100  0.996700  0.859810  1.0  -0.5985
  O  O336  1  0.602700  0.746700  0.832680  1.0  -0.5241
  O  O337  1  0.742700  0.972500  0.894100  1.0  -0.5675
  O  O338  1  0.263100  0.713300  0.903490  1.0  -0.6331
  O  O339  1  0.311300  0.715000  0.509780  1.0  -0.5976
  O  O340  1  0.003300  0.612400  0.526480  1.0  -0.5983
  O  O341  1  0.253300  0.856000  0.499350  1.0  -0.5271
  O  O342  1  0.027500  0.770200  0.560770  1.0  -0.5637
  O  O343  1  0.286700  0.549800  0.570160  1.0  -0.6311
  O  O344  1  0.285000  0.596300  0.176440  1.0  -0.5951
  O  O345  1  0.387600  0.390900  0.193140  1.0  -0.6007
  O  O346  1  0.144000  0.397300  0.166010  1.0  -0.5219
  O  O347  1  0.229800  0.257300  0.227430  1.0  -0.5645
  O  O348  1  0.450200  0.736900  0.236820  1.0  -0.6306
  O  O349  1  0.311300  0.596300  0.323560  1.0  -0.5946
  O  O350  1  0.003300  0.390900  0.306860  1.0  -0.6003
  O  O351  1  0.253300  0.397300  0.333990  1.0  -0.5225
  O  O352  1  0.027500  0.257300  0.272570  1.0  -0.5658
  O  O353  1  0.286700  0.736900  0.263180  1.0  -0.6325
  O  O354  1  0.285000  0.688700  0.656890  1.0  -0.5941
  O  O355  1  0.387600  0.996700  0.640190  1.0  -0.5997
  O  O356  1  0.144000  0.746700  0.667320  1.0  -0.5237
  O  O357  1  0.229800  0.972500  0.605900  1.0  -0.563
  O  O358  1  0.450200  0.713300  0.596510  1.0  -0.6318
  O  O359  1  0.403700  0.715000  0.990220  1.0  -0.5975
  O  O360  1  0.609100  0.612400  0.973520  1.0  -0.5976
  O  O361  1  0.602700  0.856000  0.000650  1.0  -0.5279
  O  O362  1  0.742700  0.770200  0.939230  1.0  -0.5625
  O  O363  1  0.263100  0.549800  0.929840  1.0  -0.6306
  O  O364  1  0.688700  0.403700  0.823560  1.0  -0.5956
  O  O365  1  0.996700  0.609100  0.806860  1.0  -0.5998
  O  O366  1  0.746700  0.602700  0.833990  1.0  -0.5241
  O  O367  1  0.972500  0.742700  0.772570  1.0  -0.5623
  O  O368  1  0.713300  0.263100  0.763180  1.0  -0.6306
  O  O369  1  0.715000  0.311300  0.156890  1.0  -0.5943
  O  O370  1  0.612400  0.003300  0.140190  1.0  -0.5978
  O  O371  1  0.856000  0.253300  0.167320  1.0  -0.5235
  O  O372  1  0.770200  0.027500  0.105900  1.0  -0.5668
  O  O373  1  0.549800  0.286700  0.096510  1.0  -0.6325
  O  O374  1  0.596300  0.285000  0.490220  1.0  -0.5968
  O  O375  1  0.390900  0.387600  0.473520  1.0  -0.5981
  O  O376  1  0.397300  0.144000  0.500650  1.0  -0.5281
  O  O377  1  0.257300  0.229800  0.439230  1.0  -0.5642
  O  O378  1  0.736900  0.450200  0.429840  1.0  -0.631
  O  O379  1  0.475100  0.237550  0.416670  1.0  -0.6017
  O  O380  1  0.762450  0.237550  0.083330  1.0  -0.6009
  O  O381  1  0.762450  0.524900  0.750000  1.0  -0.6012
  O  O382  1  0.524900  0.762450  0.916670  1.0  -0.6006
  O  O383  1  0.237550  0.762450  0.583330  1.0  -0.6014
  O  O384  1  0.237550  0.475100  0.250000  1.0  -0.6014
