# generated using pymatgen
data_In2H13(C11O5)3
_symmetry_space_group_name_H-M   'P 1'
_cell_length_a   24.72730000
_cell_length_b   24.72730000
_cell_length_c   14.38120000
_cell_angle_alpha   90.00000000
_cell_angle_beta   90.00000000
_cell_angle_gamma   120.00000000
_symmetry_Int_Tables_number   1
_chemical_formula_structural   In2H13(C11O5)3
_chemical_formula_sum   'In12 H78 C198 O90'
_cell_volume   7615.16212026
_cell_formula_units_Z   6
loop_
 _symmetry_equiv_pos_site_id
 _symmetry_equiv_pos_as_xyz
  1  'x, y, z'
loop_
 _atom_site_type_symbol
 _atom_site_label
 _atom_site_symmetry_multiplicity
 _atom_site_fract_x
 _atom_site_fract_y
 _atom_site_fract_z
 _atom_site_occupancy
 _atom_site_charge
  In  In1  1  0.670220  0.561060  0.387170  1.0  1.5787
  In  In2  1  0.329740  0.440720  0.885410  1.0  1.5855
  In  In3  1  0.438940  0.109160  0.387170  1.0  1.5785
  In  In4  1  0.559280  0.889020  0.885410  1.0  1.5857
  In  In5  1  0.890840  0.329780  0.387170  1.0  1.5787
  In  In6  1  0.110980  0.670260  0.885410  1.0  1.5857
  In  In7  1  0.329780  0.438940  0.612830  1.0  1.5787
  In  In8  1  0.670260  0.559280  0.114590  1.0  1.5848
  In  In9  1  0.561060  0.890840  0.612830  1.0  1.5787
  In  In10  1  0.440720  0.110980  0.114590  1.0  1.585
  In  In11  1  0.109160  0.670220  0.612830  1.0  1.5785
  In  In12  1  0.889020  0.329740  0.114590  1.0  1.5851
  H  H13  1  0.953300  0.833900  0.322300  1.0  0.1343
  H  H14  1  0.469200  0.508600  0.109300  1.0  0.1321
  H  H15  1  0.878300  0.730100  0.337100  1.0  0.1384
  H  H16  1  0.489000  0.514000  0.385100  1.0  0.1333
  H  H17  1  0.763600  0.779100  0.460100  1.0  0.1339
  H  H18  1  0.130900  0.264300  0.965500  1.0  0.1273
  H  H19  1  0.839300  0.881900  0.452000  1.0  0.124
  H  H20  1  0.319400  0.452900  0.274000  1.0  0.1352
  H  H21  1  0.028800  0.923800  0.374100  1.0  0.1356
  H  H22  1  0.241900  0.223100  0.817400  1.0  0.1427
  H  H23  1  0.050800  0.161500  0.956900  1.0  0.1302
  H  H24  1  0.162500  0.120700  0.808800  1.0  0.1319
  H  H25  1  0.974400  0.078200  0.874700  1.0  0.1291
  H  H26  1  0.166100  0.119400  0.322300  1.0  0.1344
  H  H27  1  0.491400  0.960600  0.109300  1.0  0.132
  H  H28  1  0.269900  0.148200  0.337100  1.0  0.1398
  H  H29  1  0.486000  0.975000  0.385100  1.0  0.1328
  H  H30  1  0.220900  0.984500  0.460100  1.0  0.133
  H  H31  1  0.735700  0.866600  0.965500  1.0  0.1273
  H  H32  1  0.118100  0.957400  0.452000  1.0  0.125
  H  H33  1  0.547100  0.866500  0.274000  1.0  0.1355
  H  H34  1  0.076200  0.105000  0.374100  1.0  0.1358
  H  H35  1  0.776900  0.018800  0.817400  1.0  0.144
  H  H36  1  0.838500  0.889300  0.956900  1.0  0.1271
  H  H37  1  0.879300  0.041800  0.808800  1.0  0.1319
  H  H38  1  0.921800  0.896200  0.874700  1.0  0.129
  H  H39  1  0.880600  0.046700  0.322300  1.0  0.1344
  H  H40  1  0.039400  0.530800  0.109300  1.0  0.1318
  H  H41  1  0.851800  0.121700  0.337100  1.0  0.1384
  H  H42  1  0.025000  0.511000  0.385100  1.0  0.1324
  H  H43  1  0.015500  0.236400  0.460100  1.0  0.1328
  H  H44  1  0.133400  0.869100  0.965500  1.0  0.1271
  H  H45  1  0.042600  0.160700  0.452000  1.0  0.1239
  H  H46  1  0.133500  0.680600  0.274000  1.0  0.1365
  H  H47  1  0.895000  0.971200  0.374100  1.0  0.1363
  H  H48  1  0.981200  0.758100  0.817400  1.0  0.1439
  H  H49  1  0.110700  0.949200  0.956900  1.0  0.1289
  H  H50  1  0.958200  0.837500  0.808800  1.0  0.1326
  H  H51  1  0.103800  0.025600  0.874700  1.0  0.1298
  H  H52  1  0.046700  0.166100  0.677700  1.0  0.1342
  H  H53  1  0.530800  0.491400  0.890700  1.0  0.1321
  H  H54  1  0.121700  0.269900  0.662900  1.0  0.1388
  H  H55  1  0.511000  0.486000  0.614900  1.0  0.132
  H  H56  1  0.236400  0.220900  0.539900  1.0  0.1337
  H  H57  1  0.869100  0.735700  0.034500  1.0  0.127
  H  H58  1  0.160700  0.118100  0.548000  1.0  0.125
  H  H59  1  0.680600  0.547100  0.726000  1.0  0.1354
  H  H60  1  0.971200  0.076200  0.625900  1.0  0.1352
  H  H61  1  0.758100  0.776900  0.182600  1.0  0.1425
  H  H62  1  0.949200  0.838500  0.043100  1.0  0.13
  H  H63  1  0.837500  0.879300  0.191200  1.0  0.1313
  H  H64  1  0.025600  0.921800  0.125300  1.0  0.1295
  H  H65  1  0.833900  0.880600  0.677700  1.0  0.1339
  H  H66  1  0.508600  0.039400  0.890700  1.0  0.1322
  H  H67  1  0.730100  0.851800  0.662900  1.0  0.1388
  H  H68  1  0.514000  0.025000  0.614900  1.0  0.1318
  H  H69  1  0.779100  0.015500  0.539900  1.0  0.1337
  H  H70  1  0.264300  0.133400  0.034500  1.0  0.1275
  H  H71  1  0.881900  0.042600  0.548000  1.0  0.1239
  H  H72  1  0.452900  0.133500  0.726000  1.0  0.1357
  H  H73  1  0.923800  0.895000  0.625900  1.0  0.1356
  H  H74  1  0.223100  0.981200  0.182600  1.0  0.1436
  H  H75  1  0.161500  0.110700  0.043100  1.0  0.1288
  H  H76  1  0.120700  0.958200  0.191200  1.0  0.1319
  H  H77  1  0.078200  0.103800  0.125300  1.0  0.129
  H  H78  1  0.119400  0.953300  0.677700  1.0  0.1348
  H  H79  1  0.960600  0.469200  0.890700  1.0  0.1315
  H  H80  1  0.148200  0.878300  0.662900  1.0  0.1377
  H  H81  1  0.975000  0.489000  0.614900  1.0  0.1308
  H  H82  1  0.984500  0.763600  0.539900  1.0  0.132
  H  H83  1  0.866600  0.130900  0.034500  1.0  0.1277
  H  H84  1  0.957400  0.839300  0.548000  1.0  0.1245
  H  H85  1  0.866500  0.319400  0.726000  1.0  0.137
  H  H86  1  0.105000  0.028800  0.625900  1.0  0.1375
  H  H87  1  0.018800  0.241900  0.182600  1.0  0.1437
  H  H88  1  0.889300  0.050800  0.043100  1.0  0.1299
  H  H89  1  0.041800  0.162500  0.191200  1.0  0.1325
  H  H90  1  0.896200  0.974400  0.125300  1.0  0.1309
  C  C91  1  0.398900  0.480200  0.343700  1.0  -0.1486
  C  C92  1  0.915300  0.823100  0.350600  1.0  -0.0802
  C  C93  1  0.451800  0.502300  0.168400  1.0  0.0421
  C  C94  1  0.870200  0.760900  0.358600  1.0  -0.0383
  C  C95  1  0.463700  0.505300  0.332900  1.0  0.0341
  C  C96  1  0.559500  0.541400  0.238400  1.0  0.7563
  C  C97  1  0.801900  0.789900  0.432900  1.0  -0.0189
  C  C98  1  0.137600  0.235100  0.934900  1.0  -0.0479
  C  C99  1  0.489600  0.516900  0.246100  1.0  -0.1517
  C  C100  1  0.847000  0.851700  0.427200  1.0  -0.1257
  C  C101  1  0.387500  0.478200  0.178600  1.0  -0.1462
  C  C102  1  0.344900  0.461100  0.092600  1.0  0.7293
  C  C103  1  0.362000  0.468000  0.266900  1.0  0.0428
  C  C104  1  0.762700  0.675900  0.404500  1.0  0.7115
  C  C105  1  0.243000  0.320800  0.898600  1.0  0.689
  C  C106  1  0.369600  0.463300  0.438800  1.0  0.6964
  C  C107  1  0.194100  0.253300  0.897000  1.0  -0.1167
  C  C108  1  0.953300  0.936500  0.378100  1.0  -0.0131
  C  C109  1  0.904800  0.870100  0.384400  1.0  0.0605
  C  C110  1  0.812100  0.743900  0.399300  1.0  -0.0555
  C  C111  1  0.017400  0.954400  0.376400  1.0  -0.0909
  C  C112  1  0.203900  0.210600  0.846600  1.0  -0.0882
  C  C113  1  0.330700  0.548900  0.886600  1.0  0.6547
  C  C114  1  0.089200  0.173300  0.929200  1.0  -0.1249
  C  C115  1  0.684800  0.457300  0.382900  1.0  0.6643
  C  C116  1  0.155800  0.149400  0.841200  1.0  -0.0811
  C  C117  1  0.276300  0.611300  0.883000  1.0  0.0417
  C  C118  1  0.332300  0.610200  0.883800  1.0  -0.1229
  C  C119  1  0.675700  0.393500  0.382100  1.0  -0.1255
  C  C120  1  0.616100  0.342600  0.381400  1.0  0.0694
  C  C121  1  0.098100  0.129100  0.882100  1.0  0.0325
  C  C122  1  0.048200  0.063600  0.878400  1.0  0.0038
  C  C123  1  0.984600  0.046800  0.876800  1.0  -0.1
  C  C124  1  0.519800  0.918700  0.343700  1.0  -0.1494
  C  C125  1  0.176900  0.092200  0.350600  1.0  -0.08
  C  C126  1  0.497700  0.949500  0.168400  1.0  0.0415
  C  C127  1  0.239100  0.109300  0.358600  1.0  -0.0409
  C  C128  1  0.494700  0.958400  0.332900  1.0  0.0339
  C  C129  1  0.458600  0.018100  0.238400  1.0  0.7572
  C  C130  1  0.210100  0.012000  0.432900  1.0  -0.0234
  C  C131  1  0.764900  0.902500  0.934900  1.0  -0.0469
  C  C132  1  0.483100  0.972700  0.246100  1.0  -0.152
  C  C133  1  0.148300  0.995300  0.427200  1.0  -0.1262
  C  C134  1  0.521800  0.909300  0.178600  1.0  -0.1471
  C  C135  1  0.538900  0.883800  0.092600  1.0  0.7279
  C  C136  1  0.532000  0.894000  0.266900  1.0  0.0435
  C  C137  1  0.324100  0.086800  0.404500  1.0  0.7102
  C  C138  1  0.679200  0.922200  0.898600  1.0  0.6893
  C  C139  1  0.536700  0.906300  0.438800  1.0  0.6973
  C  C140  1  0.746700  0.940800  0.897000  1.0  -0.1178
  C  C141  1  0.063500  0.016800  0.378100  1.0  -0.0149
  C  C142  1  0.129900  0.034700  0.384400  1.0  0.0603
  C  C143  1  0.256100  0.068200  0.399300  1.0  -0.0598
  C  C144  1  0.045600  0.063000  0.376400  1.0  -0.0928
  C  C145  1  0.789400  0.993300  0.846600  1.0  -0.0937
  C  C146  1  0.451100  0.781800  0.886600  1.0  0.6551
  C  C147  1  0.826700  0.915900  0.929200  1.0  -0.1242
  C  C148  1  0.542700  0.227500  0.382900  1.0  0.6619
  C  C149  1  0.850600  0.006400  0.841200  1.0  -0.084
  C  C150  1  0.388700  0.665000  0.883000  1.0  0.0444
  C  C151  1  0.389800  0.722100  0.883800  1.0  -0.1223
  C  C152  1  0.606500  0.282200  0.382100  1.0  -0.1246
  C  C153  1  0.657400  0.273500  0.381400  1.0  0.0699
  C  C154  1  0.870900  0.969000  0.882100  1.0  0.0326
  C  C155  1  0.936400  0.984600  0.878400  1.0  0.0007
  C  C156  1  0.953200  0.937800  0.876800  1.0  -0.1022
  C  C157  1  0.081300  0.601100  0.343700  1.0  -0.1499
  C  C158  1  0.907800  0.084700  0.350600  1.0  -0.0769
  C  C159  1  0.050500  0.548200  0.168400  1.0  0.0417
  C  C160  1  0.890700  0.129800  0.358600  1.0  -0.0339
  C  C161  1  0.041600  0.536300  0.332900  1.0  0.0344
  C  C162  1  0.981900  0.440500  0.238400  1.0  0.7592
  C  C163  1  0.988000  0.198100  0.432900  1.0  -0.025
  C  C164  1  0.097500  0.862400  0.934900  1.0  -0.0457
  C  C165  1  0.027300  0.510400  0.246100  1.0  -0.1514
  C  C166  1  0.004700  0.153000  0.427200  1.0  -0.1316
  C  C167  1  0.090700  0.612500  0.178600  1.0  -0.1457
  C  C168  1  0.116200  0.655100  0.092600  1.0  0.7286
  C  C169  1  0.106000  0.638000  0.266900  1.0  0.0426
  C  C170  1  0.913200  0.237300  0.404500  1.0  0.7102
  C  C171  1  0.077800  0.757000  0.898600  1.0  0.6895
  C  C172  1  0.093700  0.630400  0.438800  1.0  0.6966
  C  C173  1  0.059200  0.805900  0.897000  1.0  -0.1175
  C  C174  1  0.983200  0.046700  0.378100  1.0  -0.0145
  C  C175  1  0.965300  0.095200  0.384400  1.0  0.0598
  C  C176  1  0.931800  0.187900  0.399300  1.0  -0.0586
  C  C177  1  0.937000  0.982600  0.376400  1.0  -0.0935
  C  C178  1  0.006700  0.796100  0.846600  1.0  -0.0926
  C  C179  1  0.218200  0.669300  0.886600  1.0  0.6532
  C  C180  1  0.084100  0.910800  0.929200  1.0  -0.1235
  C  C181  1  0.772500  0.315200  0.382900  1.0  0.662
  C  C182  1  0.993600  0.844200  0.841200  1.0  -0.0841
  C  C183  1  0.335000  0.723700  0.883000  1.0  0.0411
  C  C184  1  0.277900  0.667700  0.883800  1.0  -0.1218
  C  C185  1  0.717800  0.324300  0.382100  1.0  -0.1255
  C  C186  1  0.726500  0.383900  0.381400  1.0  0.0706
  C  C187  1  0.031000  0.901900  0.882100  1.0  0.0322
  C  C188  1  0.015400  0.951800  0.878400  1.0  0.0017
  C  C189  1  0.062200  0.015400  0.876800  1.0  -0.1003
  C  C190  1  0.601100  0.519800  0.656300  1.0  -0.1485
  C  C191  1  0.084700  0.176900  0.649400  1.0  -0.0781
  C  C192  1  0.548200  0.497700  0.831600  1.0  0.0421
  C  C193  1  0.129800  0.239100  0.641400  1.0  -0.0382
  C  C194  1  0.536300  0.494700  0.667100  1.0  0.0338
  C  C195  1  0.440500  0.458600  0.761600  1.0  0.7571
  C  C196  1  0.198100  0.210100  0.567100  1.0  -0.0218
  C  C197  1  0.862400  0.764900  0.065100  1.0  -0.0489
  C  C198  1  0.510400  0.483100  0.753900  1.0  -0.1521
  C  C199  1  0.153000  0.148300  0.572800  1.0  -0.1248
  C  C200  1  0.612500  0.521800  0.821400  1.0  -0.145
  C  C201  1  0.655100  0.538900  0.907400  1.0  0.7284
  C  C202  1  0.638000  0.532000  0.733100  1.0  0.0436
  C  C203  1  0.237300  0.324100  0.595500  1.0  0.7112
  C  C204  1  0.757000  0.679200  0.101400  1.0  0.6896
  C  C205  1  0.630400  0.536700  0.561200  1.0  0.6968
  C  C206  1  0.805900  0.746700  0.103000  1.0  -0.117
  C  C207  1  0.046700  0.063500  0.621900  1.0  -0.0127
  C  C208  1  0.095200  0.129900  0.615600  1.0  0.0609
  C  C209  1  0.187900  0.256100  0.600700  1.0  -0.0542
  C  C210  1  0.982600  0.045600  0.623600  1.0  -0.0931
  C  C211  1  0.796100  0.789400  0.153400  1.0  -0.0885
  C  C212  1  0.669300  0.451100  0.113400  1.0  0.6548
  C  C213  1  0.910800  0.826700  0.070800  1.0  -0.1257
  C  C214  1  0.315200  0.542700  0.617100  1.0  0.6634
  C  C215  1  0.844200  0.850600  0.158800  1.0  -0.0801
  C  C216  1  0.723700  0.388700  0.117000  1.0  0.0397
  C  C217  1  0.667700  0.389800  0.116200  1.0  -0.1235
  C  C218  1  0.324300  0.606500  0.617900  1.0  -0.1256
  C  C219  1  0.383900  0.657400  0.618600  1.0  0.068
  C  C220  1  0.901900  0.870900  0.117900  1.0  0.0324
  C  C221  1  0.951800  0.936400  0.121600  1.0  0.0036
  C  C222  1  0.015400  0.953200  0.123200  1.0  -0.0999
  C  C223  1  0.480200  0.081300  0.656300  1.0  -0.148
  C  C224  1  0.823100  0.907800  0.649400  1.0  -0.0816
  C  C225  1  0.502300  0.050500  0.831600  1.0  0.0424
  C  C226  1  0.760900  0.890700  0.641400  1.0  -0.0405
  C  C227  1  0.505300  0.041600  0.667100  1.0  0.0341
  C  C228  1  0.541400  0.981900  0.761600  1.0  0.7578
  C  C229  1  0.789900  0.988000  0.567100  1.0  -0.0239
  C  C230  1  0.235100  0.097500  0.065100  1.0  -0.0475
  C  C231  1  0.516900  0.027300  0.753900  1.0  -0.1522
  C  C232  1  0.851700  0.004700  0.572800  1.0  -0.1275
  C  C233  1  0.478200  0.090700  0.821400  1.0  -0.1456
  C  C234  1  0.461100  0.116200  0.907400  1.0  0.728
  C  C235  1  0.468000  0.106000  0.733100  1.0  0.043
  C  C236  1  0.675900  0.913200  0.595500  1.0  0.7112
  C  C237  1  0.320800  0.077800  0.101400  1.0  0.6892
  C  C238  1  0.463300  0.093700  0.561200  1.0  0.6961
  C  C239  1  0.253300  0.059200  0.103000  1.0  -0.1177
  C  C240  1  0.936500  0.983200  0.621900  1.0  -0.0149
  C  C241  1  0.870100  0.965300  0.615600  1.0  0.0606
  C  C242  1  0.743900  0.931800  0.600700  1.0  -0.0611
  C  C243  1  0.954400  0.937000  0.623600  1.0  -0.0961
  C  C244  1  0.210600  0.006700  0.153400  1.0  -0.0929
  C  C245  1  0.548900  0.218200  0.113400  1.0  0.6549
  C  C246  1  0.173300  0.084100  0.070800  1.0  -0.1232
  C  C247  1  0.457300  0.772500  0.617100  1.0  0.6632
  C  C248  1  0.149400  0.993600  0.158800  1.0  -0.0823
  C  C249  1  0.611300  0.335000  0.117000  1.0  0.0397
  C  C250  1  0.610200  0.277900  0.116200  1.0  -0.1235
  C  C251  1  0.393500  0.717800  0.617900  1.0  -0.1257
  C  C252  1  0.342600  0.726500  0.618600  1.0  0.0693
  C  C253  1  0.129100  0.031000  0.117900  1.0  0.0315
  C  C254  1  0.063600  0.015400  0.121600  1.0  0.0013
  C  C255  1  0.046800  0.062200  0.123200  1.0  -0.0983
  C  C256  1  0.918700  0.398900  0.656300  1.0  -0.1484
  C  C257  1  0.092200  0.915300  0.649400  1.0  -0.077
  C  C258  1  0.949500  0.451800  0.831600  1.0  0.0419
  C  C259  1  0.109300  0.870200  0.641400  1.0  -0.0342
  C  C260  1  0.958400  0.463700  0.667100  1.0  0.0345
  C  C261  1  0.018100  0.559500  0.761600  1.0  0.7581
  C  C262  1  0.012000  0.801900  0.567100  1.0  -0.0262
  C  C263  1  0.902500  0.137600  0.065100  1.0  -0.0461
  C  C264  1  0.972700  0.489600  0.753900  1.0  -0.1511
  C  C265  1  0.995300  0.847000  0.572800  1.0  -0.1295
  C  C266  1  0.909300  0.387500  0.821400  1.0  -0.1457
  C  C267  1  0.883800  0.344900  0.907400  1.0  0.7289
  C  C268  1  0.894000  0.362000  0.733100  1.0  0.0429
  C  C269  1  0.086800  0.762700  0.595500  1.0  0.7105
  C  C270  1  0.922200  0.243000  0.101400  1.0  0.6876
  C  C271  1  0.906300  0.369600  0.561200  1.0  0.6973
  C  C272  1  0.940800  0.194100  0.103000  1.0  -0.1179
  C  C273  1  0.016800  0.953300  0.621900  1.0  -0.0146
  C  C274  1  0.034700  0.904800  0.615600  1.0  0.0604
  C  C275  1  0.068200  0.812100  0.600700  1.0  -0.0593
  C  C276  1  0.063000  0.017400  0.623600  1.0  -0.0929
  C  C277  1  0.993300  0.203900  0.153400  1.0  -0.0897
  C  C278  1  0.781800  0.330700  0.113400  1.0  0.6523
  C  C279  1  0.915900  0.089200  0.070800  1.0  -0.1239
  C  C280  1  0.227500  0.684800  0.617100  1.0  0.6623
  C  C281  1  0.006400  0.155800  0.158800  1.0  -0.0845
  C  C282  1  0.665000  0.276300  0.117000  1.0  0.0408
  C  C283  1  0.722100  0.332300  0.116200  1.0  -0.1225
  C  C284  1  0.282200  0.675700  0.617900  1.0  -0.1239
  C  C285  1  0.273500  0.616100  0.618600  1.0  0.071
  C  C286  1  0.969000  0.098100  0.117900  1.0  0.0316
  C  C287  1  0.984600  0.048200  0.121600  1.0  0.0006
  C  C288  1  0.937800  0.984600  0.123200  1.0  -0.1012
  O  O289  1  0.369900  0.455200  0.019000  1.0  -0.5609
  O  O290  1  0.705500  0.570900  0.251500  1.0  -0.6746
  O  O291  1  0.589300  0.554600  0.312000  1.0  -0.6381
  O  O292  1  0.402500  0.462200  0.506600  1.0  -0.5515
  O  O293  1  0.579900  0.544300  0.156000  1.0  -0.5802
  O  O294  1  0.380300  0.548000  0.871100  1.0  -0.5656
  O  O295  1  0.738300  0.503100  0.384500  1.0  -0.4985
  O  O296  1  0.314300  0.448500  0.451200  1.0  -0.5333
  O  O297  1  0.300500  0.336200  0.880100  1.0  -0.58
  O  O298  1  0.706700  0.662500  0.407500  1.0  -0.5434
  O  O299  1  0.280000  0.499200  0.902800  1.0  -0.5909
  O  O300  1  0.231400  0.362300  0.921600  1.0  -0.5685
  O  O301  1  0.636300  0.462700  0.384200  1.0  -0.5538
  O  O302  1  0.778900  0.635200  0.403800  1.0  -0.5702
  O  O303  1  0.293800  0.453400  0.101400  1.0  -0.4246
  O  O304  1  0.544800  0.914700  0.019000  1.0  -0.5605
  O  O305  1  0.429100  0.134600  0.251500  1.0  -0.6761
  O  O306  1  0.445400  0.034700  0.312000  1.0  -0.6364
  O  O307  1  0.537800  0.940300  0.506600  1.0  -0.5519
  O  O308  1  0.455700  0.035600  0.156000  1.0  -0.5779
  O  O309  1  0.452000  0.832300  0.871100  1.0  -0.5655
  O  O310  1  0.496900  0.235200  0.384500  1.0  -0.5042
  O  O311  1  0.551500  0.865800  0.451200  1.0  -0.5301
  O  O312  1  0.663800  0.964300  0.880100  1.0  -0.5836
  O  O313  1  0.337500  0.044200  0.407500  1.0  -0.5387
  O  O314  1  0.500800  0.780800  0.902800  1.0  -0.5922
  O  O315  1  0.637700  0.869100  0.921600  1.0  -0.5615
  O  O316  1  0.537300  0.173600  0.384200  1.0  -0.556
  O  O317  1  0.364800  0.143700  0.403800  1.0  -0.5684
  O  O318  1  0.546600  0.840400  0.101400  1.0  -0.4185
  O  O319  1  0.085300  0.630100  0.019000  1.0  -0.5618
  O  O320  1  0.865400  0.294500  0.251500  1.0  -0.679
  O  O321  1  0.965300  0.410700  0.312000  1.0  -0.6386
  O  O322  1  0.059700  0.597500  0.506600  1.0  -0.5517
  O  O323  1  0.964400  0.420100  0.156000  1.0  -0.579
  O  O324  1  0.167700  0.619700  0.871100  1.0  -0.5596
  O  O325  1  0.764800  0.261700  0.384500  1.0  -0.4973
  O  O326  1  0.134200  0.685700  0.451200  1.0  -0.5257
  O  O327  1  0.035700  0.699500  0.880100  1.0  -0.5842
  O  O328  1  0.955800  0.293300  0.407500  1.0  -0.5412
  O  O329  1  0.219200  0.720000  0.902800  1.0  -0.5951
  O  O330  1  0.130900  0.768600  0.921600  1.0  -0.5682
  O  O331  1  0.826400  0.363700  0.384200  1.0  -0.5542
  O  O332  1  0.856300  0.221100  0.403800  1.0  -0.5668
  O  O333  1  0.159600  0.706200  0.101400  1.0  -0.4165
  O  O334  1  0.630100  0.544800  0.981000  1.0  -0.5616
  O  O335  1  0.294500  0.429100  0.748500  1.0  -0.6753
  O  O336  1  0.410700  0.445400  0.688000  1.0  -0.6392
  O  O337  1  0.597500  0.537800  0.493400  1.0  -0.5515
  O  O338  1  0.420100  0.455700  0.844000  1.0  -0.5789
  O  O339  1  0.619700  0.452000  0.128900  1.0  -0.5641
  O  O340  1  0.261700  0.496900  0.615500  1.0  -0.4978
  O  O341  1  0.685700  0.551500  0.548800  1.0  -0.5337
  O  O342  1  0.699500  0.663800  0.119900  1.0  -0.5823
  O  O343  1  0.293300  0.337500  0.592500  1.0  -0.5433
  O  O344  1  0.720000  0.500800  0.097200  1.0  -0.5943
  O  O345  1  0.768600  0.637700  0.078400  1.0  -0.571
  O  O346  1  0.363700  0.537300  0.615800  1.0  -0.5542
  O  O347  1  0.221100  0.364800  0.596200  1.0  -0.5676
  O  O348  1  0.706200  0.546600  0.898600  1.0  -0.4225
  O  O349  1  0.455200  0.085300  0.981000  1.0  -0.5615
  O  O350  1  0.570900  0.865400  0.748500  1.0  -0.6768
  O  O351  1  0.554600  0.965300  0.688000  1.0  -0.6363
  O  O352  1  0.462200  0.059700  0.493400  1.0  -0.552
  O  O353  1  0.544300  0.964400  0.844000  1.0  -0.5774
  O  O354  1  0.548000  0.167700  0.128900  1.0  -0.5657
  O  O355  1  0.503100  0.764800  0.615500  1.0  -0.4996
  O  O356  1  0.448500  0.134200  0.548800  1.0  -0.5289
  O  O357  1  0.336200  0.035700  0.119900  1.0  -0.5834
  O  O358  1  0.662500  0.955800  0.592500  1.0  -0.5415
  O  O359  1  0.499200  0.219200  0.097200  1.0  -0.5926
  O  O360  1  0.362300  0.130900  0.078400  1.0  -0.566
  O  O361  1  0.462700  0.826400  0.615800  1.0  -0.5538
  O  O362  1  0.635200  0.856300  0.596200  1.0  -0.5691
  O  O363  1  0.453400  0.159600  0.898600  1.0  -0.4193
  O  O364  1  0.914700  0.369900  0.981000  1.0  -0.5616
  O  O365  1  0.134600  0.705500  0.748500  1.0  -0.6765
  O  O366  1  0.034700  0.589300  0.688000  1.0  -0.6392
  O  O367  1  0.940300  0.402500  0.493400  1.0  -0.5525
  O  O368  1  0.035600  0.579900  0.844000  1.0  -0.579
  O  O369  1  0.832300  0.380300  0.128900  1.0  -0.5594
  O  O370  1  0.235200  0.738300  0.615500  1.0  -0.4984
  O  O371  1  0.865800  0.314300  0.548800  1.0  -0.5265
  O  O372  1  0.964300  0.300500  0.119900  1.0  -0.5839
  O  O373  1  0.044200  0.706700  0.592500  1.0  -0.542
  O  O374  1  0.780800  0.280000  0.097200  1.0  -0.5966
  O  O375  1  0.869100  0.231400  0.078400  1.0  -0.5686
  O  O376  1  0.173600  0.636300  0.615800  1.0  -0.5529
  O  O377  1  0.143700  0.778900  0.596200  1.0  -0.5688
  O  O378  1  0.840400  0.293800  0.898600  1.0  -0.4172
