# generated using pymatgen
data_In3H24C43O18
_symmetry_space_group_name_H-M   'P 1'
_cell_length_a   16.12920000
_cell_length_b   16.12920000
_cell_length_c   16.12920000
_cell_angle_alpha   92.54950000
_cell_angle_beta   92.54950000
_cell_angle_gamma   92.54950000
_symmetry_Int_Tables_number   1
_chemical_formula_structural   In3H24C43O18
_chemical_formula_sum   'In9 H72 C129 O54'
_cell_volume   4183.18605540
_cell_formula_units_Z   3
loop_
 _symmetry_equiv_pos_site_id
 _symmetry_equiv_pos_as_xyz
  1  'x, y, z'
loop_
 _atom_site_type_symbol
 _atom_site_label
 _atom_site_symmetry_multiplicity
 _atom_site_fract_x
 _atom_site_fract_y
 _atom_site_fract_z
 _atom_site_occupancy
 _atom_site_charge
  In  In1  1  0.740440  0.161090  0.409890  1.0  1.7739
  In  In2  1  0.409890  0.740440  0.161090  1.0  1.7724
  In  In3  1  0.161090  0.409890  0.740440  1.0  1.7728
  In  In4  1  0.838910  0.259560  0.590110  1.0  1.7733
  In  In5  1  0.259560  0.590110  0.838910  1.0  1.7724
  In  In6  1  0.590110  0.838910  0.259560  1.0  1.7725
  In  In7  1  0.659360  0.340640  0.500000  1.0  1.7276
  In  In8  1  0.500000  0.659360  0.340640  1.0  1.7254
  In  In9  1  0.340640  0.500000  0.659360  1.0  1.7282
  H  H10  1  0.490800  0.026900  0.388300  1.0  0.0992
  H  H11  1  0.356100  0.977500  0.350400  1.0  0.1424
  H  H12  1  0.280300  0.208200  0.356000  1.0  0.1202
  H  H13  1  0.411500  0.256900  0.403200  1.0  0.1009
  H  H14  1  0.973200  0.128100  0.284200  1.0  0.1113
  H  H15  1  0.098600  0.083900  0.236300  1.0  0.1342
  H  H16  1  0.196300  0.127600  0.472300  1.0  0.119
  H  H17  1  0.075900  0.168000  0.511800  1.0  0.0975
  H  H18  1  0.655700  0.234900  0.165100  1.0  0.1164
  H  H19  1  0.609200  0.279900  0.036700  1.0  0.1385
  H  H20  1  0.598600  0.511700  0.135600  1.0  0.1324
  H  H21  1  0.635200  0.466600  0.264700  1.0  0.1036
  H  H22  1  0.388300  0.490800  0.026900  1.0  0.0993
  H  H23  1  0.350400  0.356100  0.977500  1.0  0.1416
  H  H24  1  0.356000  0.280300  0.208200  1.0  0.1205
  H  H25  1  0.403200  0.411500  0.256900  1.0  0.1027
  H  H26  1  0.284200  0.973200  0.128100  1.0  0.1122
  H  H27  1  0.236300  0.098600  0.083900  1.0  0.1355
  H  H28  1  0.472300  0.196300  0.127600  1.0  0.1195
  H  H29  1  0.511800  0.075900  0.168000  1.0  0.0985
  H  H30  1  0.165100  0.655700  0.234900  1.0  0.1168
  H  H31  1  0.036700  0.609200  0.279900  1.0  0.1382
  H  H32  1  0.135600  0.598600  0.511700  1.0  0.1325
  H  H33  1  0.264700  0.635200  0.466600  1.0  0.1034
  H  H34  1  0.026900  0.388300  0.490800  1.0  0.1
  H  H35  1  0.977500  0.350400  0.356100  1.0  0.1456
  H  H36  1  0.208200  0.356000  0.280300  1.0  0.1211
  H  H37  1  0.256900  0.403200  0.411500  1.0  0.1014
  H  H38  1  0.128100  0.284200  0.973200  1.0  0.1116
  H  H39  1  0.083900  0.236300  0.098600  1.0  0.1356
  H  H40  1  0.127600  0.472300  0.196300  1.0  0.1189
  H  H41  1  0.168000  0.511800  0.075900  1.0  0.0973
  H  H42  1  0.234900  0.165100  0.655700  1.0  0.1165
  H  H43  1  0.279900  0.036700  0.609200  1.0  0.1385
  H  H44  1  0.511700  0.135600  0.598600  1.0  0.1366
  H  H45  1  0.466600  0.264700  0.635200  1.0  0.1037
  H  H46  1  0.973100  0.509200  0.611700  1.0  0.0992
  H  H47  1  0.022500  0.643900  0.649600  1.0  0.1437
  H  H48  1  0.791800  0.719700  0.644000  1.0  0.1207
  H  H49  1  0.743100  0.588500  0.596800  1.0  0.1002
  H  H50  1  0.871900  0.026800  0.715800  1.0  0.1115
  H  H51  1  0.916100  0.901400  0.763700  1.0  0.1329
  H  H52  1  0.872400  0.803700  0.527700  1.0  0.1202
  H  H53  1  0.832000  0.924100  0.488200  1.0  0.0982
  H  H54  1  0.765100  0.344300  0.834900  1.0  0.1172
  H  H55  1  0.720100  0.390800  0.963300  1.0  0.1385
  H  H56  1  0.488300  0.401400  0.864400  1.0  0.1358
  H  H57  1  0.533400  0.364800  0.735300  1.0  0.1036
  H  H58  1  0.509200  0.611700  0.973100  1.0  0.0993
  H  H59  1  0.643900  0.649600  0.022500  1.0  0.1423
  H  H60  1  0.719700  0.644000  0.791800  1.0  0.1202
  H  H61  1  0.588500  0.596800  0.743100  1.0  0.1019
  H  H62  1  0.026800  0.715800  0.871900  1.0  0.1121
  H  H63  1  0.901400  0.763700  0.916100  1.0  0.1343
  H  H64  1  0.803700  0.527700  0.872400  1.0  0.1197
  H  H65  1  0.924100  0.488200  0.832000  1.0  0.0976
  H  H66  1  0.344300  0.834900  0.765100  1.0  0.1165
  H  H67  1  0.390800  0.963300  0.720100  1.0  0.1385
  H  H68  1  0.401400  0.864400  0.488300  1.0  0.1337
  H  H69  1  0.364800  0.735300  0.533400  1.0  0.1031
  H  H70  1  0.611700  0.973100  0.509200  1.0  0.0994
  H  H71  1  0.649600  0.022500  0.643900  1.0  0.1398
  H  H72  1  0.644000  0.791800  0.719700  1.0  0.12
  H  H73  1  0.596800  0.743100  0.588500  1.0  0.1014
  H  H74  1  0.715800  0.871900  0.026800  1.0  0.112
  H  H75  1  0.763700  0.916100  0.901400  1.0  0.1353
  H  H76  1  0.527700  0.872400  0.803700  1.0  0.1195
  H  H77  1  0.488200  0.832000  0.924100  1.0  0.0969
  H  H78  1  0.834900  0.765100  0.344300  1.0  0.1165
  H  H79  1  0.963300  0.720100  0.390800  1.0  0.1395
  H  H80  1  0.864400  0.488300  0.401400  1.0  0.1345
  H  H81  1  0.735300  0.533400  0.364800  1.0  0.1029
  C  C82  1  0.551200  0.179800  0.430000  1.0  0.7336
  C  C83  1  0.465700  0.147700  0.400000  1.0  -0.2096
  C  C84  1  0.448500  0.063900  0.383400  1.0  0.0325
  C  C85  1  0.368400  0.034100  0.359200  1.0  -0.2322
  C  C86  1  0.308000  0.090200  0.348800  1.0  0.3172
  C  C87  1  0.322500  0.171500  0.363700  1.0  -0.2396
  C  C88  1  0.401500  0.200400  0.390800  1.0  0.0209
  C  C89  1  0.931500  0.183800  0.432200  1.0  0.7111
  C  C90  1  0.012700  0.152500  0.402100  1.0  -0.2032
  C  C91  1  0.019300  0.126900  0.320900  1.0  -0.0012
  C  C92  1  0.093400  0.099300  0.292100  1.0  -0.2278
  C  C93  1  0.159500  0.095100  0.349600  1.0  0.2159
  C  C94  1  0.151000  0.125900  0.434400  1.0  -0.2125
  C  C95  1  0.081100  0.150500  0.456600  1.0  0.0286
  C  C96  1  0.677400  0.317400  0.310500  1.0  0.7466
  C  C97  1  0.648500  0.346100  0.228200  1.0  -0.2151
  C  C98  1  0.642200  0.289900  0.159300  1.0  0.0097
  C  C99  1  0.615700  0.316800  0.082700  1.0  -0.2407
  C  C100  1  0.598900  0.402100  0.076300  1.0  0.2977
  C  C101  1  0.608000  0.455900  0.142100  1.0  -0.2204
  C  C102  1  0.631100  0.429300  0.218800  1.0  0.0107
  C  C103  1  0.430000  0.551200  0.179800  1.0  0.7359
  C  C104  1  0.400000  0.465700  0.147700  1.0  -0.2055
  C  C105  1  0.383400  0.448500  0.063900  1.0  0.0344
  C  C106  1  0.359200  0.368400  0.034100  1.0  -0.227
  C  C107  1  0.348800  0.308000  0.090200  1.0  0.3188
  C  C108  1  0.363700  0.322500  0.171500  1.0  -0.24
  C  C109  1  0.390800  0.401500  0.200400  1.0  0.0261
  C  C110  1  0.432200  0.931500  0.183800  1.0  0.7116
  C  C111  1  0.402100  0.012700  0.152500  1.0  -0.1977
  C  C112  1  0.320900  0.019300  0.126900  1.0  0.0029
  C  C113  1  0.292100  0.093400  0.099300  1.0  -0.2298
  C  C114  1  0.349600  0.159500  0.095100  1.0  0.2173
  C  C115  1  0.434400  0.151000  0.125900  1.0  -0.2102
  C  C116  1  0.456600  0.081100  0.150500  1.0  0.0287
  C  C117  1  0.310500  0.677400  0.317400  1.0  0.742
  C  C118  1  0.228200  0.648500  0.346100  1.0  -0.2115
  C  C119  1  0.159300  0.642200  0.289900  1.0  0.0027
  C  C120  1  0.082700  0.615700  0.316800  1.0  -0.2416
  C  C121  1  0.076300  0.598900  0.402100  1.0  0.2969
  C  C122  1  0.142100  0.608000  0.455900  1.0  -0.2202
  C  C123  1  0.218800  0.631100  0.429300  1.0  0.0122
  C  C124  1  0.179800  0.430000  0.551200  1.0  0.7396
  C  C125  1  0.147700  0.400000  0.465700  1.0  -0.208
  C  C126  1  0.063900  0.383400  0.448500  1.0  0.0331
  C  C127  1  0.034100  0.359200  0.368400  1.0  -0.2303
  C  C128  1  0.090200  0.348800  0.308000  1.0  0.3162
  C  C129  1  0.171500  0.363700  0.322500  1.0  -0.2385
  C  C130  1  0.200400  0.390800  0.401500  1.0  0.0269
  C  C131  1  0.183800  0.432200  0.931500  1.0  0.7145
  C  C132  1  0.152500  0.402100  0.012700  1.0  -0.1975
  C  C133  1  0.126900  0.320900  0.019300  1.0  0.0023
  C  C134  1  0.099300  0.292100  0.093400  1.0  -0.2311
  C  C135  1  0.095100  0.349600  0.159500  1.0  0.2144
  C  C136  1  0.125900  0.434400  0.151000  1.0  -0.2079
  C  C137  1  0.150500  0.456600  0.081100  1.0  0.0304
  C  C138  1  0.317400  0.310500  0.677400  1.0  0.7432
  C  C139  1  0.346100  0.228200  0.648500  1.0  -0.2139
  C  C140  1  0.289900  0.159300  0.642200  1.0  0.0148
  C  C141  1  0.316800  0.082700  0.615700  1.0  -0.2451
  C  C142  1  0.402100  0.076300  0.598900  1.0  0.2972
  C  C143  1  0.455900  0.142100  0.608000  1.0  -0.2234
  C  C144  1  0.429300  0.218800  0.631100  1.0  0.0169
  C  C145  1  0.820200  0.448800  0.570000  1.0  0.7355
  C  C146  1  0.852300  0.534300  0.600000  1.0  -0.2096
  C  C147  1  0.936100  0.551500  0.616600  1.0  0.0336
  C  C148  1  0.965900  0.631600  0.640800  1.0  -0.2319
  C  C149  1  0.909800  0.692000  0.651200  1.0  0.3167
  C  C150  1  0.828500  0.677500  0.636300  1.0  -0.2355
  C  C151  1  0.799600  0.598500  0.609200  1.0  0.0275
  C  C152  1  0.816200  0.068500  0.567800  1.0  0.7122
  C  C153  1  0.847500  0.987300  0.597900  1.0  -0.2008
  C  C154  1  0.873100  0.980700  0.679100  1.0  0.0061
  C  C155  1  0.900700  0.906600  0.707900  1.0  -0.2278
  C  C156  1  0.904900  0.840500  0.650400  1.0  0.2143
  C  C157  1  0.874100  0.849000  0.565600  1.0  -0.2067
  C  C158  1  0.849500  0.918900  0.543400  1.0  0.0293
  C  C159  1  0.682600  0.322600  0.689500  1.0  0.7465
  C  C160  1  0.653900  0.351500  0.771800  1.0  -0.2149
  C  C161  1  0.710100  0.357800  0.840700  1.0  0.0127
  C  C162  1  0.683200  0.384300  0.917300  1.0  -0.24
  C  C163  1  0.597900  0.401100  0.923700  1.0  0.297
  C  C164  1  0.544100  0.392000  0.857900  1.0  -0.2235
  C  C165  1  0.570700  0.368900  0.781200  1.0  0.0135
  C  C166  1  0.448800  0.570000  0.820200  1.0  0.7338
  C  C167  1  0.534300  0.600000  0.852300  1.0  -0.2103
  C  C168  1  0.551500  0.616600  0.936100  1.0  0.0317
  C  C169  1  0.631600  0.640800  0.965900  1.0  -0.2287
  C  C170  1  0.692000  0.651200  0.909800  1.0  0.3169
  C  C171  1  0.677500  0.636300  0.828500  1.0  -0.2392
  C  C172  1  0.598500  0.609200  0.799600  1.0  0.0264
  C  C173  1  0.068500  0.567800  0.816200  1.0  0.7097
  C  C174  1  0.987300  0.597900  0.847500  1.0  -0.2018
  C  C175  1  0.980700  0.679100  0.873100  1.0  0.0036
  C  C176  1  0.906600  0.707900  0.900700  1.0  -0.2304
  C  C177  1  0.840500  0.650400  0.904900  1.0  0.2274
  C  C178  1  0.849000  0.565600  0.874100  1.0  -0.2127
  C  C179  1  0.918900  0.543400  0.849500  1.0  0.029
  C  C180  1  0.322600  0.689500  0.682600  1.0  0.7438
  C  C181  1  0.351500  0.771800  0.653900  1.0  -0.212
  C  C182  1  0.357800  0.840700  0.710100  1.0  0.019
  C  C183  1  0.384300  0.917300  0.683200  1.0  -0.24
  C  C184  1  0.401100  0.923700  0.597900  1.0  0.2963
  C  C185  1  0.392000  0.857900  0.544100  1.0  -0.2146
  C  C186  1  0.368900  0.781200  0.570700  1.0  0.0127
  C  C187  1  0.570000  0.820200  0.448800  1.0  0.74
  C  C188  1  0.600000  0.852300  0.534300  1.0  -0.2057
  C  C189  1  0.616600  0.936100  0.551500  1.0  0.0337
  C  C190  1  0.640800  0.965900  0.631600  1.0  -0.2278
  C  C191  1  0.651200  0.909800  0.692000  1.0  0.3186
  C  C192  1  0.636300  0.828500  0.677500  1.0  -0.2384
  C  C193  1  0.609200  0.799600  0.598500  1.0  0.0203
  C  C194  1  0.567800  0.816200  0.068500  1.0  0.7141
  C  C195  1  0.597900  0.847500  0.987300  1.0  -0.1975
  C  C196  1  0.679100  0.873100  0.980700  1.0  0.0049
  C  C197  1  0.707900  0.900700  0.906600  1.0  -0.2301
  C  C198  1  0.650400  0.904900  0.840500  1.0  0.2192
  C  C199  1  0.565600  0.874100  0.849000  1.0  -0.2077
  C  C200  1  0.543400  0.849500  0.918900  1.0  0.0317
  C  C201  1  0.689500  0.682600  0.322600  1.0  0.7434
  C  C202  1  0.771800  0.653900  0.351500  1.0  -0.2136
  C  C203  1  0.840700  0.710100  0.357800  1.0  0.0098
  C  C204  1  0.917300  0.683200  0.384300  1.0  -0.2437
  C  C205  1  0.923700  0.597900  0.401100  1.0  0.2978
  C  C206  1  0.857900  0.544100  0.392000  1.0  -0.2239
  C  C207  1  0.781200  0.570700  0.368900  1.0  0.017
  C  C208  1  0.683050  0.000000  0.316950  1.0  0.4078
  C  C209  1  0.316950  0.683050  0.000000  1.0  0.4108
  C  C210  1  0.000000  0.316950  0.683050  1.0  0.4035
  O  O211  1  0.556400  0.255600  0.452800  1.0  -0.6629
  O  O212  1  0.608700  0.128300  0.428500  1.0  -0.6366
  O  O213  1  0.230100  0.056700  0.321300  1.0  -0.2715
  O  O214  1  0.931200  0.216900  0.504700  1.0  -0.65
  O  O215  1  0.869000  0.178500  0.380000  1.0  -0.6499
  O  O216  1  0.678200  0.369900  0.372400  1.0  -0.6466
  O  O217  1  0.699100  0.242000  0.313500  1.0  -0.6347
  O  O218  1  0.735200  0.061600  0.315000  1.0  -0.4834
  O  O219  1  0.452800  0.556400  0.255600  1.0  -0.6669
  O  O220  1  0.428500  0.608700  0.128300  1.0  -0.64
  O  O221  1  0.321300  0.230100  0.056700  1.0  -0.2716
  O  O222  1  0.504700  0.931200  0.216900  1.0  -0.6533
  O  O223  1  0.380000  0.869000  0.178500  1.0  -0.6466
  O  O224  1  0.372400  0.678200  0.369900  1.0  -0.6474
  O  O225  1  0.313500  0.699100  0.242000  1.0  -0.637
  O  O226  1  0.315000  0.735200  0.061600  1.0  -0.4798
  O  O227  1  0.255600  0.452800  0.556400  1.0  -0.6665
  O  O228  1  0.128300  0.428500  0.608700  1.0  -0.6363
  O  O229  1  0.056700  0.321300  0.230100  1.0  -0.2712
  O  O230  1  0.216900  0.504700  0.931200  1.0  -0.6551
  O  O231  1  0.178500  0.380000  0.869000  1.0  -0.6483
  O  O232  1  0.369900  0.372400  0.678200  1.0  -0.6467
  O  O233  1  0.242000  0.313500  0.699100  1.0  -0.6338
  O  O234  1  0.061600  0.315000  0.735200  1.0  -0.4808
  O  O235  1  0.744400  0.443600  0.547200  1.0  -0.6661
  O  O236  1  0.871700  0.391300  0.571500  1.0  -0.6373
  O  O237  1  0.943300  0.769900  0.678700  1.0  -0.2719
  O  O238  1  0.783100  0.068800  0.495300  1.0  -0.6516
  O  O239  1  0.821500  0.131000  0.620000  1.0  -0.6486
  O  O240  1  0.630100  0.321800  0.627600  1.0  -0.6494
  O  O241  1  0.758000  0.300900  0.686500  1.0  -0.6348
  O  O242  1  0.938400  0.264800  0.685000  1.0  -0.4791
  O  O243  1  0.443600  0.547200  0.744400  1.0  -0.6657
  O  O244  1  0.391300  0.571500  0.871700  1.0  -0.6385
  O  O245  1  0.769900  0.678700  0.943300  1.0  -0.2724
  O  O246  1  0.068800  0.495300  0.783100  1.0  -0.6526
  O  O247  1  0.131000  0.620000  0.821500  1.0  -0.6477
  O  O248  1  0.321800  0.627600  0.630100  1.0  -0.6478
  O  O249  1  0.300900  0.686500  0.758000  1.0  -0.6352
  O  O250  1  0.264800  0.685000  0.938400  1.0  -0.4806
  O  O251  1  0.547200  0.744400  0.443600  1.0  -0.6668
  O  O252  1  0.571500  0.871700  0.391300  1.0  -0.6384
  O  O253  1  0.678700  0.943300  0.769900  1.0  -0.2679
  O  O254  1  0.495300  0.783100  0.068800  1.0  -0.6521
  O  O255  1  0.620000  0.821500  0.131000  1.0  -0.6486
  O  O256  1  0.627600  0.630100  0.321800  1.0  -0.6479
  O  O257  1  0.686500  0.758000  0.300900  1.0  -0.6341
  O  O258  1  0.685000  0.938400  0.264800  1.0  -0.481
  O  O259  1  0.748200  0.251800  0.500000  1.0  -1.2769
  O  O260  1  0.500000  0.748200  0.251800  1.0  -1.2774
  O  O261  1  0.251800  0.500000  0.748200  1.0  -1.2776
  O  O262  1  0.569550  0.430450  0.000000  1.0  -0.2643
  O  O263  1  0.000000  0.569550  0.430450  1.0  -0.2669
  O  O264  1  0.430450  0.000000  0.569550  1.0  -0.2654
