# generated using pymatgen
data_CoCuH8C12(N2O)4
_symmetry_space_group_name_H-M   'P 1'
_cell_length_a   12.86800000
_cell_length_b   13.35100000
_cell_length_c   10.52600000
_cell_angle_alpha   90.00000000
_cell_angle_beta   104.39000000
_cell_angle_gamma   90.00000000
_symmetry_Int_Tables_number   1
_chemical_formula_structural   CoCuH8C12(N2O)4
_chemical_formula_sum   'Co4 Cu4 H32 C48 N32 O16'
_cell_volume   1751.63890711
_cell_formula_units_Z   4
loop_
 _symmetry_equiv_pos_site_id
 _symmetry_equiv_pos_as_xyz
  1  'x, y, z'
loop_
 _atom_site_type_symbol
 _atom_site_label
 _atom_site_symmetry_multiplicity
 _atom_site_fract_x
 _atom_site_fract_y
 _atom_site_fract_z
 _atom_site_occupancy
 _atom_site_charge
  Co  Co1  1  0.000000  0.853210  0.250000  1.0  0.9091
  Co  Co2  1  0.500000  0.353210  0.250000  1.0  0.9091
  Co  Co3  1  0.000000  0.146790  0.750000  1.0  0.9093
  Co  Co4  1  0.500000  0.646790  0.750000  1.0  0.9093
  Cu  Cu5  1  0.500000  0.500000  0.000000  1.0  1.0168
  Cu  Cu6  1  0.000000  0.000000  0.000000  1.0  1.0168
  Cu  Cu7  1  0.500000  0.500000  0.500000  1.0  1.0168
  Cu  Cu8  1  0.000000  0.000000  0.500000  1.0  1.0168
  H  H9  1  0.783700  0.526300  0.172200  1.0  0.1316
  H  H10  1  0.909200  0.640400  0.143200  1.0  0.0728
  H  H11  1  0.812300  0.836100  0.360300  1.0  0.0866
  H  H12  1  0.681300  0.729700  0.390400  1.0  0.1154
  H  H13  1  0.283700  0.026300  0.172200  1.0  0.1316
  H  H14  1  0.409200  0.140400  0.143200  1.0  0.0728
  H  H15  1  0.312300  0.336100  0.360300  1.0  0.0866
  H  H16  1  0.181300  0.229700  0.390400  1.0  0.1154
  H  H17  1  0.216300  0.526300  0.327800  1.0  0.1318
  H  H18  1  0.090800  0.640400  0.356800  1.0  0.0734
  H  H19  1  0.187700  0.836100  0.139700  1.0  0.087
  H  H20  1  0.318700  0.729700  0.109600  1.0  0.1156
  H  H21  1  0.716300  0.026300  0.327800  1.0  0.1318
  H  H22  1  0.590800  0.140400  0.356800  1.0  0.0734
  H  H23  1  0.687700  0.336100  0.139700  1.0  0.087
  H  H24  1  0.818700  0.229700  0.109600  1.0  0.1156
  H  H25  1  0.216300  0.473700  0.827800  1.0  0.1317
  H  H26  1  0.090800  0.359600  0.856800  1.0  0.0722
  H  H27  1  0.187700  0.163900  0.639700  1.0  0.0868
  H  H28  1  0.318700  0.270300  0.609600  1.0  0.1152
  H  H29  1  0.716300  0.973700  0.827800  1.0  0.1317
  H  H30  1  0.590800  0.859600  0.856800  1.0  0.0722
  H  H31  1  0.687700  0.663900  0.639700  1.0  0.0868
  H  H32  1  0.818700  0.770300  0.609600  1.0  0.1152
  H  H33  1  0.783700  0.473700  0.672200  1.0  0.132
  H  H34  1  0.909200  0.359600  0.643200  1.0  0.0728
  H  H35  1  0.812300  0.163900  0.860300  1.0  0.0865
  H  H36  1  0.681300  0.270300  0.890400  1.0  0.1156
  H  H37  1  0.283700  0.973700  0.672200  1.0  0.132
  H  H38  1  0.409200  0.859600  0.643200  1.0  0.0728
  H  H39  1  0.312300  0.663900  0.860300  1.0  0.0865
  H  H40  1  0.181300  0.770300  0.890400  1.0  0.1156
  C  C41  1  0.719200  0.613800  0.287500  1.0  -0.0563
  C  C42  1  0.788100  0.588800  0.212400  1.0  -0.1492
  C  C43  1  0.864600  0.657700  0.197000  1.0  0.1776
  C  C44  1  0.637400  0.541900  0.316300  1.0  0.6901
  C  C45  1  0.807400  0.772400  0.323400  1.0  0.1598
  C  C46  1  0.728500  0.708900  0.341600  1.0  -0.1422
  C  C47  1  0.219200  0.113800  0.287500  1.0  -0.0563
  C  C48  1  0.288100  0.088800  0.212400  1.0  -0.1492
  C  C49  1  0.364600  0.157700  0.197000  1.0  0.1776
  C  C50  1  0.137400  0.041900  0.316300  1.0  0.6901
  C  C51  1  0.307400  0.272400  0.323400  1.0  0.1598
  C  C52  1  0.228500  0.208900  0.341600  1.0  -0.1422
  C  C53  1  0.280800  0.613800  0.212500  1.0  -0.0566
  C  C54  1  0.211900  0.588800  0.287600  1.0  -0.1478
  C  C55  1  0.135400  0.657700  0.303000  1.0  0.1778
  C  C56  1  0.362600  0.541900  0.183700  1.0  0.6896
  C  C57  1  0.192600  0.772400  0.176600  1.0  0.1593
  C  C58  1  0.271500  0.708900  0.158400  1.0  -0.1447
  C  C59  1  0.780800  0.113800  0.212500  1.0  -0.0566
  C  C60  1  0.711900  0.088800  0.287600  1.0  -0.1478
  C  C61  1  0.635400  0.157700  0.303000  1.0  0.1778
  C  C62  1  0.862600  0.041900  0.183700  1.0  0.6896
  C  C63  1  0.692600  0.272400  0.176600  1.0  0.1593
  C  C64  1  0.771500  0.208900  0.158400  1.0  -0.1447
  C  C65  1  0.280800  0.386200  0.712500  1.0  -0.057
  C  C66  1  0.211900  0.411200  0.787600  1.0  -0.1471
  C  C67  1  0.135400  0.342300  0.803000  1.0  0.1774
  C  C68  1  0.362600  0.458100  0.683700  1.0  0.69
  C  C69  1  0.192600  0.227600  0.676600  1.0  0.1594
  C  C70  1  0.271500  0.291100  0.658400  1.0  -0.1447
  C  C71  1  0.780800  0.886200  0.712500  1.0  -0.057
  C  C72  1  0.711900  0.911200  0.787600  1.0  -0.1471
  C  C73  1  0.635400  0.842300  0.803000  1.0  0.1774
  C  C74  1  0.862600  0.958100  0.683700  1.0  0.69
  C  C75  1  0.692600  0.727600  0.676600  1.0  0.1594
  C  C76  1  0.771500  0.791100  0.658400  1.0  -0.1447
  C  C77  1  0.719200  0.386200  0.787500  1.0  -0.0559
  C  C78  1  0.788100  0.411200  0.712400  1.0  -0.148
  C  C79  1  0.864600  0.342300  0.697000  1.0  0.1782
  C  C80  1  0.637400  0.458100  0.816300  1.0  0.6902
  C  C81  1  0.807400  0.227600  0.823400  1.0  0.1598
  C  C82  1  0.728500  0.291100  0.841600  1.0  -0.1421
  C  C83  1  0.219200  0.886200  0.787500  1.0  -0.0559
  C  C84  1  0.288100  0.911200  0.712400  1.0  -0.148
  C  C85  1  0.364600  0.842300  0.697000  1.0  0.1782
  C  C86  1  0.137400  0.958100  0.816300  1.0  0.6902
  C  C87  1  0.307400  0.727600  0.823400  1.0  0.1598
  C  C88  1  0.228500  0.791100  0.841600  1.0  -0.1421
  N  N89  1  0.877700  0.746200  0.254200  1.0  -0.3199
  N  N90  1  0.543700  0.635600  0.956100  1.0  -0.7118
  N  N91  1  0.537200  0.708000  0.022100  1.0  0.5598
  N  N92  1  0.531200  0.776300  0.084400  1.0  -0.3951
  N  N93  1  0.377700  0.246200  0.254200  1.0  -0.3199
  N  N94  1  0.043700  0.135600  0.956100  1.0  -0.7118
  N  N95  1  0.037200  0.208000  0.022100  1.0  0.5598
  N  N96  1  0.031200  0.276300  0.084400  1.0  -0.3951
  N  N97  1  0.122300  0.746200  0.245800  1.0  -0.3214
  N  N98  1  0.456300  0.635600  0.543900  1.0  -0.7116
  N  N99  1  0.462800  0.708000  0.477900  1.0  0.56
  N  N100  1  0.468800  0.776300  0.415600  1.0  -0.3951
  N  N101  1  0.622300  0.246200  0.245800  1.0  -0.3214
  N  N102  1  0.956300  0.135600  0.543900  1.0  -0.7116
  N  N103  1  0.962800  0.208000  0.477900  1.0  0.56
  N  N104  1  0.968800  0.276300  0.415600  1.0  -0.3951
  N  N105  1  0.122300  0.253800  0.745800  1.0  -0.3205
  N  N106  1  0.456300  0.364400  0.043900  1.0  -0.7117
  N  N107  1  0.462800  0.292000  0.977900  1.0  0.5588
  N  N108  1  0.468800  0.223700  0.915600  1.0  -0.3949
  N  N109  1  0.622300  0.753800  0.745800  1.0  -0.3205
  N  N110  1  0.956300  0.864400  0.043900  1.0  -0.7117
  N  N111  1  0.962800  0.792000  0.977900  1.0  0.5588
  N  N112  1  0.968800  0.723700  0.915600  1.0  -0.3949
  N  N113  1  0.877700  0.253800  0.754200  1.0  -0.3195
  N  N114  1  0.543700  0.364400  0.456100  1.0  -0.7114
  N  N115  1  0.537200  0.292000  0.522100  1.0  0.5587
  N  N116  1  0.531200  0.223700  0.584400  1.0  -0.3939
  N  N117  1  0.377700  0.753800  0.754200  1.0  -0.3195
  N  N118  1  0.043700  0.864400  0.456100  1.0  -0.7114
  N  N119  1  0.037200  0.792000  0.522100  1.0  0.5587
  N  N120  1  0.031200  0.723700  0.584400  1.0  -0.3939
  O  O121  1  0.609400  0.469100  0.239400  1.0  -0.6004
  O  O122  1  0.604300  0.562300  0.416500  1.0  -0.5805
  O  O123  1  0.109400  0.969100  0.239400  1.0  -0.6004
  O  O124  1  0.104300  0.062300  0.416500  1.0  -0.5805
  O  O125  1  0.390600  0.469100  0.260600  1.0  -0.6012
  O  O126  1  0.395700  0.562300  0.083500  1.0  -0.5812
  O  O127  1  0.890600  0.969100  0.260600  1.0  -0.6012
  O  O128  1  0.895700  0.062300  0.083500  1.0  -0.5812
  O  O129  1  0.390600  0.530900  0.760600  1.0  -0.6013
  O  O130  1  0.395700  0.437700  0.583500  1.0  -0.5813
  O  O131  1  0.890600  0.030900  0.760600  1.0  -0.6013
  O  O132  1  0.895700  0.937700  0.583500  1.0  -0.5813
  O  O133  1  0.609400  0.530900  0.739400  1.0  -0.6007
  O  O134  1  0.604300  0.437700  0.916500  1.0  -0.5803
  O  O135  1  0.109400  0.030900  0.739400  1.0  -0.6007
  O  O136  1  0.104300  0.937700  0.916500  1.0  -0.5803
