# generated using pymatgen
data_Cd3H18(C16O7)2
_symmetry_space_group_name_H-M   'P 1'
_cell_length_a   6.77000000
_cell_length_b   14.46500000
_cell_length_c   17.77300000
_cell_angle_alpha   90.00000000
_cell_angle_beta   90.00000000
_cell_angle_gamma   91.27600000
_symmetry_Int_Tables_number   1
_chemical_formula_structural   Cd3H18(C16O7)2
_chemical_formula_sum   'Cd6 H36 C64 O28'
_cell_volume   1740.04363807
_cell_formula_units_Z   2
loop_
 _symmetry_equiv_pos_site_id
 _symmetry_equiv_pos_as_xyz
  1  'x, y, z'
loop_
 _atom_site_type_symbol
 _atom_site_label
 _atom_site_symmetry_multiplicity
 _atom_site_fract_x
 _atom_site_fract_y
 _atom_site_fract_z
 _atom_site_occupancy
 _atom_site_charge
  Cd  Cd1  1  0.557000  0.863160  0.467450  1.0  1.0598
  Cd  Cd2  1  0.943000  0.136840  0.967450  1.0  1.0604
  Cd  Cd3  1  0.443000  0.136840  0.532550  1.0  1.0581
  Cd  Cd4  1  0.057000  0.863160  0.032550  1.0  1.0589
  Cd  Cd5  1  0.000000  0.000000  0.500000  1.0  1.19
  Cd  Cd6  1  0.500000  0.000000  0.000000  1.0  1.1868
  H  H7  1  0.132700  0.022600  0.260400  1.0  0.1148
  H  H8  1  0.273400  0.200000  0.094400  1.0  0.1102
  H  H9  1  0.339000  0.277500  0.310600  1.0  0.1192
  H  H10  1  0.498800  0.312000  0.079600  1.0  0.066
  H  H11  1  0.297800  0.364400  0.076300  1.0  0.0769
  H  H12  1  0.806900  0.394700  0.077200  1.0  0.122
  H  H13  1  0.977800  0.537800  0.064900  1.0  0.0966
  H  H14  1  0.474700  0.673600  0.101500  1.0  0.1143
  H  H15  1  0.314600  0.534000  0.129600  1.0  0.1112
  H  H16  1  0.367300  0.977400  0.760400  1.0  0.1142
  H  H17  1  0.226600  0.800000  0.594400  1.0  0.1103
  H  H18  1  0.161000  0.722500  0.810600  1.0  0.1194
  H  H19  1  0.001200  0.688000  0.579600  1.0  0.0665
  H  H20  1  0.202200  0.635600  0.576300  1.0  0.0776
  H  H21  1  0.693100  0.605300  0.577200  1.0  0.1221
  H  H22  1  0.522200  0.462200  0.564900  1.0  0.0963
  H  H23  1  0.025300  0.326400  0.601500  1.0  0.1139
  H  H24  1  0.185400  0.466000  0.629600  1.0  0.1103
  H  H25  1  0.867300  0.977400  0.739600  1.0  0.1147
  H  H26  1  0.726600  0.800000  0.905600  1.0  0.1099
  H  H27  1  0.661000  0.722500  0.689400  1.0  0.1193
  H  H28  1  0.501200  0.688000  0.920400  1.0  0.066
  H  H29  1  0.702200  0.635600  0.923700  1.0  0.0779
  H  H30  1  0.193100  0.605300  0.922800  1.0  0.122
  H  H31  1  0.022200  0.462200  0.935100  1.0  0.0962
  H  H32  1  0.525300  0.326400  0.898500  1.0  0.114
  H  H33  1  0.685400  0.466000  0.870400  1.0  0.1102
  H  H34  1  0.632700  0.022600  0.239600  1.0  0.1153
  H  H35  1  0.773400  0.200000  0.405600  1.0  0.11
  H  H36  1  0.839000  0.277500  0.189400  1.0  0.1197
  H  H37  1  0.998800  0.312000  0.420400  1.0  0.0664
  H  H38  1  0.797800  0.364400  0.423700  1.0  0.0768
  H  H39  1  0.306900  0.394700  0.422800  1.0  0.1219
  H  H40  1  0.477800  0.537800  0.435100  1.0  0.0967
  H  H41  1  0.974700  0.673600  0.398500  1.0  0.1142
  H  H42  1  0.814600  0.534000  0.370400  1.0  0.1116
  C  C43  1  0.237400  0.147500  0.298900  1.0  -0.1371
  C  C44  1  0.181200  0.080200  0.244900  1.0  -0.0217
  C  C45  1  0.198300  0.100000  0.169100  1.0  -0.1248
  C  C46  1  0.264300  0.186800  0.145500  1.0  -0.1624
  C  C47  1  0.316300  0.253600  0.197800  1.0  0.2478
  C  C48  1  0.303000  0.232800  0.275300  1.0  -0.109
  C  C49  1  0.226900  0.122500  0.380000  1.0  0.6848
  C  C50  1  0.143200  0.028100  0.114100  1.0  0.6556
  C  C51  1  0.852000  0.709000  0.073000  1.0  0.6789
  C  C52  1  0.741000  0.620100  0.088100  1.0  -0.1265
  C  C53  1  0.422000  0.360200  0.102800  1.0  0.082
  C  C54  1  0.534000  0.451000  0.098900  1.0  0.0316
  C  C55  1  0.742000  0.450200  0.083100  1.0  -0.1421
  C  C56  1  0.844000  0.535900  0.076600  1.0  -0.0606
  C  C57  1  0.544000  0.618700  0.100600  1.0  -0.0292
  C  C58  1  0.444000  0.534300  0.112400  1.0  -0.1122
  C  C59  1  0.262600  0.852500  0.798900  1.0  -0.1367
  C  C60  1  0.318800  0.919800  0.744900  1.0  -0.021
  C  C61  1  0.301700  0.900000  0.669100  1.0  -0.1232
  C  C62  1  0.235700  0.813200  0.645500  1.0  -0.1617
  C  C63  1  0.183700  0.746400  0.697800  1.0  0.2475
  C  C64  1  0.197000  0.767200  0.775300  1.0  -0.1107
  C  C65  1  0.273100  0.877500  0.880000  1.0  0.6852
  C  C66  1  0.356800  0.971900  0.614100  1.0  0.6564
  C  C67  1  0.648000  0.291000  0.573000  1.0  0.6772
  C  C68  1  0.759000  0.379900  0.588100  1.0  -0.1271
  C  C69  1  0.078000  0.639800  0.602800  1.0  0.0832
  C  C70  1  0.966000  0.549000  0.598900  1.0  0.0327
  C  C71  1  0.758000  0.549800  0.583100  1.0  -0.142
  C  C72  1  0.656000  0.464100  0.576600  1.0  -0.0535
  C  C73  1  0.956000  0.381300  0.600600  1.0  -0.0296
  C  C74  1  0.056000  0.465700  0.612400  1.0  -0.113
  C  C75  1  0.762600  0.852500  0.701100  1.0  -0.1378
  C  C76  1  0.818800  0.919800  0.755100  1.0  -0.0208
  C  C77  1  0.801700  0.900000  0.830900  1.0  -0.1235
  C  C78  1  0.735700  0.813200  0.854500  1.0  -0.1633
  C  C79  1  0.683700  0.746400  0.802200  1.0  0.2473
  C  C80  1  0.697000  0.767200  0.724700  1.0  -0.1108
  C  C81  1  0.773100  0.877500  0.620000  1.0  0.6853
  C  C82  1  0.856800  0.971900  0.885900  1.0  0.6563
  C  C83  1  0.148000  0.291000  0.927000  1.0  0.6793
  C  C84  1  0.259000  0.379900  0.911900  1.0  -0.1274
  C  C85  1  0.578000  0.639800  0.897200  1.0  0.0846
  C  C86  1  0.466000  0.549000  0.901100  1.0  0.0311
  C  C87  1  0.258000  0.549800  0.916900  1.0  -0.1416
  C  C88  1  0.156000  0.464100  0.923400  1.0  -0.0534
  C  C89  1  0.456000  0.381300  0.899400  1.0  -0.0306
  C  C90  1  0.556000  0.465700  0.887600  1.0  -0.1119
  C  C91  1  0.737400  0.147500  0.201100  1.0  -0.1385
  C  C92  1  0.681200  0.080200  0.255100  1.0  -0.0214
  C  C93  1  0.698300  0.100000  0.330900  1.0  -0.1238
  C  C94  1  0.764300  0.186800  0.354500  1.0  -0.1639
  C  C95  1  0.816300  0.253600  0.302200  1.0  0.2476
  C  C96  1  0.803000  0.232800  0.224700  1.0  -0.1091
  C  C97  1  0.726900  0.122500  0.120000  1.0  0.6849
  C  C98  1  0.643200  0.028100  0.385900  1.0  0.656
  C  C99  1  0.352000  0.709000  0.427000  1.0  0.6794
  C  C100  1  0.241000  0.620100  0.411900  1.0  -0.1216
  C  C101  1  0.922000  0.360200  0.397200  1.0  0.0833
  C  C102  1  0.034000  0.451000  0.401100  1.0  0.0309
  C  C103  1  0.242000  0.450200  0.416900  1.0  -0.1412
  C  C104  1  0.344000  0.535900  0.423400  1.0  -0.0598
  C  C105  1  0.044000  0.618700  0.399400  1.0  -0.0271
  C  C106  1  0.944000  0.534300  0.387600  1.0  -0.1103
  O  O107  1  0.134200  0.049200  0.396700  1.0  -0.6183
  O  O108  1  0.315500  0.176200  0.425100  1.0  -0.5935
  O  O109  1  0.180600  0.040900  0.042000  1.0  -0.7356
  O  O110  1  0.065200  0.952700  0.135100  1.0  -0.5163
  O  O111  1  0.388700  0.339500  0.178600  1.0  -0.2611
  O  O112  1  0.763000  0.777800  0.048100  1.0  -0.6196
  O  O113  1  0.036200  0.712500  0.079000  1.0  -0.6025
  O  O114  1  0.365800  0.950800  0.896700  1.0  -0.6133
  O  O115  1  0.184500  0.823800  0.925100  1.0  -0.5932
  O  O116  1  0.319400  0.959100  0.542000  1.0  -0.7362
  O  O117  1  0.434800  0.047300  0.635100  1.0  -0.5188
  O  O118  1  0.111300  0.660500  0.678600  1.0  -0.2608
  O  O119  1  0.737000  0.222200  0.548100  1.0  -0.6208
  O  O120  1  0.463800  0.287500  0.579000  1.0  -0.604
  O  O121  1  0.865800  0.950800  0.603300  1.0  -0.6132
  O  O122  1  0.684500  0.823800  0.574900  1.0  -0.5951
  O  O123  1  0.819400  0.959100  0.958000  1.0  -0.7364
  O  O124  1  0.934800  0.047300  0.864900  1.0  -0.5178
  O  O125  1  0.611300  0.660500  0.821400  1.0  -0.2611
  O  O126  1  0.237000  0.222200  0.951900  1.0  -0.6199
  O  O127  1  0.963800  0.287500  0.921000  1.0  -0.6016
  O  O128  1  0.634200  0.049200  0.103300  1.0  -0.6177
  O  O129  1  0.815500  0.176200  0.074900  1.0  -0.5941
  O  O130  1  0.680600  0.040900  0.458000  1.0  -0.736
  O  O131  1  0.565200  0.952700  0.364900  1.0  -0.5162
  O  O132  1  0.888700  0.339500  0.321400  1.0  -0.2606
  O  O133  1  0.263000  0.777800  0.451900  1.0  -0.6202
  O  O134  1  0.536200  0.712500  0.421000  1.0  -0.6019
