# generated using pymatgen
data_TbH7C17O6
_symmetry_space_group_name_H-M   'P 1'
_cell_length_a   13.59200000
_cell_length_b   14.08200000
_cell_length_c   16.31300000
_cell_angle_alpha   98.72370000
_cell_angle_beta   114.62000000
_cell_angle_gamma   90.00000000
_symmetry_Int_Tables_number   1
_chemical_formula_structural   TbH7C17O6
_chemical_formula_sum   'Tb4 H28 C68 O24'
_cell_volume   2798.71634880
_cell_formula_units_Z   4
loop_
 _symmetry_equiv_pos_site_id
 _symmetry_equiv_pos_as_xyz
  1  'x, y, z'
loop_
 _atom_site_type_symbol
 _atom_site_label
 _atom_site_symmetry_multiplicity
 _atom_site_fract_x
 _atom_site_fract_y
 _atom_site_fract_z
 _atom_site_occupancy
 _atom_site_charge
  Tb  Tb1  1  0.391350  0.958510  0.371410  1.0  2.2207
  Tb  Tb2  1  0.019940  0.541490  0.628590  1.0  2.2184
  Tb  Tb3  1  0.608650  0.041490  0.628590  1.0  2.2214
  Tb  Tb4  1  0.980060  0.458510  0.371410  1.0  2.215
  H  H5  1  0.280500  0.706200  0.467600  1.0  0.1024
  H  H6  1  0.310200  0.577700  0.679400  1.0  0.1022
  H  H7  1  0.534900  0.783000  0.707400  1.0  0.0932
  H  H8  1  0.527100  0.594600  0.004800  1.0  0.078
  H  H9  1  0.770400  0.641700  0.950400  1.0  0.088
  H  H10  1  0.885300  0.604400  0.088400  1.0  0.1113
  H  H11  1  0.637500  0.541800  0.137000  1.0  0.1072
  H  H12  1  0.812900  0.793800  0.532400  1.0  0.1019
  H  H13  1  0.630800  0.922300  0.320600  1.0  0.1036
  H  H14  1  0.827500  0.717000  0.292600  1.0  0.0934
  H  H15  1  0.522300  0.905400  0.995200  1.0  0.0754
  H  H16  1  0.820000  0.858300  0.049600  1.0  0.0875
  H  H17  1  0.796900  0.895600  0.911600  1.0  0.1107
  H  H18  1  0.500500  0.958200  0.863000  1.0  0.1058
  H  H19  1  0.719500  0.293800  0.532400  1.0  0.1015
  H  H20  1  0.689800  0.422300  0.320600  1.0  0.1028
  H  H21  1  0.465100  0.217000  0.292600  1.0  0.0939
  H  H22  1  0.472900  0.405400  0.995200  1.0  0.0778
  H  H23  1  0.229600  0.358300  0.049600  1.0  0.0879
  H  H24  1  0.114700  0.395600  0.911600  1.0  0.1125
  H  H25  1  0.362500  0.458200  0.863000  1.0  0.1053
  H  H26  1  0.187100  0.206200  0.467600  1.0  0.1013
  H  H27  1  0.369200  0.077700  0.679400  1.0  0.1029
  H  H28  1  0.172500  0.283000  0.707400  1.0  0.0937
  H  H29  1  0.477700  0.094600  0.004800  1.0  0.0757
  H  H30  1  0.180000  0.141700  0.950400  1.0  0.0894
  H  H31  1  0.203100  0.104400  0.088400  1.0  0.1109
  H  H32  1  0.499500  0.041800  0.137000  1.0  0.1055
  C  C33  1  0.770300  0.556700  0.119600  1.0  0.0177
  C  C34  1  0.411800  0.757300  0.582600  1.0  -0.156
  C  C35  1  0.277600  0.634400  0.564600  1.0  -0.1561
  C  C36  1  0.451900  0.834000  0.544200  1.0  0.7887
  C  C37  1  0.844500  0.517900  0.206000  1.0  0.7028
  C  C38  1  0.562100  0.642400  0.873200  1.0  -0.0825
  C  C39  1  0.317700  0.700400  0.528800  1.0  0.0126
  C  C40  1  0.336700  0.621200  0.654800  1.0  -0.037
  C  C41  1  0.437700  0.674900  0.708600  1.0  -0.0251
  C  C42  1  0.471300  0.744600  0.671400  1.0  -0.0454
  C  C43  1  0.503600  0.658600  0.799600  1.0  -0.0916
  C  C44  1  0.600500  0.591200  0.018400  1.0  -0.1405
  C  C45  1  0.635400  0.616700  0.959000  1.0  0.1403
  C  C46  1  0.741200  0.620600  0.987400  1.0  -0.1128
  C  C47  1  0.810700  0.595100  0.068600  1.0  -0.1366
  C  C48  1  0.666300  0.560100  0.098600  1.0  -0.18
  C  C49  1  0.173100  0.571300  0.504600  1.0  0.7371
  C  C50  1  0.650700  0.943300  0.880400  1.0  0.022
  C  C51  1  0.829200  0.742700  0.417400  1.0  -0.1557
  C  C52  1  0.713000  0.865600  0.435400  1.0  -0.1563
  C  C53  1  0.907700  0.666000  0.455800  1.0  0.7886
  C  C54  1  0.638500  0.982100  0.794000  1.0  0.7043
  C  C55  1  0.688900  0.857600  0.126800  1.0  -0.0791
  C  C56  1  0.788900  0.799600  0.471200  1.0  0.0164
  C  C57  1  0.681900  0.878800  0.345200  1.0  -0.0376
  C  C58  1  0.729100  0.825100  0.291400  1.0  -0.0241
  C  C59  1  0.799900  0.755400  0.328600  1.0  -0.0447
  C  C60  1  0.704000  0.841400  0.200400  1.0  -0.092
  C  C61  1  0.582100  0.908800  0.981600  1.0  -0.1348
  C  C62  1  0.676400  0.883300  0.041000  1.0  0.1377
  C  C63  1  0.753800  0.879400  0.012600  1.0  -0.1167
  C  C64  1  0.742100  0.904900  0.931400  1.0  -0.1358
  C  C65  1  0.567700  0.939900  0.901400  1.0  -0.182
  C  C66  1  0.668500  0.928700  0.495400  1.0  0.7383
  C  C67  1  0.229700  0.443300  0.880400  1.0  0.0189
  C  C68  1  0.588200  0.242700  0.417400  1.0  -0.1559
  C  C69  1  0.722400  0.365600  0.435400  1.0  -0.156
  C  C70  1  0.548100  0.166000  0.455800  1.0  0.7735
  C  C71  1  0.155500  0.482100  0.794000  1.0  0.7035
  C  C72  1  0.437900  0.357600  0.126800  1.0  -0.0808
  C  C73  1  0.682300  0.299600  0.471200  1.0  0.0117
  C  C74  1  0.663300  0.378800  0.345200  1.0  -0.0352
  C  C75  1  0.562300  0.325100  0.291400  1.0  -0.0247
  C  C76  1  0.528700  0.255400  0.328600  1.0  -0.0461
  C  C77  1  0.496400  0.341400  0.200400  1.0  -0.0917
  C  C78  1  0.399500  0.408800  0.981600  1.0  -0.1374
  C  C79  1  0.364600  0.383300  0.041000  1.0  0.1407
  C  C80  1  0.258800  0.379400  0.012600  1.0  -0.1174
  C  C81  1  0.189300  0.404900  0.931400  1.0  -0.1382
  C  C82  1  0.333700  0.439900  0.901400  1.0  -0.1762
  C  C83  1  0.826900  0.428700  0.495400  1.0  0.7378
  C  C84  1  0.349300  0.056700  0.119600  1.0  0.02
  C  C85  1  0.170800  0.257300  0.582600  1.0  -0.1562
  C  C86  1  0.287000  0.134400  0.564600  1.0  -0.1567
  C  C87  1  0.092300  0.334000  0.544200  1.0  0.7698
  C  C88  1  0.361500  0.017900  0.206000  1.0  0.7041
  C  C89  1  0.311100  0.142400  0.873200  1.0  -0.0801
  C  C90  1  0.211100  0.200400  0.528800  1.0  0.0161
  C  C91  1  0.318100  0.121200  0.654800  1.0  -0.0372
  C  C92  1  0.270900  0.174900  0.708600  1.0  -0.0253
  C  C93  1  0.200100  0.244600  0.671400  1.0  -0.0454
  C  C94  1  0.296000  0.158600  0.799600  1.0  -0.089
  C  C95  1  0.417900  0.091200  0.018400  1.0  -0.1325
  C  C96  1  0.323600  0.116700  0.959000  1.0  0.1371
  C  C97  1  0.246200  0.120600  0.987400  1.0  -0.115
  C  C98  1  0.257900  0.095100  0.068600  1.0  -0.1403
  C  C99  1  0.432300  0.060100  0.098600  1.0  -0.1784
  C  C100  1  0.331500  0.071300  0.504600  1.0  0.7386
  O  O101  1  0.119300  0.543600  0.541400  1.0  -0.7416
  O  O102  1  0.391600  0.844900  0.464600  1.0  -0.7752
  O  O103  1  0.148000  0.552600  0.420200  1.0  -0.6334
  O  O104  1  0.943300  0.520200  0.229600  1.0  -0.6384
  O  O105  1  0.538500  0.881100  0.597000  1.0  -0.6874
  O  O106  1  0.801700  0.486600  0.252400  1.0  -0.669
  O  O107  1  0.577900  0.956400  0.458600  1.0  -0.7408
  O  O108  1  0.927000  0.655100  0.535400  1.0  -0.7689
  O  O109  1  0.727800  0.947400  0.579800  1.0  -0.6308
  O  O110  1  0.713700  0.979800  0.770400  1.0  -0.6399
  O  O111  1  0.941500  0.618900  0.403000  1.0  -0.6859
  O  O112  1  0.549300  0.013400  0.747600  1.0  -0.6595
  O  O113  1  0.880700  0.456400  0.458600  1.0  -0.7409
  O  O114  1  0.608400  0.155100  0.535400  1.0  -0.7766
  O  O115  1  0.852000  0.447400  0.579800  1.0  -0.6327
  O  O116  1  0.056700  0.479800  0.770400  1.0  -0.6384
  O  O117  1  0.461500  0.118900  0.403000  1.0  -0.6872
  O  O118  1  0.198300  0.513400  0.747600  1.0  -0.6596
  O  O119  1  0.422100  0.043600  0.541400  1.0  -0.7403
  O  O120  1  0.073000  0.344900  0.464600  1.0  -0.7676
  O  O121  1  0.272200  0.052600  0.420200  1.0  -0.6296
  O  O122  1  0.286300  0.020200  0.229600  1.0  -0.6403
  O  O123  1  0.058500  0.381100  0.597000  1.0  -0.6864
  O  O124  1  0.450700  0.986600  0.252400  1.0  -0.6669
