# generated using pymatgen
data_Cd7H176C240(N9O14)4
_symmetry_space_group_name_H-M   'P 1'
_cell_length_a   18.79290000
_cell_length_b   19.02420000
_cell_length_c   26.25470000
_cell_angle_alpha   74.82500000
_cell_angle_beta   78.09000000
_cell_angle_gamma   64.84300000
_symmetry_Int_Tables_number   1
_chemical_formula_structural   Cd7H176C240(N9O14)4
_chemical_formula_sum   'Cd7 H176 C240 N36 O56'
_cell_volume   8151.23908106
_cell_formula_units_Z   1
loop_
 _symmetry_equiv_pos_site_id
 _symmetry_equiv_pos_as_xyz
  1  'x, y, z'
loop_
 _atom_site_type_symbol
 _atom_site_label
 _atom_site_symmetry_multiplicity
 _atom_site_fract_x
 _atom_site_fract_y
 _atom_site_fract_z
 _atom_site_occupancy
 _atom_site_charge
  Cd  Cd1  1  0.978040  0.401500  0.096700  1.0  1.09
  Cd  Cd2  1  0.949870  0.295360  0.257320  1.0  1.0681
  Cd  Cd3  1  0.934790  0.191940  0.400460  1.0  1.1307
  Cd  Cd4  1  0.021960  0.598500  0.903300  1.0  1.091
  Cd  Cd5  1  0.050130  0.704640  0.742680  1.0  1.0695
  Cd  Cd6  1  0.065210  0.808060  0.599540  1.0  1.1296
  Cd  Cd7  1  0.000000  0.000000  0.500000  1.0  1.0757
  H  H8  1  0.351000  0.598900  0.243100  1.0  0.1269
  H  H9  1  0.370800  0.552700  0.098600  1.0  0.1238
  H  H10  1  0.127800  0.653700  0.214300  1.0  0.1217
  H  H11  1  0.996200  0.667600  0.233300  1.0  0.1143
  H  H12  1  0.953700  0.592000  0.201200  1.0  0.1063
  H  H13  1  0.173100  0.490600  0.126800  1.0  0.1289
  H  H14  1  0.461200  0.607500  0.274000  1.0  0.1201
  H  H15  1  0.538000  0.605100  0.234500  1.0  0.1059
  H  H16  1  0.361900  0.935300  0.191500  1.0  0.1175
  H  H17  1  0.335000  0.734800  0.265600  1.0  0.1417
  H  H18  1  0.138400  0.017200  0.264200  1.0  0.1284
  H  H19  1  0.919600  0.019800  0.303800  1.0  0.1118
  H  H20  1  0.967100  0.890500  0.294200  1.0  0.1232
  H  H21  1  0.099500  0.824600  0.269200  1.0  0.1259
  H  H22  1  0.494000  0.931700  0.160000  1.0  0.1193
  H  H23  1  0.563500  0.850900  0.149400  1.0  0.1068
  H  H24  1  0.400600  0.011100  0.096700  1.0  0.115
  H  H25  1  0.428900  0.954800  0.956900  1.0  0.1314
  H  H26  1  0.208200  0.179500  0.035000  1.0  0.1227
  H  H27  1  0.082400  0.341500  0.918700  1.0  0.1026
  H  H28  1  0.164700  0.267000  0.856800  1.0  0.1171
  H  H29  1  0.272700  0.152700  0.882600  1.0  0.1305
  H  H30  1  0.607900  0.780900  0.980800  1.0  0.1197
  H  H31  1  0.556000  0.840100  0.935200  1.0  0.1559
  H  H32  1  0.454200  0.810800  0.912200  1.0  0.1243
  H  H33  1  0.418200  0.612700  0.981800  1.0  0.1145
  H  H34  1  0.309300  0.828200  0.808900  1.0  0.1332
  H  H35  1  0.212400  0.859000  0.754600  1.0  0.1137
  H  H36  1  0.131500  0.788800  0.775100  1.0  0.1133
  H  H37  1  0.245100  0.657300  0.902800  1.0  0.1257
  H  H38  1  0.501000  0.512800  0.046600  1.0  0.1447
  H  H39  1  0.570600  0.525800  0.062600  1.0  0.1157
  H  H40  1  0.053400  0.398800  0.569200  1.0  0.1203
  H  H41  1  0.171800  0.523900  0.472200  1.0  0.1291
  H  H42  1  0.180100  0.467400  0.329800  1.0  0.1341
  H  H43  1  0.164500  0.419300  0.261200  1.0  0.1158
  H  H44  1  0.087300  0.345700  0.278100  1.0  0.1212
  H  H45  1  0.040700  0.368500  0.431400  1.0  0.1277
  H  H46  1  0.049400  0.457200  0.687700  1.0  0.1088
  H  H47  1  0.007400  0.419400  0.662600  1.0  0.1177
  H  H48  1  0.081300  0.280200  0.648100  1.0  0.1205
  H  H49  1  0.279700  0.138500  0.718200  1.0  0.124
  H  H50  1  0.134700  0.076200  0.606100  1.0  0.1285
  H  H51  1  0.229700  0.844000  0.601900  1.0  0.1068
  H  H52  1  0.328300  0.823100  0.651100  1.0  0.1191
  H  H53  1  0.329800  0.929800  0.679100  1.0  0.1346
  H  H54  1  0.317500  0.189100  0.782000  1.0  0.1131
  H  H55  1  0.280500  0.281200  0.781700  1.0  0.1055
  H  H56  1  0.439300  0.131700  0.731300  1.0  0.1238
  H  H57  1  0.553900  0.263300  0.638600  1.0  0.1164
  H  H58  1  0.648000  0.969200  0.721200  1.0  0.1075
  H  H59  1  0.755900  0.847200  0.720700  1.0  0.1236
  H  H60  1  0.867700  0.841600  0.658700  1.0  0.1179
  H  H61  1  0.760400  0.076100  0.606400  1.0  0.1115
  H  H62  1  0.502600  0.404300  0.633800  1.0  0.1306
  H  H63  1  0.420000  0.447100  0.665300  1.0  0.1129
  H  H64  1  0.507800  0.395000  0.541000  1.0  0.118
  H  H65  1  0.321100  0.537800  0.460900  1.0  0.1167
  H  H66  1  0.677800  0.340100  0.419700  1.0  0.1233
  H  H67  1  0.691400  0.338700  0.265300  1.0  0.1137
  H  H68  1  0.555000  0.386700  0.271400  1.0  0.1224
  H  H69  1  0.479000  0.420800  0.350500  1.0  0.1343
  H  H70  1  0.190600  0.614100  0.567200  1.0  0.0987
  H  H71  1  0.198600  0.618800  0.505200  1.0  0.1182
  H  H72  1  0.582900  0.593500  0.163400  1.0  0.3802
  H  H73  1  0.579500  0.740000  0.147500  1.0  0.3266
  H  H74  1  0.570200  0.747600  0.068400  1.0  0.3341
  H  H75  1  0.587100  0.622200  0.068600  1.0  0.3277
  H  H76  1  0.176000  0.534100  0.639700  1.0  0.3689
  H  H77  1  0.212700  0.377400  0.746600  1.0  0.2562
  H  H78  1  0.280800  0.379600  0.730700  1.0  0.3595
  H  H79  1  0.290200  0.466700  0.658200  1.0  0.3517
  H  H80  1  0.105200  0.197700  0.196700  1.0  0.0586
  H  H81  1  0.297600  0.131300  0.176600  1.0  0.1355
  H  H82  1  0.228800  0.114900  0.162500  1.0  0.143
  H  H83  1  0.271500  0.163100  0.118500  1.0  0.1455
  H  H84  1  0.178600  0.334500  0.184900  1.0  0.1412
  H  H85  1  0.266800  0.271500  0.188300  1.0  0.1354
  H  H86  1  0.234600  0.313600  0.132300  1.0  0.1448
  H  H87  1  0.793800  0.239300  0.481400  1.0  0.1019
  H  H88  1  0.685400  0.275800  0.540800  1.0  0.1332
  H  H89  1  0.694100  0.221700  0.598200  1.0  0.126
  H  H90  1  0.700800  0.304800  0.587300  1.0  0.1317
  H  H91  1  0.902300  0.158100  0.588000  1.0  0.1337
  H  H92  1  0.843600  0.225400  0.619300  1.0  0.1346
  H  H93  1  0.830000  0.146400  0.627000  1.0  0.1128
  H  H94  1  0.936100  0.450500  0.228800  1.0  0.466
  H  H95  1  0.902000  0.451400  0.278700  1.0  0.4298
  H  H96  1  0.649000  0.401100  0.756900  1.0  0.1274
  H  H97  1  0.629200  0.447300  0.901400  1.0  0.1234
  H  H98  1  0.872200  0.346300  0.785700  1.0  0.1219
  H  H99  1  0.003800  0.332400  0.766700  1.0  0.1131
  H  H100  1  0.046300  0.408000  0.798800  1.0  0.1044
  H  H101  1  0.826900  0.509400  0.873200  1.0  0.1286
  H  H102  1  0.538800  0.392500  0.726000  1.0  0.1185
  H  H103  1  0.462000  0.394900  0.765500  1.0  0.1038
  H  H104  1  0.638100  0.064700  0.808500  1.0  0.1174
  H  H105  1  0.665000  0.265200  0.734400  1.0  0.1424
  H  H106  1  0.861600  0.982800  0.735800  1.0  0.1282
  H  H107  1  0.080400  0.980200  0.696200  1.0  0.1122
  H  H108  1  0.032900  0.109500  0.705800  1.0  0.1233
  H  H109  1  0.900500  0.175400  0.730800  1.0  0.1263
  H  H110  1  0.506000  0.068300  0.840000  1.0  0.1202
  H  H111  1  0.436500  0.149100  0.850600  1.0  0.1076
  H  H112  1  0.599400  0.988900  0.903300  1.0  0.1145
  H  H113  1  0.571100  0.045200  0.043100  1.0  0.1309
  H  H114  1  0.791800  0.820500  0.965000  1.0  0.1223
  H  H115  1  0.917600  0.658500  0.081300  1.0  0.1025
  H  H116  1  0.835300  0.733000  0.143200  1.0  0.1178
  H  H117  1  0.727300  0.847300  0.117400  1.0  0.1309
  H  H118  1  0.392100  0.219100  0.019200  1.0  0.1162
  H  H119  1  0.444000  0.159900  0.064800  1.0  0.1554
  H  H120  1  0.545800  0.189200  0.087800  1.0  0.1243
  H  H121  1  0.581800  0.387300  0.018200  1.0  0.1128
  H  H122  1  0.690700  0.171800  0.191100  1.0  0.1337
  H  H123  1  0.787600  0.141000  0.245400  1.0  0.1133
  H  H124  1  0.868500  0.211200  0.224900  1.0  0.1133
  H  H125  1  0.754900  0.342700  0.097200  1.0  0.1258
  H  H126  1  0.499000  0.487200  0.953400  1.0  0.1441
  H  H127  1  0.429400  0.474200  0.937400  1.0  0.1157
  H  H128  1  0.946600  0.601200  0.430800  1.0  0.1211
  H  H129  1  0.828200  0.476100  0.527800  1.0  0.1292
  H  H130  1  0.819900  0.532600  0.670200  1.0  0.1345
  H  H131  1  0.835500  0.580700  0.738800  1.0  0.1146
  H  H132  1  0.912700  0.654300  0.721900  1.0  0.1221
  H  H133  1  0.959300  0.631500  0.568600  1.0  0.1291
  H  H134  1  0.950600  0.542800  0.312300  1.0  0.1083
  H  H135  1  0.992600  0.580600  0.337400  1.0  0.1166
  H  H136  1  0.918700  0.719800  0.351900  1.0  0.1203
  H  H137  1  0.720300  0.861500  0.281800  1.0  0.1228
  H  H138  1  0.865300  0.923800  0.393900  1.0  0.1284
  H  H139  1  0.770300  0.156000  0.398100  1.0  0.1067
  H  H140  1  0.671700  0.176900  0.348900  1.0  0.1187
  H  H141  1  0.670200  0.070200  0.320900  1.0  0.1349
  H  H142  1  0.682500  0.810900  0.218000  1.0  0.1118
  H  H143  1  0.719500  0.718800  0.218300  1.0  0.1048
  H  H144  1  0.560700  0.868300  0.268700  1.0  0.1244
  H  H145  1  0.446100  0.736700  0.361400  1.0  0.1163
  H  H146  1  0.352000  0.030800  0.278800  1.0  0.1081
  H  H147  1  0.244100  0.152800  0.279300  1.0  0.1235
  H  H148  1  0.132300  0.158400  0.341300  1.0  0.1182
  H  H149  1  0.239600  0.923900  0.393600  1.0  0.1121
  H  H150  1  0.497400  0.595700  0.366200  1.0  0.133
  H  H151  1  0.580000  0.552900  0.334700  1.0  0.1131
  H  H152  1  0.492200  0.605000  0.459000  1.0  0.118
  H  H153  1  0.678900  0.462200  0.539100  1.0  0.1165
  H  H154  1  0.322200  0.659900  0.580300  1.0  0.1231
  H  H155  1  0.308600  0.661300  0.734700  1.0  0.114
  H  H156  1  0.445000  0.613300  0.728600  1.0  0.1221
  H  H157  1  0.521000  0.579200  0.649500  1.0  0.1346
  H  H158  1  0.809400  0.385900  0.432800  1.0  0.0986
  H  H159  1  0.801400  0.381200  0.494800  1.0  0.1196
  H  H160  1  0.417100  0.406500  0.836600  1.0  0.3784
  H  H161  1  0.420500  0.260000  0.852500  1.0  0.3267
  H  H162  1  0.429800  0.252400  0.931600  1.0  0.3338
  H  H163  1  0.412900  0.377800  0.931400  1.0  0.3295
  H  H164  1  0.824000  0.465900  0.360300  1.0  0.366
  H  H165  1  0.787300  0.622600  0.253400  1.0  0.2581
  H  H166  1  0.719200  0.620400  0.269300  1.0  0.3585
  H  H167  1  0.709800  0.533300  0.341800  1.0  0.3533
  H  H168  1  0.894800  0.802300  0.803300  1.0  0.0582
  H  H169  1  0.702400  0.868700  0.823400  1.0  0.1362
  H  H170  1  0.771200  0.885100  0.837500  1.0  0.1435
  H  H171  1  0.728500  0.836900  0.881500  1.0  0.1444
  H  H172  1  0.821400  0.665500  0.815100  1.0  0.1417
  H  H173  1  0.733200  0.728500  0.811700  1.0  0.134
  H  H174  1  0.765400  0.686400  0.867700  1.0  0.1452
  H  H175  1  0.206200  0.760700  0.518600  1.0  0.1026
  H  H176  1  0.314600  0.724200  0.459200  1.0  0.1338
  H  H177  1  0.305900  0.778300  0.401800  1.0  0.126
  H  H178  1  0.299200  0.695200  0.412700  1.0  0.1319
  H  H179  1  0.097700  0.841900  0.412000  1.0  0.1309
  H  H180  1  0.156400  0.774600  0.380700  1.0  0.1333
  H  H181  1  0.170000  0.853600  0.373000  1.0  0.1117
  H  H182  1  0.063900  0.549500  0.771200  1.0  0.4696
  H  H183  1  0.098000  0.548600  0.721300  1.0  0.4289
  C  C184  1  0.497800  0.580300  0.150900  1.0  0.2146
  C  C185  1  0.454400  0.596200  0.199200  1.0  0.0622
  C  C186  1  0.380300  0.591400  0.209900  1.0  -0.0858
  C  C187  1  0.348900  0.575600  0.172500  1.0  0.1486
  C  C188  1  0.392500  0.562400  0.124000  1.0  -0.0744
  C  C189  1  0.468400  0.563200  0.112200  1.0  0.0867
  C  C190  1  0.163400  0.569300  0.170000  1.0  0.1575
  C  C191  1  0.110500  0.623000  0.201000  1.0  -0.0812
  C  C192  1  0.031900  0.631300  0.212300  1.0  -0.1005
  C  C193  1  0.006600  0.586700  0.192800  1.0  -0.0395
  C  C194  1  0.058200  0.533400  0.160700  1.0  -0.1321
  C  C195  1  0.137700  0.525400  0.148800  1.0  -0.1103
  C  C196  1  0.029700  0.486200  0.138300  1.0  0.6801
  C  C197  1  0.480200  0.626300  0.237500  1.0  -0.2073
  C  C198  1  0.493400  0.756700  0.194600  1.0  0.2517
  C  C199  1  0.460600  0.838200  0.183100  1.0  0.0343
  C  C200  1  0.383100  0.879700  0.200200  1.0  -0.0914
  C  C201  1  0.338900  0.843700  0.227900  1.0  0.1137
  C  C202  1  0.367400  0.759900  0.244000  1.0  -0.0445
  C  C203  1  0.448000  0.715400  0.225900  1.0  0.0111
  C  C204  1  0.130300  0.913200  0.265800  1.0  0.1195
  C  C205  1  0.103000  0.991900  0.270600  1.0  -0.0331
  C  C206  1  0.024100  0.032100  0.284800  1.0  -0.085
  C  C207  1  0.973800  0.993100  0.293700  1.0  -0.0575
  C  C208  1  0.001800  0.916400  0.288100  1.0  -0.1181
  C  C209  1  0.080300  0.877200  0.273700  1.0  -0.1387
  C  C210  1  0.991600  0.117100  0.292900  1.0  0.7055
  C  C211  1  0.506800  0.882900  0.147700  1.0  -0.1985
  C  C212  1  0.527000  0.850000  0.058700  1.0  0.2547
  C  C213  1  0.488800  0.903100  0.091700  1.0  0.0515
  C  C214  1  0.426900  0.974500  0.074100  1.0  -0.0844
  C  C215  1  0.404900  0.991200  0.026300  1.0  0.1364
  C  C216  1  0.444000  0.941300  0.991300  1.0  -0.0907
  C  C217  1  0.509100  0.867100  0.008000  1.0  0.0735
  C  C218  1  0.251200  0.156300  0.960500  1.0  0.0665
  C  C219  1  0.199300  0.198400  0.999000  1.0  -0.018
  C  C220  1  0.135300  0.267600  0.984300  1.0  -0.1068
  C  C221  1  0.124400  0.293600  0.929800  1.0  -0.0187
  C  C222  1  0.174300  0.250000  0.892600  1.0  -0.0957
  C  C223  1  0.238100  0.181900  0.908000  1.0  -0.0595
  C  C224  1  0.080100  0.315300  0.023700  1.0  0.7306
  C  C225  1  0.553600  0.809900  0.971500  1.0  -0.2638
  C  C226  1  0.533900  0.679500  0.012100  1.0  0.1967
  C  C227  1  0.519000  0.750000  0.972600  1.0  0.0601
  C  C228  1  0.465600  0.764600  0.938700  1.0  -0.0777
  C  C229  1  0.427300  0.714600  0.941400  1.0  0.0202
  C  C230  1  0.443800  0.646500  0.979800  1.0  -0.1328
  C  C231  1  0.497100  0.626700  0.015500  1.0  0.0224
  C  C232  1  0.285800  0.739100  0.861700  1.0  0.0072
  C  C233  1  0.276500  0.799900  0.817100  1.0  -0.0351
  C  C234  1  0.218700  0.818300  0.784900  1.0  -0.092
  C  C235  1  0.170200  0.776800  0.797400  1.0  -0.0331
  C  C236  1  0.178000  0.718500  0.841700  1.0  -0.1361
  C  C237  1  0.237900  0.699000  0.873200  1.0  0.0082
  C  C238  1  0.124000  0.675200  0.858900  1.0  0.7348
  C  C239  1  0.514000  0.550200  0.058700  1.0  -0.2789
  C  C240  1  0.126400  0.507000  0.599900  1.0  0.2568
  C  C241  1  0.086900  0.456300  0.608200  1.0  0.0298
  C  C242  1  0.079700  0.432900  0.564400  1.0  -0.1636
  C  C243  1  0.109900  0.458400  0.514100  1.0  0.2038
  C  C244  1  0.150200  0.507400  0.506500  1.0  -0.0607
  C  C245  1  0.158700  0.532300  0.549200  1.0  0.0194
  C  C246  1  0.113200  0.421900  0.386600  1.0  0.1509
  C  C247  1  0.149100  0.437500  0.336600  1.0  -0.106
  C  C248  1  0.139700  0.408800  0.295600  1.0  -0.0733
  C  C249  1  0.093800  0.365000  0.305600  1.0  -0.0383
  C  C250  1  0.057300  0.349500  0.356600  1.0  -0.105
  C  C251  1  0.066100  0.378200  0.397100  1.0  -0.0753
  C  C252  1  0.008700  0.300600  0.370200  1.0  0.6904
  C  C253  1  0.058000  0.422500  0.663300  1.0  -0.2222
  C  C254  1  0.178100  0.328300  0.712800  1.0  0.2561
  C  C255  1  0.118800  0.339900  0.683000  1.0  0.0734
  C  C256  1  0.121300  0.273900  0.667400  1.0  -0.1013
  C  C257  1  0.180500  0.199800  0.679600  1.0  0.1768
  C  C258  1  0.239600  0.189000  0.709500  1.0  -0.0804
  C  C259  1  0.239000  0.253200  0.726400  1.0  0.0107
  C  C260  1  0.231400  0.012400  0.646100  1.0  0.0562
  C  C261  1  0.173600  0.025100  0.615400  1.0  -0.1006
  C  C262  1  0.173700  0.962300  0.598500  1.0  -0.092
  C  C263  1  0.230800  0.886800  0.612600  1.0  -0.014
  C  C264  1  0.289200  0.874200  0.642300  1.0  -0.0978
  C  C265  1  0.289900  0.937700  0.659100  1.0  -0.1157
  C  C266  1  0.109200  0.975600  0.566100  1.0  0.6985
  C  C267  1  0.302200  0.241700  0.758900  1.0  -0.2325
  C  C268  1  0.377200  0.324400  0.701400  1.0  0.2652
  C  C269  1  0.374300  0.249400  0.724800  1.0  0.0262
  C  C270  1  0.440400  0.181700  0.715800  1.0  -0.0846
  C  C271  1  0.506400  0.186400  0.685000  1.0  0.0678
  C  C272  1  0.508600  0.260500  0.660600  1.0  -0.1174
  C  C273  1  0.444900  0.329400  0.668600  1.0  0.0221
  C  C274  1  0.694000  0.031900  0.663000  1.0  0.1456
  C  C275  1  0.692900  0.966300  0.696700  1.0  -0.0108
  C  C276  1  0.757400  0.893000  0.696700  1.0  -0.0889
  C  C277  1  0.823800  0.889700  0.660100  1.0  -0.0408
  C  C278  1  0.823500  0.958100  0.626300  1.0  -0.1267
  C  C279  1  0.758800  0.029200  0.628800  1.0  -0.1267
  C  C280  1  0.893800  0.956500  0.586400  1.0  0.6974
  C  C281  1  0.447400  0.409900  0.641100  1.0  -0.235
  C  C282  1  0.329100  0.493300  0.588300  1.0  0.2303
  C  C283  1  0.409600  0.444900  0.589000  1.0  0.0186
  C  C284  1  0.454100  0.429100  0.541300  1.0  -0.1202
  C  C285  1  0.420700  0.462900  0.493600  1.0  0.2058
  C  C286  1  0.342600  0.513800  0.493500  1.0  -0.1241
  C  C287  1  0.294500  0.530800  0.540300  1.0  0.0648
  C  C288  1  0.571600  0.383200  0.392500  1.0  0.1373
  C  C289  1  0.653100  0.351300  0.389200  1.0  -0.1198
  C  C290  1  0.699100  0.335600  0.342100  1.0  -0.1494
  C  C291  1  0.661200  0.349600  0.297700  1.0  -0.0319
  C  C292  1  0.579900  0.379200  0.301200  1.0  -0.1119
  C  C293  1  0.534500  0.398100  0.348600  1.0  -0.0609
  C  C294  1  0.787400  0.307400  0.338300  1.0  0.724
  C  C295  1  0.207700  0.582400  0.539600  1.0  -0.1903
  C  C296  1  0.119900  0.240500  0.192500  1.0  0.2376
  C  C297  1  0.253200  0.152700  0.155900  1.0  -0.1739
  C  C298  1  0.220900  0.292600  0.169100  1.0  -0.1667
  C  C299  1  0.829000  0.219500  0.507400  1.0  0.2937
  C  C300  1  0.712300  0.259000  0.572300  1.0  -0.1544
  C  C301  1  0.847700  0.184600  0.601800  1.0  -0.1441
  C  C302  1  0.836600  0.525700  0.020700  1.0  0.0628
  C  C303  1  0.828700  0.497900  0.978700  1.0  0.006
  C  C304  1  0.502200  0.419700  0.849100  1.0  0.2149
  C  C305  1  0.545600  0.403800  0.800800  1.0  0.0633
  C  C306  1  0.619700  0.408600  0.790100  1.0  -0.0859
  C  C307  1  0.651100  0.424400  0.827500  1.0  0.1492
  C  C308  1  0.607500  0.437600  0.876000  1.0  -0.0738
  C  C309  1  0.531600  0.436800  0.887800  1.0  0.0908
  C  C310  1  0.836600  0.430700  0.830000  1.0  0.1592
  C  C311  1  0.889500  0.377000  0.799000  1.0  -0.0799
  C  C312  1  0.968100  0.368700  0.787700  1.0  -0.1022
  C  C313  1  0.993400  0.413300  0.807200  1.0  -0.0426
  C  C314  1  0.941800  0.466600  0.839300  1.0  -0.1331
  C  C315  1  0.862300  0.474600  0.851200  1.0  -0.1092
  C  C316  1  0.970300  0.513800  0.861700  1.0  0.6796
  C  C317  1  0.519800  0.373700  0.762500  1.0  -0.2063
  C  C318  1  0.506600  0.243300  0.805400  1.0  0.2542
  C  C319  1  0.539400  0.161800  0.816900  1.0  0.0352
  C  C320  1  0.616900  0.120300  0.799800  1.0  -0.0888
  C  C321  1  0.661100  0.156300  0.772100  1.0  0.111
  C  C322  1  0.632600  0.240100  0.756000  1.0  -0.0443
  C  C323  1  0.552000  0.284600  0.774100  1.0  0.0119
  C  C324  1  0.869700  0.086800  0.734200  1.0  0.1197
  C  C325  1  0.897000  0.008100  0.729400  1.0  -0.0327
  C  C326  1  0.975900  0.967900  0.715200  1.0  -0.0846
  C  C327  1  0.026200  0.006900  0.706300  1.0  -0.0584
  C  C328  1  0.998200  0.083600  0.711900  1.0  -0.1171
  C  C329  1  0.919700  0.122800  0.726300  1.0  -0.1385
  C  C330  1  0.008400  0.882900  0.707100  1.0  0.7055
  C  C331  1  0.493200  0.117100  0.852300  1.0  -0.2007
  C  C332  1  0.473000  0.150000  0.941300  1.0  0.254
  C  C333  1  0.511200  0.096900  0.908300  1.0  0.0499
  C  C334  1  0.573100  0.025500  0.925900  1.0  -0.0857
  C  C335  1  0.595100  0.008800  0.973700  1.0  0.1374
  C  C336  1  0.556000  0.058700  0.008700  1.0  -0.0931
  C  C337  1  0.490900  0.132900  0.992000  1.0  0.0734
  C  C338  1  0.748800  0.843700  0.039500  1.0  0.0665
  C  C339  1  0.800700  0.801600  0.001000  1.0  -0.0179
  C  C340  1  0.864700  0.732400  0.015700  1.0  -0.1067
  C  C341  1  0.875600  0.706400  0.070200  1.0  -0.0193
  C  C342  1  0.825700  0.750000  0.107400  1.0  -0.0953
  C  C343  1  0.761900  0.818100  0.092000  1.0  -0.0567
  C  C344  1  0.919900  0.684700  0.976300  1.0  0.7306
  C  C345  1  0.446400  0.190100  0.028500  1.0  -0.2665
  C  C346  1  0.466100  0.320500  0.987900  1.0  0.1967
  C  C347  1  0.481000  0.250000  0.027400  1.0  0.0591
  C  C348  1  0.534400  0.235400  0.061300  1.0  -0.0754
  C  C349  1  0.572700  0.285400  0.058600  1.0  0.0188
  C  C350  1  0.556200  0.353500  0.020200  1.0  -0.1305
  C  C351  1  0.502900  0.373300  0.984500  1.0  0.0235
  C  C352  1  0.714200  0.260900  0.138300  1.0  0.0019
  C  C353  1  0.723500  0.200100  0.182900  1.0  -0.035
  C  C354  1  0.781300  0.181700  0.215100  1.0  -0.0919
  C  C355  1  0.829800  0.223200  0.202600  1.0  -0.0327
  C  C356  1  0.822000  0.281500  0.158300  1.0  -0.1378
  C  C357  1  0.762100  0.301000  0.126800  1.0  0.0087
  C  C358  1  0.876000  0.324800  0.141100  1.0  0.7359
  C  C359  1  0.486000  0.449800  0.941300  1.0  -0.279
  C  C360  1  0.873600  0.493000  0.400100  1.0  0.2567
  C  C361  1  0.913100  0.543700  0.391800  1.0  0.031
  C  C362  1  0.920300  0.567100  0.435600  1.0  -0.1596
  C  C363  1  0.890100  0.541600  0.485900  1.0  0.2026
  C  C364  1  0.849800  0.492600  0.493500  1.0  -0.062
  C  C365  1  0.841300  0.467700  0.450800  1.0  0.0203
  C  C366  1  0.886800  0.578100  0.613400  1.0  0.1521
  C  C367  1  0.850900  0.562500  0.663400  1.0  -0.105
  C  C368  1  0.860300  0.591200  0.704400  1.0  -0.0742
  C  C369  1  0.906200  0.635000  0.694400  1.0  -0.0429
  C  C370  1  0.942700  0.650500  0.643400  1.0  -0.1031
  C  C371  1  0.933900  0.621800  0.602900  1.0  -0.0753
  C  C372  1  0.991300  0.699400  0.629800  1.0  0.6914
  C  C373  1  0.942000  0.577500  0.336700  1.0  -0.2207
  C  C374  1  0.821900  0.671700  0.287200  1.0  0.257
  C  C375  1  0.881200  0.660100  0.317000  1.0  0.0737
  C  C376  1  0.878700  0.726100  0.332600  1.0  -0.1018
  C  C377  1  0.819500  0.800200  0.320400  1.0  0.1782
  C  C378  1  0.760400  0.811000  0.290500  1.0  -0.0818
  C  C379  1  0.761000  0.746800  0.273600  1.0  0.0135
  C  C380  1  0.768600  0.987600  0.353900  1.0  0.0549
  C  C381  1  0.826400  0.974900  0.384600  1.0  -0.1008
  C  C382  1  0.826300  0.037700  0.401500  1.0  -0.0946
  C  C383  1  0.769200  0.113200  0.387400  1.0  -0.0158
  C  C384  1  0.710800  0.125800  0.357700  1.0  -0.1005
  C  C385  1  0.710100  0.062300  0.340900  1.0  -0.1124
  C  C386  1  0.890800  0.024400  0.433900  1.0  0.6978
  C  C387  1  0.697800  0.758300  0.241100  1.0  -0.2316
  C  C388  1  0.622800  0.675600  0.298600  1.0  0.2664
  C  C389  1  0.625700  0.750600  0.275200  1.0  0.0274
  C  C390  1  0.559600  0.818300  0.284200  1.0  -0.0858
  C  C391  1  0.493600  0.813600  0.315000  1.0  0.0709
  C  C392  1  0.491400  0.739500  0.339400  1.0  -0.1208
  C  C393  1  0.555100  0.670600  0.331400  1.0  0.0215
  C  C394  1  0.306000  0.968100  0.337000  1.0  0.1462
  C  C395  1  0.307100  0.033700  0.303300  1.0  -0.0107
  C  C396  1  0.242600  0.107000  0.303300  1.0  -0.0874
  C  C397  1  0.176200  0.110300  0.339900  1.0  -0.0372
  C  C398  1  0.176500  0.041900  0.373700  1.0  -0.1257
  C  C399  1  0.241200  0.970800  0.371200  1.0  -0.1245
  C  C400  1  0.106200  0.043500  0.413600  1.0  0.6979
  C  C401  1  0.552600  0.590100  0.358900  1.0  -0.235
  C  C402  1  0.670900  0.506700  0.411700  1.0  0.2306
  C  C403  1  0.590400  0.555100  0.411000  1.0  0.0192
  C  C404  1  0.545900  0.570900  0.458700  1.0  -0.1186
  C  C405  1  0.579300  0.537100  0.506400  1.0  0.204
  C  C406  1  0.657400  0.486200  0.506500  1.0  -0.1244
  C  C407  1  0.705500  0.469200  0.459700  1.0  0.0648
  C  C408  1  0.428400  0.616800  0.607500  1.0  0.1401
  C  C409  1  0.346900  0.648700  0.610800  1.0  -0.1181
  C  C410  1  0.300900  0.664400  0.657900  1.0  -0.1489
  C  C411  1  0.338800  0.650400  0.702300  1.0  -0.0306
  C  C412  1  0.420100  0.620800  0.698800  1.0  -0.1137
  C  C413  1  0.465500  0.601900  0.651400  1.0  -0.0597
  C  C414  1  0.212600  0.692600  0.661700  1.0  0.7232
  C  C415  1  0.792300  0.417600  0.460400  1.0  -0.1931
  C  C416  1  0.880100  0.759500  0.807500  1.0  0.2378
  C  C417  1  0.746800  0.847300  0.844100  1.0  -0.1739
  C  C418  1  0.779100  0.707400  0.830900  1.0  -0.1664
  C  C419  1  0.171000  0.780500  0.492600  1.0  0.2935
  C  C420  1  0.287700  0.741000  0.427700  1.0  -0.1562
  C  C421  1  0.152300  0.815400  0.398200  1.0  -0.1431
  C  C422  1  0.163400  0.474300  0.979300  1.0  0.0667
  C  C423  1  0.171300  0.502100  0.021300  1.0  -0.0045
  N  N424  1  0.244700  0.558700  0.156000  1.0  -0.1592
  N  N425  1  0.269900  0.580500  0.187300  1.0  -0.1746
  N  N426  1  0.250400  0.898300  0.240600  1.0  -0.2535
  N  N427  1  0.215600  0.857500  0.254700  1.0  -0.2409
  N  N428  1  0.332300  0.071300  0.013200  1.0  -0.26
  N  N429  1  0.323400  0.076600  0.970200  1.0  -0.2745
  N  N430  1  0.369100  0.750200  0.895300  1.0  -0.3017
  N  N431  1  0.347300  0.702500  0.908700  1.0  -0.3006
  N  N432  1  0.125500  0.452900  0.427000  1.0  -0.1808
  N  N433  1  0.100100  0.427900  0.473000  1.0  -0.1965
  N  N434  1  0.177200  0.138600  0.659300  1.0  -0.1855
  N  N435  1  0.235300  0.073500  0.667500  1.0  -0.2114
  N  N436  1  0.571900  0.106100  0.685000  1.0  -0.2162
  N  N437  1  0.628100  0.114200  0.659800  1.0  -0.2335
  N  N438  1  0.461200  0.449000  0.442300  1.0  -0.1997
  N  N439  1  0.531300  0.397500  0.444400  1.0  -0.2254
  N  N440  1  0.194100  0.227900  0.171600  1.0  -0.1015
  N  N441  1  0.798400  0.220700  0.558200  1.0  -0.068
  N  N442  1  0.755300  0.441300  0.844000  1.0  -0.1578
  N  N443  1  0.730100  0.419500  0.812700  1.0  -0.1752
  N  N444  1  0.749600  0.101700  0.759400  1.0  -0.2517
  N  N445  1  0.784400  0.142500  0.745300  1.0  -0.2406
  N  N446  1  0.667700  0.928700  0.986800  1.0  -0.2621
  N  N447  1  0.676600  0.923400  0.029800  1.0  -0.2745
  N  N448  1  0.630900  0.249800  0.104700  1.0  -0.3018
  N  N449  1  0.652700  0.297500  0.091300  1.0  -0.3027
  N  N450  1  0.874500  0.547100  0.573000  1.0  -0.1795
  N  N451  1  0.899900  0.572100  0.527000  1.0  -0.1968
  N  N452  1  0.822800  0.861400  0.340700  1.0  -0.1847
  N  N453  1  0.764700  0.926500  0.332500  1.0  -0.211
  N  N454  1  0.428100  0.893900  0.315000  1.0  -0.2152
  N  N455  1  0.371900  0.885800  0.340200  1.0  -0.2353
  N  N456  1  0.538800  0.551000  0.557700  1.0  -0.2012
  N  N457  1  0.468700  0.602500  0.555600  1.0  -0.2263
  N  N458  1  0.805900  0.772100  0.828400  1.0  -0.103
  N  N459  1  0.201600  0.779300  0.441800  1.0  -0.07
  O  O460  1  0.571500  0.582300  0.138500  1.0  -0.558
  O  O461  1  0.570700  0.714200  0.178100  1.0  -0.5197
  O  O462  1  0.586000  0.778600  0.076500  1.0  -0.555
  O  O463  1  0.583500  0.664200  0.047500  1.0  -0.5542
  O  O464  1  0.963800  0.483700  0.156100  1.0  -0.6065
  O  O465  1  0.072600  0.450700  0.101700  1.0  -0.5858
  O  O466  1  0.009200  0.165800  0.256400  1.0  -0.6057
  O  O467  1  0.947500  0.131400  0.333333  1.0  -0.6203
  O  O468  1  0.077200  0.285000  0.072100  1.0  -0.595
  O  O469  1  0.034700  0.385100  0.007900  1.0  -0.5816
  O  O470  1  0.122300  0.638000  0.905300  1.0  -0.59
  O  O471  1  0.081900  0.675700  0.828400  1.0  -0.6583
  O  O472  1  0.130600  0.533200  0.642180  1.0  -0.5192
  O  O473  1  0.174800  0.391300  0.729520  1.0  -0.5246
  O  O474  1  0.316700  0.390800  0.710980  1.0  -0.5317
  O  O475  1  0.281400  0.508800  0.634710  1.0  -0.5494
  O  O476  1  0.000900  0.271800  0.333740  1.0  -0.6908
  O  O477  1  0.980300  0.285100  0.416880  1.0  -0.6113
  O  O478  1  0.064000  0.045400  0.548000  1.0  -0.584
  O  O479  1  0.104100  0.916300  0.556580  1.0  -0.6779
  O  O480  1  0.943500  0.890600  0.576200  1.0  -0.6879
  O  O481  1  0.897100  0.022500  0.563000  1.0  -0.5759
  O  O482  1  0.816400  0.279800  0.381930  1.0  -0.5813
  O  O483  1  0.824500  0.313100  0.293310  1.0  -0.642
  O  O484  1  0.070500  0.296500  0.206500  1.0  -0.587
  O  O485  1  0.898900  0.194600  0.492940  1.0  -0.5976
  O  O486  1  0.911200  0.427600  0.253280  1.0  -0.7523
  O  O487  1  0.891400  0.520600  0.052700  1.0  -0.5906
  O  O488  1  0.428500  0.417700  0.861500  1.0  -0.5561
  O  O489  1  0.429300  0.285800  0.821900  1.0  -0.5204
  O  O490  1  0.414000  0.221400  0.923500  1.0  -0.5585
  O  O491  1  0.416500  0.335800  0.952500  1.0  -0.5527
  O  O492  1  0.036200  0.516300  0.843900  1.0  -0.6067
  O  O493  1  0.927400  0.549300  0.898300  1.0  -0.5888
  O  O494  1  0.990800  0.834200  0.743600  1.0  -0.6054
  O  O495  1  0.052500  0.868600  0.666667  1.0  -0.6214
  O  O496  1  0.922800  0.715000  0.927900  1.0  -0.5943
  O  O497  1  0.965300  0.614900  0.992100  1.0  -0.5804
  O  O498  1  0.877700  0.362000  0.094700  1.0  -0.5896
  O  O499  1  0.918100  0.324300  0.171600  1.0  -0.6556
  O  O500  1  0.869400  0.466800  0.357820  1.0  -0.5196
  O  O501  1  0.825200  0.608700  0.270480  1.0  -0.5261
  O  O502  1  0.683300  0.609200  0.289020  1.0  -0.5349
  O  O503  1  0.718600  0.491200  0.365290  1.0  -0.5492
  O  O504  1  0.999100  0.728200  0.666260  1.0  -0.6901
  O  O505  1  0.019700  0.714900  0.583120  1.0  -0.6115
  O  O506  1  0.936000  0.954600  0.452000  1.0  -0.5843
  O  O507  1  0.895900  0.083700  0.443420  1.0  -0.6782
  O  O508  1  0.056500  0.109400  0.423800  1.0  -0.6883
  O  O509  1  0.102900  0.977500  0.437000  1.0  -0.5765
  O  O510  1  0.183600  0.720200  0.618070  1.0  -0.5817
  O  O511  1  0.175500  0.686900  0.706690  1.0  -0.6399
  O  O512  1  0.929500  0.703500  0.793500  1.0  -0.588
  O  O513  1  0.101100  0.805400  0.507060  1.0  -0.5967
  O  O514  1  0.088800  0.572400  0.746720  1.0  -0.7511
  O  O515  1  0.108600  0.479400  0.947300  1.0  -0.593
