# generated using pymatgen
data_Cd3H8C4(N10Cl)2
_symmetry_space_group_name_H-M   'P 1'
_cell_length_a   9.34540000
_cell_length_b   9.87220000
_cell_length_c   12.78170000
_cell_angle_alpha   90.00000000
_cell_angle_beta   90.00000000
_cell_angle_gamma   90.89980000
_symmetry_Int_Tables_number   1
_chemical_formula_structural   Cd3H8C4(N10Cl)2
_chemical_formula_sum   'Cd6 H16 C8 N40 Cl4'
_cell_volume   1179.08985445
_cell_formula_units_Z   2
loop_
 _symmetry_equiv_pos_site_id
 _symmetry_equiv_pos_as_xyz
  1  'x, y, z'
loop_
 _atom_site_type_symbol
 _atom_site_label
 _atom_site_symmetry_multiplicity
 _atom_site_fract_x
 _atom_site_fract_y
 _atom_site_fract_z
 _atom_site_occupancy
 _atom_site_charge
  Cd  Cd1  1  0.736760  0.987390  0.253820  1.0  0.9042
  Cd  Cd2  1  0.763240  0.512610  0.753820  1.0  0.9037
  Cd  Cd3  1  0.263240  0.012610  0.746180  1.0  0.9047
  Cd  Cd4  1  0.236760  0.487390  0.246180  1.0  0.905
  Cd  Cd5  1  0.500000  0.000000  0.500000  1.0  0.6671
  Cd  Cd6  1  0.000000  0.500000  0.000000  1.0  0.6671
  H  H7  1  0.364500  0.285500  0.887200  1.0  0.3315
  H  H8  1  0.475500  0.400400  0.888400  1.0  0.3227
  H  H9  1  0.384700  0.762200  0.910700  1.0  0.3445
  H  H10  1  0.493700  0.649000  0.914300  1.0  0.3264
  H  H11  1  0.135500  0.214500  0.387200  1.0  0.3312
  H  H12  1  0.024500  0.099600  0.388400  1.0  0.3225
  H  H13  1  0.115300  0.737800  0.410700  1.0  0.3446
  H  H14  1  0.006300  0.851000  0.414300  1.0  0.326
  H  H15  1  0.635500  0.714500  0.112800  1.0  0.3316
  H  H16  1  0.524500  0.599600  0.111600  1.0  0.3222
  H  H17  1  0.615300  0.237800  0.089300  1.0  0.3438
  H  H18  1  0.506300  0.351000  0.085700  1.0  0.3254
  H  H19  1  0.864500  0.785500  0.612800  1.0  0.3315
  H  H20  1  0.975500  0.900400  0.611600  1.0  0.3224
  H  H21  1  0.884700  0.262200  0.589300  1.0  0.3443
  H  H22  1  0.993700  0.149000  0.585700  1.0  0.3258
  C  C23  1  0.490600  0.284200  0.765100  1.0  0.6232
  C  C24  1  0.497500  0.749200  0.783300  1.0  0.6247
  C  C25  1  0.009400  0.215800  0.265100  1.0  0.6229
  C  C26  1  0.002500  0.750800  0.283300  1.0  0.6247
  C  C27  1  0.509400  0.715800  0.234900  1.0  0.6227
  C  C28  1  0.502500  0.250800  0.216700  1.0  0.6241
  C  C29  1  0.990600  0.784200  0.734900  1.0  0.623
  C  C30  1  0.997500  0.249200  0.716700  1.0  0.6241
  N  N31  1  0.602700  0.339900  0.715800  1.0  -0.3779
  N  N32  1  0.622200  0.263000  0.630200  1.0  -0.1064
  N  N33  1  0.526300  0.167500  0.628600  1.0  0.0216
  N  N34  1  0.439500  0.176700  0.713500  1.0  -0.4231
  N  N35  1  0.437300  0.328600  0.857800  1.0  -0.7531
  N  N36  1  0.603600  0.688100  0.731400  1.0  -0.3759
  N  N37  1  0.614000  0.755000  0.640100  1.0  -0.1302
  N  N38  1  0.519900  0.848900  0.637200  1.0  0.019
  N  N39  1  0.443400  0.849200  0.726400  1.0  -0.4254
  N  N40  1  0.453500  0.716300  0.880700  1.0  -0.7616
  N  N41  1  0.897300  0.160100  0.215800  1.0  -0.3759
  N  N42  1  0.877800  0.237000  0.130200  1.0  -0.1087
  N  N43  1  0.973700  0.332500  0.128600  1.0  0.0222
  N  N44  1  0.060500  0.323300  0.213500  1.0  -0.424
  N  N45  1  0.062700  0.171400  0.357800  1.0  -0.7534
  N  N46  1  0.896400  0.811900  0.231400  1.0  -0.3756
  N  N47  1  0.886000  0.745000  0.140100  1.0  -0.1301
  N  N48  1  0.980100  0.651100  0.137200  1.0  0.0176
  N  N49  1  0.056600  0.650800  0.226400  1.0  -0.4256
  N  N50  1  0.046500  0.783700  0.380700  1.0  -0.7616
  N  N51  1  0.397300  0.660100  0.284200  1.0  -0.3749
  N  N52  1  0.377800  0.737000  0.369800  1.0  -0.1049
  N  N53  1  0.473700  0.832500  0.371400  1.0  0.0211
  N  N54  1  0.560500  0.823300  0.286500  1.0  -0.4241
  N  N55  1  0.562700  0.671400  0.142200  1.0  -0.7526
  N  N56  1  0.396400  0.311900  0.268600  1.0  -0.3751
  N  N57  1  0.386000  0.245000  0.359900  1.0  -0.1331
  N  N58  1  0.480100  0.151100  0.362800  1.0  0.0157
  N  N59  1  0.556600  0.150800  0.273600  1.0  -0.4257
  N  N60  1  0.546500  0.283700  0.119300  1.0  -0.7611
  N  N61  1  0.102700  0.839900  0.784200  1.0  -0.3776
  N  N62  1  0.122200  0.763000  0.869800  1.0  -0.1028
  N  N63  1  0.026300  0.667500  0.871400  1.0  0.0209
  N  N64  1  0.939500  0.676700  0.786500  1.0  -0.423
  N  N65  1  0.937300  0.828600  0.642200  1.0  -0.7525
  N  N66  1  0.103600  0.188100  0.768600  1.0  -0.3758
  N  N67  1  0.114000  0.255000  0.859900  1.0  -0.1318
  N  N68  1  0.019900  0.348900  0.862800  1.0  0.0163
  N  N69  1  0.943400  0.349200  0.773600  1.0  -0.4257
  N  N70  1  0.953500  0.216300  0.619300  1.0  -0.7609
  Cl  Cl71  1  0.778710  0.999010  0.457280  1.0  -0.4953
  Cl  Cl72  1  0.721290  0.500990  0.957280  1.0  -0.4957
  Cl  Cl73  1  0.221290  0.000990  0.542720  1.0  -0.4956
  Cl  Cl74  1  0.278710  0.499010  0.042720  1.0  -0.4951
