# generated using pymatgen
data_Fe3H9C24N3O13
_symmetry_space_group_name_H-M   'P 1'
_cell_length_a   21.87200000
_cell_length_b   21.87200000
_cell_length_c   21.87200000
_cell_angle_alpha   90.00000000
_cell_angle_beta   90.00000000
_cell_angle_gamma   90.00000000
_symmetry_Int_Tables_number   1
_chemical_formula_structural   Fe3H9C24N3O13
_chemical_formula_sum   'Fe24 H72 C192 N24 O104'
_cell_volume   10463.22324685
_cell_formula_units_Z   8
loop_
 _symmetry_equiv_pos_site_id
 _symmetry_equiv_pos_as_xyz
  1  'x, y, z'
loop_
 _atom_site_type_symbol
 _atom_site_label
 _atom_site_symmetry_multiplicity
 _atom_site_fract_x
 _atom_site_fract_y
 _atom_site_fract_z
 _atom_site_occupancy
 _atom_site_charge
  Fe  Fe1  1  0.260920  0.679490  0.803470  1.0  1.2579
  Fe  Fe2  1  0.739080  0.320510  0.803470  1.0  1.2595
  Fe  Fe3  1  0.739080  0.679490  0.196530  1.0  1.2588
  Fe  Fe4  1  0.260920  0.320510  0.196530  1.0  1.2601
  Fe  Fe5  1  0.803470  0.260920  0.679490  1.0  1.2568
  Fe  Fe6  1  0.803470  0.739080  0.320510  1.0  1.2572
  Fe  Fe7  1  0.196530  0.739080  0.679490  1.0  1.2606
  Fe  Fe8  1  0.196530  0.260920  0.320510  1.0  1.2589
  Fe  Fe9  1  0.679490  0.803470  0.260920  1.0  1.2624
  Fe  Fe10  1  0.320510  0.803470  0.739080  1.0  1.2597
  Fe  Fe11  1  0.679490  0.196530  0.739080  1.0  1.2605
  Fe  Fe12  1  0.320510  0.196530  0.260920  1.0  1.2566
  Fe  Fe13  1  0.179490  0.760920  0.303470  1.0  1.2585
  Fe  Fe14  1  0.820510  0.239080  0.303470  1.0  1.2567
  Fe  Fe15  1  0.179490  0.239080  0.696530  1.0  1.2605
  Fe  Fe16  1  0.820510  0.760920  0.696530  1.0  1.2568
  Fe  Fe17  1  0.760920  0.303470  0.179490  1.0  1.2603
  Fe  Fe18  1  0.239080  0.303470  0.820510  1.0  1.2599
  Fe  Fe19  1  0.239080  0.696530  0.179490  1.0  1.2588
  Fe  Fe20  1  0.760920  0.696530  0.820510  1.0  1.2582
  Fe  Fe21  1  0.303470  0.179490  0.760920  1.0  1.2567
  Fe  Fe22  1  0.303470  0.820510  0.239080  1.0  1.2597
  Fe  Fe23  1  0.696530  0.179490  0.239080  1.0  1.2605
  Fe  Fe24  1  0.696530  0.820510  0.760920  1.0  1.262
  H  H25  1  0.425200  0.583000  0.795000  1.0  0.1372
  H  H26  1  0.609400  0.593000  0.808700  1.0  0.1521
  H  H27  1  0.508600  0.744600  0.774600  1.0  0.1355
  H  H28  1  0.574800  0.417000  0.795000  1.0  0.1373
  H  H29  1  0.390600  0.407000  0.808700  1.0  0.1519
  H  H30  1  0.491400  0.255400  0.774600  1.0  0.1359
  H  H31  1  0.574800  0.583000  0.205000  1.0  0.1372
  H  H32  1  0.390600  0.593000  0.191300  1.0  0.1523
  H  H33  1  0.491400  0.744600  0.225400  1.0  0.1357
  H  H34  1  0.425200  0.417000  0.205000  1.0  0.1369
  H  H35  1  0.609400  0.407000  0.191300  1.0  0.1522
  H  H36  1  0.508600  0.255400  0.225400  1.0  0.1358
  H  H37  1  0.795000  0.425200  0.583000  1.0  0.1373
  H  H38  1  0.808700  0.609400  0.593000  1.0  0.1515
  H  H39  1  0.774600  0.508600  0.744600  1.0  0.1364
  H  H40  1  0.795000  0.574800  0.417000  1.0  0.1368
  H  H41  1  0.808700  0.390600  0.407000  1.0  0.1516
  H  H42  1  0.774600  0.491400  0.255400  1.0  0.1361
  H  H43  1  0.205000  0.574800  0.583000  1.0  0.1371
  H  H44  1  0.191300  0.390600  0.593000  1.0  0.1514
  H  H45  1  0.225400  0.491400  0.744600  1.0  0.1361
  H  H46  1  0.205000  0.425200  0.417000  1.0  0.1372
  H  H47  1  0.191300  0.609400  0.407000  1.0  0.1517
  H  H48  1  0.225400  0.508600  0.255400  1.0  0.1358
  H  H49  1  0.583000  0.795000  0.425200  1.0  0.1384
  H  H50  1  0.593000  0.808700  0.609400  1.0  0.1528
  H  H51  1  0.744600  0.774600  0.508600  1.0  0.135
  H  H52  1  0.417000  0.795000  0.574800  1.0  0.138
  H  H53  1  0.407000  0.808700  0.390600  1.0  0.1525
  H  H54  1  0.255400  0.774600  0.491400  1.0  0.136
  H  H55  1  0.583000  0.205000  0.574800  1.0  0.1385
  H  H56  1  0.593000  0.191300  0.390600  1.0  0.1525
  H  H57  1  0.744600  0.225400  0.491400  1.0  0.1351
  H  H58  1  0.417000  0.205000  0.425200  1.0  0.1382
  H  H59  1  0.407000  0.191300  0.609400  1.0  0.1526
  H  H60  1  0.255400  0.225400  0.508600  1.0  0.1359
  H  H61  1  0.083000  0.925200  0.295000  1.0  0.1373
  H  H62  1  0.093000  0.109400  0.308700  1.0  0.1517
  H  H63  1  0.244600  0.008600  0.274600  1.0  0.1349
  H  H64  1  0.917000  0.074800  0.295000  1.0  0.1368
  H  H65  1  0.907000  0.890600  0.308700  1.0  0.1515
  H  H66  1  0.755400  0.991400  0.274600  1.0  0.1358
  H  H67  1  0.083000  0.074800  0.705000  1.0  0.1372
  H  H68  1  0.093000  0.890600  0.691300  1.0  0.1516
  H  H69  1  0.244600  0.991400  0.725400  1.0  0.1349
  H  H70  1  0.917000  0.925200  0.705000  1.0  0.137
  H  H71  1  0.907000  0.109400  0.691300  1.0  0.1518
  H  H72  1  0.755400  0.008600  0.725400  1.0  0.1359
  H  H73  1  0.925200  0.295000  0.083000  1.0  0.1372
  H  H74  1  0.109400  0.308700  0.093000  1.0  0.152
  H  H75  1  0.008600  0.274600  0.244600  1.0  0.1356
  H  H76  1  0.074800  0.295000  0.917000  1.0  0.1373
  H  H77  1  0.890600  0.308700  0.907000  1.0  0.1522
  H  H78  1  0.991400  0.274600  0.755400  1.0  0.1358
  H  H79  1  0.074800  0.705000  0.083000  1.0  0.1374
  H  H80  1  0.890600  0.691300  0.093000  1.0  0.1521
  H  H81  1  0.991400  0.725400  0.244600  1.0  0.1363
  H  H82  1  0.925200  0.705000  0.917000  1.0  0.1372
  H  H83  1  0.109400  0.691300  0.907000  1.0  0.1522
  H  H84  1  0.008600  0.725400  0.755400  1.0  0.1358
  H  H85  1  0.295000  0.083000  0.925200  1.0  0.1383
  H  H86  1  0.308700  0.093000  0.109400  1.0  0.1528
  H  H87  1  0.274600  0.244600  0.008600  1.0  0.1361
  H  H88  1  0.295000  0.917000  0.074800  1.0  0.1379
  H  H89  1  0.308700  0.907000  0.890600  1.0  0.1522
  H  H90  1  0.274600  0.755400  0.991400  1.0  0.1363
  H  H91  1  0.705000  0.083000  0.074800  1.0  0.138
  H  H92  1  0.691300  0.093000  0.890600  1.0  0.1526
  H  H93  1  0.725400  0.244600  0.991400  1.0  0.1358
  H  H94  1  0.705000  0.917000  0.925200  1.0  0.1378
  H  H95  1  0.691300  0.907000  0.109400  1.0  0.1526
  H  H96  1  0.725400  0.755400  0.008600  1.0  0.1363
  C  C97  1  0.395600  0.696800  0.776200  1.0  0.7503
  C  C98  1  0.457400  0.669200  0.784800  1.0  -0.1298
  C  C99  1  0.461200  0.606500  0.794400  1.0  -0.0496
  C  C100  1  0.514600  0.579400  0.802700  1.0  0.0468
  C  C101  1  0.571700  0.612800  0.802800  1.0  -0.0423
  C  C102  1  0.510400  0.702500  0.783100  1.0  0.0075
  C  C103  1  0.568000  0.674800  0.793800  1.0  -0.1306
  C  C104  1  0.625800  0.707600  0.793900  1.0  0.7619
  C  C105  1  0.604400  0.303200  0.776200  1.0  0.7497
  C  C106  1  0.542600  0.330800  0.784800  1.0  -0.1302
  C  C107  1  0.538800  0.393500  0.794400  1.0  -0.0511
  C  C108  1  0.485400  0.420600  0.802700  1.0  0.0479
  C  C109  1  0.428300  0.387200  0.802800  1.0  -0.0429
  C  C110  1  0.489600  0.297500  0.783100  1.0  0.0093
  C  C111  1  0.432000  0.325200  0.793800  1.0  -0.1307
  C  C112  1  0.374200  0.292400  0.793900  1.0  0.7613
  C  C113  1  0.604400  0.696800  0.223800  1.0  0.7502
  C  C114  1  0.542600  0.669200  0.215200  1.0  -0.1309
  C  C115  1  0.538800  0.606500  0.205600  1.0  -0.0508
  C  C116  1  0.485400  0.579400  0.197300  1.0  0.0478
  C  C117  1  0.428300  0.612800  0.197200  1.0  -0.0423
  C  C118  1  0.489600  0.702500  0.216900  1.0  0.0076
  C  C119  1  0.432000  0.674800  0.206200  1.0  -0.1302
  C  C120  1  0.374200  0.707600  0.206100  1.0  0.7612
  C  C121  1  0.395600  0.303200  0.223800  1.0  0.7502
  C  C122  1  0.457400  0.330800  0.215200  1.0  -0.1296
  C  C123  1  0.461200  0.393500  0.205600  1.0  -0.0499
  C  C124  1  0.514600  0.420600  0.197300  1.0  0.048
  C  C125  1  0.571700  0.387200  0.197200  1.0  -0.0412
  C  C126  1  0.510400  0.297500  0.216900  1.0  0.0095
  C  C127  1  0.568000  0.325200  0.206200  1.0  -0.1303
  C  C128  1  0.625800  0.292400  0.206100  1.0  0.7613
  C  C129  1  0.776200  0.395600  0.696800  1.0  0.7504
  C  C130  1  0.784800  0.457400  0.669200  1.0  -0.1293
  C  C131  1  0.794400  0.461200  0.606500  1.0  -0.0528
  C  C132  1  0.802700  0.514600  0.579400  1.0  0.0473
  C  C133  1  0.802800  0.571700  0.612800  1.0  -0.0414
  C  C134  1  0.783100  0.510400  0.702500  1.0  0.0121
  C  C135  1  0.793800  0.568000  0.674800  1.0  -0.131
  C  C136  1  0.793900  0.625800  0.707600  1.0  0.7634
  C  C137  1  0.776200  0.604400  0.303200  1.0  0.7507
  C  C138  1  0.784800  0.542600  0.330800  1.0  -0.1296
  C  C139  1  0.794400  0.538800  0.393500  1.0  -0.0525
  C  C140  1  0.802700  0.485400  0.420600  1.0  0.0465
  C  C141  1  0.802800  0.428300  0.387200  1.0  -0.0412
  C  C142  1  0.783100  0.489600  0.297500  1.0  0.0104
  C  C143  1  0.793800  0.432000  0.325200  1.0  -0.1319
  C  C144  1  0.793900  0.374200  0.292400  1.0  0.763
  C  C145  1  0.223800  0.604400  0.696800  1.0  0.7505
  C  C146  1  0.215200  0.542600  0.669200  1.0  -0.1298
  C  C147  1  0.205600  0.538800  0.606500  1.0  -0.051
  C  C148  1  0.197300  0.485400  0.579400  1.0  0.0477
  C  C149  1  0.197200  0.428300  0.612800  1.0  -0.0421
  C  C150  1  0.216900  0.489600  0.702500  1.0  0.0129
  C  C151  1  0.206200  0.432000  0.674800  1.0  -0.1303
  C  C152  1  0.206100  0.374200  0.707600  1.0  0.7632
  C  C153  1  0.223800  0.395600  0.303200  1.0  0.7501
  C  C154  1  0.215200  0.457400  0.330800  1.0  -0.1296
  C  C155  1  0.205600  0.461200  0.393500  1.0  -0.0521
  C  C156  1  0.197300  0.514600  0.420600  1.0  0.0461
  C  C157  1  0.197200  0.571700  0.387200  1.0  -0.0409
  C  C158  1  0.216900  0.510400  0.297500  1.0  0.0105
  C  C159  1  0.206200  0.568000  0.325200  1.0  -0.1316
  C  C160  1  0.206100  0.625800  0.292400  1.0  0.7627
  C  C161  1  0.696800  0.776200  0.395600  1.0  0.7495
  C  C162  1  0.669200  0.784800  0.457400  1.0  -0.1317
  C  C163  1  0.606500  0.794400  0.461200  1.0  -0.0504
  C  C164  1  0.579400  0.802700  0.514600  1.0  0.0482
  C  C165  1  0.612800  0.802800  0.571700  1.0  -0.0471
  C  C166  1  0.702500  0.783100  0.510400  1.0  0.0091
  C  C167  1  0.674800  0.793800  0.568000  1.0  -0.1301
  C  C168  1  0.707600  0.793900  0.625800  1.0  0.7628
  C  C169  1  0.303200  0.776200  0.604400  1.0  0.7501
  C  C170  1  0.330800  0.784800  0.542600  1.0  -0.1308
  C  C171  1  0.393500  0.794400  0.538800  1.0  -0.0528
  C  C172  1  0.420600  0.802700  0.485400  1.0  0.0482
  C  C173  1  0.387200  0.802800  0.428300  1.0  -0.045
  C  C174  1  0.297500  0.783100  0.489600  1.0  0.0089
  C  C175  1  0.325200  0.793800  0.432000  1.0  -0.1303
  C  C176  1  0.292400  0.793900  0.374200  1.0  0.7628
  C  C177  1  0.696800  0.223800  0.604400  1.0  0.7496
  C  C178  1  0.669200  0.215200  0.542600  1.0  -0.1315
  C  C179  1  0.606500  0.205600  0.538800  1.0  -0.0517
  C  C180  1  0.579400  0.197300  0.485400  1.0  0.0486
  C  C181  1  0.612800  0.197200  0.428300  1.0  -0.0456
  C  C182  1  0.702500  0.216900  0.489600  1.0  0.009
  C  C183  1  0.674800  0.206200  0.432000  1.0  -0.1305
  C  C184  1  0.707600  0.206100  0.374200  1.0  0.7631
  C  C185  1  0.303200  0.223800  0.395600  1.0  0.7499
  C  C186  1  0.330800  0.215200  0.457400  1.0  -0.1315
  C  C187  1  0.393500  0.205600  0.461200  1.0  -0.0517
  C  C188  1  0.420600  0.197300  0.514600  1.0  0.0478
  C  C189  1  0.387200  0.197200  0.571700  1.0  -0.0455
  C  C190  1  0.297500  0.216900  0.510400  1.0  0.0088
  C  C191  1  0.325200  0.206200  0.568000  1.0  -0.1303
  C  C192  1  0.292400  0.206100  0.625800  1.0  0.763
  C  C193  1  0.196800  0.895600  0.276200  1.0  0.75
  C  C194  1  0.169200  0.957400  0.284800  1.0  -0.13
  C  C195  1  0.106500  0.961200  0.294400  1.0  -0.0495
  C  C196  1  0.079400  0.014600  0.302700  1.0  0.0482
  C  C197  1  0.112800  0.071700  0.302800  1.0  -0.0433
  C  C198  1  0.202500  0.010400  0.283100  1.0  0.0091
  C  C199  1  0.174800  0.068000  0.293800  1.0  -0.1309
  C  C200  1  0.207600  0.125800  0.293900  1.0  0.7628
  C  C201  1  0.803200  0.104400  0.276200  1.0  0.751
  C  C202  1  0.830800  0.042600  0.284800  1.0  -0.1299
  C  C203  1  0.893500  0.038800  0.294400  1.0  -0.0502
  C  C204  1  0.920600  0.985400  0.302700  1.0  0.0485
  C  C205  1  0.887200  0.928300  0.302800  1.0  -0.0429
  C  C206  1  0.797500  0.989600  0.283100  1.0  0.009
  C  C207  1  0.825200  0.932000  0.293800  1.0  -0.1306
  C  C208  1  0.792400  0.874200  0.293900  1.0  0.7627
  C  C209  1  0.196800  0.104400  0.723800  1.0  0.7503
  C  C210  1  0.169200  0.042600  0.715200  1.0  -0.1304
  C  C211  1  0.106500  0.038800  0.705600  1.0  -0.0492
  C  C212  1  0.079400  0.985400  0.697300  1.0  0.0491
  C  C213  1  0.112800  0.928300  0.697200  1.0  -0.0445
  C  C214  1  0.202500  0.989600  0.716900  1.0  0.0095
  C  C215  1  0.174800  0.932000  0.706200  1.0  -0.1305
  C  C216  1  0.207600  0.874200  0.706100  1.0  0.7625
  C  C217  1  0.803200  0.895600  0.723800  1.0  0.7506
  C  C218  1  0.830800  0.957400  0.715200  1.0  -0.1297
  C  C219  1  0.893500  0.961200  0.705600  1.0  -0.0509
  C  C220  1  0.920600  0.014600  0.697300  1.0  0.0482
  C  C221  1  0.887200  0.071700  0.697200  1.0  -0.0429
  C  C222  1  0.797500  0.010400  0.716900  1.0  0.0088
  C  C223  1  0.825200  0.068000  0.706200  1.0  -0.1305
  C  C224  1  0.792400  0.125800  0.706100  1.0  0.7625
  C  C225  1  0.895600  0.276200  0.196800  1.0  0.7499
  C  C226  1  0.957400  0.284800  0.169200  1.0  -0.1298
  C  C227  1  0.961200  0.294400  0.106500  1.0  -0.0516
  C  C228  1  0.014600  0.302700  0.079400  1.0  0.0475
  C  C229  1  0.071700  0.302800  0.112800  1.0  -0.0402
  C  C230  1  0.010400  0.283100  0.202500  1.0  0.0131
  C  C231  1  0.068000  0.293800  0.174800  1.0  -0.1308
  C  C232  1  0.125800  0.293900  0.207600  1.0  0.7635
  C  C233  1  0.104400  0.276200  0.803200  1.0  0.7494
  C  C234  1  0.042600  0.284800  0.830800  1.0  -0.131
  C  C235  1  0.038800  0.294400  0.893500  1.0  -0.0533
  C  C236  1  0.985400  0.302700  0.920600  1.0  0.0467
  C  C237  1  0.928300  0.302800  0.887200  1.0  -0.0409
  C  C238  1  0.989600  0.283100  0.797500  1.0  0.0113
  C  C239  1  0.932000  0.293800  0.825200  1.0  -0.1316
  C  C240  1  0.874200  0.293900  0.792400  1.0  0.7626
  C  C241  1  0.104400  0.723800  0.196800  1.0  0.7497
  C  C242  1  0.042600  0.715200  0.169200  1.0  -0.1311
  C  C243  1  0.038800  0.705600  0.106500  1.0  -0.0527
  C  C244  1  0.985400  0.697300  0.079400  1.0  0.0474
  C  C245  1  0.928300  0.697200  0.112800  1.0  -0.0409
  C  C246  1  0.989600  0.716900  0.202500  1.0  0.013
  C  C247  1  0.932000  0.706200  0.174800  1.0  -0.1309
  C  C248  1  0.874200  0.706100  0.207600  1.0  0.7631
  C  C249  1  0.895600  0.723800  0.803200  1.0  0.7497
  C  C250  1  0.957400  0.715200  0.830800  1.0  -0.1304
  C  C251  1  0.961200  0.705600  0.893500  1.0  -0.0524
  C  C252  1  0.014600  0.697300  0.920600  1.0  0.0463
  C  C253  1  0.071700  0.697200  0.887200  1.0  -0.0402
  C  C254  1  0.010400  0.716900  0.797500  1.0  0.011
  C  C255  1  0.068000  0.706200  0.825200  1.0  -0.1316
  C  C256  1  0.125800  0.706100  0.792400  1.0  0.7632
  C  C257  1  0.276200  0.196800  0.895600  1.0  0.7504
  C  C258  1  0.284800  0.169200  0.957400  1.0  -0.1307
  C  C259  1  0.294400  0.106500  0.961200  1.0  -0.0514
  C  C260  1  0.302700  0.079400  0.014600  1.0  0.0466
  C  C261  1  0.302800  0.112800  0.071700  1.0  -0.0465
  C  C262  1  0.283100  0.202500  0.010400  1.0  0.0065
  C  C263  1  0.293800  0.174800  0.068000  1.0  -0.1296
  C  C264  1  0.293900  0.207600  0.125800  1.0  0.762
  C  C265  1  0.276200  0.803200  0.104400  1.0  0.7501
  C  C266  1  0.284800  0.830800  0.042600  1.0  -0.1299
  C  C267  1  0.294400  0.893500  0.038800  1.0  -0.0522
  C  C268  1  0.302700  0.920600  0.985400  1.0  0.0479
  C  C269  1  0.302800  0.887200  0.928300  1.0  -0.0456
  C  C270  1  0.283100  0.797500  0.989600  1.0  0.0082
  C  C271  1  0.293800  0.825200  0.932000  1.0  -0.1303
  C  C272  1  0.293900  0.792400  0.874200  1.0  0.7617
  C  C273  1  0.723800  0.196800  0.104400  1.0  0.7503
  C  C274  1  0.715200  0.169200  0.042600  1.0  -0.1307
  C  C275  1  0.705600  0.106500  0.038800  1.0  -0.0512
  C  C276  1  0.697300  0.079400  0.985400  1.0  0.0473
  C  C277  1  0.697200  0.112800  0.928300  1.0  -0.0457
  C  C278  1  0.716900  0.202500  0.989600  1.0  0.007
  C  C279  1  0.706200  0.174800  0.932000  1.0  -0.1297
  C  C280  1  0.706100  0.207600  0.874200  1.0  0.7616
  C  C281  1  0.723800  0.803200  0.895600  1.0  0.7497
  C  C282  1  0.715200  0.830800  0.957400  1.0  -0.1307
  C  C283  1  0.705600  0.893500  0.961200  1.0  -0.0506
  C  C284  1  0.697300  0.920600  0.014600  1.0  0.0473
  C  C285  1  0.697200  0.887200  0.071700  1.0  -0.0466
  C  C286  1  0.716900  0.797500  0.010400  1.0  0.0087
  C  C287  1  0.706200  0.825200  0.068000  1.0  -0.1293
  C  C288  1  0.706100  0.792400  0.125800  1.0  0.7617
  N  N289  1  0.524100  0.512600  0.804900  1.0  -0.1741
  N  N290  1  0.475900  0.487400  0.804900  1.0  -0.1733
  N  N291  1  0.475900  0.512600  0.195100  1.0  -0.1733
  N  N292  1  0.524100  0.487400  0.195100  1.0  -0.175
  N  N293  1  0.804900  0.524100  0.512600  1.0  -0.1764
  N  N294  1  0.804900  0.475900  0.487400  1.0  -0.1749
  N  N295  1  0.195100  0.475900  0.512600  1.0  -0.1749
  N  N296  1  0.195100  0.524100  0.487400  1.0  -0.1776
  N  N297  1  0.512600  0.804900  0.524100  1.0  -0.1747
  N  N298  1  0.487400  0.804900  0.475900  1.0  -0.1755
  N  N299  1  0.512600  0.195100  0.475900  1.0  -0.1757
  N  N300  1  0.487400  0.195100  0.524100  1.0  -0.1751
  N  N301  1  0.012600  0.024100  0.304900  1.0  -0.1763
  N  N302  1  0.987400  0.975900  0.304900  1.0  -0.1741
  N  N303  1  0.012600  0.975900  0.695100  1.0  -0.1747
  N  N304  1  0.987400  0.024100  0.695100  1.0  -0.1764
  N  N305  1  0.024100  0.304900  0.012600  1.0  -0.1742
  N  N306  1  0.975900  0.304900  0.987400  1.0  -0.1734
  N  N307  1  0.975900  0.695100  0.012600  1.0  -0.173
  N  N308  1  0.024100  0.695100  0.987400  1.0  -0.1746
  N  N309  1  0.304900  0.012600  0.024100  1.0  -0.1749
  N  N310  1  0.304900  0.987400  0.975900  1.0  -0.176
  N  N311  1  0.695100  0.012600  0.975900  1.0  -0.1761
  N  N312  1  0.695100  0.987400  0.024100  1.0  -0.1757
  O  O313  1  0.349800  0.665400  0.795600  1.0  -0.6145
  O  O314  1  0.392700  0.749900  0.754700  1.0  -0.5792
  O  O315  1  0.626200  0.763400  0.774100  1.0  -0.5986
  O  O316  1  0.671200  0.680900  0.814300  1.0  -0.5767
  O  O317  1  0.650200  0.334600  0.795600  1.0  -0.6139
  O  O318  1  0.607300  0.250100  0.754700  1.0  -0.5793
  O  O319  1  0.373800  0.236600  0.774100  1.0  -0.5975
  O  O320  1  0.328800  0.319100  0.814300  1.0  -0.5738
  O  O321  1  0.650200  0.665400  0.204400  1.0  -0.6135
  O  O322  1  0.607300  0.749900  0.245300  1.0  -0.5802
  O  O323  1  0.373800  0.763400  0.225900  1.0  -0.5979
  O  O324  1  0.328800  0.680900  0.185700  1.0  -0.5754
  O  O325  1  0.349800  0.334600  0.204400  1.0  -0.6138
  O  O326  1  0.392700  0.250100  0.245300  1.0  -0.5794
  O  O327  1  0.626200  0.236600  0.225900  1.0  -0.598
  O  O328  1  0.671200  0.319100  0.185700  1.0  -0.5767
  O  O329  1  0.795600  0.349800  0.665400  1.0  -0.6126
  O  O330  1  0.754700  0.392700  0.749900  1.0  -0.5785
  O  O331  1  0.774100  0.626200  0.763400  1.0  -0.5961
  O  O332  1  0.814300  0.671200  0.680900  1.0  -0.5761
  O  O333  1  0.795600  0.650200  0.334600  1.0  -0.6127
  O  O334  1  0.754700  0.607300  0.250100  1.0  -0.5775
  O  O335  1  0.774100  0.373800  0.236600  1.0  -0.5957
  O  O336  1  0.814300  0.328800  0.319100  1.0  -0.5751
  O  O337  1  0.204400  0.650200  0.665400  1.0  -0.6123
  O  O338  1  0.245300  0.607300  0.749900  1.0  -0.5776
  O  O339  1  0.225900  0.373800  0.763400  1.0  -0.5966
  O  O340  1  0.185700  0.328800  0.680900  1.0  -0.5753
  O  O341  1  0.204400  0.349800  0.334600  1.0  -0.6131
  O  O342  1  0.245300  0.392700  0.250100  1.0  -0.5778
  O  O343  1  0.225900  0.626200  0.236600  1.0  -0.5961
  O  O344  1  0.185700  0.671200  0.319100  1.0  -0.5755
  O  O345  1  0.665400  0.795600  0.349800  1.0  -0.6133
  O  O346  1  0.749900  0.754700  0.392700  1.0  -0.5774
  O  O347  1  0.763400  0.774100  0.626200  1.0  -0.5959
  O  O348  1  0.680900  0.814300  0.671200  1.0  -0.5745
  O  O349  1  0.334600  0.795600  0.650200  1.0  -0.6141
  O  O350  1  0.250100  0.754700  0.607300  1.0  -0.5776
  O  O351  1  0.236600  0.774100  0.373800  1.0  -0.5957
  O  O352  1  0.319100  0.814300  0.328800  1.0  -0.5758
  O  O353  1  0.665400  0.204400  0.650200  1.0  -0.6142
  O  O354  1  0.749900  0.245300  0.607300  1.0  -0.5781
  O  O355  1  0.763400  0.225900  0.373800  1.0  -0.596
  O  O356  1  0.680900  0.185700  0.328800  1.0  -0.5752
  O  O357  1  0.334600  0.204400  0.349800  1.0  -0.6121
  O  O358  1  0.250100  0.245300  0.392700  1.0  -0.5779
  O  O359  1  0.236600  0.225900  0.626200  1.0  -0.5957
  O  O360  1  0.319100  0.185700  0.671200  1.0  -0.5757
  O  O361  1  0.165400  0.849800  0.295600  1.0  -0.6142
  O  O362  1  0.249900  0.892700  0.254700  1.0  -0.5787
  O  O363  1  0.263400  0.126200  0.274100  1.0  -0.5968
  O  O364  1  0.180900  0.171200  0.314300  1.0  -0.5756
  O  O365  1  0.834600  0.150200  0.295600  1.0  -0.6132
  O  O366  1  0.750100  0.107300  0.254700  1.0  -0.5779
  O  O367  1  0.736600  0.873800  0.274100  1.0  -0.5971
  O  O368  1  0.819100  0.828800  0.314300  1.0  -0.5757
  O  O369  1  0.165400  0.150200  0.704400  1.0  -0.6132
  O  O370  1  0.249900  0.107300  0.745300  1.0  -0.5785
  O  O371  1  0.263400  0.873800  0.725900  1.0  -0.5963
  O  O372  1  0.180900  0.828800  0.685700  1.0  -0.5755
  O  O373  1  0.834600  0.849800  0.704400  1.0  -0.6129
  O  O374  1  0.750100  0.892700  0.745300  1.0  -0.5791
  O  O375  1  0.736600  0.126200  0.725900  1.0  -0.5969
  O  O376  1  0.819100  0.171200  0.685700  1.0  -0.5767
  O  O377  1  0.849800  0.295600  0.165400  1.0  -0.613
  O  O378  1  0.892700  0.254700  0.249900  1.0  -0.5769
  O  O379  1  0.126200  0.274100  0.263400  1.0  -0.5966
  O  O380  1  0.171200  0.314300  0.180900  1.0  -0.5764
  O  O381  1  0.150200  0.295600  0.834600  1.0  -0.6133
  O  O382  1  0.107300  0.254700  0.750100  1.0  -0.5774
  O  O383  1  0.873800  0.274100  0.736600  1.0  -0.5957
  O  O384  1  0.828800  0.314300  0.819100  1.0  -0.5734
  O  O385  1  0.150200  0.704400  0.165400  1.0  -0.6122
  O  O386  1  0.107300  0.745300  0.249900  1.0  -0.579
  O  O387  1  0.873800  0.725900  0.263400  1.0  -0.5969
  O  O388  1  0.828800  0.685700  0.180900  1.0  -0.5746
  O  O389  1  0.849800  0.704400  0.834600  1.0  -0.613
  O  O390  1  0.892700  0.745300  0.750100  1.0  -0.5775
  O  O391  1  0.126200  0.725900  0.736600  1.0  -0.5968
  O  O392  1  0.171200  0.685700  0.819100  1.0  -0.5758
  O  O393  1  0.295600  0.165400  0.849800  1.0  -0.613
  O  O394  1  0.254700  0.249900  0.892700  1.0  -0.5787
  O  O395  1  0.274100  0.263400  0.126200  1.0  -0.5967
  O  O396  1  0.314300  0.180900  0.171200  1.0  -0.576
  O  O397  1  0.295600  0.834600  0.150200  1.0  -0.6147
  O  O398  1  0.254700  0.750100  0.107300  1.0  -0.5791
  O  O399  1  0.274100  0.736600  0.873800  1.0  -0.596
  O  O400  1  0.314300  0.819100  0.828800  1.0  -0.5754
  O  O401  1  0.704400  0.165400  0.150200  1.0  -0.6145
  O  O402  1  0.745300  0.249900  0.107300  1.0  -0.5783
  O  O403  1  0.725900  0.263400  0.873800  1.0  -0.5965
  O  O404  1  0.685700  0.180900  0.828800  1.0  -0.5761
  O  O405  1  0.704400  0.834600  0.849800  1.0  -0.6128
  O  O406  1  0.745300  0.750100  0.892700  1.0  -0.5785
  O  O407  1  0.725900  0.736600  0.126200  1.0  -0.5964
  O  O408  1  0.685700  0.819100  0.171200  1.0  -0.5748
  O  O409  1  0.260100  0.739900  0.739900  1.0  -1.0799
  O  O410  1  0.739900  0.260100  0.739900  1.0  -1.08
  O  O411  1  0.739900  0.739900  0.260100  1.0  -1.0801
  O  O412  1  0.260100  0.260100  0.260100  1.0  -1.0797
  O  O413  1  0.239900  0.760100  0.239900  1.0  -1.08
  O  O414  1  0.760100  0.239900  0.239900  1.0  -1.0799
  O  O415  1  0.239900  0.239900  0.760100  1.0  -1.0801
  O  O416  1  0.760100  0.760100  0.760100  1.0  -1.0797
