# generated using pymatgen
data_In3H9C24Br3N3O16
_symmetry_space_group_name_H-M   'P 1'
_cell_length_a   22.45300000
_cell_length_b   22.45300000
_cell_length_c   22.45300000
_cell_angle_alpha   90.00000000
_cell_angle_beta   90.00000000
_cell_angle_gamma   90.00000000
_symmetry_Int_Tables_number   1
_chemical_formula_structural   In3H9C24Br3N3O16
_chemical_formula_sum   'In24 H72 C192 Br24 N24 O128'
_cell_volume   11319.39275368
_cell_formula_units_Z   8
loop_
 _symmetry_equiv_pos_site_id
 _symmetry_equiv_pos_as_xyz
  1  'x, y, z'
loop_
 _atom_site_type_symbol
 _atom_site_label
 _atom_site_symmetry_multiplicity
 _atom_site_fract_x
 _atom_site_fract_y
 _atom_site_fract_z
 _atom_site_occupancy
 _atom_site_charge
  In  In1  1  0.322300  0.739160  0.806330  1.0  1.7162
  In  In2  1  0.677700  0.260840  0.806330  1.0  1.7173
  In  In3  1  0.677700  0.739160  0.193670  1.0  1.7172
  In  In4  1  0.322300  0.260840  0.193670  1.0  1.7159
  In  In5  1  0.806330  0.322300  0.739160  1.0  1.7154
  In  In6  1  0.806330  0.677700  0.260840  1.0  1.7159
  In  In7  1  0.193670  0.677700  0.739160  1.0  1.7173
  In  In8  1  0.193670  0.322300  0.260840  1.0  1.716
  In  In9  1  0.739160  0.806330  0.322300  1.0  1.7183
  In  In10  1  0.260840  0.806330  0.677700  1.0  1.7178
  In  In11  1  0.739160  0.193670  0.677700  1.0  1.7195
  In  In12  1  0.260840  0.193670  0.322300  1.0  1.7192
  In  In13  1  0.239160  0.822300  0.306330  1.0  1.7179
  In  In14  1  0.760840  0.177700  0.306330  1.0  1.7188
  In  In15  1  0.239160  0.177700  0.693670  1.0  1.7187
  In  In16  1  0.760840  0.822300  0.693670  1.0  1.7174
  In  In17  1  0.822300  0.306330  0.239160  1.0  1.7152
  In  In18  1  0.177700  0.306330  0.760840  1.0  1.7163
  In  In19  1  0.177700  0.693670  0.239160  1.0  1.7178
  In  In20  1  0.822300  0.693670  0.760840  1.0  1.7158
  In  In21  1  0.306330  0.239160  0.822300  1.0  1.7165
  In  In22  1  0.306330  0.760840  0.177700  1.0  1.7166
  In  In23  1  0.693670  0.239160  0.177700  1.0  1.7175
  In  In24  1  0.693670  0.760840  0.822300  1.0  1.7172
  H  H25  1  0.425700  0.796700  0.581900  1.0  0.1484
  H  H26  1  0.509500  0.780500  0.741300  1.0  0.1451
  H  H27  1  0.605200  0.808100  0.590700  1.0  0.1528
  H  H28  1  0.574300  0.203300  0.581900  1.0  0.1482
  H  H29  1  0.490500  0.219500  0.741300  1.0  0.1455
  H  H30  1  0.394800  0.191900  0.590700  1.0  0.1531
  H  H31  1  0.574300  0.796700  0.418100  1.0  0.1485
  H  H32  1  0.490500  0.780500  0.258700  1.0  0.1454
  H  H33  1  0.394800  0.808100  0.409300  1.0  0.1532
  H  H34  1  0.425700  0.203300  0.418100  1.0  0.1484
  H  H35  1  0.509500  0.219500  0.258700  1.0  0.1454
  H  H36  1  0.605200  0.191900  0.409300  1.0  0.1529
  H  H37  1  0.581900  0.425700  0.796700  1.0  0.1477
  H  H38  1  0.741300  0.509500  0.780500  1.0  0.1442
  H  H39  1  0.590700  0.605200  0.808100  1.0  0.1522
  H  H40  1  0.581900  0.574300  0.203300  1.0  0.1485
  H  H41  1  0.741300  0.490500  0.219500  1.0  0.1441
  H  H42  1  0.590700  0.394800  0.191900  1.0  0.1517
  H  H43  1  0.418100  0.574300  0.796700  1.0  0.1479
  H  H44  1  0.258700  0.490500  0.780500  1.0  0.1447
  H  H45  1  0.409300  0.394800  0.808100  1.0  0.1523
  H  H46  1  0.418100  0.425700  0.203300  1.0  0.1483
  H  H47  1  0.258700  0.509500  0.219500  1.0  0.1446
  H  H48  1  0.409300  0.605200  0.191900  1.0  0.152
  H  H49  1  0.796700  0.581900  0.425700  1.0  0.1484
  H  H50  1  0.780500  0.741300  0.509500  1.0  0.1453
  H  H51  1  0.808100  0.590700  0.605200  1.0  0.1537
  H  H52  1  0.203300  0.581900  0.574300  1.0  0.1493
  H  H53  1  0.219500  0.741300  0.490500  1.0  0.145
  H  H54  1  0.191900  0.590700  0.394800  1.0  0.1538
  H  H55  1  0.796700  0.418100  0.574300  1.0  0.1493
  H  H56  1  0.780500  0.258700  0.490500  1.0  0.1448
  H  H57  1  0.808100  0.409300  0.394800  1.0  0.1527
  H  H58  1  0.203300  0.418100  0.425700  1.0  0.1485
  H  H59  1  0.219500  0.258700  0.509500  1.0  0.1451
  H  H60  1  0.191900  0.409300  0.605200  1.0  0.154
  H  H61  1  0.296700  0.925700  0.081900  1.0  0.1478
  H  H62  1  0.280500  0.009500  0.241300  1.0  0.1451
  H  H63  1  0.308100  0.105200  0.090700  1.0  0.1523
  H  H64  1  0.703300  0.074300  0.081900  1.0  0.1478
  H  H65  1  0.719500  0.990500  0.241300  1.0  0.1451
  H  H66  1  0.691900  0.894800  0.090700  1.0  0.153
  H  H67  1  0.296700  0.074300  0.918100  1.0  0.148
  H  H68  1  0.280500  0.990500  0.758700  1.0  0.1452
  H  H69  1  0.308100  0.894800  0.909300  1.0  0.1525
  H  H70  1  0.703300  0.925700  0.918100  1.0  0.148
  H  H71  1  0.719500  0.009500  0.758700  1.0  0.145
  H  H72  1  0.691900  0.105200  0.909300  1.0  0.1528
  H  H73  1  0.925700  0.081900  0.296700  1.0  0.1482
  H  H74  1  0.009500  0.241300  0.280500  1.0  0.1451
  H  H75  1  0.105200  0.090700  0.308100  1.0  0.1526
  H  H76  1  0.074300  0.081900  0.703300  1.0  0.1483
  H  H77  1  0.990500  0.241300  0.719500  1.0  0.1453
  H  H78  1  0.894800  0.090700  0.691900  1.0  0.1524
  H  H79  1  0.074300  0.918100  0.296700  1.0  0.1484
  H  H80  1  0.990500  0.758700  0.280500  1.0  0.1453
  H  H81  1  0.894800  0.909300  0.308100  1.0  0.1524
  H  H82  1  0.925700  0.918100  0.703300  1.0  0.1488
  H  H83  1  0.009500  0.758700  0.719500  1.0  0.1449
  H  H84  1  0.105200  0.909300  0.691900  1.0  0.1523
  H  H85  1  0.081900  0.296700  0.925700  1.0  0.1486
  H  H86  1  0.241300  0.280500  0.009500  1.0  0.1445
  H  H87  1  0.090700  0.308100  0.105200  1.0  0.154
  H  H88  1  0.081900  0.703300  0.074300  1.0  0.1494
  H  H89  1  0.241300  0.719500  0.990500  1.0  0.1442
  H  H90  1  0.090700  0.691900  0.894800  1.0  0.1535
  H  H91  1  0.918100  0.296700  0.074300  1.0  0.1495
  H  H92  1  0.758700  0.280500  0.990500  1.0  0.1447
  H  H93  1  0.909300  0.308100  0.894800  1.0  0.1536
  H  H94  1  0.918100  0.703300  0.925700  1.0  0.1487
  H  H95  1  0.758700  0.719500  0.009500  1.0  0.1449
  H  H96  1  0.909300  0.691900  0.105200  1.0  0.1537
  C  C97  1  0.461200  0.795000  0.604700  1.0  0.0425
  C  C98  1  0.458800  0.786600  0.666200  1.0  -0.1424
  C  C99  1  0.511200  0.786100  0.699400  1.0  0.0381
  C  C100  1  0.516300  0.801000  0.577400  1.0  0.151
  C  C101  1  0.399000  0.779800  0.695100  1.0  0.764
  C  C102  1  0.565200  0.793600  0.671800  1.0  -0.14
  C  C103  1  0.568000  0.801900  0.609800  1.0  -0.0598
  C  C104  1  0.623100  0.794600  0.705200  1.0  0.7598
  C  C105  1  0.538800  0.205000  0.604700  1.0  0.0418
  C  C106  1  0.541200  0.213400  0.666200  1.0  -0.1424
  C  C107  1  0.488800  0.213900  0.699400  1.0  0.0385
  C  C108  1  0.483700  0.199000  0.577400  1.0  0.1513
  C  C109  1  0.601000  0.220200  0.695100  1.0  0.7624
  C  C110  1  0.434800  0.206400  0.671800  1.0  -0.1398
  C  C111  1  0.432000  0.198100  0.609800  1.0  -0.0605
  C  C112  1  0.376900  0.205400  0.705200  1.0  0.7607
  C  C113  1  0.538800  0.795000  0.395300  1.0  0.0424
  C  C114  1  0.541200  0.786600  0.333800  1.0  -0.1423
  C  C115  1  0.488800  0.786100  0.300600  1.0  0.0384
  C  C116  1  0.483700  0.801000  0.422600  1.0  0.1498
  C  C117  1  0.601000  0.779800  0.304900  1.0  0.7617
  C  C118  1  0.434800  0.793600  0.328200  1.0  -0.1398
  C  C119  1  0.432000  0.801900  0.390200  1.0  -0.0586
  C  C120  1  0.376900  0.794600  0.294800  1.0  0.7605
  C  C121  1  0.461200  0.205000  0.395300  1.0  0.0427
  C  C122  1  0.458800  0.213400  0.333800  1.0  -0.1422
  C  C123  1  0.511200  0.213900  0.300600  1.0  0.0379
  C  C124  1  0.516300  0.199000  0.422600  1.0  0.1491
  C  C125  1  0.399000  0.220200  0.304900  1.0  0.7635
  C  C126  1  0.565200  0.206400  0.328200  1.0  -0.1399
  C  C127  1  0.568000  0.198100  0.390200  1.0  -0.0572
  C  C128  1  0.623100  0.205400  0.294800  1.0  0.7595
  C  C129  1  0.604700  0.461200  0.795000  1.0  0.0463
  C  C130  1  0.666200  0.458800  0.786600  1.0  -0.142
  C  C131  1  0.699400  0.511200  0.786100  1.0  0.0397
  C  C132  1  0.577400  0.516300  0.801000  1.0  0.1507
  C  C133  1  0.695100  0.399000  0.779800  1.0  0.7618
  C  C134  1  0.671800  0.565200  0.793600  1.0  -0.1402
  C  C135  1  0.609800  0.568000  0.801900  1.0  -0.0601
  C  C136  1  0.705200  0.623100  0.794600  1.0  0.7607
  C  C137  1  0.604700  0.538800  0.205000  1.0  0.0455
  C  C138  1  0.666200  0.541200  0.213400  1.0  -0.1422
  C  C139  1  0.699400  0.488800  0.213900  1.0  0.0402
  C  C140  1  0.577400  0.483700  0.199000  1.0  0.1509
  C  C141  1  0.695100  0.601000  0.220200  1.0  0.7621
  C  C142  1  0.671800  0.434800  0.206400  1.0  -0.1395
  C  C143  1  0.609800  0.432000  0.198100  1.0  -0.0602
  C  C144  1  0.705200  0.376900  0.205400  1.0  0.7604
  C  C145  1  0.395300  0.538800  0.795000  1.0  0.0446
  C  C146  1  0.333800  0.541200  0.786600  1.0  -0.1421
  C  C147  1  0.300600  0.488800  0.786100  1.0  0.0372
  C  C148  1  0.422600  0.483700  0.801000  1.0  0.1519
  C  C149  1  0.304900  0.601000  0.779800  1.0  0.7628
  C  C150  1  0.328200  0.434800  0.793600  1.0  -0.1399
  C  C151  1  0.390200  0.432000  0.801900  1.0  -0.0601
  C  C152  1  0.294800  0.376900  0.794600  1.0  0.7608
  C  C153  1  0.395300  0.461200  0.205000  1.0  0.0452
  C  C154  1  0.333800  0.458800  0.213400  1.0  -0.1421
  C  C155  1  0.300600  0.511200  0.213900  1.0  0.0376
  C  C156  1  0.422600  0.516300  0.199000  1.0  0.1515
  C  C157  1  0.304900  0.399000  0.220200  1.0  0.7624
  C  C158  1  0.328200  0.565200  0.206400  1.0  -0.1401
  C  C159  1  0.390200  0.568000  0.198100  1.0  -0.0599
  C  C160  1  0.294800  0.623100  0.205400  1.0  0.7612
  C  C161  1  0.795000  0.604700  0.461200  1.0  0.0431
  C  C162  1  0.786600  0.666200  0.458800  1.0  -0.143
  C  C163  1  0.786100  0.699400  0.511200  1.0  0.0376
  C  C164  1  0.801000  0.577400  0.516300  1.0  0.1499
  C  C165  1  0.779800  0.695100  0.399000  1.0  0.7635
  C  C166  1  0.793600  0.671800  0.565200  1.0  -0.1408
  C  C167  1  0.801900  0.609800  0.568000  1.0  -0.062
  C  C168  1  0.794600  0.705200  0.623100  1.0  0.7616
  C  C169  1  0.205000  0.604700  0.538800  1.0  0.0429
  C  C170  1  0.213400  0.666200  0.541200  1.0  -0.1436
  C  C171  1  0.213900  0.699400  0.488800  1.0  0.0377
  C  C172  1  0.199000  0.577400  0.483700  1.0  0.15
  C  C173  1  0.220200  0.695100  0.601000  1.0  0.7641
  C  C174  1  0.206400  0.671800  0.434800  1.0  -0.1412
  C  C175  1  0.198100  0.609800  0.432000  1.0  -0.0625
  C  C176  1  0.205400  0.705200  0.376900  1.0  0.7616
  C  C177  1  0.795000  0.395300  0.538800  1.0  0.0426
  C  C178  1  0.786600  0.333800  0.541200  1.0  -0.1433
  C  C179  1  0.786100  0.300600  0.488800  1.0  0.0384
  C  C180  1  0.801000  0.422600  0.483700  1.0  0.1498
  C  C181  1  0.779800  0.304900  0.601000  1.0  0.7635
  C  C182  1  0.793600  0.328200  0.434800  1.0  -0.1412
  C  C183  1  0.801900  0.390200  0.432000  1.0  -0.0608
  C  C184  1  0.794600  0.294800  0.376900  1.0  0.7614
  C  C185  1  0.205000  0.395300  0.461200  1.0  0.0432
  C  C186  1  0.213400  0.333800  0.458800  1.0  -0.1435
  C  C187  1  0.213900  0.300600  0.511200  1.0  0.0388
  C  C188  1  0.199000  0.422600  0.516300  1.0  0.1499
  C  C189  1  0.220200  0.304900  0.399000  1.0  0.7631
  C  C190  1  0.206400  0.328200  0.565200  1.0  -0.1406
  C  C191  1  0.198100  0.390200  0.568000  1.0  -0.0612
  C  C192  1  0.205400  0.294800  0.623100  1.0  0.7614
  C  C193  1  0.295000  0.961200  0.104700  1.0  0.0437
  C  C194  1  0.286600  0.958800  0.166200  1.0  -0.1422
  C  C195  1  0.286100  0.011200  0.199400  1.0  0.0383
  C  C196  1  0.301000  0.016300  0.077400  1.0  0.1512
  C  C197  1  0.279800  0.899000  0.195100  1.0  0.7628
  C  C198  1  0.293600  0.065200  0.171800  1.0  -0.1395
  C  C199  1  0.301900  0.068000  0.109800  1.0  -0.0599
  C  C200  1  0.294600  0.123100  0.205200  1.0  0.7613
  C  C201  1  0.705000  0.038800  0.104700  1.0  0.0432
  C  C202  1  0.713400  0.041200  0.166200  1.0  -0.1425
  C  C203  1  0.713900  0.988800  0.199400  1.0  0.0383
  C  C204  1  0.699000  0.983700  0.077400  1.0  0.1517
  C  C205  1  0.720200  0.101000  0.195100  1.0  0.763
  C  C206  1  0.706400  0.934800  0.171800  1.0  -0.1393
  C  C207  1  0.698100  0.932000  0.109800  1.0  -0.0599
  C  C208  1  0.705400  0.876900  0.205200  1.0  0.761
  C  C209  1  0.295000  0.038800  0.895300  1.0  0.0433
  C  C210  1  0.286600  0.041200  0.833800  1.0  -0.1422
  C  C211  1  0.286100  0.988800  0.800600  1.0  0.0382
  C  C212  1  0.301000  0.983700  0.922600  1.0  0.1495
  C  C213  1  0.279800  0.101000  0.804900  1.0  0.7627
  C  C214  1  0.293600  0.934800  0.828200  1.0  -0.1396
  C  C215  1  0.301900  0.932000  0.890200  1.0  -0.0577
  C  C216  1  0.294600  0.876900  0.794800  1.0  0.7607
  C  C217  1  0.705000  0.961200  0.895300  1.0  0.044
  C  C218  1  0.713400  0.958800  0.833800  1.0  -0.1424
  C  C219  1  0.713900  0.011200  0.800600  1.0  0.0382
  C  C220  1  0.699000  0.016300  0.922600  1.0  0.1496
  C  C221  1  0.720200  0.899000  0.804900  1.0  0.7622
  C  C222  1  0.706400  0.065200  0.828200  1.0  -0.1399
  C  C223  1  0.698100  0.068000  0.890200  1.0  -0.0582
  C  C224  1  0.705400  0.123100  0.794800  1.0  0.7612
  C  C225  1  0.961200  0.104700  0.295000  1.0  0.0445
  C  C226  1  0.958800  0.166200  0.286600  1.0  -0.1422
  C  C227  1  0.011200  0.199400  0.286100  1.0  0.0375
  C  C228  1  0.016300  0.077400  0.301000  1.0  0.1498
  C  C229  1  0.899000  0.195100  0.279800  1.0  0.7632
  C  C230  1  0.065200  0.171800  0.293600  1.0  -0.1404
  C  C231  1  0.068000  0.109800  0.301900  1.0  -0.0591
  C  C232  1  0.123100  0.205200  0.294600  1.0  0.7589
  C  C233  1  0.038800  0.104700  0.705000  1.0  0.0434
  C  C234  1  0.041200  0.166200  0.713400  1.0  -0.1424
  C  C235  1  0.988800  0.199400  0.713900  1.0  0.038
  C  C236  1  0.983700  0.077400  0.699000  1.0  0.1501
  C  C237  1  0.101000  0.195100  0.720200  1.0  0.7615
  C  C238  1  0.934800  0.171800  0.706400  1.0  -0.1401
  C  C239  1  0.932000  0.109800  0.698100  1.0  -0.0601
  C  C240  1  0.876900  0.205200  0.705400  1.0  0.76
  C  C241  1  0.038800  0.895300  0.295000  1.0  0.0438
  C  C242  1  0.041200  0.833800  0.286600  1.0  -0.1425
  C  C243  1  0.988800  0.800600  0.286100  1.0  0.0388
  C  C244  1  0.983700  0.922600  0.301000  1.0  0.1502
  C  C245  1  0.101000  0.804900  0.279800  1.0  0.761
  C  C246  1  0.934800  0.828200  0.293600  1.0  -0.14
  C  C247  1  0.932000  0.890200  0.301900  1.0  -0.0591
  C  C248  1  0.876900  0.794800  0.294600  1.0  0.7597
  C  C249  1  0.961200  0.895300  0.705000  1.0  0.0445
  C  C250  1  0.958800  0.833800  0.713400  1.0  -0.1425
  C  C251  1  0.011200  0.800600  0.713900  1.0  0.0388
  C  C252  1  0.016300  0.922600  0.699000  1.0  0.1496
  C  C253  1  0.899000  0.804900  0.720200  1.0  0.7628
  C  C254  1  0.065200  0.828200  0.706400  1.0  -0.1398
  C  C255  1  0.068000  0.890200  0.698100  1.0  -0.0578
  C  C256  1  0.123100  0.794800  0.705400  1.0  0.7587
  C  C257  1  0.104700  0.295000  0.961200  1.0  0.0437
  C  C258  1  0.166200  0.286600  0.958800  1.0  -0.1432
  C  C259  1  0.199400  0.286100  0.011200  1.0  0.04
  C  C260  1  0.077400  0.301000  0.016300  1.0  0.1506
  C  C261  1  0.195100  0.279800  0.899000  1.0  0.7633
  C  C262  1  0.171800  0.293600  0.065200  1.0  -0.1407
  C  C263  1  0.109800  0.301900  0.068000  1.0  -0.0623
  C  C264  1  0.205200  0.294600  0.123100  1.0  0.7618
  C  C265  1  0.104700  0.705000  0.038800  1.0  0.0429
  C  C266  1  0.166200  0.713400  0.041200  1.0  -0.1433
  C  C267  1  0.199400  0.713900  0.988800  1.0  0.0398
  C  C268  1  0.077400  0.699000  0.983700  1.0  0.1507
  C  C269  1  0.195100  0.720200  0.101000  1.0  0.764
  C  C270  1  0.171800  0.706400  0.934800  1.0  -0.1411
  C  C271  1  0.109800  0.698100  0.932000  1.0  -0.0622
  C  C272  1  0.205200  0.705400  0.876900  1.0  0.7615
  C  C273  1  0.895300  0.295000  0.038800  1.0  0.0424
  C  C274  1  0.833800  0.286600  0.041200  1.0  -0.1432
  C  C275  1  0.800600  0.286100  0.988800  1.0  0.0376
  C  C276  1  0.922600  0.301000  0.983700  1.0  0.1514
  C  C277  1  0.804900  0.279800  0.101000  1.0  0.7642
  C  C278  1  0.828200  0.293600  0.934800  1.0  -0.1413
  C  C279  1  0.890200  0.301900  0.932000  1.0  -0.0628
  C  C280  1  0.794800  0.294600  0.876900  1.0  0.7621
  C  C281  1  0.895300  0.705000  0.961200  1.0  0.0427
  C  C282  1  0.833800  0.713400  0.958800  1.0  -0.1429
  C  C283  1  0.800600  0.713900  0.011200  1.0  0.0374
  C  C284  1  0.922600  0.699000  0.016300  1.0  0.1516
  C  C285  1  0.804900  0.720200  0.899000  1.0  0.7641
  C  C286  1  0.828200  0.706400  0.065200  1.0  -0.1409
  C  C287  1  0.890200  0.698100  0.068000  1.0  -0.0623
  C  C288  1  0.794800  0.705400  0.123100  1.0  0.7621
  Br  Br289  1  0.401620  0.736800  0.891790  1.0  -0.035
  Br  Br290  1  0.598380  0.263200  0.891790  1.0  -0.0274
  Br  Br291  1  0.598380  0.736800  0.108210  1.0  -0.0293
  Br  Br292  1  0.401620  0.263200  0.108210  1.0  -0.0357
  Br  Br293  1  0.891790  0.401620  0.736800  1.0  -0.0323
  Br  Br294  1  0.891790  0.598380  0.263200  1.0  -0.0261
  Br  Br295  1  0.108210  0.598380  0.736800  1.0  -0.0203
  Br  Br296  1  0.108210  0.401620  0.263200  1.0  -0.0253
  Br  Br297  1  0.736800  0.891790  0.401620  1.0  -0.0337
  Br  Br298  1  0.263200  0.891790  0.598380  1.0  -0.0336
  Br  Br299  1  0.736800  0.108210  0.598380  1.0  -0.0278
  Br  Br300  1  0.263200  0.108210  0.401620  1.0  -0.0272
  Br  Br301  1  0.236800  0.901620  0.391790  1.0  -0.0336
  Br  Br302  1  0.763200  0.098380  0.391790  1.0  -0.0269
  Br  Br303  1  0.236800  0.098380  0.608210  1.0  -0.0285
  Br  Br304  1  0.763200  0.901620  0.608210  1.0  -0.0339
  Br  Br305  1  0.901620  0.391790  0.236800  1.0  -0.0331
  Br  Br306  1  0.098380  0.391790  0.763200  1.0  -0.0257
  Br  Br307  1  0.098380  0.608210  0.236800  1.0  -0.0212
  Br  Br308  1  0.901620  0.608210  0.763200  1.0  -0.0271
  Br  Br309  1  0.391790  0.236800  0.901620  1.0  -0.0338
  Br  Br310  1  0.391790  0.763200  0.098380  1.0  -0.0343
  Br  Br311  1  0.608210  0.236800  0.098380  1.0  -0.0288
  Br  Br312  1  0.608210  0.763200  0.901620  1.0  -0.027
  N  N313  1  0.522900  0.804200  0.513800  1.0  -0.1261
  N  N314  1  0.477100  0.195800  0.513800  1.0  -0.1267
  N  N315  1  0.477100  0.804200  0.486200  1.0  -0.1267
  N  N316  1  0.522900  0.195800  0.486200  1.0  -0.1263
  N  N317  1  0.513800  0.522900  0.804200  1.0  -0.1263
  N  N318  1  0.513800  0.477100  0.195800  1.0  -0.1252
  N  N319  1  0.486200  0.477100  0.804200  1.0  -0.1257
  N  N320  1  0.486200  0.522900  0.195800  1.0  -0.127
  N  N321  1  0.804200  0.513800  0.522900  1.0  -0.1282
  N  N322  1  0.195800  0.513800  0.477100  1.0  -0.1296
  N  N323  1  0.804200  0.486200  0.477100  1.0  -0.1297
  N  N324  1  0.195800  0.486200  0.522900  1.0  -0.1286
  N  N325  1  0.304200  0.022900  0.013800  1.0  -0.1272
  N  N326  1  0.695800  0.977100  0.013800  1.0  -0.1258
  N  N327  1  0.304200  0.977100  0.986200  1.0  -0.126
  N  N328  1  0.695800  0.022900  0.986200  1.0  -0.127
  N  N329  1  0.022900  0.013800  0.304200  1.0  -0.1268
  N  N330  1  0.977100  0.013800  0.695800  1.0  -0.1273
  N  N331  1  0.977100  0.986200  0.304200  1.0  -0.1274
  N  N332  1  0.022900  0.986200  0.695800  1.0  -0.1271
  N  N333  1  0.013800  0.304200  0.022900  1.0  -0.127
  N  N334  1  0.013800  0.695800  0.977100  1.0  -0.1284
  N  N335  1  0.986200  0.304200  0.977100  1.0  -0.1288
  N  N336  1  0.986200  0.695800  0.022900  1.0  -0.1281
  O  O337  1  0.396960  0.761400  0.747800  1.0  -0.5891
  O  O338  1  0.621400  0.780200  0.759200  1.0  -0.5969
  O  O339  1  0.354300  0.793500  0.662700  1.0  -0.607
  O  O340  1  0.667700  0.810600  0.675800  1.0  -0.5742
  O  O341  1  0.388000  0.736000  0.871600  1.0  -0.7427
  O  O342  1  0.603040  0.238600  0.747800  1.0  -0.5905
  O  O343  1  0.378600  0.219800  0.759200  1.0  -0.5965
  O  O344  1  0.645700  0.206500  0.662700  1.0  -0.6078
  O  O345  1  0.332300  0.189400  0.675800  1.0  -0.5738
  O  O346  1  0.612000  0.264000  0.871600  1.0  -0.7441
  O  O347  1  0.603040  0.761400  0.252200  1.0  -0.5917
  O  O348  1  0.378600  0.780200  0.240800  1.0  -0.5972
  O  O349  1  0.645700  0.793500  0.337300  1.0  -0.6086
  O  O350  1  0.332300  0.810600  0.324200  1.0  -0.5743
  O  O351  1  0.612000  0.736000  0.128400  1.0  -0.7425
  O  O352  1  0.396960  0.238600  0.252200  1.0  -0.5902
  O  O353  1  0.621400  0.219800  0.240800  1.0  -0.5968
  O  O354  1  0.354300  0.206500  0.337300  1.0  -0.6084
  O  O355  1  0.667700  0.189400  0.324200  1.0  -0.5751
  O  O356  1  0.388000  0.264000  0.128400  1.0  -0.7439
  O  O357  1  0.747800  0.396960  0.761400  1.0  -0.5924
  O  O358  1  0.759200  0.621400  0.780200  1.0  -0.5991
  O  O359  1  0.662700  0.354300  0.793500  1.0  -0.6109
  O  O360  1  0.675800  0.667700  0.810600  1.0  -0.576
  O  O361  1  0.871600  0.388000  0.736000  1.0  -0.7429
  O  O362  1  0.747800  0.603040  0.238600  1.0  -0.5927
  O  O363  1  0.759200  0.378600  0.219800  1.0  -0.5994
  O  O364  1  0.662700  0.645700  0.206500  1.0  -0.6105
  O  O365  1  0.675800  0.332300  0.189400  1.0  -0.5757
  O  O366  1  0.871600  0.612000  0.264000  1.0  -0.7443
  O  O367  1  0.252200  0.603040  0.761400  1.0  -0.5921
  O  O368  1  0.240800  0.378600  0.780200  1.0  -0.5988
  O  O369  1  0.337300  0.645700  0.793500  1.0  -0.61
  O  O370  1  0.324200  0.332300  0.810600  1.0  -0.577
  O  O371  1  0.128400  0.612000  0.736000  1.0  -0.7457
  O  O372  1  0.252200  0.396960  0.238600  1.0  -0.5925
  O  O373  1  0.240800  0.621400  0.219800  1.0  -0.5989
  O  O374  1  0.337300  0.354300  0.206500  1.0  -0.6101
  O  O375  1  0.324200  0.667700  0.189400  1.0  -0.5768
  O  O376  1  0.128400  0.388000  0.264000  1.0  -0.7456
  O  O377  1  0.761400  0.747800  0.396960  1.0  -0.5916
  O  O378  1  0.780200  0.759200  0.621400  1.0  -0.5967
  O  O379  1  0.793500  0.662700  0.354300  1.0  -0.6089
  O  O380  1  0.810600  0.675800  0.667700  1.0  -0.5756
  O  O381  1  0.736000  0.871600  0.388000  1.0  -0.743
  O  O382  1  0.238600  0.747800  0.603040  1.0  -0.5916
  O  O383  1  0.219800  0.759200  0.378600  1.0  -0.5968
  O  O384  1  0.206500  0.662700  0.645700  1.0  -0.6107
  O  O385  1  0.189400  0.675800  0.332300  1.0  -0.5758
  O  O386  1  0.264000  0.871600  0.612000  1.0  -0.7417
  O  O387  1  0.761400  0.252200  0.603040  1.0  -0.5923
  O  O388  1  0.780200  0.240800  0.378600  1.0  -0.5956
  O  O389  1  0.793500  0.337300  0.645700  1.0  -0.6099
  O  O390  1  0.810600  0.324200  0.332300  1.0  -0.5752
  O  O391  1  0.736000  0.128400  0.612000  1.0  -0.7442
  O  O392  1  0.238600  0.252200  0.396960  1.0  -0.5928
  O  O393  1  0.219800  0.240800  0.621400  1.0  -0.5966
  O  O394  1  0.206500  0.337300  0.354300  1.0  -0.6095
  O  O395  1  0.189400  0.324200  0.667700  1.0  -0.5758
  O  O396  1  0.264000  0.128400  0.388000  1.0  -0.7426
  O  O397  1  0.261400  0.896960  0.247800  1.0  -0.5886
  O  O398  1  0.280200  0.121400  0.259200  1.0  -0.595
  O  O399  1  0.293500  0.854300  0.162700  1.0  -0.609
  O  O400  1  0.310600  0.167700  0.175800  1.0  -0.5755
  O  O401  1  0.236000  0.888000  0.371600  1.0  -0.7468
  O  O402  1  0.738600  0.103040  0.247800  1.0  -0.5886
  O  O403  1  0.719800  0.878600  0.259200  1.0  -0.5955
  O  O404  1  0.706500  0.145700  0.162700  1.0  -0.6099
  O  O405  1  0.689400  0.832300  0.175800  1.0  -0.5753
  O  O406  1  0.764000  0.112000  0.371600  1.0  -0.7467
  O  O407  1  0.261400  0.103040  0.752200  1.0  -0.5897
  O  O408  1  0.280200  0.878600  0.740800  1.0  -0.5947
  O  O409  1  0.293500  0.145700  0.837300  1.0  -0.6099
  O  O410  1  0.310600  0.832300  0.824200  1.0  -0.5765
  O  O411  1  0.236000  0.112000  0.628400  1.0  -0.7481
  O  O412  1  0.738600  0.896960  0.752200  1.0  -0.5898
  O  O413  1  0.719800  0.121400  0.740800  1.0  -0.5954
  O  O414  1  0.706500  0.854300  0.837300  1.0  -0.611
  O  O415  1  0.689400  0.167700  0.824200  1.0  -0.5767
  O  O416  1  0.764000  0.888000  0.628400  1.0  -0.7451
  O  O417  1  0.896960  0.247800  0.261400  1.0  -0.5915
  O  O418  1  0.121400  0.259200  0.280200  1.0  -0.5995
  O  O419  1  0.854300  0.162700  0.293500  1.0  -0.6087
  O  O420  1  0.167700  0.175800  0.310600  1.0  -0.5756
  O  O421  1  0.888000  0.371600  0.236000  1.0  -0.7432
  O  O422  1  0.103040  0.247800  0.738600  1.0  -0.5938
  O  O423  1  0.878600  0.259200  0.719800  1.0  -0.5992
  O  O424  1  0.145700  0.162700  0.706500  1.0  -0.6081
  O  O425  1  0.832300  0.175800  0.689400  1.0  -0.5751
  O  O426  1  0.112000  0.371600  0.764000  1.0  -0.7421
  O  O427  1  0.103040  0.752200  0.261400  1.0  -0.5939
  O  O428  1  0.878600  0.740800  0.280200  1.0  -0.5983
  O  O429  1  0.145700  0.837300  0.293500  1.0  -0.6089
  O  O430  1  0.832300  0.824200  0.310600  1.0  -0.5746
  O  O431  1  0.112000  0.628400  0.236000  1.0  -0.743
  O  O432  1  0.896960  0.752200  0.738600  1.0  -0.593
  O  O433  1  0.121400  0.740800  0.719800  1.0  -0.5984
  O  O434  1  0.854300  0.837300  0.706500  1.0  -0.6086
  O  O435  1  0.167700  0.824200  0.689400  1.0  -0.5752
  O  O436  1  0.888000  0.628400  0.764000  1.0  -0.743
  O  O437  1  0.247800  0.261400  0.896960  1.0  -0.5934
  O  O438  1  0.259200  0.280200  0.121400  1.0  -0.5995
  O  O439  1  0.162700  0.293500  0.854300  1.0  -0.6087
  O  O440  1  0.175800  0.310600  0.167700  1.0  -0.5752
  O  O441  1  0.371600  0.236000  0.888000  1.0  -0.7398
  O  O442  1  0.247800  0.738600  0.103040  1.0  -0.5931
  O  O443  1  0.259200  0.719800  0.878600  1.0  -0.599
  O  O444  1  0.162700  0.706500  0.145700  1.0  -0.6103
  O  O445  1  0.175800  0.689400  0.832300  1.0  -0.5746
  O  O446  1  0.371600  0.764000  0.112000  1.0  -0.7411
  O  O447  1  0.752200  0.261400  0.103040  1.0  -0.5928
  O  O448  1  0.740800  0.280200  0.878600  1.0  -0.5986
  O  O449  1  0.837300  0.293500  0.145700  1.0  -0.6099
  O  O450  1  0.824200  0.310600  0.832300  1.0  -0.5754
  O  O451  1  0.628400  0.236000  0.112000  1.0  -0.7418
  O  O452  1  0.752200  0.738600  0.896960  1.0  -0.5928
  O  O453  1  0.740800  0.719800  0.121400  1.0  -0.5986
  O  O454  1  0.837300  0.706500  0.854300  1.0  -0.6088
  O  O455  1  0.824200  0.689400  0.167700  1.0  -0.5755
  O  O456  1  0.628400  0.764000  0.888000  1.0  -0.7427
  O  O457  1  0.259600  0.740400  0.740400  1.0  -0.9065
  O  O458  1  0.740400  0.259600  0.740400  1.0  -0.9065
  O  O459  1  0.740400  0.740400  0.259600  1.0  -0.9068
  O  O460  1  0.259600  0.259600  0.259600  1.0  -0.9067
  O  O461  1  0.240400  0.759600  0.240400  1.0  -0.9065
  O  O462  1  0.759600  0.240400  0.240400  1.0  -0.9065
  O  O463  1  0.240400  0.240400  0.759600  1.0  -0.9068
  O  O464  1  0.759600  0.759600  0.759600  1.0  -0.9067
