# generated using pymatgen
data_In3H9C24N3Cl3O16
_symmetry_space_group_name_H-M   'P 1'
_cell_length_a   22.45700000
_cell_length_b   22.45700000
_cell_length_c   22.45700000
_cell_angle_alpha   90.00000000
_cell_angle_beta   90.00000000
_cell_angle_gamma   90.00000000
_symmetry_Int_Tables_number   1
_chemical_formula_structural   In3H9C24N3Cl3O16
_chemical_formula_sum   'In24 H72 C192 N24 Cl24 O128'
_cell_volume   11325.44347799
_cell_formula_units_Z   8
loop_
 _symmetry_equiv_pos_site_id
 _symmetry_equiv_pos_as_xyz
  1  'x, y, z'
loop_
 _atom_site_type_symbol
 _atom_site_label
 _atom_site_symmetry_multiplicity
 _atom_site_fract_x
 _atom_site_fract_y
 _atom_site_fract_z
 _atom_site_occupancy
 _atom_site_charge
  In  In1  1  0.677690  0.739290  0.806420  1.0  1.6849
  In  In2  1  0.322310  0.260710  0.806420  1.0  1.6833
  In  In3  1  0.322310  0.739290  0.193580  1.0  1.6839
  In  In4  1  0.677690  0.260710  0.193580  1.0  1.6847
  In  In5  1  0.806420  0.677690  0.739290  1.0  1.6841
  In  In6  1  0.806420  0.322310  0.260710  1.0  1.6826
  In  In7  1  0.193580  0.322310  0.739290  1.0  1.6838
  In  In8  1  0.193580  0.677690  0.260710  1.0  1.6848
  In  In9  1  0.739290  0.806420  0.677690  1.0  1.6855
  In  In10  1  0.260710  0.806420  0.322310  1.0  1.6848
  In  In11  1  0.739290  0.193580  0.322310  1.0  1.6865
  In  In12  1  0.260710  0.193580  0.677690  1.0  1.6867
  In  In13  1  0.239290  0.177690  0.306420  1.0  1.6866
  In  In14  1  0.760710  0.822310  0.306420  1.0  1.6847
  In  In15  1  0.239290  0.822310  0.693580  1.0  1.6854
  In  In16  1  0.760710  0.177690  0.693580  1.0  1.6865
  In  In17  1  0.177690  0.306420  0.239290  1.0  1.6837
  In  In18  1  0.822310  0.306420  0.760710  1.0  1.6823
  In  In19  1  0.822310  0.693580  0.239290  1.0  1.6837
  In  In20  1  0.177690  0.693580  0.760710  1.0  1.6847
  In  In21  1  0.306420  0.239290  0.177690  1.0  1.6844
  In  In22  1  0.306420  0.760710  0.822310  1.0  1.6835
  In  In23  1  0.693580  0.239290  0.822310  1.0  1.6849
  In  In24  1  0.693580  0.760710  0.177690  1.0  1.6849
  H  H25  1  0.917800  0.705300  0.074600  1.0  0.1365
  H  H26  1  0.758700  0.720500  0.990700  1.0  0.1357
  H  H27  1  0.908700  0.693100  0.894400  1.0  0.1446
  H  H28  1  0.082200  0.294700  0.074600  1.0  0.1366
  H  H29  1  0.241300  0.279500  0.990700  1.0  0.1353
  H  H30  1  0.091300  0.306900  0.894400  1.0  0.1446
  H  H31  1  0.082200  0.705300  0.925400  1.0  0.1365
  H  H32  1  0.241300  0.720500  0.009300  1.0  0.1358
  H  H33  1  0.091300  0.693100  0.105600  1.0  0.1453
  H  H34  1  0.917800  0.294700  0.925400  1.0  0.1362
  H  H35  1  0.758700  0.279500  0.009300  1.0  0.1359
  H  H36  1  0.908700  0.306900  0.105600  1.0  0.1442
  H  H37  1  0.074600  0.917800  0.705300  1.0  0.136
  H  H38  1  0.990700  0.758700  0.720500  1.0  0.1365
  H  H39  1  0.894400  0.908700  0.693100  1.0  0.1438
  H  H40  1  0.074600  0.082200  0.294700  1.0  0.1354
  H  H41  1  0.990700  0.241300  0.279500  1.0  0.1371
  H  H42  1  0.894400  0.091300  0.306900  1.0  0.1441
  H  H43  1  0.925400  0.082200  0.705300  1.0  0.1357
  H  H44  1  0.009300  0.241300  0.720500  1.0  0.1369
  H  H45  1  0.105600  0.091300  0.693100  1.0  0.144
  H  H46  1  0.925400  0.917800  0.294700  1.0  0.1359
  H  H47  1  0.009300  0.758700  0.279500  1.0  0.1365
  H  H48  1  0.105600  0.908700  0.306900  1.0  0.1438
  H  H49  1  0.705300  0.074600  0.917800  1.0  0.1354
  H  H50  1  0.720500  0.990700  0.758700  1.0  0.1367
  H  H51  1  0.693100  0.894400  0.908700  1.0  0.1441
  H  H52  1  0.294700  0.074600  0.082200  1.0  0.1354
  H  H53  1  0.279500  0.990700  0.241300  1.0  0.1359
  H  H54  1  0.306900  0.894400  0.091300  1.0  0.1437
  H  H55  1  0.705300  0.925400  0.082200  1.0  0.1358
  H  H56  1  0.720500  0.009300  0.241300  1.0  0.1363
  H  H57  1  0.693100  0.105600  0.091300  1.0  0.1433
  H  H58  1  0.294700  0.925400  0.917800  1.0  0.1356
  H  H59  1  0.279500  0.009300  0.758700  1.0  0.1367
  H  H60  1  0.306900  0.105600  0.908700  1.0  0.1432
  H  H61  1  0.205300  0.417800  0.574600  1.0  0.1366
  H  H62  1  0.220500  0.258700  0.490700  1.0  0.136
  H  H63  1  0.193100  0.408700  0.394400  1.0  0.1441
  H  H64  1  0.794700  0.582200  0.574600  1.0  0.1366
  H  H65  1  0.779500  0.741300  0.490700  1.0  0.1366
  H  H66  1  0.806900  0.591300  0.394400  1.0  0.1447
  H  H67  1  0.205300  0.582200  0.425400  1.0  0.1366
  H  H68  1  0.220500  0.741300  0.509300  1.0  0.1368
  H  H69  1  0.193100  0.591300  0.605600  1.0  0.1455
  H  H70  1  0.794700  0.417800  0.425400  1.0  0.1363
  H  H71  1  0.779500  0.258700  0.509300  1.0  0.1362
  H  H72  1  0.806900  0.408700  0.605600  1.0  0.1446
  H  H73  1  0.417800  0.574600  0.205300  1.0  0.1351
  H  H74  1  0.258700  0.490700  0.220500  1.0  0.1357
  H  H75  1  0.408700  0.394400  0.193100  1.0  0.1431
  H  H76  1  0.582200  0.574600  0.794700  1.0  0.1353
  H  H77  1  0.741300  0.490700  0.779500  1.0  0.1356
  H  H78  1  0.591300  0.394400  0.806900  1.0  0.1435
  H  H79  1  0.582200  0.425400  0.205300  1.0  0.1351
  H  H80  1  0.741300  0.509300  0.220500  1.0  0.1355
  H  H81  1  0.591300  0.605600  0.193100  1.0  0.1433
  H  H82  1  0.417800  0.425400  0.794700  1.0  0.1353
  H  H83  1  0.258700  0.509300  0.779500  1.0  0.136
  H  H84  1  0.408700  0.605600  0.806900  1.0  0.1428
  H  H85  1  0.574600  0.205300  0.417800  1.0  0.1357
  H  H86  1  0.490700  0.220500  0.258700  1.0  0.1372
  H  H87  1  0.394400  0.193100  0.408700  1.0  0.1443
  H  H88  1  0.574600  0.794700  0.582200  1.0  0.1358
  H  H89  1  0.490700  0.779500  0.741300  1.0  0.1365
  H  H90  1  0.394400  0.806900  0.591300  1.0  0.1442
  H  H91  1  0.425400  0.205300  0.582200  1.0  0.1361
  H  H92  1  0.509300  0.220500  0.741300  1.0  0.1363
  H  H93  1  0.605600  0.193100  0.591300  1.0  0.1443
  H  H94  1  0.425400  0.794700  0.417800  1.0  0.1358
  H  H95  1  0.509300  0.779500  0.258700  1.0  0.1368
  H  H96  1  0.605600  0.806900  0.408700  1.0  0.1439
  C  C97  1  0.805100  0.720000  0.101500  1.0  0.7469
  C  C98  1  0.794900  0.705300  0.877100  1.0  0.7484
  C  C99  1  0.828500  0.706400  0.934600  1.0  -0.1386
  C  C100  1  0.894900  0.705700  0.039000  1.0  0.0324
  C  C101  1  0.800500  0.714300  0.989000  1.0  0.0218
  C  C102  1  0.834100  0.713100  0.041500  1.0  -0.1351
  C  C103  1  0.922700  0.698700  0.984300  1.0  0.1307
  C  C104  1  0.889600  0.698600  0.931800  1.0  -0.0728
  C  C105  1  0.194900  0.280000  0.101500  1.0  0.7465
  C  C106  1  0.205100  0.294700  0.877100  1.0  0.7479
  C  C107  1  0.171500  0.293600  0.934600  1.0  -0.1385
  C  C108  1  0.105100  0.294300  0.039000  1.0  0.0327
  C  C109  1  0.199500  0.285700  0.989000  1.0  0.0248
  C  C110  1  0.165900  0.286900  0.041500  1.0  -0.1349
  C  C111  1  0.077300  0.301300  0.984300  1.0  0.13
  C  C112  1  0.110400  0.301400  0.931800  1.0  -0.0718
  C  C113  1  0.194900  0.720000  0.898500  1.0  0.7462
  C  C114  1  0.205100  0.705300  0.122900  1.0  0.7485
  C  C115  1  0.171500  0.706400  0.065400  1.0  -0.1392
  C  C116  1  0.105100  0.705700  0.961000  1.0  0.0329
  C  C117  1  0.199500  0.714300  0.011000  1.0  0.0247
  C  C118  1  0.165900  0.713100  0.958500  1.0  -0.1353
  C  C119  1  0.077300  0.698700  0.015700  1.0  0.1295
  C  C120  1  0.110400  0.698600  0.068200  1.0  -0.0746
  C  C121  1  0.805100  0.280000  0.898500  1.0  0.7469
  C  C122  1  0.794900  0.294700  0.122900  1.0  0.7484
  C  C123  1  0.828500  0.293600  0.065400  1.0  -0.1391
  C  C124  1  0.894900  0.294300  0.961000  1.0  0.0327
  C  C125  1  0.800500  0.285700  0.011000  1.0  0.022
  C  C126  1  0.834100  0.286900  0.958500  1.0  -0.1352
  C  C127  1  0.922700  0.301300  0.015700  1.0  0.1296
  C  C128  1  0.889600  0.301400  0.068200  1.0  -0.0738
  C  C129  1  0.101500  0.805100  0.720000  1.0  0.7426
  C  C130  1  0.877100  0.794900  0.705300  1.0  0.7455
  C  C131  1  0.934600  0.828500  0.706400  1.0  -0.1378
  C  C132  1  0.039000  0.894900  0.705700  1.0  0.0347
  C  C133  1  0.989000  0.800500  0.714300  1.0  0.0229
  C  C134  1  0.041500  0.834100  0.713100  1.0  -0.134
  C  C135  1  0.984300  0.922700  0.698700  1.0  0.1297
  C  C136  1  0.931800  0.889600  0.698600  1.0  -0.0683
  C  C137  1  0.101500  0.194900  0.280000  1.0  0.743
  C  C138  1  0.877100  0.205100  0.294700  1.0  0.7458
  C  C139  1  0.934600  0.171500  0.293600  1.0  -0.1381
  C  C140  1  0.039000  0.105100  0.294300  1.0  0.0344
  C  C141  1  0.989000  0.199500  0.285700  1.0  0.0216
  C  C142  1  0.041500  0.165900  0.286900  1.0  -0.1346
  C  C143  1  0.984300  0.077300  0.301300  1.0  0.1297
  C  C144  1  0.931800  0.110400  0.301400  1.0  -0.0687
  C  C145  1  0.898500  0.194900  0.720000  1.0  0.7449
  C  C146  1  0.122900  0.205100  0.705300  1.0  0.7446
  C  C147  1  0.065400  0.171500  0.706400  1.0  -0.1378
  C  C148  1  0.961000  0.105100  0.705700  1.0  0.0345
  C  C149  1  0.011000  0.199500  0.714300  1.0  0.0216
  C  C150  1  0.958500  0.165900  0.713100  1.0  -0.1345
  C  C151  1  0.015700  0.077300  0.698700  1.0  0.1287
  C  C152  1  0.068200  0.110400  0.698600  1.0  -0.0691
  C  C153  1  0.898500  0.805100  0.280000  1.0  0.7444
  C  C154  1  0.122900  0.794900  0.294700  1.0  0.7443
  C  C155  1  0.065400  0.828500  0.293600  1.0  -0.1377
  C  C156  1  0.961000  0.894900  0.294300  1.0  0.0348
  C  C157  1  0.011000  0.800500  0.285700  1.0  0.0224
  C  C158  1  0.958500  0.834100  0.286900  1.0  -0.1343
  C  C159  1  0.015700  0.922700  0.301300  1.0  0.129
  C  C160  1  0.068200  0.889600  0.301400  1.0  -0.068
  C  C161  1  0.720000  0.101500  0.805100  1.0  0.7458
  C  C162  1  0.705300  0.877100  0.794900  1.0  0.747
  C  C163  1  0.706400  0.934600  0.828500  1.0  -0.1382
  C  C164  1  0.705700  0.039000  0.894900  1.0  0.0338
  C  C165  1  0.714300  0.989000  0.800500  1.0  0.0218
  C  C166  1  0.713100  0.041500  0.834100  1.0  -0.1344
  C  C167  1  0.698700  0.984300  0.922700  1.0  0.1292
  C  C168  1  0.698600  0.931800  0.889600  1.0  -0.0676
  C  C169  1  0.280000  0.101500  0.194900  1.0  0.7461
  C  C170  1  0.294700  0.877100  0.205100  1.0  0.7479
  C  C171  1  0.293600  0.934600  0.171500  1.0  -0.1385
  C  C172  1  0.294300  0.039000  0.105100  1.0  0.0337
  C  C173  1  0.285700  0.989000  0.199500  1.0  0.0218
  C  C174  1  0.286900  0.041500  0.165900  1.0  -0.1347
  C  C175  1  0.301300  0.984300  0.077300  1.0  0.1287
  C  C176  1  0.301400  0.931800  0.110400  1.0  -0.0693
  C  C177  1  0.720000  0.898500  0.194900  1.0  0.7459
  C  C178  1  0.705300  0.122900  0.205100  1.0  0.7481
  C  C179  1  0.706400  0.065400  0.171500  1.0  -0.1383
  C  C180  1  0.705700  0.961000  0.105100  1.0  0.0331
  C  C181  1  0.714300  0.011000  0.199500  1.0  0.0215
  C  C182  1  0.713100  0.958500  0.165900  1.0  -0.1339
  C  C183  1  0.698700  0.015700  0.077300  1.0  0.1288
  C  C184  1  0.698600  0.068200  0.110400  1.0  -0.0696
  C  C185  1  0.280000  0.898500  0.805100  1.0  0.7456
  C  C186  1  0.294700  0.122900  0.794900  1.0  0.747
  C  C187  1  0.293600  0.065400  0.828500  1.0  -0.1389
  C  C188  1  0.294300  0.961000  0.894900  1.0  0.0334
  C  C189  1  0.285700  0.011000  0.800500  1.0  0.0224
  C  C190  1  0.286900  0.958500  0.834100  1.0  -0.1342
  C  C191  1  0.301300  0.015700  0.922700  1.0  0.1279
  C  C192  1  0.301400  0.068200  0.889600  1.0  -0.0681
  C  C193  1  0.220000  0.305100  0.601500  1.0  0.7468
  C  C194  1  0.205300  0.294900  0.377100  1.0  0.7473
  C  C195  1  0.206400  0.328500  0.434600  1.0  -0.1387
  C  C196  1  0.205700  0.394900  0.539000  1.0  0.0333
  C  C197  1  0.214300  0.300500  0.489000  1.0  0.0221
  C  C198  1  0.213100  0.334100  0.541500  1.0  -0.1341
  C  C199  1  0.198700  0.422700  0.484300  1.0  0.1297
  C  C200  1  0.198600  0.389600  0.431800  1.0  -0.0717
  C  C201  1  0.780000  0.694900  0.601500  1.0  0.7468
  C  C202  1  0.794700  0.705100  0.377100  1.0  0.7474
  C  C203  1  0.793600  0.671500  0.434600  1.0  -0.1391
  C  C204  1  0.794300  0.605100  0.539000  1.0  0.0333
  C  C205  1  0.785700  0.699500  0.489000  1.0  0.0216
  C  C206  1  0.786900  0.665900  0.541500  1.0  -0.1347
  C  C207  1  0.801300  0.577300  0.484300  1.0  0.1291
  C  C208  1  0.801400  0.610400  0.431800  1.0  -0.0733
  C  C209  1  0.220000  0.694900  0.398500  1.0  0.7467
  C  C210  1  0.205300  0.705100  0.622900  1.0  0.7476
  C  C211  1  0.206400  0.671500  0.565400  1.0  -0.1396
  C  C212  1  0.205700  0.605100  0.461000  1.0  0.0332
  C  C213  1  0.214300  0.699500  0.511000  1.0  0.0214
  C  C214  1  0.213100  0.665900  0.458500  1.0  -0.1351
  C  C215  1  0.198700  0.577300  0.515700  1.0  0.1285
  C  C216  1  0.198600  0.610400  0.568200  1.0  -0.0741
  C  C217  1  0.780000  0.305100  0.398500  1.0  0.7464
  C  C218  1  0.794700  0.294900  0.622900  1.0  0.7474
  C  C219  1  0.793600  0.328500  0.565400  1.0  -0.1395
  C  C220  1  0.794300  0.394900  0.461000  1.0  0.0335
  C  C221  1  0.785700  0.300500  0.511000  1.0  0.0226
  C  C222  1  0.786900  0.334100  0.458500  1.0  -0.1349
  C  C223  1  0.801300  0.422700  0.515700  1.0  0.1284
  C  C224  1  0.801400  0.389600  0.568200  1.0  -0.0735
  C  C225  1  0.305100  0.601500  0.220000  1.0  0.7458
  C  C226  1  0.294900  0.377100  0.205300  1.0  0.7469
  C  C227  1  0.328500  0.434600  0.206400  1.0  -0.138
  C  C228  1  0.394900  0.539000  0.205700  1.0  0.0354
  C  C229  1  0.300500  0.489000  0.214300  1.0  0.0223
  C  C230  1  0.334100  0.541500  0.213100  1.0  -0.1347
  C  C231  1  0.422700  0.484300  0.198700  1.0  0.1306
  C  C232  1  0.389600  0.431800  0.198600  1.0  -0.0697
  C  C233  1  0.694900  0.601500  0.780000  1.0  0.7451
  C  C234  1  0.705100  0.377100  0.794700  1.0  0.7466
  C  C235  1  0.671500  0.434600  0.793600  1.0  -0.138
  C  C236  1  0.605100  0.539000  0.794300  1.0  0.0351
  C  C237  1  0.699500  0.489000  0.785700  1.0  0.0247
  C  C238  1  0.665900  0.541500  0.786900  1.0  -0.1347
  C  C239  1  0.577300  0.484300  0.801300  1.0  0.1304
  C  C240  1  0.610400  0.431800  0.801400  1.0  -0.07
  C  C241  1  0.694900  0.398500  0.220000  1.0  0.7448
  C  C242  1  0.705100  0.622900  0.205300  1.0  0.7469
  C  C243  1  0.671500  0.565400  0.206400  1.0  -0.1382
  C  C244  1  0.605100  0.461000  0.205700  1.0  0.0347
  C  C245  1  0.699500  0.511000  0.214300  1.0  0.0251
  C  C246  1  0.665900  0.458500  0.213100  1.0  -0.1339
  C  C247  1  0.577300  0.515700  0.198700  1.0  0.1295
  C  C248  1  0.610400  0.568200  0.198600  1.0  -0.0703
  C  C249  1  0.305100  0.398500  0.780000  1.0  0.7457
  C  C250  1  0.294900  0.622900  0.794700  1.0  0.7472
  C  C251  1  0.328500  0.565400  0.793600  1.0  -0.1383
  C  C252  1  0.394900  0.461000  0.794300  1.0  0.0346
  C  C253  1  0.300500  0.511000  0.785700  1.0  0.0217
  C  C254  1  0.334100  0.458500  0.786900  1.0  -0.1342
  C  C255  1  0.422700  0.515700  0.801300  1.0  0.1302
  C  C256  1  0.389600  0.568200  0.801400  1.0  -0.0701
  C  C257  1  0.601500  0.220000  0.305100  1.0  0.7433
  C  C258  1  0.377100  0.205300  0.294900  1.0  0.7469
  C  C259  1  0.434600  0.206400  0.328500  1.0  -0.138
  C  C260  1  0.539000  0.205700  0.394900  1.0  0.0328
  C  C261  1  0.489000  0.214300  0.300500  1.0  0.0222
  C  C262  1  0.541500  0.213100  0.334100  1.0  -0.1344
  C  C263  1  0.484300  0.198700  0.422700  1.0  0.1294
  C  C264  1  0.431800  0.198600  0.389600  1.0  -0.0673
  C  C265  1  0.601500  0.780000  0.694900  1.0  0.7434
  C  C266  1  0.377100  0.794700  0.705100  1.0  0.7477
  C  C267  1  0.434600  0.793600  0.671500  1.0  -0.1379
  C  C268  1  0.539000  0.794300  0.605100  1.0  0.033
  C  C269  1  0.489000  0.785700  0.699500  1.0  0.0219
  C  C270  1  0.541500  0.786900  0.665900  1.0  -0.1346
  C  C271  1  0.484300  0.801300  0.577300  1.0  0.1295
  C  C272  1  0.431800  0.801400  0.610400  1.0  -0.068
  C  C273  1  0.398500  0.220000  0.694900  1.0  0.7453
  C  C274  1  0.622900  0.205300  0.705100  1.0  0.7467
  C  C275  1  0.565400  0.206400  0.671500  1.0  -0.1379
  C  C276  1  0.461000  0.205700  0.605100  1.0  0.0329
  C  C277  1  0.511000  0.214300  0.699500  1.0  0.0214
  C  C278  1  0.458500  0.213100  0.665900  1.0  -0.1346
  C  C279  1  0.515700  0.198700  0.577300  1.0  0.1283
  C  C280  1  0.568200  0.198600  0.610400  1.0  -0.0689
  C  C281  1  0.398500  0.780000  0.305100  1.0  0.7448
  C  C282  1  0.622900  0.794700  0.294900  1.0  0.7455
  C  C283  1  0.565400  0.793600  0.328500  1.0  -0.1379
  C  C284  1  0.461000  0.794300  0.394900  1.0  0.0327
  C  C285  1  0.511000  0.785700  0.300500  1.0  0.022
  C  C286  1  0.458500  0.786900  0.334100  1.0  -0.1345
  C  C287  1  0.515700  0.801300  0.422700  1.0  0.1278
  C  C288  1  0.568200  0.801400  0.389600  1.0  -0.0669
  N  N289  1  0.986200  0.695700  0.977100  1.0  -0.1287
  N  N290  1  0.013800  0.304300  0.977100  1.0  -0.1273
  N  N291  1  0.013800  0.695700  0.022900  1.0  -0.1279
  N  N292  1  0.986200  0.304300  0.022900  1.0  -0.1286
  N  N293  1  0.977100  0.986200  0.695700  1.0  -0.1275
  N  N294  1  0.977100  0.013800  0.304300  1.0  -0.1276
  N  N295  1  0.022900  0.013800  0.695700  1.0  -0.128
  N  N296  1  0.022900  0.986200  0.304300  1.0  -0.1279
  N  N297  1  0.695700  0.977100  0.986200  1.0  -0.1265
  N  N298  1  0.304300  0.977100  0.013800  1.0  -0.1263
  N  N299  1  0.695700  0.022900  0.013800  1.0  -0.1268
  N  N300  1  0.304300  0.022900  0.986200  1.0  -0.1274
  N  N301  1  0.195700  0.486200  0.477100  1.0  -0.1284
  N  N302  1  0.804300  0.513800  0.477100  1.0  -0.1291
  N  N303  1  0.195700  0.513800  0.522900  1.0  -0.1287
  N  N304  1  0.804300  0.486200  0.522900  1.0  -0.1291
  N  N305  1  0.486200  0.477100  0.195700  1.0  -0.1268
  N  N306  1  0.513800  0.477100  0.804300  1.0  -0.1259
  N  N307  1  0.513800  0.522900  0.195700  1.0  -0.1267
  N  N308  1  0.486200  0.522900  0.804300  1.0  -0.1277
  N  N309  1  0.477100  0.195700  0.486200  1.0  -0.1273
  N  N310  1  0.477100  0.804300  0.513800  1.0  -0.1264
  N  N311  1  0.522900  0.195700  0.513800  1.0  -0.127
  N  N312  1  0.522900  0.804300  0.486200  1.0  -0.1269
  Cl  Cl313  1  0.604400  0.737200  0.887800  1.0  0.117
  Cl  Cl314  1  0.395600  0.262800  0.887800  1.0  0.1181
  Cl  Cl315  1  0.395600  0.737200  0.112200  1.0  0.1129
  Cl  Cl316  1  0.604400  0.262800  0.112200  1.0  0.1186
  Cl  Cl317  1  0.887800  0.604400  0.737200  1.0  0.1142
  Cl  Cl318  1  0.887800  0.395600  0.262800  1.0  0.1162
  Cl  Cl319  1  0.112200  0.395600  0.737200  1.0  0.1205
  Cl  Cl320  1  0.112200  0.604400  0.262800  1.0  0.1183
  Cl  Cl321  1  0.737200  0.887800  0.604400  1.0  0.1166
  Cl  Cl322  1  0.262800  0.887800  0.395600  1.0  0.118
  Cl  Cl323  1  0.737200  0.112200  0.395600  1.0  0.1217
  Cl  Cl324  1  0.262800  0.112200  0.604400  1.0  0.1213
  Cl  Cl325  1  0.237200  0.104400  0.387800  1.0  0.1168
  Cl  Cl326  1  0.762800  0.895600  0.387800  1.0  0.1177
  Cl  Cl327  1  0.237200  0.895600  0.612200  1.0  0.1164
  Cl  Cl328  1  0.762800  0.104400  0.612200  1.0  0.1149
  Cl  Cl329  1  0.104400  0.387800  0.237200  1.0  0.1179
  Cl  Cl330  1  0.895600  0.387800  0.762800  1.0  0.1162
  Cl  Cl331  1  0.895600  0.612200  0.237200  1.0  0.1201
  Cl  Cl332  1  0.104400  0.612200  0.762800  1.0  0.1207
  Cl  Cl333  1  0.387800  0.237200  0.104400  1.0  0.1132
  Cl  Cl334  1  0.387800  0.762800  0.895600  1.0  0.1176
  Cl  Cl335  1  0.612200  0.237200  0.895600  1.0  0.1189
  Cl  Cl336  1  0.612200  0.762800  0.104400  1.0  0.1225
  O  O337  1  0.607100  0.738800  0.872000  1.0  -0.735
  O  O338  1  0.740700  0.720500  0.878570  1.0  -0.6037
  O  O339  1  0.824500  0.690000  0.832250  1.0  -0.587
  O  O340  1  0.837200  0.706100  0.145860  1.0  -0.5929
  O  O341  1  0.752460  0.738700  0.103300  1.0  -0.6051
  O  O342  1  0.392900  0.261200  0.872000  1.0  -0.7315
  O  O343  1  0.259300  0.279500  0.878570  1.0  -0.605
  O  O344  1  0.175500  0.310000  0.832250  1.0  -0.585
  O  O345  1  0.162800  0.293900  0.145860  1.0  -0.593
  O  O346  1  0.247540  0.261300  0.103300  1.0  -0.605
  O  O347  1  0.392900  0.738800  0.128000  1.0  -0.7314
  O  O348  1  0.259300  0.720500  0.121430  1.0  -0.6054
  O  O349  1  0.175500  0.690000  0.167750  1.0  -0.5856
  O  O350  1  0.162800  0.706100  0.854140  1.0  -0.5918
  O  O351  1  0.247540  0.738700  0.896700  1.0  -0.6059
  O  O352  1  0.607100  0.261200  0.128000  1.0  -0.7326
  O  O353  1  0.740700  0.279500  0.121430  1.0  -0.605
  O  O354  1  0.824500  0.310000  0.167750  1.0  -0.5865
  O  O355  1  0.837200  0.293900  0.854140  1.0  -0.5922
  O  O356  1  0.752460  0.261300  0.896700  1.0  -0.6051
  O  O357  1  0.872000  0.607100  0.738800  1.0  -0.7372
  O  O358  1  0.878570  0.740700  0.720500  1.0  -0.6053
  O  O359  1  0.832250  0.824500  0.690000  1.0  -0.5851
  O  O360  1  0.145860  0.837200  0.706100  1.0  -0.5922
  O  O361  1  0.103300  0.752460  0.738700  1.0  -0.6065
  O  O362  1  0.872000  0.392900  0.261200  1.0  -0.7355
  O  O363  1  0.878570  0.259300  0.279500  1.0  -0.6043
  O  O364  1  0.832250  0.175500  0.310000  1.0  -0.5865
  O  O365  1  0.145860  0.162800  0.293900  1.0  -0.5917
  O  O366  1  0.103300  0.247540  0.261300  1.0  -0.6063
  O  O367  1  0.128000  0.392900  0.738800  1.0  -0.7364
  O  O368  1  0.121430  0.259300  0.720500  1.0  -0.6063
  O  O369  1  0.167750  0.175500  0.690000  1.0  -0.5857
  O  O370  1  0.854140  0.162800  0.706100  1.0  -0.5914
  O  O371  1  0.896700  0.247540  0.738700  1.0  -0.6048
  O  O372  1  0.128000  0.607100  0.261200  1.0  -0.737
  O  O373  1  0.121430  0.740700  0.279500  1.0  -0.6058
  O  O374  1  0.167750  0.824500  0.310000  1.0  -0.5863
  O  O375  1  0.854140  0.837200  0.293900  1.0  -0.5923
  O  O376  1  0.896700  0.752460  0.261300  1.0  -0.6055
  O  O377  1  0.738800  0.872000  0.607100  1.0  -0.73
  O  O378  1  0.720500  0.878570  0.740700  1.0  -0.6017
  O  O379  1  0.690000  0.832250  0.824500  1.0  -0.5875
  O  O380  1  0.706100  0.145860  0.837200  1.0  -0.5939
  O  O381  1  0.738700  0.103300  0.752460  1.0  -0.602
  O  O382  1  0.261200  0.872000  0.392900  1.0  -0.733
  O  O383  1  0.279500  0.878570  0.259300  1.0  -0.601
  O  O384  1  0.310000  0.832250  0.175500  1.0  -0.586
  O  O385  1  0.293900  0.145860  0.162800  1.0  -0.5923
  O  O386  1  0.261300  0.103300  0.247540  1.0  -0.6014
  O  O387  1  0.738800  0.128000  0.392900  1.0  -0.733
  O  O388  1  0.720500  0.121430  0.259300  1.0  -0.6018
  O  O389  1  0.690000  0.167750  0.175500  1.0  -0.5863
  O  O390  1  0.706100  0.854140  0.162800  1.0  -0.5924
  O  O391  1  0.738700  0.896700  0.247540  1.0  -0.6025
  O  O392  1  0.261200  0.128000  0.607100  1.0  -0.7306
  O  O393  1  0.279500  0.121430  0.740700  1.0  -0.6019
  O  O394  1  0.310000  0.167750  0.824500  1.0  -0.5869
  O  O395  1  0.293900  0.854140  0.837200  1.0  -0.5934
  O  O396  1  0.261300  0.896700  0.752460  1.0  -0.6017
  O  O397  1  0.238800  0.107100  0.372000  1.0  -0.7377
  O  O398  1  0.220500  0.240700  0.378570  1.0  -0.6031
  O  O399  1  0.190000  0.324500  0.332250  1.0  -0.5866
  O  O400  1  0.206100  0.337200  0.645860  1.0  -0.5942
  O  O401  1  0.238700  0.252460  0.603300  1.0  -0.605
  O  O402  1  0.761200  0.892900  0.372000  1.0  -0.7372
  O  O403  1  0.779500  0.759300  0.378570  1.0  -0.6022
  O  O404  1  0.810000  0.675500  0.332250  1.0  -0.5868
  O  O405  1  0.793900  0.662800  0.645860  1.0  -0.5931
  O  O406  1  0.761300  0.747540  0.603300  1.0  -0.604
  O  O407  1  0.238800  0.892900  0.628000  1.0  -0.7365
  O  O408  1  0.220500  0.759300  0.621430  1.0  -0.6037
  O  O409  1  0.190000  0.675500  0.667750  1.0  -0.587
  O  O410  1  0.206100  0.662800  0.354140  1.0  -0.5921
  O  O411  1  0.238700  0.747540  0.396700  1.0  -0.6045
  O  O412  1  0.761200  0.107100  0.628000  1.0  -0.7376
  O  O413  1  0.779500  0.240700  0.621430  1.0  -0.604
  O  O414  1  0.810000  0.324500  0.667750  1.0  -0.5864
  O  O415  1  0.793900  0.337200  0.354140  1.0  -0.5927
  O  O416  1  0.761300  0.252460  0.396700  1.0  -0.6045
  O  O417  1  0.107100  0.372000  0.238800  1.0  -0.732
  O  O418  1  0.240700  0.378570  0.220500  1.0  -0.6046
  O  O419  1  0.324500  0.332250  0.190000  1.0  -0.5867
  O  O420  1  0.337200  0.645860  0.206100  1.0  -0.5936
  O  O421  1  0.252460  0.603300  0.238700  1.0  -0.6047
  O  O422  1  0.892900  0.372000  0.761200  1.0  -0.7318
  O  O423  1  0.759300  0.378570  0.779500  1.0  -0.6053
  O  O424  1  0.675500  0.332250  0.810000  1.0  -0.5866
  O  O425  1  0.662800  0.645860  0.793900  1.0  -0.5936
  O  O426  1  0.747540  0.603300  0.761300  1.0  -0.6051
  O  O427  1  0.892900  0.628000  0.238800  1.0  -0.73
  O  O428  1  0.759300  0.621430  0.220500  1.0  -0.6057
  O  O429  1  0.675500  0.667750  0.190000  1.0  -0.5857
  O  O430  1  0.662800  0.354140  0.206100  1.0  -0.5933
  O  O431  1  0.747540  0.396700  0.238700  1.0  -0.6052
  O  O432  1  0.107100  0.628000  0.761200  1.0  -0.7332
  O  O433  1  0.240700  0.621430  0.779500  1.0  -0.6046
  O  O434  1  0.324500  0.667750  0.810000  1.0  -0.5877
  O  O435  1  0.337200  0.354140  0.793900  1.0  -0.5936
  O  O436  1  0.252460  0.396700  0.761300  1.0  -0.6052
  O  O437  1  0.372000  0.238800  0.107100  1.0  -0.7309
  O  O438  1  0.378570  0.220500  0.240700  1.0  -0.6021
  O  O439  1  0.332250  0.190000  0.324500  1.0  -0.5858
  O  O440  1  0.645860  0.206100  0.337200  1.0  -0.5916
  O  O441  1  0.603300  0.238700  0.252460  1.0  -0.6038
  O  O442  1  0.372000  0.761200  0.892900  1.0  -0.7334
  O  O443  1  0.378570  0.779500  0.759300  1.0  -0.6024
  O  O444  1  0.332250  0.810000  0.675500  1.0  -0.5846
  O  O445  1  0.645860  0.793900  0.662800  1.0  -0.5909
  O  O446  1  0.603300  0.761300  0.747540  1.0  -0.6034
  O  O447  1  0.628000  0.238800  0.892900  1.0  -0.7341
  O  O448  1  0.621430  0.220500  0.759300  1.0  -0.6033
  O  O449  1  0.667750  0.190000  0.675500  1.0  -0.5854
  O  O450  1  0.354140  0.206100  0.662800  1.0  -0.5903
  O  O451  1  0.396700  0.238700  0.747540  1.0  -0.6026
  O  O452  1  0.628000  0.761200  0.107100  1.0  -0.7314
  O  O453  1  0.621430  0.779500  0.240700  1.0  -0.604
  O  O454  1  0.667750  0.810000  0.324500  1.0  -0.5856
  O  O455  1  0.354140  0.793900  0.337200  1.0  -0.5911
  O  O456  1  0.396700  0.761300  0.252460  1.0  -0.6025
  O  O457  1  0.740300  0.740300  0.740300  1.0  -0.915
  O  O458  1  0.259700  0.259700  0.740300  1.0  -0.9152
  O  O459  1  0.259700  0.740300  0.259700  1.0  -0.9155
  O  O460  1  0.740300  0.259700  0.259700  1.0  -0.9153
  O  O461  1  0.240300  0.240300  0.240300  1.0  -0.915
  O  O462  1  0.759700  0.759700  0.240300  1.0  -0.9152
  O  O463  1  0.240300  0.759700  0.759700  1.0  -0.9153
  O  O464  1  0.759700  0.240300  0.759700  1.0  -0.9155
