# generated using pymatgen
data_Cr3H12C24O13
_symmetry_space_group_name_H-M   'P 1'
_cell_length_a   28.39030000
_cell_length_b   28.39030000
_cell_length_c   28.39030000
_cell_angle_alpha   60.00000000
_cell_angle_beta   60.00000000
_cell_angle_gamma   60.00000000
_symmetry_Int_Tables_number   1
_chemical_formula_structural   Cr3H12C24O13
_chemical_formula_sum   'Cr24 H96 C192 O104'
_cell_volume   16180.61212845
_cell_formula_units_Z   8
loop_
 _symmetry_equiv_pos_site_id
 _symmetry_equiv_pos_as_xyz
  1  'x, y, z'
loop_
 _atom_site_type_symbol
 _atom_site_label
 _atom_site_symmetry_multiplicity
 _atom_site_fract_x
 _atom_site_fract_y
 _atom_site_fract_z
 _atom_site_occupancy
 _atom_site_charge
  Cr  Cr1  1  0.929240  0.811280  0.448200  1.0  1.4069
  Cr  Cr2  1  0.811280  0.929240  0.811280  1.0  1.4021
  Cr  Cr3  1  0.448200  0.811280  0.929240  1.0  1.4027
  Cr  Cr4  1  0.811280  0.448200  0.811280  1.0  1.4002
  Cr  Cr5  1  0.929240  0.448200  0.811280  1.0  1.4064
  Cr  Cr6  1  0.811280  0.811280  0.448200  1.0  1.4056
  Cr  Cr7  1  0.448200  0.929240  0.811280  1.0  1.4079
  Cr  Cr8  1  0.811280  0.811280  0.929240  1.0  1.4014
  Cr  Cr9  1  0.929240  0.811280  0.811280  1.0  1.4042
  Cr  Cr10  1  0.811280  0.448200  0.929240  1.0  1.3988
  Cr  Cr11  1  0.448200  0.811280  0.811280  1.0  1.404
  Cr  Cr12  1  0.811280  0.929240  0.448200  1.0  1.4044
  Cr  Cr13  1  0.188720  0.070760  0.551800  1.0  1.4033
  Cr  Cr14  1  0.070760  0.188720  0.188720  1.0  1.4085
  Cr  Cr15  1  0.188720  0.551800  0.070760  1.0  1.4006
  Cr  Cr16  1  0.551800  0.188720  0.188720  1.0  1.4002
  Cr  Cr17  1  0.551800  0.070760  0.188720  1.0  1.4018
  Cr  Cr18  1  0.188720  0.188720  0.551800  1.0  1.3999
  Cr  Cr19  1  0.070760  0.551800  0.188720  1.0  1.4073
  Cr  Cr20  1  0.188720  0.188720  0.070760  1.0  1.4021
  Cr  Cr21  1  0.188720  0.070760  0.188720  1.0  1.4053
  Cr  Cr22  1  0.551800  0.188720  0.070760  1.0  1.4002
  Cr  Cr23  1  0.188720  0.551800  0.188720  1.0  1.4009
  Cr  Cr24  1  0.070760  0.188720  0.551800  1.0  1.4064
  H  H25  1  0.046150  0.739390  0.323490  1.0  0.1128
  H  H26  1  0.954810  0.799610  0.578330  1.0  0.1159
  H  H27  1  0.739390  0.046150  0.890970  1.0  0.1142
  H  H28  1  0.799610  0.954810  0.667250  1.0  0.1171
  H  H29  1  0.323490  0.890970  0.046150  1.0  0.1173
  H  H30  1  0.578330  0.667250  0.954810  1.0  0.1154
  H  H31  1  0.890970  0.323490  0.739390  1.0  0.1131
  H  H32  1  0.667250  0.578330  0.799610  1.0  0.1135
  H  H33  1  0.046150  0.323490  0.890970  1.0  0.1137
  H  H34  1  0.954810  0.578330  0.667250  1.0  0.1135
  H  H35  1  0.739390  0.890970  0.323490  1.0  0.1165
  H  H36  1  0.799610  0.667250  0.578330  1.0  0.1139
  H  H37  1  0.323490  0.046150  0.739390  1.0  0.1146
  H  H38  1  0.578330  0.954810  0.799610  1.0  0.1158
  H  H39  1  0.890970  0.739390  0.046150  1.0  0.1129
  H  H40  1  0.667250  0.799610  0.954810  1.0  0.1163
  H  H41  1  0.046150  0.890970  0.739390  1.0  0.1172
  H  H42  1  0.954810  0.667250  0.799610  1.0  0.1161
  H  H43  1  0.739390  0.323490  0.046150  1.0  0.1126
  H  H44  1  0.799610  0.578330  0.954810  1.0  0.1154
  H  H45  1  0.323490  0.739390  0.890970  1.0  0.1113
  H  H46  1  0.578330  0.799610  0.667250  1.0  0.1174
  H  H47  1  0.890970  0.046150  0.323490  1.0  0.1157
  H  H48  1  0.667250  0.954810  0.578330  1.0  0.1185
  H  H49  1  0.260610  0.953850  0.676510  1.0  0.1143
  H  H50  1  0.200390  0.045190  0.421670  1.0  0.1173
  H  H51  1  0.953850  0.260610  0.109030  1.0  0.1131
  H  H52  1  0.045190  0.200390  0.332750  1.0  0.1149
  H  H53  1  0.109030  0.676510  0.953850  1.0  0.114
  H  H54  1  0.332750  0.421670  0.045190  1.0  0.1142
  H  H55  1  0.676510  0.109030  0.260610  1.0  0.1169
  H  H56  1  0.421670  0.332750  0.200390  1.0  0.1153
  H  H57  1  0.676510  0.953850  0.109030  1.0  0.1143
  H  H58  1  0.421670  0.045190  0.332750  1.0  0.1164
  H  H59  1  0.109030  0.260610  0.676510  1.0  0.1135
  H  H60  1  0.332750  0.200390  0.421670  1.0  0.1152
  H  H61  1  0.953850  0.676510  0.260610  1.0  0.113
  H  H62  1  0.045190  0.421670  0.200390  1.0  0.1137
  H  H63  1  0.260610  0.109030  0.953850  1.0  0.1168
  H  H64  1  0.200390  0.332750  0.045190  1.0  0.1143
  H  H65  1  0.109030  0.953850  0.260610  1.0  0.1166
  H  H66  1  0.332750  0.045190  0.200390  1.0  0.1194
  H  H67  1  0.676510  0.260610  0.953850  1.0  0.1118
  H  H68  1  0.421670  0.200390  0.045190  1.0  0.1165
  H  H69  1  0.260610  0.676510  0.109030  1.0  0.1126
  H  H70  1  0.200390  0.421670  0.332750  1.0  0.1156
  H  H71  1  0.953850  0.109030  0.676510  1.0  0.1168
  H  H72  1  0.045190  0.332750  0.421670  1.0  0.1141
  H  H73  1  0.953850  0.260610  0.676510  1.0  0.1125
  H  H74  1  0.045190  0.200390  0.421670  1.0  0.1149
  H  H75  1  0.260610  0.953850  0.109030  1.0  0.1145
  H  H76  1  0.200390  0.045190  0.332750  1.0  0.1173
  H  H77  1  0.676510  0.109030  0.953850  1.0  0.1171
  H  H78  1  0.421670  0.332750  0.045190  1.0  0.1144
  H  H79  1  0.109030  0.676510  0.260610  1.0  0.1138
  H  H80  1  0.332750  0.421670  0.200390  1.0  0.1146
  H  H81  1  0.953850  0.676510  0.109030  1.0  0.1132
  H  H82  1  0.045190  0.421670  0.332750  1.0  0.1135
  H  H83  1  0.260610  0.109030  0.676510  1.0  0.1167
  H  H84  1  0.200390  0.332750  0.421670  1.0  0.1143
  H  H85  1  0.676510  0.953850  0.260610  1.0  0.1145
  H  H86  1  0.421670  0.045190  0.200390  1.0  0.1165
  H  H87  1  0.109030  0.260610  0.953850  1.0  0.1138
  H  H88  1  0.332750  0.200390  0.045190  1.0  0.1145
  H  H89  1  0.953850  0.109030  0.260610  1.0  0.117
  H  H90  1  0.045190  0.332750  0.200390  1.0  0.1142
  H  H91  1  0.260610  0.676510  0.953850  1.0  0.1123
  H  H92  1  0.200390  0.421670  0.045190  1.0  0.1152
  H  H93  1  0.676510  0.260610  0.109030  1.0  0.1123
  H  H94  1  0.421670  0.200390  0.332750  1.0  0.117
  H  H95  1  0.109030  0.953850  0.676510  1.0  0.1163
  H  H96  1  0.332750  0.045190  0.421670  1.0  0.1189
  H  H97  1  0.739390  0.046150  0.323490  1.0  0.1142
  H  H98  1  0.799610  0.954810  0.578330  1.0  0.1172
  H  H99  1  0.046150  0.739390  0.890970  1.0  0.1134
  H  H100  1  0.954810  0.799610  0.667250  1.0  0.1157
  H  H101  1  0.890970  0.323490  0.046150  1.0  0.1131
  H  H102  1  0.667250  0.578330  0.954810  1.0  0.1146
  H  H103  1  0.323490  0.890970  0.739390  1.0  0.1166
  H  H104  1  0.578330  0.667250  0.799610  1.0  0.1144
  H  H105  1  0.323490  0.046150  0.890970  1.0  0.1148
  H  H106  1  0.578330  0.954810  0.667250  1.0  0.1158
  H  H107  1  0.890970  0.739390  0.323490  1.0  0.1129
  H  H108  1  0.667250  0.799610  0.578330  1.0  0.1148
  H  H109  1  0.046150  0.323490  0.739390  1.0  0.1133
  H  H110  1  0.954810  0.578330  0.799610  1.0  0.1146
  H  H111  1  0.739390  0.890970  0.046150  1.0  0.117
  H  H112  1  0.799610  0.667250  0.954810  1.0  0.115
  H  H113  1  0.890970  0.046150  0.739390  1.0  0.1155
  H  H114  1  0.667250  0.954810  0.799610  1.0  0.1182
  H  H115  1  0.323490  0.739390  0.046150  1.0  0.1118
  H  H116  1  0.578330  0.799610  0.954810  1.0  0.1179
  H  H117  1  0.739390  0.323490  0.890970  1.0  0.1125
  H  H118  1  0.799610  0.578330  0.667250  1.0  0.1145
  H  H119  1  0.046150  0.890970  0.323490  1.0  0.1175
  H  H120  1  0.954810  0.667250  0.578330  1.0  0.1161
  C  C121  1  0.025200  0.724840  0.310000  1.0  -0.0913
  C  C122  1  0.919720  0.834460  0.598280  1.0  -0.0847
  C  C123  1  0.724840  0.025200  0.939960  1.0  -0.0951
  C  C124  1  0.834460  0.919720  0.647540  1.0  -0.0882
  C  C125  1  0.310000  0.939960  0.025200  1.0  -0.0939
  C  C126  1  0.598280  0.647540  0.919720  1.0  -0.0825
  C  C127  1  0.939960  0.310000  0.724840  1.0  -0.0933
  C  C128  1  0.647540  0.598280  0.834460  1.0  -0.0842
  C  C129  1  0.025200  0.310000  0.939960  1.0  -0.093
  C  C130  1  0.919720  0.598280  0.647540  1.0  -0.0832
  C  C131  1  0.724840  0.939960  0.310000  1.0  -0.095
  C  C132  1  0.834460  0.647540  0.598280  1.0  -0.0836
  C  C133  1  0.310000  0.025200  0.724840  1.0  -0.0935
  C  C134  1  0.598280  0.919720  0.834460  1.0  -0.0869
  C  C135  1  0.939960  0.724840  0.025200  1.0  -0.093
  C  C136  1  0.647540  0.834460  0.919720  1.0  -0.0831
  C  C137  1  0.025200  0.939960  0.724840  1.0  -0.0945
  C  C138  1  0.919720  0.647540  0.834460  1.0  -0.0842
  C  C139  1  0.724840  0.310000  0.025200  1.0  -0.0885
  C  C140  1  0.834460  0.598280  0.919720  1.0  -0.0843
  C  C141  1  0.310000  0.724840  0.939960  1.0  -0.0921
  C  C142  1  0.598280  0.834460  0.647540  1.0  -0.0847
  C  C143  1  0.939960  0.025200  0.310000  1.0  -0.0944
  C  C144  1  0.647540  0.919720  0.598280  1.0  -0.0871
  C  C145  1  0.275160  0.974800  0.690000  1.0  -0.0958
  C  C146  1  0.165540  0.080280  0.401720  1.0  -0.0881
  C  C147  1  0.974800  0.275160  0.060040  1.0  -0.0932
  C  C148  1  0.080280  0.165540  0.352460  1.0  -0.0866
  C  C149  1  0.060040  0.690000  0.974800  1.0  -0.0925
  C  C150  1  0.352460  0.401720  0.080280  1.0  -0.0843
  C  C151  1  0.690000  0.060040  0.275160  1.0  -0.0956
  C  C152  1  0.401720  0.352460  0.165540  1.0  -0.0823
  C  C153  1  0.690000  0.974800  0.060040  1.0  -0.0932
  C  C154  1  0.401720  0.080280  0.352460  1.0  -0.0869
  C  C155  1  0.060040  0.275160  0.690000  1.0  -0.0929
  C  C156  1  0.352460  0.165540  0.401720  1.0  -0.0848
  C  C157  1  0.974800  0.690000  0.275160  1.0  -0.0938
  C  C158  1  0.080280  0.401720  0.165540  1.0  -0.0847
  C  C159  1  0.275160  0.060040  0.974800  1.0  -0.0959
  C  C160  1  0.165540  0.352460  0.080280  1.0  -0.085
  C  C161  1  0.060040  0.974800  0.275160  1.0  -0.095
  C  C162  1  0.352460  0.080280  0.165540  1.0  -0.0866
  C  C163  1  0.690000  0.275160  0.974800  1.0  -0.0924
  C  C164  1  0.401720  0.165540  0.080280  1.0  -0.0867
  C  C165  1  0.275160  0.690000  0.060040  1.0  -0.0888
  C  C166  1  0.165540  0.401720  0.352460  1.0  -0.0838
  C  C167  1  0.974800  0.060040  0.690000  1.0  -0.0958
  C  C168  1  0.080280  0.352460  0.401720  1.0  -0.0852
  C  C169  1  0.974800  0.275160  0.690000  1.0  -0.0939
  C  C170  1  0.080280  0.165540  0.401720  1.0  -0.0867
  C  C171  1  0.275160  0.974800  0.060040  1.0  -0.0936
  C  C172  1  0.165540  0.080280  0.352460  1.0  -0.0886
  C  C173  1  0.690000  0.060040  0.974800  1.0  -0.0963
  C  C174  1  0.401720  0.352460  0.080280  1.0  -0.0848
  C  C175  1  0.060040  0.690000  0.275160  1.0  -0.0916
  C  C176  1  0.352460  0.401720  0.165540  1.0  -0.0825
  C  C177  1  0.974800  0.690000  0.060040  1.0  -0.0933
  C  C178  1  0.080280  0.401720  0.352460  1.0  -0.0843
  C  C179  1  0.275160  0.060040  0.690000  1.0  -0.0956
  C  C180  1  0.165540  0.352460  0.401720  1.0  -0.0835
  C  C181  1  0.690000  0.974800  0.275160  1.0  -0.095
  C  C182  1  0.401720  0.080280  0.165540  1.0  -0.0857
  C  C183  1  0.060040  0.275160  0.974800  1.0  -0.0937
  C  C184  1  0.352460  0.165540  0.080280  1.0  -0.0859
  C  C185  1  0.974800  0.060040  0.275160  1.0  -0.0958
  C  C186  1  0.080280  0.352460  0.165540  1.0  -0.0845
  C  C187  1  0.275160  0.690000  0.974800  1.0  -0.091
  C  C188  1  0.165540  0.401720  0.080280  1.0  -0.0848
  C  C189  1  0.690000  0.275160  0.060040  1.0  -0.0897
  C  C190  1  0.401720  0.165540  0.352460  1.0  -0.0859
  C  C191  1  0.060040  0.974800  0.690000  1.0  -0.0952
  C  C192  1  0.352460  0.080280  0.401720  1.0  -0.0872
  C  C193  1  0.724840  0.025200  0.310000  1.0  -0.0934
  C  C194  1  0.834460  0.919720  0.598280  1.0  -0.0879
  C  C195  1  0.025200  0.724840  0.939960  1.0  -0.0932
  C  C196  1  0.919720  0.834460  0.647540  1.0  -0.0839
  C  C197  1  0.939960  0.310000  0.025200  1.0  -0.0926
  C  C198  1  0.647540  0.598280  0.919720  1.0  -0.0832
  C  C199  1  0.310000  0.939960  0.724840  1.0  -0.095
  C  C200  1  0.598280  0.647540  0.834460  1.0  -0.0835
  C  C201  1  0.310000  0.025200  0.939960  1.0  -0.0951
  C  C202  1  0.598280  0.919720  0.647540  1.0  -0.0861
  C  C203  1  0.939960  0.724840  0.310000  1.0  -0.0928
  C  C204  1  0.647540  0.834460  0.598280  1.0  -0.0847
  C  C205  1  0.025200  0.310000  0.724840  1.0  -0.0908
  C  C206  1  0.919720  0.598280  0.834460  1.0  -0.0852
  C  C207  1  0.724840  0.939960  0.025200  1.0  -0.0936
  C  C208  1  0.834460  0.647540  0.919720  1.0  -0.0837
  C  C209  1  0.939960  0.025200  0.724840  1.0  -0.0941
  C  C210  1  0.647540  0.919720  0.834460  1.0  -0.088
  C  C211  1  0.310000  0.724840  0.025200  1.0  -0.0898
  C  C212  1  0.598280  0.834460  0.919720  1.0  -0.0837
  C  C213  1  0.724840  0.310000  0.939960  1.0  -0.0908
  C  C214  1  0.834460  0.598280  0.647540  1.0  -0.0843
  C  C215  1  0.025200  0.939960  0.310000  1.0  -0.0944
  C  C216  1  0.919720  0.647540  0.598280  1.0  -0.0828
  C  C217  1  0.928390  0.771570  0.371650  1.0  0.7133
  C  C218  1  0.964870  0.741890  0.328370  1.0  -0.0886
  C  C219  1  0.771570  0.928390  0.928390  1.0  0.7121
  C  C220  1  0.741890  0.964870  0.964870  1.0  -0.0889
  C  C221  1  0.371650  0.928390  0.928390  1.0  0.7127
  C  C222  1  0.328370  0.964870  0.964870  1.0  -0.0897
  C  C223  1  0.928390  0.371650  0.771570  1.0  0.7132
  C  C224  1  0.964870  0.328370  0.741890  1.0  -0.0889
  C  C225  1  0.928390  0.371650  0.928390  1.0  0.7134
  C  C226  1  0.964870  0.328370  0.964870  1.0  -0.0893
  C  C227  1  0.771570  0.928390  0.371650  1.0  0.7128
  C  C228  1  0.741890  0.964870  0.328370  1.0  -0.089
  C  C229  1  0.371650  0.928390  0.771570  1.0  0.7124
  C  C230  1  0.328370  0.964870  0.741890  1.0  -0.0892
  C  C231  1  0.928390  0.771570  0.928390  1.0  0.7127
  C  C232  1  0.964870  0.741890  0.964870  1.0  -0.0885
  C  C233  1  0.928390  0.928390  0.771570  1.0  0.713
  C  C234  1  0.964870  0.964870  0.741890  1.0  -0.0889
  C  C235  1  0.771570  0.371650  0.928390  1.0  0.7132
  C  C236  1  0.741890  0.328370  0.964870  1.0  -0.0885
  C  C237  1  0.371650  0.771570  0.928390  1.0  0.7131
  C  C238  1  0.328370  0.741890  0.964870  1.0  -0.0885
  C  C239  1  0.928390  0.928390  0.371650  1.0  0.7131
  C  C240  1  0.964870  0.964870  0.328370  1.0  -0.0889
  C  C241  1  0.228430  0.071610  0.628350  1.0  0.7122
  C  C242  1  0.258110  0.035130  0.671630  1.0  -0.089
  C  C243  1  0.071610  0.228430  0.071610  1.0  0.7129
  C  C244  1  0.035130  0.258110  0.035130  1.0  -0.0882
  C  C245  1  0.071610  0.628350  0.071610  1.0  0.7121
  C  C246  1  0.035130  0.671630  0.035130  1.0  -0.0893
  C  C247  1  0.628350  0.071610  0.228430  1.0  0.7129
  C  C248  1  0.671630  0.035130  0.258110  1.0  -0.089
  C  C249  1  0.628350  0.071610  0.071610  1.0  0.7126
  C  C250  1  0.671630  0.035130  0.035130  1.0  -0.0889
  C  C251  1  0.071610  0.228430  0.628350  1.0  0.7123
  C  C252  1  0.035130  0.258110  0.671630  1.0  -0.0882
  C  C253  1  0.071610  0.628350  0.228430  1.0  0.7124
  C  C254  1  0.035130  0.671630  0.258110  1.0  -0.0896
  C  C255  1  0.228430  0.071610  0.071610  1.0  0.7127
  C  C256  1  0.258110  0.035130  0.035130  1.0  -0.0891
  C  C257  1  0.071610  0.071610  0.228430  1.0  0.7134
  C  C258  1  0.035130  0.035130  0.258110  1.0  -0.0883
  C  C259  1  0.628350  0.228430  0.071610  1.0  0.7123
  C  C260  1  0.671630  0.258110  0.035130  1.0  -0.0878
  C  C261  1  0.228430  0.628350  0.071610  1.0  0.7131
  C  C262  1  0.258110  0.671630  0.035130  1.0  -0.0888
  C  C263  1  0.071610  0.071610  0.628350  1.0  0.7135
  C  C264  1  0.035130  0.035130  0.671630  1.0  -0.0884
  C  C265  1  0.875150  0.875150  0.523190  1.0  0.6753
  C  C266  1  0.876950  0.876950  0.573350  1.0  -0.0825
  C  C267  1  0.875150  0.875150  0.726510  1.0  0.6761
  C  C268  1  0.876950  0.876950  0.672750  1.0  -0.0821
  C  C269  1  0.523190  0.726510  0.875150  1.0  0.6746
  C  C270  1  0.573350  0.672750  0.876950  1.0  -0.0826
  C  C271  1  0.726510  0.523190  0.875150  1.0  0.6751
  C  C272  1  0.672750  0.573350  0.876950  1.0  -0.0836
  C  C273  1  0.875150  0.523190  0.726510  1.0  0.6752
  C  C274  1  0.876950  0.573350  0.672750  1.0  -0.0818
  C  C275  1  0.875150  0.726510  0.523190  1.0  0.6747
  C  C276  1  0.876950  0.672750  0.573350  1.0  -0.0823
  C  C277  1  0.523190  0.875150  0.875150  1.0  0.6743
  C  C278  1  0.573350  0.876950  0.876950  1.0  -0.0828
  C  C279  1  0.726510  0.875150  0.875150  1.0  0.6744
  C  C280  1  0.672750  0.876950  0.876950  1.0  -0.0837
  C  C281  1  0.875150  0.726510  0.875150  1.0  0.6749
  C  C282  1  0.876950  0.672750  0.876950  1.0  -0.0825
  C  C283  1  0.875150  0.523190  0.875150  1.0  0.676
  C  C284  1  0.876950  0.573350  0.876950  1.0  -0.0821
  C  C285  1  0.523190  0.875150  0.726510  1.0  0.6737
  C  C286  1  0.573350  0.876950  0.672750  1.0  -0.0824
  C  C287  1  0.726510  0.875150  0.523190  1.0  0.6743
  C  C288  1  0.672750  0.876950  0.573350  1.0  -0.0838
  C  C289  1  0.124850  0.124850  0.476810  1.0  0.6756
  C  C290  1  0.123050  0.123050  0.426650  1.0  -0.0829
  C  C291  1  0.124850  0.124850  0.273490  1.0  0.675
  C  C292  1  0.123050  0.123050  0.327250  1.0  -0.0834
  C  C293  1  0.273490  0.476810  0.124850  1.0  0.675
  C  C294  1  0.327250  0.426650  0.123050  1.0  -0.0825
  C  C295  1  0.476810  0.273490  0.124850  1.0  0.6754
  C  C296  1  0.426650  0.327250  0.123050  1.0  -0.083
  C  C297  1  0.476810  0.124850  0.273490  1.0  0.6733
  C  C298  1  0.426650  0.123050  0.327250  1.0  -0.0834
  C  C299  1  0.273490  0.124850  0.476810  1.0  0.6741
  C  C300  1  0.327250  0.123050  0.426650  1.0  -0.0823
  C  C301  1  0.124850  0.476810  0.124850  1.0  0.6742
  C  C302  1  0.123050  0.426650  0.123050  1.0  -0.083
  C  C303  1  0.124850  0.273490  0.124850  1.0  0.6757
  C  C304  1  0.123050  0.327250  0.123050  1.0  -0.0828
  C  C305  1  0.273490  0.124850  0.124850  1.0  0.674
  C  C306  1  0.327250  0.123050  0.123050  1.0  -0.0822
  C  C307  1  0.476810  0.124850  0.124850  1.0  0.6728
  C  C308  1  0.426650  0.123050  0.123050  1.0  -0.0831
  C  C309  1  0.124850  0.476810  0.273490  1.0  0.675
  C  C310  1  0.123050  0.426650  0.327250  1.0  -0.083
  C  C311  1  0.124850  0.273490  0.476810  1.0  0.6758
  C  C312  1  0.123050  0.327250  0.426650  1.0  -0.0829
  O  O313  1  0.913660  0.834660  0.503260  1.0  -0.5998
  O  O314  1  0.953020  0.782400  0.390280  1.0  -0.5989
  O  O315  1  0.834660  0.913660  0.748420  1.0  -0.5991
  O  O316  1  0.782400  0.953020  0.874300  1.0  -0.5948
  O  O317  1  0.503260  0.748420  0.913660  1.0  -0.6005
  O  O318  1  0.390280  0.874300  0.953020  1.0  -0.5971
  O  O319  1  0.748420  0.503260  0.834660  1.0  -0.5991
  O  O320  1  0.874300  0.390280  0.782400  1.0  -0.5977
  O  O321  1  0.913660  0.503260  0.748420  1.0  -0.5991
  O  O322  1  0.953020  0.390280  0.874300  1.0  -0.5991
  O  O323  1  0.834660  0.748420  0.503260  1.0  -0.6008
  O  O324  1  0.782400  0.874300  0.390280  1.0  -0.5969
  O  O325  1  0.503260  0.913660  0.834660  1.0  -0.5987
  O  O326  1  0.390280  0.953020  0.782400  1.0  -0.5963
  O  O327  1  0.748420  0.834660  0.913660  1.0  -0.5992
  O  O328  1  0.874300  0.782400  0.953020  1.0  -0.5972
  O  O329  1  0.913660  0.748420  0.834660  1.0  -0.6005
  O  O330  1  0.953020  0.874300  0.782400  1.0  -0.5995
  O  O331  1  0.834660  0.503260  0.913660  1.0  -0.5988
  O  O332  1  0.782400  0.390280  0.953020  1.0  -0.5961
  O  O333  1  0.503260  0.834660  0.748420  1.0  -0.601
  O  O334  1  0.390280  0.782400  0.874300  1.0  -0.5951
  O  O335  1  0.748420  0.913660  0.503260  1.0  -0.5994
  O  O336  1  0.874300  0.953020  0.390280  1.0  -0.5962
  O  O337  1  0.165340  0.086340  0.496740  1.0  -0.6004
  O  O338  1  0.217600  0.046980  0.609720  1.0  -0.5935
  O  O339  1  0.086340  0.165340  0.251580  1.0  -0.6002
  O  O340  1  0.046980  0.217600  0.125700  1.0  -0.5993
  O  O341  1  0.251580  0.496740  0.086340  1.0  -0.599
  O  O342  1  0.125700  0.609720  0.046980  1.0  -0.5982
  O  O343  1  0.496740  0.251580  0.165340  1.0  -0.5998
  O  O344  1  0.609720  0.125700  0.217600  1.0  -0.5958
  O  O345  1  0.496740  0.086340  0.251580  1.0  -0.5983
  O  O346  1  0.609720  0.046980  0.125700  1.0  -0.5965
  O  O347  1  0.251580  0.165340  0.496740  1.0  -0.5988
  O  O348  1  0.125700  0.217600  0.609720  1.0  -0.5965
  O  O349  1  0.086340  0.496740  0.165340  1.0  -0.5993
  O  O350  1  0.046980  0.609720  0.217600  1.0  -0.5986
  O  O351  1  0.165340  0.251580  0.086340  1.0  -0.5999
  O  O352  1  0.217600  0.125700  0.046980  1.0  -0.5963
  O  O353  1  0.251580  0.086340  0.165340  1.0  -0.6004
  O  O354  1  0.125700  0.046980  0.217600  1.0  -0.5968
  O  O355  1  0.496740  0.165340  0.086340  1.0  -0.5996
  O  O356  1  0.609720  0.217600  0.046980  1.0  -0.5944
  O  O357  1  0.165340  0.496740  0.251580  1.0  -0.5988
  O  O358  1  0.217600  0.609720  0.125700  1.0  -0.5939
  O  O359  1  0.086340  0.251580  0.496740  1.0  -0.6002
  O  O360  1  0.046980  0.125700  0.609720  1.0  -0.6019
  O  O361  1  0.086340  0.165340  0.496740  1.0  -0.5991
  O  O362  1  0.046980  0.217600  0.609720  1.0  -0.5976
  O  O363  1  0.165340  0.086340  0.251580  1.0  -0.6004
  O  O364  1  0.217600  0.046980  0.125700  1.0  -0.596
  O  O365  1  0.496740  0.251580  0.086340  1.0  -0.5999
  O  O366  1  0.609720  0.125700  0.046980  1.0  -0.5968
  O  O367  1  0.251580  0.496740  0.165340  1.0  -0.5992
  O  O368  1  0.125700  0.609720  0.217600  1.0  -0.5968
  O  O369  1  0.086340  0.496740  0.251580  1.0  -0.5994
  O  O370  1  0.046980  0.609720  0.125700  1.0  -0.5984
  O  O371  1  0.165340  0.251580  0.496740  1.0  -0.6007
  O  O372  1  0.217600  0.125700  0.609720  1.0  -0.5953
  O  O373  1  0.496740  0.086340  0.165340  1.0  -0.5986
  O  O374  1  0.609720  0.046980  0.217600  1.0  -0.5958
  O  O375  1  0.251580  0.165340  0.086340  1.0  -0.5965
  O  O376  1  0.125700  0.217600  0.046980  1.0  -0.5979
  O  O377  1  0.086340  0.251580  0.165340  1.0  -0.6007
  O  O378  1  0.046980  0.125700  0.217600  1.0  -0.6016
  O  O379  1  0.165340  0.496740  0.086340  1.0  -0.5991
  O  O380  1  0.217600  0.609720  0.046980  1.0  -0.5945
  O  O381  1  0.496740  0.165340  0.251580  1.0  -0.6
  O  O382  1  0.609720  0.217600  0.125700  1.0  -0.5939
  O  O383  1  0.251580  0.086340  0.496740  1.0  -0.6002
  O  O384  1  0.125700  0.046980  0.609720  1.0  -0.5967
  O  O385  1  0.834660  0.913660  0.503260  1.0  -0.5999
  O  O386  1  0.782400  0.953020  0.390280  1.0  -0.5956
  O  O387  1  0.913660  0.834660  0.748420  1.0  -0.6002
  O  O388  1  0.953020  0.782400  0.874300  1.0  -0.5972
  O  O389  1  0.748420  0.503260  0.913660  1.0  -0.599
  O  O390  1  0.874300  0.390280  0.953020  1.0  -0.5976
  O  O391  1  0.503260  0.748420  0.834660  1.0  -0.6002
  O  O392  1  0.390280  0.874300  0.782400  1.0  -0.5971
  O  O393  1  0.503260  0.913660  0.748420  1.0  -0.5989
  O  O394  1  0.390280  0.953020  0.874300  1.0  -0.5969
  O  O395  1  0.748420  0.834660  0.503260  1.0  -0.5993
  O  O396  1  0.874300  0.782400  0.390280  1.0  -0.5972
  O  O397  1  0.913660  0.503260  0.834660  1.0  -0.5988
  O  O398  1  0.953020  0.390280  0.782400  1.0  -0.5994
  O  O399  1  0.834660  0.748420  0.913660  1.0  -0.6011
  O  O400  1  0.782400  0.874300  0.953020  1.0  -0.5968
  O  O401  1  0.748420  0.913660  0.834660  1.0  -0.5991
  O  O402  1  0.874300  0.953020  0.782400  1.0  -0.5964
  O  O403  1  0.503260  0.834660  0.913660  1.0  -0.6008
  O  O404  1  0.390280  0.782400  0.953020  1.0  -0.5964
  O  O405  1  0.834660  0.503260  0.748420  1.0  -0.5987
  O  O406  1  0.782400  0.390280  0.874300  1.0  -0.5945
  O  O407  1  0.913660  0.748420  0.503260  1.0  -0.6009
  O  O408  1  0.953020  0.874300  0.390280  1.0  -0.5995
  O  O409  1  0.851020  0.851020  0.446940  1.0  -0.9884
  O  O410  1  0.851020  0.851020  0.851020  1.0  -0.9877
  O  O411  1  0.446940  0.851020  0.851020  1.0  -0.9887
  O  O412  1  0.851020  0.446940  0.851020  1.0  -0.989
  O  O413  1  0.148980  0.148980  0.553060  1.0  -0.9876
  O  O414  1  0.148980  0.148980  0.148980  1.0  -0.9883
  O  O415  1  0.148980  0.553060  0.148980  1.0  -0.9887
  O  O416  1  0.553060  0.148980  0.148980  1.0  -0.9884
