# generated using pymatgen
data_Cr3H12C24O13
_symmetry_space_group_name_H-M   'P 1'
_cell_length_a   28.52000000
_cell_length_b   28.52000000
_cell_length_c   28.52000000
_cell_angle_alpha   90.00000000
_cell_angle_beta   90.00000000
_cell_angle_gamma   90.00000000
_symmetry_Int_Tables_number   1
_chemical_formula_structural   Cr3H12C24O13
_chemical_formula_sum   'Cr36 H144 C288 O156'
_cell_volume   23197.89420800
_cell_formula_units_Z   12
loop_
 _symmetry_equiv_pos_site_id
 _symmetry_equiv_pos_as_xyz
  1  'x, y, z'
loop_
 _atom_site_type_symbol
 _atom_site_label
 _atom_site_symmetry_multiplicity
 _atom_site_fract_x
 _atom_site_fract_y
 _atom_site_fract_z
 _atom_site_occupancy
 _atom_site_charge
  Cr  Cr1  1  0.244930  0.000000  0.244930  1.0  1.4745
  Cr  Cr2  1  0.755070  0.000000  0.244930  1.0  1.4712
  Cr  Cr3  1  0.755070  0.000000  0.755070  1.0  1.4697
  Cr  Cr4  1  0.244930  0.000000  0.755070  1.0  1.4716
  Cr  Cr5  1  0.244930  0.244930  0.000000  1.0  1.4771
  Cr  Cr6  1  0.244930  0.755070  0.000000  1.0  1.4772
  Cr  Cr7  1  0.755070  0.755070  0.000000  1.0  1.4747
  Cr  Cr8  1  0.755070  0.244930  0.000000  1.0  1.4745
  Cr  Cr9  1  0.000000  0.244930  0.244930  1.0  1.4731
  Cr  Cr10  1  0.000000  0.244930  0.755070  1.0  1.4721
  Cr  Cr11  1  0.000000  0.755070  0.755070  1.0  1.4714
  Cr  Cr12  1  0.000000  0.755070  0.244930  1.0  1.4733
  Cr  Cr13  1  0.315250  0.939620  0.315250  1.0  1.4123
  Cr  Cr14  1  0.684750  0.060380  0.315250  1.0  1.4147
  Cr  Cr15  1  0.684750  0.939620  0.684750  1.0  1.4159
  Cr  Cr16  1  0.315250  0.060380  0.684750  1.0  1.4181
  Cr  Cr17  1  0.315250  0.315250  0.939620  1.0  1.4077
  Cr  Cr18  1  0.315250  0.684750  0.060380  1.0  1.4099
  Cr  Cr19  1  0.684750  0.684750  0.939620  1.0  1.4089
  Cr  Cr20  1  0.684750  0.315250  0.060380  1.0  1.4098
  Cr  Cr21  1  0.939620  0.315250  0.315250  1.0  1.4083
  Cr  Cr22  1  0.060380  0.315250  0.684750  1.0  1.4123
  Cr  Cr23  1  0.939620  0.684750  0.684750  1.0  1.4112
  Cr  Cr24  1  0.060380  0.684750  0.315250  1.0  1.4082
  Cr  Cr25  1  0.939620  0.315250  0.684750  1.0  1.4131
  Cr  Cr26  1  0.060380  0.684750  0.684750  1.0  1.411
  Cr  Cr27  1  0.939620  0.684750  0.315250  1.0  1.4079
  Cr  Cr28  1  0.060380  0.315250  0.315250  1.0  1.4085
  Cr  Cr29  1  0.315250  0.315250  0.060380  1.0  1.4098
  Cr  Cr30  1  0.684750  0.315250  0.939620  1.0  1.4098
  Cr  Cr31  1  0.684750  0.684750  0.060380  1.0  1.4091
  Cr  Cr32  1  0.315250  0.684750  0.939620  1.0  1.407
  Cr  Cr33  1  0.315250  0.939620  0.684750  1.0  1.4161
  Cr  Cr34  1  0.315250  0.060380  0.315250  1.0  1.4144
  Cr  Cr35  1  0.684750  0.939620  0.315250  1.0  1.412
  Cr  Cr36  1  0.684750  0.060380  0.684750  1.0  1.4186
  H  H37  1  0.349050  0.837450  0.225010  1.0  0.1257
  H  H38  1  0.281350  0.934580  0.127350  1.0  0.1174
  H  H39  1  0.310130  0.076740  0.455980  1.0  0.1288
  H  H40  1  0.650950  0.162550  0.225010  1.0  0.126
  H  H41  1  0.718650  0.065420  0.127350  1.0  0.117
  H  H42  1  0.689870  0.923260  0.455980  1.0  0.1289
  H  H43  1  0.650950  0.837450  0.774990  1.0  0.126
  H  H44  1  0.718650  0.934580  0.872650  1.0  0.1169
  H  H45  1  0.689870  0.076740  0.544020  1.0  0.1291
  H  H46  1  0.349050  0.162550  0.774990  1.0  0.1255
  H  H47  1  0.281350  0.065420  0.872650  1.0  0.1159
  H  H48  1  0.310130  0.923260  0.544020  1.0  0.1289
  H  H49  1  0.225010  0.349050  0.837450  1.0  0.1271
  H  H50  1  0.127350  0.281350  0.934580  1.0  0.1151
  H  H51  1  0.455980  0.310130  0.076740  1.0  0.1258
  H  H52  1  0.225010  0.650950  0.162550  1.0  0.1269
  H  H53  1  0.127350  0.718650  0.065420  1.0  0.1138
  H  H54  1  0.455980  0.689870  0.923260  1.0  0.1251
  H  H55  1  0.774990  0.650950  0.837450  1.0  0.1262
  H  H56  1  0.872650  0.718650  0.934580  1.0  0.1154
  H  H57  1  0.544020  0.689870  0.076740  1.0  0.1258
  H  H58  1  0.774990  0.349050  0.162550  1.0  0.1254
  H  H59  1  0.872650  0.281350  0.065420  1.0  0.115
  H  H60  1  0.544020  0.310130  0.923260  1.0  0.1247
  H  H61  1  0.837450  0.225010  0.349050  1.0  0.1266
  H  H62  1  0.934580  0.127350  0.281350  1.0  0.1158
  H  H63  1  0.076740  0.455980  0.310130  1.0  0.128
  H  H64  1  0.162550  0.225010  0.650950  1.0  0.1266
  H  H65  1  0.065420  0.127350  0.718650  1.0  0.1147
  H  H66  1  0.923260  0.455980  0.689870  1.0  0.1269
  H  H67  1  0.837450  0.774990  0.650950  1.0  0.1259
  H  H68  1  0.934580  0.872650  0.718650  1.0  0.1156
  H  H69  1  0.076740  0.544020  0.689870  1.0  0.1277
  H  H70  1  0.162550  0.774990  0.349050  1.0  0.126
  H  H71  1  0.065420  0.872650  0.281350  1.0  0.1141
  H  H72  1  0.923260  0.544020  0.310130  1.0  0.1262
  H  H73  1  0.837450  0.349050  0.774990  1.0  0.1254
  H  H74  1  0.934580  0.281350  0.872650  1.0  0.1155
  H  H75  1  0.076740  0.310130  0.544020  1.0  0.1267
  H  H76  1  0.162550  0.650950  0.774990  1.0  0.125
  H  H77  1  0.065420  0.718650  0.872650  1.0  0.1144
  H  H78  1  0.923260  0.689870  0.544020  1.0  0.1255
  H  H79  1  0.837450  0.650950  0.225010  1.0  0.1263
  H  H80  1  0.934580  0.718650  0.127350  1.0  0.1163
  H  H81  1  0.076740  0.689870  0.455980  1.0  0.1268
  H  H82  1  0.162550  0.349050  0.225010  1.0  0.1251
  H  H83  1  0.065420  0.281350  0.127350  1.0  0.1157
  H  H84  1  0.923260  0.310130  0.455980  1.0  0.1257
  H  H85  1  0.349050  0.225010  0.162550  1.0  0.1269
  H  H86  1  0.281350  0.127350  0.065420  1.0  0.1149
  H  H87  1  0.310130  0.455980  0.923260  1.0  0.1257
  H  H88  1  0.650950  0.225010  0.837450  1.0  0.1274
  H  H89  1  0.718650  0.127350  0.934580  1.0  0.1157
  H  H90  1  0.689870  0.455980  0.076740  1.0  0.1264
  H  H91  1  0.650950  0.774990  0.162550  1.0  0.1269
  H  H92  1  0.718650  0.872650  0.065420  1.0  0.1149
  H  H93  1  0.689870  0.544020  0.923260  1.0  0.125
  H  H94  1  0.349050  0.774990  0.837450  1.0  0.1267
  H  H95  1  0.281350  0.872650  0.934580  1.0  0.1153
  H  H96  1  0.310130  0.544020  0.076740  1.0  0.1259
  H  H97  1  0.225010  0.837450  0.650950  1.0  0.1267
  H  H98  1  0.127350  0.934580  0.718650  1.0  0.1154
  H  H99  1  0.455980  0.076740  0.689870  1.0  0.1296
  H  H100  1  0.225010  0.162550  0.349050  1.0  0.1266
  H  H101  1  0.127350  0.065420  0.281350  1.0  0.1144
  H  H102  1  0.455980  0.923260  0.310130  1.0  0.1292
  H  H103  1  0.774990  0.837450  0.349050  1.0  0.1255
  H  H104  1  0.872650  0.934580  0.281350  1.0  0.1164
  H  H105  1  0.544020  0.076740  0.310130  1.0  0.1294
  H  H106  1  0.774990  0.162550  0.650950  1.0  0.1255
  H  H107  1  0.872650  0.065420  0.718650  1.0  0.1155
  H  H108  1  0.544020  0.923260  0.689870  1.0  0.1296
  H  H109  1  0.650950  0.162550  0.774990  1.0  0.1257
  H  H110  1  0.718650  0.065420  0.872650  1.0  0.1162
  H  H111  1  0.689870  0.923260  0.544020  1.0  0.1288
  H  H112  1  0.349050  0.837450  0.774990  1.0  0.1257
  H  H113  1  0.281350  0.934580  0.872650  1.0  0.1168
  H  H114  1  0.310130  0.076740  0.544020  1.0  0.129
  H  H115  1  0.349050  0.162550  0.225010  1.0  0.1254
  H  H116  1  0.281350  0.065420  0.127350  1.0  0.1166
  H  H117  1  0.310130  0.923260  0.455980  1.0  0.129
  H  H118  1  0.650950  0.837450  0.225010  1.0  0.1264
  H  H119  1  0.718650  0.934580  0.127350  1.0  0.1174
  H  H120  1  0.689870  0.076740  0.455980  1.0  0.1289
  H  H121  1  0.774990  0.650950  0.162550  1.0  0.1256
  H  H122  1  0.872650  0.718650  0.065420  1.0  0.1149
  H  H123  1  0.544020  0.689870  0.923260  1.0  0.1247
  H  H124  1  0.774990  0.349050  0.837450  1.0  0.126
  H  H125  1  0.872650  0.281350  0.934580  1.0  0.1157
  H  H126  1  0.544020  0.310130  0.076740  1.0  0.1258
  H  H127  1  0.225010  0.349050  0.162550  1.0  0.1269
  H  H128  1  0.127350  0.281350  0.065420  1.0  0.1141
  H  H129  1  0.455980  0.310130  0.923260  1.0  0.1251
  H  H130  1  0.225010  0.650950  0.837450  1.0  0.1272
  H  H131  1  0.127350  0.718650  0.934580  1.0  0.1145
  H  H132  1  0.455980  0.689870  0.076740  1.0  0.1257
  H  H133  1  0.162550  0.774990  0.650950  1.0  0.1253
  H  H134  1  0.065420  0.872650  0.718650  1.0  0.1141
  H  H135  1  0.923260  0.544020  0.689870  1.0  0.1264
  H  H136  1  0.837450  0.774990  0.349050  1.0  0.1267
  H  H137  1  0.934580  0.872650  0.281350  1.0  0.1158
  H  H138  1  0.076740  0.544020  0.310130  1.0  0.1275
  H  H139  1  0.162550  0.225010  0.349050  1.0  0.1264
  H  H140  1  0.065420  0.127350  0.281350  1.0  0.1144
  H  H141  1  0.923260  0.455980  0.310130  1.0  0.1266
  H  H142  1  0.837450  0.225010  0.650950  1.0  0.1262
  H  H143  1  0.934580  0.127350  0.718650  1.0  0.1158
  H  H144  1  0.076740  0.455980  0.689870  1.0  0.1283
  H  H145  1  0.162550  0.650950  0.225010  1.0  0.1257
  H  H146  1  0.065420  0.718650  0.127350  1.0  0.1154
  H  H147  1  0.923260  0.689870  0.455980  1.0  0.1257
  H  H148  1  0.837450  0.349050  0.225010  1.0  0.1257
  H  H149  1  0.934580  0.281350  0.127350  1.0  0.1162
  H  H150  1  0.076740  0.310130  0.455980  1.0  0.1269
  H  H151  1  0.162550  0.349050  0.774990  1.0  0.1249
  H  H152  1  0.065420  0.281350  0.872650  1.0  0.115
  H  H153  1  0.923260  0.310130  0.544020  1.0  0.1254
  H  H154  1  0.837450  0.650950  0.774990  1.0  0.1255
  H  H155  1  0.934580  0.718650  0.872650  1.0  0.1157
  H  H156  1  0.076740  0.689870  0.544020  1.0  0.1267
  H  H157  1  0.650950  0.774990  0.837450  1.0  0.1268
  H  H158  1  0.718650  0.872650  0.934580  1.0  0.1155
  H  H159  1  0.689870  0.544020  0.076740  1.0  0.1258
  H  H160  1  0.349050  0.774990  0.162550  1.0  0.1265
  H  H161  1  0.281350  0.872650  0.065420  1.0  0.1148
  H  H162  1  0.310130  0.544020  0.923260  1.0  0.1252
  H  H163  1  0.349050  0.225010  0.837450  1.0  0.1277
  H  H164  1  0.281350  0.127350  0.934580  1.0  0.1157
  H  H165  1  0.310130  0.455980  0.076740  1.0  0.1264
  H  H166  1  0.650950  0.225010  0.162550  1.0  0.1272
  H  H167  1  0.718650  0.127350  0.065420  1.0  0.1148
  H  H168  1  0.689870  0.455980  0.923260  1.0  0.1255
  H  H169  1  0.774990  0.162550  0.349050  1.0  0.125
  H  H170  1  0.872650  0.065420  0.281350  1.0  0.1154
  H  H171  1  0.544020  0.923260  0.310130  1.0  0.1295
  H  H172  1  0.774990  0.837450  0.650950  1.0  0.1257
  H  H173  1  0.872650  0.934580  0.718650  1.0  0.1163
  H  H174  1  0.544020  0.076740  0.689870  1.0  0.1294
  H  H175  1  0.225010  0.162550  0.650950  1.0  0.1266
  H  H176  1  0.127350  0.065420  0.718650  1.0  0.1151
  H  H177  1  0.455980  0.923260  0.689870  1.0  0.1293
  H  H178  1  0.225010  0.837450  0.349050  1.0  0.1267
  H  H179  1  0.127350  0.934580  0.281350  1.0  0.1151
  H  H180  1  0.455980  0.076740  0.310130  1.0  0.1297
  C  C181  1  0.333060  0.845160  0.189430  1.0  -0.1029
  C  C182  1  0.303780  0.922300  0.218540  1.0  0.7024
  C  C183  1  0.313480  0.889130  0.180390  1.0  -0.1097
  C  C184  1  0.295860  0.898540  0.135790  1.0  -0.0964
  C  C185  1  0.310180  0.042170  0.475630  1.0  -0.0988
  C  C186  1  0.666940  0.154840  0.189430  1.0  -0.1041
  C  C187  1  0.696220  0.077700  0.218540  1.0  0.7026
  C  C188  1  0.686520  0.110870  0.180390  1.0  -0.1097
  C  C189  1  0.704140  0.101460  0.135790  1.0  -0.0944
  C  C190  1  0.689820  0.957830  0.475630  1.0  -0.0964
  C  C191  1  0.666940  0.845160  0.810570  1.0  -0.1039
  C  C192  1  0.696220  0.922300  0.781460  1.0  0.703
  C  C193  1  0.686520  0.889130  0.819610  1.0  -0.11
  C  C194  1  0.704140  0.898540  0.864210  1.0  -0.0962
  C  C195  1  0.689820  0.042170  0.524370  1.0  -0.0992
  C  C196  1  0.333060  0.154840  0.810570  1.0  -0.1037
  C  C197  1  0.303780  0.077700  0.781460  1.0  0.7028
  C  C198  1  0.313480  0.110870  0.819610  1.0  -0.1101
  C  C199  1  0.295860  0.101460  0.864210  1.0  -0.0925
  C  C200  1  0.310180  0.957830  0.524370  1.0  -0.096
  C  C201  1  0.189430  0.333060  0.845160  1.0  -0.1062
  C  C202  1  0.218540  0.303780  0.922300  1.0  0.7015
  C  C203  1  0.180390  0.313480  0.889130  1.0  -0.1091
  C  C204  1  0.135790  0.295860  0.898540  1.0  -0.0889
  C  C205  1  0.475630  0.310180  0.042170  1.0  -0.0903
  C  C206  1  0.189430  0.666940  0.154840  1.0  -0.1058
  C  C207  1  0.218540  0.696220  0.077700  1.0  0.7013
  C  C208  1  0.180390  0.686520  0.110870  1.0  -0.1103
  C  C209  1  0.135790  0.704140  0.101460  1.0  -0.0886
  C  C210  1  0.475630  0.689820  0.957830  1.0  -0.0901
  C  C211  1  0.810570  0.666940  0.845160  1.0  -0.1059
  C  C212  1  0.781460  0.696220  0.922300  1.0  0.7021
  C  C213  1  0.819610  0.686520  0.889130  1.0  -0.1094
  C  C214  1  0.864210  0.704140  0.898540  1.0  -0.0876
  C  C215  1  0.524370  0.689820  0.042170  1.0  -0.0913
  C  C216  1  0.810570  0.333060  0.154840  1.0  -0.1056
  C  C217  1  0.781460  0.303780  0.077700  1.0  0.7017
  C  C218  1  0.819610  0.313480  0.110870  1.0  -0.1095
  C  C219  1  0.864210  0.295860  0.101460  1.0  -0.0887
  C  C220  1  0.524370  0.310180  0.957830  1.0  -0.0903
  C  C221  1  0.845160  0.189430  0.333060  1.0  -0.1091
  C  C222  1  0.922300  0.218540  0.303780  1.0  0.7017
  C  C223  1  0.889130  0.180390  0.313480  1.0  -0.1098
  C  C224  1  0.898540  0.135790  0.295860  1.0  -0.0925
  C  C225  1  0.042170  0.475630  0.310180  1.0  -0.0937
  C  C226  1  0.154840  0.189430  0.666940  1.0  -0.1086
  C  C227  1  0.077700  0.218540  0.696220  1.0  0.7028
  C  C228  1  0.110870  0.180390  0.686520  1.0  -0.1103
  C  C229  1  0.101460  0.135790  0.704140  1.0  -0.0912
  C  C230  1  0.957830  0.475630  0.689820  1.0  -0.0912
  C  C231  1  0.845160  0.810570  0.666940  1.0  -0.1057
  C  C232  1  0.922300  0.781460  0.696220  1.0  0.7026
  C  C233  1  0.889130  0.819610  0.686520  1.0  -0.11
  C  C234  1  0.898540  0.864210  0.704140  1.0  -0.0909
  C  C235  1  0.042170  0.524370  0.689820  1.0  -0.0938
  C  C236  1  0.154840  0.810570  0.333060  1.0  -0.105
  C  C237  1  0.077700  0.781460  0.303780  1.0  0.7016
  C  C238  1  0.110870  0.819610  0.313480  1.0  -0.1099
  C  C239  1  0.101460  0.864210  0.295860  1.0  -0.0909
  C  C240  1  0.957830  0.524370  0.310180  1.0  -0.0918
  C  C241  1  0.845160  0.333060  0.810570  1.0  -0.1042
  C  C242  1  0.922300  0.303780  0.781460  1.0  0.7032
  C  C243  1  0.889130  0.313480  0.819610  1.0  -0.1099
  C  C244  1  0.898540  0.295860  0.864210  1.0  -0.0906
  C  C245  1  0.042170  0.310180  0.524370  1.0  -0.0931
  C  C246  1  0.154840  0.666940  0.810570  1.0  -0.106
  C  C247  1  0.077700  0.696220  0.781460  1.0  0.7032
  C  C248  1  0.110870  0.686520  0.819610  1.0  -0.1109
  C  C249  1  0.101460  0.704140  0.864210  1.0  -0.0899
  C  C250  1  0.957830  0.689820  0.524370  1.0  -0.0911
  C  C251  1  0.845160  0.666940  0.189430  1.0  -0.1046
  C  C252  1  0.922300  0.696220  0.218540  1.0  0.7022
  C  C253  1  0.889130  0.686520  0.180390  1.0  -0.1099
  C  C254  1  0.898540  0.704140  0.135790  1.0  -0.0908
  C  C255  1  0.042170  0.689820  0.475630  1.0  -0.0941
  C  C256  1  0.154840  0.333060  0.189430  1.0  -0.104
  C  C257  1  0.077700  0.303780  0.218540  1.0  0.7028
  C  C258  1  0.110870  0.313480  0.180390  1.0  -0.1097
  C  C259  1  0.101460  0.295860  0.135790  1.0  -0.0904
  C  C260  1  0.957830  0.310180  0.475630  1.0  -0.0915
  C  C261  1  0.333060  0.189430  0.154840  1.0  -0.109
  C  C262  1  0.303780  0.218540  0.077700  1.0  0.7018
  C  C263  1  0.313480  0.180390  0.110870  1.0  -0.1101
  C  C264  1  0.295860  0.135790  0.101460  1.0  -0.0907
  C  C265  1  0.310180  0.475630  0.957830  1.0  -0.0893
  C  C266  1  0.666940  0.189430  0.845160  1.0  -0.1091
  C  C267  1  0.696220  0.218540  0.922300  1.0  0.7021
  C  C268  1  0.686520  0.180390  0.889130  1.0  -0.1097
  C  C269  1  0.704140  0.135790  0.898540  1.0  -0.0909
  C  C270  1  0.689820  0.475630  0.042170  1.0  -0.0898
  C  C271  1  0.666940  0.810570  0.154840  1.0  -0.1059
  C  C272  1  0.696220  0.781460  0.077700  1.0  0.7019
  C  C273  1  0.686520  0.819610  0.110870  1.0  -0.1105
  C  C274  1  0.704140  0.864210  0.101460  1.0  -0.0915
  C  C275  1  0.689820  0.524370  0.957830  1.0  -0.0895
  C  C276  1  0.333060  0.810570  0.845160  1.0  -0.1066
  C  C277  1  0.303780  0.781460  0.922300  1.0  0.702
  C  C278  1  0.313480  0.819610  0.889130  1.0  -0.1099
  C  C279  1  0.295860  0.864210  0.898540  1.0  -0.0903
  C  C280  1  0.310180  0.524370  0.042170  1.0  -0.0902
  C  C281  1  0.189430  0.845160  0.666940  1.0  -0.1051
  C  C282  1  0.218540  0.922300  0.696220  1.0  0.7019
  C  C283  1  0.180390  0.889130  0.686520  1.0  -0.1096
  C  C284  1  0.135790  0.898540  0.704140  1.0  -0.0953
  C  C285  1  0.475630  0.042170  0.689820  1.0  -0.0992
  C  C286  1  0.189430  0.154840  0.333060  1.0  -0.1039
  C  C287  1  0.218540  0.077700  0.303780  1.0  0.701
  C  C288  1  0.180390  0.110870  0.313480  1.0  -0.1095
  C  C289  1  0.135790  0.101460  0.295860  1.0  -0.0924
  C  C290  1  0.475630  0.957830  0.310180  1.0  -0.0965
  C  C291  1  0.810570  0.845160  0.333060  1.0  -0.104
  C  C292  1  0.781460  0.922300  0.303780  1.0  0.7014
  C  C293  1  0.819610  0.889130  0.313480  1.0  -0.1089
  C  C294  1  0.864210  0.898540  0.295860  1.0  -0.0945
  C  C295  1  0.524370  0.042170  0.310180  1.0  -0.1
  C  C296  1  0.810570  0.154840  0.666940  1.0  -0.1037
  C  C297  1  0.781460  0.077700  0.696220  1.0  0.7024
  C  C298  1  0.819610  0.110870  0.686520  1.0  -0.1096
  C  C299  1  0.864210  0.101460  0.704140  1.0  -0.0916
  C  C300  1  0.524370  0.957830  0.689820  1.0  -0.0983
  C  C301  1  0.666940  0.154840  0.810570  1.0  -0.105
  C  C302  1  0.696220  0.077700  0.781460  1.0  0.7032
  C  C303  1  0.686520  0.110870  0.819610  1.0  -0.1103
  C  C304  1  0.704140  0.101460  0.864210  1.0  -0.093
  C  C305  1  0.689820  0.957830  0.524370  1.0  -0.0959
  C  C306  1  0.333060  0.845160  0.810570  1.0  -0.1051
  C  C307  1  0.303780  0.922300  0.781460  1.0  0.7028
  C  C308  1  0.313480  0.889130  0.819610  1.0  -0.1099
  C  C309  1  0.295860  0.898540  0.864210  1.0  -0.0961
  C  C310  1  0.310180  0.042170  0.524370  1.0  -0.0992
  C  C311  1  0.333060  0.154840  0.189430  1.0  -0.1045
  C  C312  1  0.303780  0.077700  0.218540  1.0  0.7024
  C  C313  1  0.313480  0.110870  0.180390  1.0  -0.1096
  C  C314  1  0.295860  0.101460  0.135790  1.0  -0.0938
  C  C315  1  0.310180  0.957830  0.475630  1.0  -0.0964
  C  C316  1  0.666940  0.845160  0.189430  1.0  -0.1059
  C  C317  1  0.696220  0.922300  0.218540  1.0  0.7024
  C  C318  1  0.686520  0.889130  0.180390  1.0  -0.1095
  C  C319  1  0.704140  0.898540  0.135790  1.0  -0.0965
  C  C320  1  0.689820  0.042170  0.475630  1.0  -0.0988
  C  C321  1  0.810570  0.666940  0.154840  1.0  -0.1065
  C  C322  1  0.781460  0.696220  0.077700  1.0  0.7017
  C  C323  1  0.819610  0.686520  0.110870  1.0  -0.1101
  C  C324  1  0.864210  0.704140  0.101460  1.0  -0.0887
  C  C325  1  0.524370  0.689820  0.957830  1.0  -0.0903
  C  C326  1  0.810570  0.333060  0.845160  1.0  -0.1066
  C  C327  1  0.781460  0.303780  0.922300  1.0  0.7021
  C  C328  1  0.819610  0.313480  0.889130  1.0  -0.1089
  C  C329  1  0.864210  0.295860  0.898540  1.0  -0.0882
  C  C330  1  0.524370  0.310180  0.042170  1.0  -0.0913
  C  C331  1  0.189430  0.333060  0.154840  1.0  -0.1072
  C  C332  1  0.218540  0.303780  0.077700  1.0  0.7014
  C  C333  1  0.180390  0.313480  0.110870  1.0  -0.1098
  C  C334  1  0.135790  0.295860  0.101460  1.0  -0.0885
  C  C335  1  0.475630  0.310180  0.957830  1.0  -0.0901
  C  C336  1  0.189430  0.666940  0.845160  1.0  -0.1083
  C  C337  1  0.218540  0.696220  0.922300  1.0  0.7013
  C  C338  1  0.180390  0.686520  0.889130  1.0  -0.1096
  C  C339  1  0.135790  0.704140  0.898540  1.0  -0.0884
  C  C340  1  0.475630  0.689820  0.042170  1.0  -0.0903
  C  C341  1  0.154840  0.810570  0.666940  1.0  -0.108
  C  C342  1  0.077700  0.781460  0.696220  1.0  0.7028
  C  C343  1  0.110870  0.819610  0.686520  1.0  -0.1103
  C  C344  1  0.101460  0.864210  0.704140  1.0  -0.091
  C  C345  1  0.957830  0.524370  0.689820  1.0  -0.0919
  C  C346  1  0.845160  0.810570  0.333060  1.0  -0.1061
  C  C347  1  0.922300  0.781460  0.303780  1.0  0.7018
  C  C348  1  0.889130  0.819610  0.313480  1.0  -0.1098
  C  C349  1  0.898540  0.864210  0.295860  1.0  -0.0914
  C  C350  1  0.042170  0.524370  0.310180  1.0  -0.0938
  C  C351  1  0.154840  0.189430  0.333060  1.0  -0.1105
  C  C352  1  0.077700  0.218540  0.303780  1.0  0.7017
  C  C353  1  0.110870  0.180390  0.313480  1.0  -0.11
  C  C354  1  0.101460  0.135790  0.295860  1.0  -0.0912
  C  C355  1  0.957830  0.475630  0.310180  1.0  -0.0912
  C  C356  1  0.845160  0.189430  0.666940  1.0  -0.1094
  C  C357  1  0.922300  0.218540  0.696220  1.0  0.7025
  C  C358  1  0.889130  0.180390  0.686520  1.0  -0.1099
  C  C359  1  0.898540  0.135790  0.704140  1.0  -0.0921
  C  C360  1  0.042170  0.475630  0.689820  1.0  -0.0936
  C  C361  1  0.154840  0.666940  0.189430  1.0  -0.1058
  C  C362  1  0.077700  0.696220  0.218540  1.0  0.7027
  C  C363  1  0.110870  0.686520  0.180390  1.0  -0.1103
  C  C364  1  0.101460  0.704140  0.135790  1.0  -0.0901
  C  C365  1  0.957830  0.689820  0.475630  1.0  -0.0916
  C  C366  1  0.845160  0.333060  0.189430  1.0  -0.1065
  C  C367  1  0.922300  0.303780  0.218540  1.0  0.7025
  C  C368  1  0.889130  0.313480  0.180390  1.0  -0.1095
  C  C369  1  0.898540  0.295860  0.135790  1.0  -0.0913
  C  C370  1  0.042170  0.310180  0.475630  1.0  -0.0941
  C  C371  1  0.154840  0.333060  0.810570  1.0  -0.1059
  C  C372  1  0.077700  0.303780  0.781460  1.0  0.7034
  C  C373  1  0.110870  0.313480  0.819610  1.0  -0.1102
  C  C374  1  0.101460  0.295860  0.864210  1.0  -0.0903
  C  C375  1  0.957830  0.310180  0.524370  1.0  -0.0911
  C  C376  1  0.845160  0.666940  0.810570  1.0  -0.1058
  C  C377  1  0.922300  0.696220  0.781460  1.0  0.7029
  C  C378  1  0.889130  0.686520  0.819610  1.0  -0.1105
  C  C379  1  0.898540  0.704140  0.864210  1.0  -0.0901
  C  C380  1  0.042170  0.689820  0.524370  1.0  -0.0931
  C  C381  1  0.666940  0.810570  0.845160  1.0  -0.1082
  C  C382  1  0.696220  0.781460  0.922300  1.0  0.7021
  C  C383  1  0.686520  0.819610  0.889130  1.0  -0.1097
  C  C384  1  0.704140  0.864210  0.898540  1.0  -0.0901
  C  C385  1  0.689820  0.524370  0.042170  1.0  -0.0902
  C  C386  1  0.333060  0.810570  0.154840  1.0  -0.1065
  C  C387  1  0.303780  0.781460  0.077700  1.0  0.7016
  C  C388  1  0.313480  0.819610  0.110870  1.0  -0.1102
  C  C389  1  0.295860  0.864210  0.101460  1.0  -0.0909
  C  C390  1  0.310180  0.524370  0.957830  1.0  -0.0896
  C  C391  1  0.333060  0.189430  0.845160  1.0  -0.1102
  C  C392  1  0.303780  0.218540  0.922300  1.0  0.702
  C  C393  1  0.313480  0.180390  0.889130  1.0  -0.1099
  C  C394  1  0.295860  0.135790  0.898540  1.0  -0.0907
  C  C395  1  0.310180  0.475630  0.042170  1.0  -0.0898
  C  C396  1  0.666940  0.189430  0.154840  1.0  -0.112
  C  C397  1  0.696220  0.218540  0.077700  1.0  0.7021
  C  C398  1  0.686520  0.180390  0.110870  1.0  -0.1104
  C  C399  1  0.704140  0.135790  0.101460  1.0  -0.0915
  C  C400  1  0.689820  0.475630  0.957830  1.0  -0.0892
  C  C401  1  0.810570  0.154840  0.333060  1.0  -0.1056
  C  C402  1  0.781460  0.077700  0.303780  1.0  0.7013
  C  C403  1  0.819610  0.110870  0.313480  1.0  -0.109
  C  C404  1  0.864210  0.101460  0.295860  1.0  -0.0922
  C  C405  1  0.524370  0.957830  0.310180  1.0  -0.0983
  C  C406  1  0.810570  0.845160  0.666940  1.0  -0.1052
  C  C407  1  0.781460  0.922300  0.696220  1.0  0.7024
  C  C408  1  0.819610  0.889130  0.686520  1.0  -0.1094
  C  C409  1  0.864210  0.898540  0.704140  1.0  -0.0948
  C  C410  1  0.524370  0.042170  0.689820  1.0  -0.1
  C  C411  1  0.189430  0.154840  0.666940  1.0  -0.1062
  C  C412  1  0.218540  0.077700  0.696220  1.0  0.7019
  C  C413  1  0.180390  0.110870  0.686520  1.0  -0.1099
  C  C414  1  0.135790  0.101460  0.704140  1.0  -0.0919
  C  C415  1  0.475630  0.957830  0.689820  1.0  -0.0965
  C  C416  1  0.189430  0.845160  0.333060  1.0  -0.1055
  C  C417  1  0.218540  0.922300  0.303780  1.0  0.701
  C  C418  1  0.180390  0.889130  0.313480  1.0  -0.1094
  C  C419  1  0.135790  0.898540  0.295860  1.0  -0.0949
  C  C420  1  0.475630  0.042170  0.310180  1.0  -0.0991
  C  C421  1  0.310940  0.000000  0.399550  1.0  0.5953
  C  C422  1  0.310240  0.000000  0.450910  1.0  -0.0547
  C  C423  1  0.689060  0.000000  0.399550  1.0  0.5952
  C  C424  1  0.689760  0.000000  0.450910  1.0  -0.0547
  C  C425  1  0.689060  0.000000  0.600450  1.0  0.5945
  C  C426  1  0.689760  0.000000  0.549090  1.0  -0.0541
  C  C427  1  0.310940  0.000000  0.600450  1.0  0.5947
  C  C428  1  0.310240  0.000000  0.549090  1.0  -0.0541
  C  C429  1  0.399550  0.310940  0.000000  1.0  0.5974
  C  C430  1  0.450910  0.310240  0.000000  1.0  -0.0547
  C  C431  1  0.399550  0.689060  0.000000  1.0  0.5973
  C  C432  1  0.450910  0.689760  0.000000  1.0  -0.0547
  C  C433  1  0.600450  0.689060  0.000000  1.0  0.5968
  C  C434  1  0.549090  0.689760  0.000000  1.0  -0.055
  C  C435  1  0.600450  0.310940  0.000000  1.0  0.5968
  C  C436  1  0.549090  0.310240  0.000000  1.0  -0.055
  C  C437  1  0.000000  0.399550  0.310940  1.0  0.5964
  C  C438  1  0.000000  0.450910  0.310240  1.0  -0.0533
  C  C439  1  0.000000  0.399550  0.689060  1.0  0.5964
  C  C440  1  0.000000  0.450910  0.689760  1.0  -0.0533
  C  C441  1  0.000000  0.600450  0.689060  1.0  0.5956
  C  C442  1  0.000000  0.549090  0.689760  1.0  -0.0533
  C  C443  1  0.000000  0.600450  0.310940  1.0  0.5957
  C  C444  1  0.000000  0.549090  0.310240  1.0  -0.0534
  C  C445  1  0.000000  0.310940  0.600450  1.0  0.5946
  C  C446  1  0.000000  0.310240  0.549090  1.0  -0.054
  C  C447  1  0.000000  0.689060  0.600450  1.0  0.5946
  C  C448  1  0.000000  0.689760  0.549090  1.0  -0.0541
  C  C449  1  0.000000  0.689060  0.399550  1.0  0.5951
  C  C450  1  0.000000  0.689760  0.450910  1.0  -0.0547
  C  C451  1  0.000000  0.310940  0.399550  1.0  0.5953
  C  C452  1  0.000000  0.310240  0.450910  1.0  -0.0546
  C  C453  1  0.310940  0.399550  0.000000  1.0  0.5963
  C  C454  1  0.310240  0.450910  0.000000  1.0  -0.0534
  C  C455  1  0.689060  0.399550  0.000000  1.0  0.5963
  C  C456  1  0.689760  0.450910  0.000000  1.0  -0.0534
  C  C457  1  0.689060  0.600450  0.000000  1.0  0.5955
  C  C458  1  0.689760  0.549090  0.000000  1.0  -0.0534
  C  C459  1  0.310940  0.600450  0.000000  1.0  0.5957
  C  C460  1  0.310240  0.549090  0.000000  1.0  -0.0533
  C  C461  1  0.399550  0.000000  0.689060  1.0  0.5974
  C  C462  1  0.450910  0.000000  0.689760  1.0  -0.0547
  C  C463  1  0.399550  0.000000  0.310940  1.0  0.5974
  C  C464  1  0.450910  0.000000  0.310240  1.0  -0.0547
  C  C465  1  0.600450  0.000000  0.310940  1.0  0.5969
  C  C466  1  0.549090  0.000000  0.310240  1.0  -0.055
  C  C467  1  0.600450  0.000000  0.689060  1.0  0.5968
  C  C468  1  0.549090  0.000000  0.689760  1.0  -0.055
  O  O469  1  0.321370  0.915060  0.258540  1.0  -0.5908
  O  O470  1  0.275610  0.955070  0.209850  1.0  -0.5989
  O  O471  1  0.311050  0.958920  0.377430  1.0  -0.58
  O  O472  1  0.678630  0.084940  0.258540  1.0  -0.5911
  O  O473  1  0.724390  0.044930  0.209850  1.0  -0.5981
  O  O474  1  0.688950  0.041080  0.377430  1.0  -0.5795
  O  O475  1  0.678630  0.915060  0.741460  1.0  -0.5903
  O  O476  1  0.724390  0.955070  0.790150  1.0  -0.5989
  O  O477  1  0.688950  0.958920  0.622570  1.0  -0.5798
  O  O478  1  0.321370  0.084940  0.741460  1.0  -0.5894
  O  O479  1  0.275610  0.044930  0.790150  1.0  -0.599
  O  O480  1  0.311050  0.041080  0.622570  1.0  -0.5784
  O  O481  1  0.258540  0.321370  0.915060  1.0  -0.5904
  O  O482  1  0.209850  0.275610  0.955070  1.0  -0.6
  O  O483  1  0.377430  0.311050  0.958920  1.0  -0.5767
  O  O484  1  0.258540  0.678630  0.084940  1.0  -0.5911
  O  O485  1  0.209850  0.724390  0.044930  1.0  -0.6003
  O  O486  1  0.377430  0.688950  0.041080  1.0  -0.5785
  O  O487  1  0.741460  0.678630  0.915060  1.0  -0.5914
  O  O488  1  0.790150  0.724390  0.955070  1.0  -0.6006
  O  O489  1  0.622570  0.688950  0.958920  1.0  -0.5766
  O  O490  1  0.741460  0.321370  0.084940  1.0  -0.5913
  O  O491  1  0.790150  0.275610  0.044930  1.0  -0.5981
  O  O492  1  0.622570  0.311050  0.041080  1.0  -0.579
  O  O493  1  0.915060  0.258540  0.321370  1.0  -0.5937
  O  O494  1  0.955070  0.209850  0.275610  1.0  -0.5984
  O  O495  1  0.958920  0.377430  0.311050  1.0  -0.5825
  O  O496  1  0.084940  0.258540  0.678630  1.0  -0.5921
  O  O497  1  0.044930  0.209850  0.724390  1.0  -0.5984
  O  O498  1  0.041080  0.377430  0.688950  1.0  -0.5809
  O  O499  1  0.915060  0.741460  0.678630  1.0  -0.594
  O  O500  1  0.955070  0.790150  0.724390  1.0  -0.5998
  O  O501  1  0.958920  0.622570  0.688950  1.0  -0.5826
  O  O502  1  0.084940  0.741460  0.321370  1.0  -0.592
  O  O503  1  0.044930  0.790150  0.275610  1.0  -0.5972
  O  O504  1  0.041080  0.622570  0.311050  1.0  -0.581
  O  O505  1  0.915060  0.321370  0.741460  1.0  -0.591
  O  O506  1  0.955070  0.275610  0.790150  1.0  -0.5979
  O  O507  1  0.958920  0.311050  0.622570  1.0  -0.5803
  O  O508  1  0.084940  0.678630  0.741460  1.0  -0.5898
  O  O509  1  0.044930  0.724390  0.790150  1.0  -0.5979
  O  O510  1  0.041080  0.688950  0.622570  1.0  -0.5794
  O  O511  1  0.915060  0.678630  0.258540  1.0  -0.5916
  O  O512  1  0.955070  0.724390  0.209850  1.0  -0.5991
  O  O513  1  0.958920  0.688950  0.377430  1.0  -0.5806
  O  O514  1  0.084940  0.321370  0.258540  1.0  -0.5906
  O  O515  1  0.044930  0.275610  0.209850  1.0  -0.5971
  O  O516  1  0.041080  0.311050  0.377430  1.0  -0.5789
  O  O517  1  0.321370  0.258540  0.084940  1.0  -0.5904
  O  O518  1  0.275610  0.209850  0.044930  1.0  -0.5973
  O  O519  1  0.311050  0.377430  0.041080  1.0  -0.5792
  O  O520  1  0.678630  0.258540  0.915060  1.0  -0.5918
  O  O521  1  0.724390  0.209850  0.955070  1.0  -0.5983
  O  O522  1  0.688950  0.377430  0.958920  1.0  -0.5775
  O  O523  1  0.678630  0.741460  0.084940  1.0  -0.591
  O  O524  1  0.724390  0.790150  0.044930  1.0  -0.5981
  O  O525  1  0.688950  0.622570  0.041080  1.0  -0.5797
  O  O526  1  0.321370  0.741460  0.915060  1.0  -0.5893
  O  O527  1  0.275610  0.790150  0.955070  1.0  -0.5981
  O  O528  1  0.311050  0.622570  0.958920  1.0  -0.5772
  O  O529  1  0.258540  0.915060  0.678630  1.0  -0.5932
  O  O530  1  0.209850  0.955070  0.724390  1.0  -0.602
  O  O531  1  0.377430  0.958920  0.688950  1.0  -0.5814
  O  O532  1  0.258540  0.084940  0.321370  1.0  -0.5918
  O  O533  1  0.209850  0.044930  0.275610  1.0  -0.6007
  O  O534  1  0.377430  0.041080  0.311050  1.0  -0.5799
  O  O535  1  0.741460  0.915060  0.321370  1.0  -0.5935
  O  O536  1  0.790150  0.955070  0.275610  1.0  -0.5999
  O  O537  1  0.622570  0.958920  0.311050  1.0  -0.5817
  O  O538  1  0.741460  0.084940  0.678630  1.0  -0.5925
  O  O539  1  0.790150  0.044930  0.724390  1.0  -0.6007
  O  O540  1  0.622570  0.041080  0.688950  1.0  -0.5814
  O  O541  1  0.678630  0.084940  0.741460  1.0  -0.59
  O  O542  1  0.724390  0.044930  0.790150  1.0  -0.5983
  O  O543  1  0.688950  0.041080  0.622570  1.0  -0.5787
  O  O544  1  0.321370  0.915060  0.741460  1.0  -0.5897
  O  O545  1  0.275610  0.955070  0.790150  1.0  -0.5993
  O  O546  1  0.311050  0.958920  0.622570  1.0  -0.5798
  O  O547  1  0.321370  0.084940  0.258540  1.0  -0.5901
  O  O548  1  0.275610  0.044930  0.209850  1.0  -0.5983
  O  O549  1  0.311050  0.041080  0.377430  1.0  -0.5793
  O  O550  1  0.678630  0.915060  0.258540  1.0  -0.592
  O  O551  1  0.724390  0.955070  0.209850  1.0  -0.599
  O  O552  1  0.688950  0.958920  0.377430  1.0  -0.58
  O  O553  1  0.741460  0.678630  0.084940  1.0  -0.5915
  O  O554  1  0.790150  0.724390  0.044930  1.0  -0.599
  O  O555  1  0.622570  0.688950  0.041080  1.0  -0.5791
  O  O556  1  0.741460  0.321370  0.915060  1.0  -0.5909
  O  O557  1  0.790150  0.275610  0.955070  1.0  -0.5994
  O  O558  1  0.622570  0.311050  0.958920  1.0  -0.5766
  O  O559  1  0.258540  0.321370  0.084940  1.0  -0.5905
  O  O560  1  0.209850  0.275610  0.044930  1.0  -0.5995
  O  O561  1  0.377430  0.311050  0.041080  1.0  -0.5784
  O  O562  1  0.258540  0.678630  0.915060  1.0  -0.5914
  O  O563  1  0.209850  0.724390  0.955070  1.0  -0.6012
  O  O564  1  0.377430  0.688950  0.958920  1.0  -0.5767
  O  O565  1  0.084940  0.741460  0.678630  1.0  -0.5917
  O  O566  1  0.044930  0.790150  0.724390  1.0  -0.5981
  O  O567  1  0.041080  0.622570  0.688950  1.0  -0.5812
  O  O568  1  0.915060  0.741460  0.321370  1.0  -0.5929
  O  O569  1  0.955070  0.790150  0.275610  1.0  -0.5992
  O  O570  1  0.958920  0.622570  0.311050  1.0  -0.5826
  O  O571  1  0.084940  0.258540  0.321370  1.0  -0.5922
  O  O572  1  0.044930  0.209850  0.275610  1.0  -0.5974
  O  O573  1  0.041080  0.377430  0.311050  1.0  -0.5805
  O  O574  1  0.915060  0.258540  0.678630  1.0  -0.595
  O  O575  1  0.955070  0.209850  0.724390  1.0  -0.5994
  O  O576  1  0.958920  0.377430  0.688950  1.0  -0.5827
  O  O577  1  0.084940  0.678630  0.258540  1.0  -0.5909
  O  O578  1  0.044930  0.724390  0.209850  1.0  -0.5978
  O  O579  1  0.041080  0.688950  0.377430  1.0  -0.5792
  O  O580  1  0.915060  0.321370  0.258540  1.0  -0.5918
  O  O581  1  0.955070  0.275610  0.209850  1.0  -0.5979
  O  O582  1  0.958920  0.311050  0.377430  1.0  -0.5804
  O  O583  1  0.084940  0.321370  0.741460  1.0  -0.5894
  O  O584  1  0.044930  0.275610  0.790150  1.0  -0.5966
  O  O585  1  0.041080  0.311050  0.622570  1.0  -0.5792
  O  O586  1  0.915060  0.678630  0.741460  1.0  -0.5908
  O  O587  1  0.955070  0.724390  0.790150  1.0  -0.5995
  O  O588  1  0.958920  0.688950  0.622570  1.0  -0.5803
  O  O589  1  0.678630  0.741460  0.915060  1.0  -0.5913
  O  O590  1  0.724390  0.790150  0.955070  1.0  -0.5988
  O  O591  1  0.688950  0.622570  0.958920  1.0  -0.5771
  O  O592  1  0.321370  0.741460  0.084940  1.0  -0.5901
  O  O593  1  0.275610  0.790150  0.044930  1.0  -0.5972
  O  O594  1  0.311050  0.622570  0.041080  1.0  -0.5795
  O  O595  1  0.321370  0.258540  0.915060  1.0  -0.5897
  O  O596  1  0.275610  0.209850  0.955070  1.0  -0.5984
  O  O597  1  0.311050  0.377430  0.958920  1.0  -0.5775
  O  O598  1  0.678630  0.258540  0.084940  1.0  -0.5918
  O  O599  1  0.724390  0.209850  0.044930  1.0  -0.5972
  O  O600  1  0.688950  0.377430  0.041080  1.0  -0.5795
  O  O601  1  0.741460  0.084940  0.321370  1.0  -0.5925
  O  O602  1  0.790150  0.044930  0.275610  1.0  -0.5996
  O  O603  1  0.622570  0.041080  0.311050  1.0  -0.5814
  O  O604  1  0.741460  0.915060  0.678630  1.0  -0.5931
  O  O605  1  0.790150  0.955070  0.724390  1.0  -0.601
  O  O606  1  0.622570  0.958920  0.688950  1.0  -0.5818
  O  O607  1  0.258540  0.084940  0.678630  1.0  -0.5925
  O  O608  1  0.209850  0.044930  0.724390  1.0  -0.6021
  O  O609  1  0.377430  0.041080  0.688950  1.0  -0.5799
  O  O610  1  0.258540  0.915060  0.321370  1.0  -0.5929
  O  O611  1  0.209850  0.955070  0.275610  1.0  -0.6012
  O  O612  1  0.377430  0.958920  0.311050  1.0  -0.5811
  O  O613  1  0.292160  0.000000  0.292160  1.0  -0.9779
  O  O614  1  0.707840  0.000000  0.292160  1.0  -0.9781
  O  O615  1  0.707840  0.000000  0.707840  1.0  -0.9787
  O  O616  1  0.292160  0.000000  0.707840  1.0  -0.9785
  O  O617  1  0.292160  0.292160  0.000000  1.0  -0.9786
  O  O618  1  0.292160  0.707840  0.000000  1.0  -0.9788
  O  O619  1  0.707840  0.707840  0.000000  1.0  -0.9791
  O  O620  1  0.707840  0.292160  0.000000  1.0  -0.9789
  O  O621  1  0.000000  0.292160  0.292160  1.0  -0.9777
  O  O622  1  0.000000  0.292160  0.707840  1.0  -0.9783
  O  O623  1  0.000000  0.707840  0.707840  1.0  -0.9785
  O  O624  1  0.000000  0.707840  0.292160  1.0  -0.9779
