# generated using pymatgen
data_Ni3H32(C10O3)6
_symmetry_space_group_name_H-M   'P 1'
_cell_length_a   27.26620000
_cell_length_b   11.53960000
_cell_length_c   13.96780000
_cell_angle_alpha   90.00000000
_cell_angle_beta   90.00000000
_cell_angle_gamma   90.00000000
_symmetry_Int_Tables_number   1
_chemical_formula_structural   Ni3H32(C10O3)6
_chemical_formula_sum   'Ni6 H64 C120 O36'
_cell_volume   4394.84313974
_cell_formula_units_Z   2
loop_
 _symmetry_equiv_pos_site_id
 _symmetry_equiv_pos_as_xyz
  1  'x, y, z'
loop_
 _atom_site_type_symbol
 _atom_site_label
 _atom_site_symmetry_multiplicity
 _atom_site_fract_x
 _atom_site_fract_y
 _atom_site_fract_z
 _atom_site_occupancy
 _atom_site_charge
  Ni  Ni1  1  0.000000  0.850300  0.281370  1.0  0.8712
  Ni  Ni2  1  0.500000  0.149700  0.781370  1.0  0.8715
  Ni  Ni3  1  0.500000  0.850300  0.218630  1.0  0.8722
  Ni  Ni4  1  0.000000  0.149700  0.718630  1.0  0.8723
  Ni  Ni5  1  0.000000  0.000000  0.500000  1.0  1.0075
  Ni  Ni6  1  0.500000  0.000000  0.000000  1.0  1.0075
  H  H7  1  0.199400  0.271600  0.413800  1.0  0.1263
  H  H8  1  0.127800  0.172200  0.447600  1.0  0.1331
  H  H9  1  0.196200  0.149600  0.142600  1.0  0.1485
  H  H10  1  0.125100  0.046300  0.178500  1.0  0.1321
  H  H11  1  0.330600  0.455200  0.352000  1.0  0.1336
  H  H12  1  0.273600  0.519100  0.092800  1.0  0.1307
  H  H13  1  0.342400  0.631100  0.055800  1.0  0.1225
  H  H14  1  0.395100  0.576100  0.319000  1.0  0.1289
  H  H15  1  0.300600  0.728400  0.913800  1.0  0.1266
  H  H16  1  0.372200  0.827800  0.947600  1.0  0.1335
  H  H17  1  0.303800  0.850400  0.642600  1.0  0.148
  H  H18  1  0.374900  0.953700  0.678500  1.0  0.1321
  H  H19  1  0.169400  0.544800  0.852000  1.0  0.1342
  H  H20  1  0.226400  0.480900  0.592800  1.0  0.1304
  H  H21  1  0.157600  0.368900  0.555800  1.0  0.1232
  H  H22  1  0.104900  0.423900  0.819000  1.0  0.1294
  H  H23  1  0.300600  0.271600  0.086200  1.0  0.1261
  H  H24  1  0.372200  0.172200  0.052400  1.0  0.134
  H  H25  1  0.303800  0.149600  0.357400  1.0  0.1477
  H  H26  1  0.374900  0.046300  0.321500  1.0  0.1327
  H  H27  1  0.169400  0.455200  0.148000  1.0  0.1343
  H  H28  1  0.226400  0.519100  0.407200  1.0  0.1312
  H  H29  1  0.157600  0.631100  0.444200  1.0  0.1227
  H  H30  1  0.104900  0.576100  0.181000  1.0  0.1284
  H  H31  1  0.199400  0.728400  0.586200  1.0  0.1261
  H  H32  1  0.127800  0.827800  0.552400  1.0  0.1339
  H  H33  1  0.196200  0.850400  0.857400  1.0  0.1481
  H  H34  1  0.125100  0.953700  0.821500  1.0  0.1327
  H  H35  1  0.330600  0.544800  0.648000  1.0  0.135
  H  H36  1  0.273600  0.480900  0.907200  1.0  0.1311
  H  H37  1  0.342400  0.368900  0.944200  1.0  0.1225
  H  H38  1  0.395100  0.423900  0.681000  1.0  0.129
  H  H39  1  0.800600  0.728400  0.586200  1.0  0.1263
  H  H40  1  0.872200  0.827800  0.552400  1.0  0.134
  H  H41  1  0.803800  0.850400  0.857400  1.0  0.1477
  H  H42  1  0.874900  0.953700  0.821500  1.0  0.1328
  H  H43  1  0.669400  0.544800  0.648000  1.0  0.1341
  H  H44  1  0.726400  0.480900  0.907200  1.0  0.1309
  H  H45  1  0.657600  0.368900  0.944200  1.0  0.123
  H  H46  1  0.604900  0.423900  0.681000  1.0  0.1283
  H  H47  1  0.699400  0.271600  0.086200  1.0  0.1262
  H  H48  1  0.627800  0.172200  0.052400  1.0  0.1338
  H  H49  1  0.696200  0.149600  0.357400  1.0  0.1482
  H  H50  1  0.625100  0.046300  0.321500  1.0  0.1328
  H  H51  1  0.830600  0.455200  0.148000  1.0  0.1349
  H  H52  1  0.773600  0.519100  0.407200  1.0  0.1312
  H  H53  1  0.842400  0.631100  0.444200  1.0  0.1221
  H  H54  1  0.895100  0.576100  0.181000  1.0  0.1291
  H  H55  1  0.699400  0.728400  0.913800  1.0  0.1263
  H  H56  1  0.627800  0.827800  0.947600  1.0  0.1331
  H  H57  1  0.696200  0.850400  0.642600  1.0  0.1482
  H  H58  1  0.625100  0.953700  0.678500  1.0  0.1318
  H  H59  1  0.830600  0.544800  0.852000  1.0  0.1334
  H  H60  1  0.773600  0.480900  0.592800  1.0  0.1304
  H  H61  1  0.842400  0.368900  0.555800  1.0  0.1227
  H  H62  1  0.895100  0.423900  0.819000  1.0  0.129
  H  H63  1  0.800600  0.271600  0.413800  1.0  0.1264
  H  H64  1  0.872200  0.172200  0.447600  1.0  0.1335
  H  H65  1  0.803800  0.149600  0.142600  1.0  0.1483
  H  H66  1  0.874900  0.046300  0.178500  1.0  0.1321
  H  H67  1  0.669400  0.455200  0.352000  1.0  0.1348
  H  H68  1  0.726400  0.519100  0.092800  1.0  0.1307
  H  H69  1  0.657600  0.631100  0.055800  1.0  0.1229
  H  H70  1  0.604900  0.576100  0.319000  1.0  0.1292
  C  C71  1  0.072200  0.037100  0.338700  1.0  0.7745
  C  C72  1  0.205040  0.222300  0.274700  1.0  0.0975
  C  C73  1  0.294860  0.476800  0.227200  1.0  0.1163
  C  C74  1  0.119700  0.098800  0.316500  1.0  -0.1251
  C  C75  1  0.184100  0.226200  0.364600  1.0  -0.1178
  C  C76  1  0.142000  0.166600  0.384900  1.0  -0.0734
  C  C77  1  0.182400  0.154300  0.205700  1.0  -0.1055
  C  C78  1  0.140200  0.093200  0.227000  1.0  -0.0527
  C  C79  1  0.331900  0.493400  0.291000  1.0  -0.0947
  C  C80  1  0.299000  0.529000  0.139700  1.0  -0.0879
  C  C81  1  0.339800  0.596400  0.118100  1.0  -0.0765
  C  C82  1  0.376190  0.614200  0.183600  1.0  -0.0929
  C  C83  1  0.419470  0.690200  0.158600  1.0  0.7598
  C  C84  1  0.370800  0.562800  0.270500  1.0  -0.0647
  C  C85  1  0.427800  0.962900  0.838700  1.0  0.7748
  C  C86  1  0.294960  0.777700  0.774700  1.0  0.0982
  C  C87  1  0.205140  0.523200  0.727200  1.0  0.1155
  C  C88  1  0.380300  0.901200  0.816500  1.0  -0.1238
  C  C89  1  0.315900  0.773800  0.864600  1.0  -0.1196
  C  C90  1  0.358000  0.833400  0.884900  1.0  -0.0731
  C  C91  1  0.317600  0.845700  0.705700  1.0  -0.1065
  C  C92  1  0.359800  0.906800  0.727000  1.0  -0.0537
  C  C93  1  0.168100  0.506600  0.791000  1.0  -0.0944
  C  C94  1  0.201000  0.471000  0.639700  1.0  -0.0869
  C  C95  1  0.160200  0.403600  0.618100  1.0  -0.0781
  C  C96  1  0.123810  0.385800  0.683600  1.0  -0.0955
  C  C97  1  0.080530  0.309800  0.658600  1.0  0.7595
  C  C98  1  0.129200  0.437200  0.770500  1.0  -0.0664
  C  C99  1  0.427800  0.037100  0.161300  1.0  0.7733
  C  C100  1  0.294960  0.222300  0.225300  1.0  0.0976
  C  C101  1  0.205140  0.476800  0.272800  1.0  0.1159
  C  C102  1  0.380300  0.098800  0.183500  1.0  -0.1234
  C  C103  1  0.315900  0.226200  0.135400  1.0  -0.1186
  C  C104  1  0.358000  0.166600  0.115100  1.0  -0.0724
  C  C105  1  0.317600  0.154300  0.294300  1.0  -0.1077
  C  C106  1  0.359800  0.093200  0.273000  1.0  -0.0511
  C  C107  1  0.168100  0.493400  0.209000  1.0  -0.0964
  C  C108  1  0.201000  0.529000  0.360300  1.0  -0.0871
  C  C109  1  0.160200  0.596400  0.381900  1.0  -0.077
  C  C110  1  0.123810  0.614200  0.316400  1.0  -0.0936
  C  C111  1  0.080530  0.690200  0.341400  1.0  0.7608
  C  C112  1  0.129200  0.562800  0.229500  1.0  -0.0672
  C  C113  1  0.072200  0.962900  0.661300  1.0  0.7736
  C  C114  1  0.205040  0.777700  0.725300  1.0  0.0972
  C  C115  1  0.294860  0.523200  0.772800  1.0  0.1161
  C  C116  1  0.119700  0.901200  0.683500  1.0  -0.1238
  C  C117  1  0.184100  0.773800  0.635400  1.0  -0.119
  C  C118  1  0.142000  0.833400  0.615100  1.0  -0.0734
  C  C119  1  0.182400  0.845700  0.794300  1.0  -0.1072
  C  C120  1  0.140200  0.906800  0.773000  1.0  -0.0532
  C  C121  1  0.331900  0.506600  0.709000  1.0  -0.0955
  C  C122  1  0.299000  0.471000  0.860300  1.0  -0.0887
  C  C123  1  0.339800  0.403600  0.881900  1.0  -0.0762
  C  C124  1  0.376190  0.385800  0.816400  1.0  -0.0934
  C  C125  1  0.419470  0.309800  0.841400  1.0  0.7601
  C  C126  1  0.370800  0.437200  0.729500  1.0  -0.0658
  C  C127  1  0.927800  0.962900  0.661300  1.0  0.7737
  C  C128  1  0.794960  0.777700  0.725300  1.0  0.098
  C  C129  1  0.705140  0.523200  0.772800  1.0  0.1158
  C  C130  1  0.880300  0.901200  0.683500  1.0  -0.1233
  C  C131  1  0.815900  0.773800  0.635400  1.0  -0.1192
  C  C132  1  0.858000  0.833400  0.615100  1.0  -0.0727
  C  C133  1  0.817600  0.845700  0.794300  1.0  -0.106
  C  C134  1  0.859800  0.906800  0.773000  1.0  -0.052
  C  C135  1  0.668100  0.506600  0.709000  1.0  -0.0952
  C  C136  1  0.701000  0.471000  0.860300  1.0  -0.0875
  C  C137  1  0.660200  0.403600  0.881900  1.0  -0.0769
  C  C138  1  0.623810  0.385800  0.816400  1.0  -0.0952
  C  C139  1  0.580530  0.309800  0.841400  1.0  0.7605
  C  C140  1  0.629200  0.437200  0.729500  1.0  -0.0667
  C  C141  1  0.572200  0.037100  0.161300  1.0  0.773
  C  C142  1  0.705040  0.222300  0.225300  1.0  0.0972
  C  C143  1  0.794860  0.476800  0.272800  1.0  0.1166
  C  C144  1  0.619700  0.098800  0.183500  1.0  -0.1246
  C  C145  1  0.684100  0.226200  0.135400  1.0  -0.1182
  C  C146  1  0.642000  0.166600  0.115100  1.0  -0.0731
  C  C147  1  0.682400  0.154300  0.294300  1.0  -0.1082
  C  C148  1  0.640200  0.093200  0.273000  1.0  -0.0515
  C  C149  1  0.831900  0.493400  0.209000  1.0  -0.0968
  C  C150  1  0.799000  0.529000  0.360300  1.0  -0.0885
  C  C151  1  0.839800  0.596400  0.381900  1.0  -0.076
  C  C152  1  0.876190  0.614200  0.316400  1.0  -0.0929
  C  C153  1  0.919470  0.690200  0.341400  1.0  0.7607
  C  C154  1  0.870800  0.562800  0.229500  1.0  -0.0661
  C  C155  1  0.572200  0.962900  0.838700  1.0  0.7749
  C  C156  1  0.705040  0.777700  0.774700  1.0  0.0974
  C  C157  1  0.794860  0.523200  0.727200  1.0  0.1159
  C  C158  1  0.619700  0.901200  0.816500  1.0  -0.1244
  C  C159  1  0.684100  0.773800  0.864600  1.0  -0.1189
  C  C160  1  0.642000  0.833400  0.884900  1.0  -0.074
  C  C161  1  0.682400  0.845700  0.705700  1.0  -0.1063
  C  C162  1  0.640200  0.906800  0.727000  1.0  -0.0526
  C  C163  1  0.831900  0.506600  0.791000  1.0  -0.0948
  C  C164  1  0.799000  0.471000  0.639700  1.0  -0.088
  C  C165  1  0.839800  0.403600  0.618100  1.0  -0.0773
  C  C166  1  0.876190  0.385800  0.683600  1.0  -0.0935
  C  C167  1  0.919470  0.309800  0.658600  1.0  0.7593
  C  C168  1  0.870800  0.437200  0.770500  1.0  -0.0649
  C  C169  1  0.927800  0.037100  0.338700  1.0  0.7744
  C  C170  1  0.794960  0.222300  0.274700  1.0  0.0979
  C  C171  1  0.705140  0.476800  0.227200  1.0  0.1155
  C  C172  1  0.880300  0.098800  0.316500  1.0  -0.1237
  C  C173  1  0.815900  0.226200  0.364600  1.0  -0.1186
  C  C174  1  0.858000  0.166600  0.384900  1.0  -0.0727
  C  C175  1  0.817600  0.154300  0.205700  1.0  -0.1057
  C  C176  1  0.859800  0.093200  0.227000  1.0  -0.054
  C  C177  1  0.668100  0.493400  0.291000  1.0  -0.0944
  C  C178  1  0.701000  0.529000  0.139700  1.0  -0.0865
  C  C179  1  0.660200  0.596400  0.118100  1.0  -0.0773
  C  C180  1  0.623810  0.614200  0.183600  1.0  -0.0938
  C  C181  1  0.580530  0.690200  0.158600  1.0  0.7599
  C  C182  1  0.629200  0.562800  0.270500  1.0  -0.0669
  C  C183  1  0.250000  0.289500  0.250000  1.0  0.0163
  C  C184  1  0.250000  0.406600  0.250000  1.0  0.0055
  C  C185  1  0.250000  0.710500  0.750000  1.0  0.016
  C  C186  1  0.250000  0.593400  0.750000  1.0  0.0056
  C  C187  1  0.750000  0.710500  0.750000  1.0  0.016
  C  C188  1  0.750000  0.593400  0.750000  1.0  0.0056
  C  C189  1  0.750000  0.289500  0.250000  1.0  0.0163
  C  C190  1  0.750000  0.406600  0.250000  1.0  0.0055
  O  O191  1  0.056170  0.967400  0.278200  1.0  -0.6276
  O  O192  1  0.052500  0.062300  0.415700  1.0  -0.6109
  O  O193  1  0.446570  0.721700  0.225800  1.0  -0.5668
  O  O194  1  0.425210  0.714700  0.072500  1.0  -0.5235
  O  O195  1  0.443830  0.032600  0.778200  1.0  -0.6279
  O  O196  1  0.447500  0.937700  0.915700  1.0  -0.6099
  O  O197  1  0.053430  0.278300  0.725800  1.0  -0.5668
  O  O198  1  0.074790  0.285300  0.572500  1.0  -0.5231
  O  O199  1  0.443830  0.967400  0.221800  1.0  -0.6261
  O  O200  1  0.447500  0.062300  0.084300  1.0  -0.6118
  O  O201  1  0.053430  0.721700  0.274200  1.0  -0.5674
  O  O202  1  0.074790  0.714700  0.427500  1.0  -0.5253
  O  O203  1  0.056170  0.032600  0.721800  1.0  -0.6262
  O  O204  1  0.052500  0.937700  0.584300  1.0  -0.6096
  O  O205  1  0.446570  0.278300  0.774200  1.0  -0.5676
  O  O206  1  0.425210  0.285300  0.927500  1.0  -0.5248
  O  O207  1  0.943830  0.032600  0.721800  1.0  -0.626
  O  O208  1  0.947500  0.937700  0.584300  1.0  -0.6099
  O  O209  1  0.553430  0.278300  0.774200  1.0  -0.5672
  O  O210  1  0.574790  0.285300  0.927500  1.0  -0.5251
  O  O211  1  0.556170  0.967400  0.221800  1.0  -0.6262
  O  O212  1  0.552500  0.062300  0.084300  1.0  -0.6116
  O  O213  1  0.946570  0.721700  0.274200  1.0  -0.5678
  O  O214  1  0.925210  0.714700  0.427500  1.0  -0.5249
  O  O215  1  0.556170  0.032600  0.778200  1.0  -0.6278
  O  O216  1  0.552500  0.937700  0.915700  1.0  -0.6098
  O  O217  1  0.946570  0.278300  0.725800  1.0  -0.5671
  O  O218  1  0.925210  0.285300  0.572500  1.0  -0.5235
  O  O219  1  0.943830  0.967400  0.278200  1.0  -0.6274
  O  O220  1  0.947500  0.062300  0.415700  1.0  -0.6109
  O  O221  1  0.553430  0.721700  0.225800  1.0  -0.5665
  O  O222  1  0.574790  0.714700  0.072500  1.0  -0.5233
  O  O223  1  0.000000  0.844200  0.429500  1.0  -0.5598
  O  O224  1  0.500000  0.155800  0.929500  1.0  -0.559
  O  O225  1  0.500000  0.844200  0.070500  1.0  -0.5598
  O  O226  1  0.000000  0.155800  0.570500  1.0  -0.559
