# generated using pymatgen
data_Ni3H48C69O13
_symmetry_space_group_name_H-M   'P 1'
_cell_length_a   26.25000000
_cell_length_b   26.25000000
_cell_length_c   11.24360000
_cell_angle_alpha   90.00000000
_cell_angle_beta   90.00000000
_cell_angle_gamma   120.00000000
_symmetry_Int_Tables_number   1
_chemical_formula_structural   Ni3H48C69O13
_chemical_formula_sum   'Ni6 H96 C138 O26'
_cell_volume   6709.56916317
_cell_formula_units_Z   2
loop_
 _symmetry_equiv_pos_site_id
 _symmetry_equiv_pos_as_xyz
  1  'x, y, z'
loop_
 _atom_site_type_symbol
 _atom_site_label
 _atom_site_symmetry_multiplicity
 _atom_site_fract_x
 _atom_site_fract_y
 _atom_site_fract_z
 _atom_site_occupancy
 _atom_site_charge
  Ni  Ni1  1  0.289920  0.579840  0.000000  1.0  0.8344
  Ni  Ni2  1  0.420160  0.710080  0.000000  1.0  0.8352
  Ni  Ni3  1  0.289920  0.710080  0.000000  1.0  0.8352
  Ni  Ni4  1  0.710080  0.420160  0.000000  1.0  0.8359
  Ni  Ni5  1  0.579840  0.289920  0.000000  1.0  0.8349
  Ni  Ni6  1  0.710080  0.289920  0.000000  1.0  0.8346
  H  H7  1  0.389800  0.495700  0.157300  1.0  0.0634
  H  H8  1  0.385600  0.489800  0.442300  1.0  0.0232
  H  H9  1  0.351100  0.521600  0.352300  1.0  0.0608
  H  H10  1  0.424500  0.465000  0.237000  1.0  0.0137
  H  H11  1  0.504300  0.894100  0.157300  1.0  0.0641
  H  H12  1  0.510200  0.895800  0.442300  1.0  0.0211
  H  H13  1  0.478400  0.829500  0.352300  1.0  0.0609
  H  H14  1  0.535000  0.959500  0.237000  1.0  0.012
  H  H15  1  0.105900  0.610200  0.157300  1.0  0.0659
  H  H16  1  0.104200  0.614400  0.442300  1.0  0.0235
  H  H17  1  0.170500  0.648900  0.352300  1.0  0.0617
  H  H18  1  0.040500  0.575500  0.237000  1.0  0.0098
  H  H19  1  0.610200  0.504300  0.157300  1.0  0.0638
  H  H20  1  0.614400  0.510200  0.442300  1.0  0.0232
  H  H21  1  0.648900  0.478400  0.352300  1.0  0.0664
  H  H22  1  0.575500  0.535000  0.237000  1.0  0.0139
  H  H23  1  0.495700  0.105900  0.157300  1.0  0.0643
  H  H24  1  0.489800  0.104200  0.442300  1.0  0.022
  H  H25  1  0.521600  0.170500  0.352300  1.0  0.0636
  H  H26  1  0.465000  0.040500  0.237000  1.0  0.012
  H  H27  1  0.894100  0.389800  0.157300  1.0  0.0631
  H  H28  1  0.895800  0.385600  0.442300  1.0  0.0217
  H  H29  1  0.829500  0.351100  0.352300  1.0  0.0586
  H  H30  1  0.959500  0.424500  0.237000  1.0  0.0131
  H  H31  1  0.495700  0.389800  0.842700  1.0  0.0624
  H  H32  1  0.489800  0.385600  0.557700  1.0  0.0233
  H  H33  1  0.521600  0.351100  0.647700  1.0  0.06
  H  H34  1  0.465000  0.424500  0.763000  1.0  0.0102
  H  H35  1  0.894100  0.504300  0.842700  1.0  0.0629
  H  H36  1  0.895800  0.510200  0.557700  1.0  0.0248
  H  H37  1  0.829500  0.478400  0.647700  1.0  0.0632
  H  H38  1  0.959500  0.535000  0.763000  1.0  0.0121
  H  H39  1  0.610200  0.105900  0.842700  1.0  0.0635
  H  H40  1  0.614400  0.104200  0.557700  1.0  0.0231
  H  H41  1  0.648900  0.170500  0.647700  1.0  0.0644
  H  H42  1  0.575500  0.040500  0.763000  1.0  0.0148
  H  H43  1  0.504300  0.610200  0.842700  1.0  0.063
  H  H44  1  0.510200  0.614400  0.557700  1.0  0.024
  H  H45  1  0.478400  0.648900  0.647700  1.0  0.0629
  H  H46  1  0.535000  0.575500  0.763000  1.0  0.0122
  H  H47  1  0.105900  0.495700  0.842700  1.0  0.0623
  H  H48  1  0.104200  0.489800  0.557700  1.0  0.0235
  H  H49  1  0.170500  0.521600  0.647700  1.0  0.0674
  H  H50  1  0.040500  0.465000  0.763000  1.0  0.0175
  H  H51  1  0.389800  0.894100  0.842700  1.0  0.0632
  H  H52  1  0.385600  0.895800  0.557700  1.0  0.022
  H  H53  1  0.351100  0.829500  0.647700  1.0  0.06
  H  H54  1  0.424500  0.959500  0.763000  1.0  0.0126
  H  H55  1  0.610200  0.504300  0.842700  1.0  0.0619
  H  H56  1  0.614400  0.510200  0.557700  1.0  0.0251
  H  H57  1  0.648900  0.478400  0.647700  1.0  0.0673
  H  H58  1  0.575500  0.535000  0.763000  1.0  0.0125
  H  H59  1  0.495700  0.105900  0.842700  1.0  0.0633
  H  H60  1  0.489800  0.104200  0.557700  1.0  0.0232
  H  H61  1  0.521600  0.170500  0.647700  1.0  0.0649
  H  H62  1  0.465000  0.040500  0.763000  1.0  0.0138
  H  H63  1  0.894100  0.389800  0.842700  1.0  0.0631
  H  H64  1  0.895800  0.385600  0.557700  1.0  0.0237
  H  H65  1  0.829500  0.351100  0.647700  1.0  0.0592
  H  H66  1  0.959500  0.424500  0.763000  1.0  0.0162
  H  H67  1  0.389800  0.495700  0.842700  1.0  0.0632
  H  H68  1  0.385600  0.489800  0.557700  1.0  0.025
  H  H69  1  0.351100  0.521600  0.647700  1.0  0.0622
  H  H70  1  0.424500  0.465000  0.763000  1.0  0.0172
  H  H71  1  0.504300  0.894100  0.842700  1.0  0.0636
  H  H72  1  0.510200  0.895800  0.557700  1.0  0.0229
  H  H73  1  0.478400  0.829500  0.647700  1.0  0.0612
  H  H74  1  0.535000  0.959500  0.763000  1.0  0.0131
  H  H75  1  0.105900  0.610200  0.842700  1.0  0.063
  H  H76  1  0.104200  0.614400  0.557700  1.0  0.025
  H  H77  1  0.170500  0.648900  0.647700  1.0  0.0626
  H  H78  1  0.040500  0.575500  0.763000  1.0  0.0067
  H  H79  1  0.504300  0.610200  0.157300  1.0  0.0647
  H  H80  1  0.510200  0.614400  0.442300  1.0  0.0239
  H  H81  1  0.478400  0.648900  0.352300  1.0  0.0616
  H  H82  1  0.535000  0.575500  0.237000  1.0  0.014
  H  H83  1  0.105900  0.495700  0.157300  1.0  0.063
  H  H84  1  0.104200  0.489800  0.442300  1.0  0.0226
  H  H85  1  0.170500  0.521600  0.352300  1.0  0.0661
  H  H86  1  0.040500  0.465000  0.237000  1.0  0.0149
  H  H87  1  0.389800  0.894100  0.157300  1.0  0.0641
  H  H88  1  0.385600  0.895800  0.442300  1.0  0.0221
  H  H89  1  0.351100  0.829500  0.352300  1.0  0.059
  H  H90  1  0.424500  0.959500  0.237000  1.0  0.0121
  H  H91  1  0.495700  0.389800  0.157300  1.0  0.0633
  H  H92  1  0.489800  0.385600  0.442300  1.0  0.0232
  H  H93  1  0.521600  0.351100  0.352300  1.0  0.0602
  H  H94  1  0.465000  0.424500  0.237000  1.0  0.0089
  H  H95  1  0.894100  0.504300  0.157300  1.0  0.0657
  H  H96  1  0.895800  0.510200  0.442300  1.0  0.0253
  H  H97  1  0.829500  0.478400  0.352300  1.0  0.062
  H  H98  1  0.959500  0.535000  0.237000  1.0  0.0132
  H  H99  1  0.610200  0.105900  0.157300  1.0  0.0646
  H  H100  1  0.614400  0.104200  0.442300  1.0  0.0224
  H  H101  1  0.648900  0.170500  0.352300  1.0  0.0636
  H  H102  1  0.575500  0.040500  0.237000  1.0  0.0127
  C  C103  1  0.403500  0.521600  0.224700  1.0  -0.0197
  C  C104  1  0.412800  0.506700  0.377400  1.0  0.0169
  C  C105  1  0.386000  0.531700  0.307300  1.0  0.0158
  C  C106  1  0.429900  0.496500  0.288600  1.0  0.0041
  C  C107  1  0.478400  0.881900  0.224700  1.0  -0.019
  C  C108  1  0.493300  0.906100  0.377400  1.0  0.0175
  C  C109  1  0.468300  0.854300  0.307300  1.0  0.0189
  C  C110  1  0.503500  0.933400  0.288600  1.0  -0.0038
  C  C111  1  0.118100  0.596500  0.224700  1.0  -0.0178
  C  C112  1  0.093900  0.587200  0.377400  1.0  0.0164
  C  C113  1  0.145700  0.614000  0.307300  1.0  0.0197
  C  C114  1  0.066600  0.570100  0.288600  1.0  -0.0058
  C  C115  1  0.596500  0.478400  0.224700  1.0  -0.0206
  C  C116  1  0.587200  0.493300  0.377400  1.0  0.0191
  C  C117  1  0.614000  0.468300  0.307300  1.0  0.0215
  C  C118  1  0.570100  0.503500  0.288600  1.0  0.0018
  C  C119  1  0.521600  0.118100  0.224700  1.0  -0.0207
  C  C120  1  0.506700  0.093900  0.377400  1.0  0.0171
  C  C121  1  0.531700  0.145700  0.307300  1.0  0.0178
  C  C122  1  0.496500  0.066600  0.288600  1.0  -0.0061
  C  C123  1  0.881900  0.403500  0.224700  1.0  -0.0188
  C  C124  1  0.906100  0.412800  0.377400  1.0  0.0167
  C  C125  1  0.854300  0.386000  0.307300  1.0  0.0195
  C  C126  1  0.933400  0.429900  0.288600  1.0  -0.0026
  C  C127  1  0.521600  0.403500  0.775300  1.0  -0.0128
  C  C128  1  0.506700  0.412800  0.622600  1.0  0.0176
  C  C129  1  0.531700  0.386000  0.692700  1.0  0.0191
  C  C130  1  0.496500  0.429900  0.711400  1.0  -0.006
  C  C131  1  0.881900  0.478400  0.775300  1.0  -0.0213
  C  C132  1  0.906100  0.493300  0.622600  1.0  0.0184
  C  C133  1  0.854300  0.468300  0.692700  1.0  0.0172
  C  C134  1  0.933400  0.503500  0.711400  1.0  -0.0015
  C  C135  1  0.596500  0.118100  0.775300  1.0  -0.0185
  C  C136  1  0.587200  0.093900  0.622600  1.0  0.0184
  C  C137  1  0.614000  0.145700  0.692700  1.0  0.0159
  C  C138  1  0.570100  0.066600  0.711400  1.0  -0.0041
  C  C139  1  0.478400  0.596500  0.775300  1.0  -0.0196
  C  C140  1  0.493300  0.587200  0.622600  1.0  0.0152
  C  C141  1  0.468300  0.614000  0.692700  1.0  0.0179
  C  C142  1  0.503500  0.570100  0.711400  1.0  -0.0062
  C  C143  1  0.118100  0.521600  0.775300  1.0  -0.0176
  C  C144  1  0.093900  0.506700  0.622600  1.0  0.0195
  C  C145  1  0.145700  0.531700  0.692700  1.0  0.0187
  C  C146  1  0.066600  0.496500  0.711400  1.0  0.0037
  C  C147  1  0.403500  0.881900  0.775300  1.0  -0.0178
  C  C148  1  0.412800  0.906100  0.622600  1.0  0.018
  C  C149  1  0.386000  0.854300  0.692700  1.0  0.0157
  C  C150  1  0.429900  0.933400  0.711400  1.0  -0.0064
  C  C151  1  0.596500  0.478400  0.775300  1.0  -0.0208
  C  C152  1  0.587200  0.493300  0.622600  1.0  0.018
  C  C153  1  0.614000  0.468300  0.692700  1.0  0.0203
  C  C154  1  0.570100  0.503500  0.711400  1.0  0.0003
  C  C155  1  0.521600  0.118100  0.775300  1.0  -0.0207
  C  C156  1  0.506700  0.093900  0.622600  1.0  0.0184
  C  C157  1  0.531700  0.145700  0.692700  1.0  0.016
  C  C158  1  0.496500  0.066600  0.711400  1.0  -0.0078
  C  C159  1  0.881900  0.403500  0.775300  1.0  -0.0152
  C  C160  1  0.906100  0.412800  0.622600  1.0  0.0176
  C  C161  1  0.854300  0.386000  0.692700  1.0  0.0181
  C  C162  1  0.933400  0.429900  0.711400  1.0  -0.0025
  C  C163  1  0.403500  0.521600  0.775300  1.0  -0.0176
  C  C164  1  0.412800  0.506700  0.622600  1.0  0.0175
  C  C165  1  0.386000  0.531700  0.692700  1.0  0.014
  C  C166  1  0.429900  0.496500  0.711400  1.0  0.0033
  C  C167  1  0.478400  0.881900  0.775300  1.0  -0.0166
  C  C168  1  0.493300  0.906100  0.622600  1.0  0.0184
  C  C169  1  0.468300  0.854300  0.692700  1.0  0.0171
  C  C170  1  0.503500  0.933400  0.711400  1.0  -0.0023
  C  C171  1  0.118100  0.596500  0.775300  1.0  -0.018
  C  C172  1  0.093900  0.587200  0.622600  1.0  0.0161
  C  C173  1  0.145700  0.614000  0.692700  1.0  0.018
  C  C174  1  0.066600  0.570100  0.711400  1.0  -0.0091
  C  C175  1  0.478400  0.596500  0.224700  1.0  -0.0204
  C  C176  1  0.493300  0.587200  0.377400  1.0  0.0156
  C  C177  1  0.468300  0.614000  0.307300  1.0  0.0194
  C  C178  1  0.503500  0.570100  0.288600  1.0  -0.0049
  C  C179  1  0.118100  0.521600  0.224700  1.0  -0.019
  C  C180  1  0.093900  0.506700  0.377400  1.0  0.019
  C  C181  1  0.145700  0.531700  0.307300  1.0  0.0201
  C  C182  1  0.066600  0.496500  0.288600  1.0  0.0032
  C  C183  1  0.403500  0.881900  0.224700  1.0  -0.0211
  C  C184  1  0.412800  0.906100  0.377400  1.0  0.0168
  C  C185  1  0.386000  0.854300  0.307300  1.0  0.0175
  C  C186  1  0.429900  0.933400  0.288600  1.0  -0.0063
  C  C187  1  0.521600  0.403500  0.224700  1.0  -0.0153
  C  C188  1  0.506700  0.412800  0.377400  1.0  0.017
  C  C189  1  0.531700  0.386000  0.307300  1.0  0.0208
  C  C190  1  0.496500  0.429900  0.288600  1.0  -0.0042
  C  C191  1  0.881900  0.478400  0.224700  1.0  -0.0215
  C  C192  1  0.906100  0.493300  0.377400  1.0  0.0184
  C  C193  1  0.854300  0.468300  0.307300  1.0  0.0183
  C  C194  1  0.933400  0.503500  0.288600  1.0  0.0017
  C  C195  1  0.596500  0.118100  0.224700  1.0  -0.0181
  C  C196  1  0.587200  0.093900  0.377400  1.0  0.0173
  C  C197  1  0.614000  0.145700  0.307300  1.0  0.0182
  C  C198  1  0.570100  0.066600  0.288600  1.0  -0.0043
  C  C199  1  0.393800  0.606200  0.156200  1.0  0.6283
  C  C200  1  0.421260  0.578740  0.232300  1.0  0.098
  C  C201  1  0.472260  0.527740  0.368600  1.0  0.0616
  C  C202  1  0.393800  0.787600  0.156200  1.0  0.626
  C  C203  1  0.421260  0.842520  0.232300  1.0  0.1005
  C  C204  1  0.472260  0.944520  0.368600  1.0  0.0613
  C  C205  1  0.212400  0.606200  0.156200  1.0  0.6247
  C  C206  1  0.157480  0.578740  0.232300  1.0  0.1014
  C  C207  1  0.055480  0.527740  0.368600  1.0  0.0621
  C  C208  1  0.606200  0.393800  0.156200  1.0  0.6236
  C  C209  1  0.578740  0.421260  0.232300  1.0  0.1023
  C  C210  1  0.527740  0.472260  0.368600  1.0  0.0599
  C  C211  1  0.606200  0.212400  0.156200  1.0  0.6242
  C  C212  1  0.578740  0.157480  0.232300  1.0  0.0967
  C  C213  1  0.527740  0.055480  0.368600  1.0  0.0633
  C  C214  1  0.787600  0.393800  0.156200  1.0  0.6275
  C  C215  1  0.842520  0.421260  0.232300  1.0  0.0959
  C  C216  1  0.944520  0.472260  0.368600  1.0  0.0589
  C  C217  1  0.606200  0.393800  0.843800  1.0  0.625
  C  C218  1  0.578740  0.421260  0.767700  1.0  0.1025
  C  C219  1  0.527740  0.472260  0.631400  1.0  0.0604
  C  C220  1  0.787600  0.393800  0.843800  1.0  0.6279
  C  C221  1  0.842520  0.421260  0.767700  1.0  0.0971
  C  C222  1  0.944520  0.472260  0.631400  1.0  0.0593
  C  C223  1  0.606200  0.212400  0.843800  1.0  0.6244
  C  C224  1  0.578740  0.157480  0.767700  1.0  0.098
  C  C225  1  0.527740  0.055480  0.631400  1.0  0.0632
  C  C226  1  0.393800  0.606200  0.843800  1.0  0.6276
  C  C227  1  0.421260  0.578740  0.767700  1.0  0.0972
  C  C228  1  0.472260  0.527740  0.631400  1.0  0.0621
  C  C229  1  0.212400  0.606200  0.843800  1.0  0.6251
  C  C230  1  0.157480  0.578740  0.767700  1.0  0.1008
  C  C231  1  0.055480  0.527740  0.631400  1.0  0.063
  C  C232  1  0.393800  0.787600  0.843800  1.0  0.6263
  C  C233  1  0.421260  0.842520  0.767700  1.0  0.1027
  C  C234  1  0.472260  0.944520  0.631400  1.0  0.0608
  C  C235  1  0.500000  0.500000  0.440500  1.0  -0.0496
  C  C236  1  0.500000  0.000000  0.440500  1.0  -0.0496
  C  C237  1  0.000000  0.500000  0.440500  1.0  -0.0496
  C  C238  1  0.500000  0.500000  0.559500  1.0  -0.049
  C  C239  1  0.000000  0.500000  0.559500  1.0  -0.049
  C  C240  1  0.500000  0.000000  0.559500  1.0  -0.049
  O  O241  1  0.341550  0.573700  0.128700  1.0  -0.6848
  O  O242  1  0.426300  0.767850  0.128700  1.0  -0.6847
  O  O243  1  0.232150  0.658450  0.128700  1.0  -0.6834
  O  O244  1  0.658450  0.426300  0.128700  1.0  -0.6841
  O  O245  1  0.573700  0.232150  0.128700  1.0  -0.6861
  O  O246  1  0.767850  0.341550  0.128700  1.0  -0.6846
  O  O247  1  0.573700  0.341550  0.871300  1.0  -0.6855
  O  O248  1  0.767850  0.426300  0.871300  1.0  -0.6847
  O  O249  1  0.658450  0.232150  0.871300  1.0  -0.6851
  O  O250  1  0.426300  0.658450  0.871300  1.0  -0.6833
  O  O251  1  0.232150  0.573700  0.871300  1.0  -0.6845
  O  O252  1  0.341550  0.767850  0.871300  1.0  -0.6856
  O  O253  1  0.658450  0.426300  0.871300  1.0  -0.6844
  O  O254  1  0.573700  0.232150  0.871300  1.0  -0.6861
  O  O255  1  0.767850  0.341550  0.871300  1.0  -0.6847
  O  O256  1  0.341550  0.573700  0.871300  1.0  -0.685
  O  O257  1  0.426300  0.767850  0.871300  1.0  -0.685
  O  O258  1  0.232150  0.658450  0.871300  1.0  -0.6837
  O  O259  1  0.426300  0.658450  0.128700  1.0  -0.6831
  O  O260  1  0.232150  0.573700  0.128700  1.0  -0.6842
  O  O261  1  0.341550  0.767850  0.128700  1.0  -0.6854
  O  O262  1  0.573700  0.341550  0.128700  1.0  -0.6853
  O  O263  1  0.767850  0.426300  0.128700  1.0  -0.6846
  O  O264  1  0.658450  0.232150  0.128700  1.0  -0.6848
  O  O265  1  0.333333  0.666667  0.000000  1.0  -0.9792
  O  O266  1  0.666667  0.333333  0.000000  1.0  -0.9792
