# generated using pymatgen
data_Cu2H6C3N2Cl3
_symmetry_space_group_name_H-M   'P 1'
_cell_length_a   9.42180000
_cell_length_b   9.42180000
_cell_length_c   15.65780000
_cell_angle_alpha   90.00000000
_cell_angle_beta   90.00000000
_cell_angle_gamma   120.00000000
_symmetry_Int_Tables_number   1
_chemical_formula_structural   Cu2H6C3N2Cl3
_chemical_formula_sum   'Cu8 H24 C12 N8 Cl12'
_cell_volume   1203.73014108
_cell_formula_units_Z   4
loop_
 _symmetry_equiv_pos_site_id
 _symmetry_equiv_pos_as_xyz
  1  'x, y, z'
loop_
 _atom_site_type_symbol
 _atom_site_label
 _atom_site_symmetry_multiplicity
 _atom_site_fract_x
 _atom_site_fract_y
 _atom_site_fract_z
 _atom_site_occupancy
 _atom_site_charge
  Cu  Cu1  1  0.548800  0.097600  0.200500  1.0  0.3344
  Cu  Cu2  1  0.902400  0.451200  0.200500  1.0  0.337
  Cu  Cu3  1  0.548800  0.451200  0.200500  1.0  0.3366
  Cu  Cu4  1  0.451200  0.902400  0.700500  1.0  0.3356
  Cu  Cu5  1  0.097600  0.548800  0.700500  1.0  0.3371
  Cu  Cu6  1  0.451200  0.548800  0.700500  1.0  0.3359
  Cu  Cu7  1  0.666667  0.333333  0.390200  1.0  0.2466
  Cu  Cu8  1  0.333333  0.666667  0.890200  1.0  0.2466
  H  H9  1  0.536000  0.882400  0.058200  1.0  0.1331
  H  H10  1  0.117600  0.653600  0.058200  1.0  0.138
  H  H11  1  0.346400  0.464000  0.058200  1.0  0.1273
  H  H12  1  0.464000  0.117600  0.558200  1.0  0.1312
  H  H13  1  0.882400  0.346400  0.558200  1.0  0.1385
  H  H14  1  0.653600  0.536000  0.558200  1.0  0.1304
  H  H15  1  0.117600  0.464000  0.058200  1.0  0.1272
  H  H16  1  0.346400  0.882400  0.058200  1.0  0.1316
  H  H17  1  0.536000  0.653600  0.058200  1.0  0.139
  H  H18  1  0.882400  0.536000  0.558200  1.0  0.1299
  H  H19  1  0.653600  0.117600  0.558200  1.0  0.1312
  H  H20  1  0.464000  0.346400  0.558200  1.0  0.138
  H  H21  1  0.193150  0.806850  0.173700  1.0  0.1257
  H  H22  1  0.256450  0.743550  0.248500  1.0  0.137
  H  H23  1  0.193150  0.386300  0.173700  1.0  0.1216
  H  H24  1  0.256450  0.512900  0.248500  1.0  0.1353
  H  H25  1  0.613700  0.806850  0.173700  1.0  0.1251
  H  H26  1  0.487100  0.743550  0.248500  1.0  0.1349
  H  H27  1  0.806850  0.193150  0.673700  1.0  0.1255
  H  H28  1  0.743550  0.256450  0.748500  1.0  0.1361
  H  H29  1  0.806850  0.613700  0.673700  1.0  0.1248
  H  H30  1  0.743550  0.487100  0.748500  1.0  0.1339
  H  H31  1  0.386300  0.193150  0.673700  1.0  0.1264
  H  H32  1  0.512900  0.256450  0.748500  1.0  0.1378
  C  C33  1  0.417150  0.834300  0.061100  1.0  0.0588
  C  C34  1  0.165700  0.582850  0.061100  1.0  0.0618
  C  C35  1  0.417150  0.582850  0.061100  1.0  0.063
  C  C36  1  0.582850  0.165700  0.561100  1.0  0.0616
  C  C37  1  0.834300  0.417150  0.561100  1.0  0.0626
  C  C38  1  0.582850  0.417150  0.561100  1.0  0.0612
  C  C39  1  0.250900  0.749100  0.187400  1.0  0.1387
  C  C40  1  0.250900  0.501800  0.187400  1.0  0.1412
  C  C41  1  0.498200  0.749100  0.187400  1.0  0.1394
  C  C42  1  0.749100  0.250900  0.687400  1.0  0.1405
  C  C43  1  0.749100  0.498200  0.687400  1.0  0.1382
  C  C44  1  0.501800  0.250900  0.687400  1.0  0.1405
  N  N45  1  0.421500  0.843000  0.157200  1.0  -0.1978
  N  N46  1  0.157000  0.578500  0.157200  1.0  -0.1953
  N  N47  1  0.421500  0.578500  0.157200  1.0  -0.1969
  N  N48  1  0.578500  0.157000  0.657200  1.0  -0.1958
  N  N49  1  0.843000  0.421500  0.657200  1.0  -0.1959
  N  N50  1  0.578500  0.421500  0.657200  1.0  -0.1943
  N  N51  1  0.333333  0.666667  0.028000  1.0  -0.1494
  N  N52  1  0.666667  0.333333  0.528000  1.0  -0.1494
  Cl  Cl53  1  0.525500  0.051000  0.349600  1.0  -0.457
  Cl  Cl54  1  0.949000  0.474500  0.349600  1.0  -0.4563
  Cl  Cl55  1  0.525500  0.474500  0.349600  1.0  -0.4559
  Cl  Cl56  1  0.474500  0.949000  0.849600  1.0  -0.4566
  Cl  Cl57  1  0.051000  0.525500  0.849600  1.0  -0.4561
  Cl  Cl58  1  0.474500  0.525500  0.849600  1.0  -0.4564
  Cl  Cl59  1  0.382800  0.191400  0.142700  1.0  -0.4443
  Cl  Cl60  1  0.808600  0.191400  0.142700  1.0  -0.4443
  Cl  Cl61  1  0.808600  0.617200  0.142700  1.0  -0.4436
  Cl  Cl62  1  0.617200  0.808600  0.642700  1.0  -0.4441
  Cl  Cl63  1  0.191400  0.808600  0.642700  1.0  -0.4441
  Cl  Cl64  1  0.191400  0.382800  0.642700  1.0  -0.4434
