# generated using pymatgen
data_Zn2H14(C3O)9
_symmetry_space_group_name_H-M   'P 1'
_cell_length_a   7.38000000
_cell_length_b   28.29000000
_cell_length_c   22.47000000
_cell_angle_alpha   90.00000000
_cell_angle_beta   99.13000000
_cell_angle_gamma   90.00000000
_symmetry_Int_Tables_number   1
_chemical_formula_structural   Zn2H14(C3O)9
_chemical_formula_sum   'Zn8 H56 C108 O36'
_cell_volume   4631.85647050
_cell_formula_units_Z   4
loop_
 _symmetry_equiv_pos_site_id
 _symmetry_equiv_pos_as_xyz
  1  'x, y, z'
loop_
 _atom_site_type_symbol
 _atom_site_label
 _atom_site_symmetry_multiplicity
 _atom_site_fract_x
 _atom_site_fract_y
 _atom_site_fract_z
 _atom_site_occupancy
 _atom_site_charge
  Zn  Zn1  1  0.137300  0.047170  0.174190  1.0  1.0641
  Zn  Zn2  1  0.554020  0.050870  0.244990  1.0  1.0772
  Zn  Zn3  1  0.862700  0.547170  0.325810  1.0  1.0639
  Zn  Zn4  1  0.445980  0.550870  0.255010  1.0  1.0771
  Zn  Zn5  1  0.862700  0.952830  0.825810  1.0  1.0648
  Zn  Zn6  1  0.445980  0.949130  0.755010  1.0  1.077
  Zn  Zn7  1  0.137300  0.452830  0.674190  1.0  1.0652
  Zn  Zn8  1  0.554020  0.449130  0.744990  1.0  1.0774
  H  H9  1  0.898600  0.169200  0.308500  1.0  0.0989
  H  H10  1  0.430600  0.203900  0.343500  1.0  0.1092
  H  H11  1  0.505600  0.135200  0.299200  1.0  0.0943
  H  H12  1  0.867900  0.253900  0.310400  1.0  0.1109
  H  H13  1  0.034200  0.355600  0.431800  1.0  0.114
  H  H14  1  0.343300  0.240400  0.420900  1.0  0.1146
  H  H15  1  0.580300  0.281200  0.334000  1.0  0.0928
  H  H16  1  0.307000  0.322500  0.306300  1.0  0.136
  H  H17  1  0.864400  0.401000  0.346600  1.0  0.1051
  H  H18  1  0.201000  0.356800  0.532300  1.0  0.1068
  H  H19  1  0.804900  0.319400  0.523100  1.0  0.1317
  H  H20  1  0.575300  0.289200  0.454700  1.0  0.1036
  H  H21  1  0.283800  0.437600  0.278800  1.0  0.3645
  H  H22  1  0.745700  0.392100  0.634900  1.0  0.375
  H  H23  1  0.101400  0.669200  0.191500  1.0  0.0994
  H  H24  1  0.569400  0.703900  0.156500  1.0  0.1091
  H  H25  1  0.494400  0.635200  0.200800  1.0  0.0958
  H  H26  1  0.132100  0.753900  0.189600  1.0  0.1115
  H  H27  1  0.965800  0.855600  0.068200  1.0  0.1136
  H  H28  1  0.656700  0.740400  0.079100  1.0  0.1118
  H  H29  1  0.419700  0.781200  0.166000  1.0  0.0932
  H  H30  1  0.693000  0.822500  0.193700  1.0  0.1363
  H  H31  1  0.135600  0.901000  0.153400  1.0  0.1052
  H  H32  1  0.799000  0.856800  0.967700  1.0  0.1063
  H  H33  1  0.195100  0.819400  0.976900  1.0  0.1339
  H  H34  1  0.424700  0.789200  0.045300  1.0  0.1032
  H  H35  1  0.716200  0.937600  0.221200  1.0  0.3667
  H  H36  1  0.254300  0.892100  0.865100  1.0  0.3762
  H  H37  1  0.101400  0.830800  0.691500  1.0  0.0995
  H  H38  1  0.569400  0.796100  0.656500  1.0  0.1092
  H  H39  1  0.494400  0.864800  0.700800  1.0  0.0947
  H  H40  1  0.132100  0.746100  0.689600  1.0  0.1111
  H  H41  1  0.965800  0.644400  0.568200  1.0  0.1133
  H  H42  1  0.656700  0.759600  0.579100  1.0  0.1139
  H  H43  1  0.419700  0.718800  0.666000  1.0  0.093
  H  H44  1  0.693000  0.677500  0.693700  1.0  0.1363
  H  H45  1  0.135600  0.599000  0.653400  1.0  0.1052
  H  H46  1  0.799000  0.643200  0.467700  1.0  0.1061
  H  H47  1  0.195100  0.680600  0.476900  1.0  0.1336
  H  H48  1  0.424700  0.710800  0.545300  1.0  0.1021
  H  H49  1  0.716200  0.562400  0.721200  1.0  0.3649
  H  H50  1  0.254300  0.607900  0.365100  1.0  0.3767
  H  H51  1  0.898600  0.330800  0.808500  1.0  0.0996
  H  H52  1  0.430600  0.296100  0.843500  1.0  0.1094
  H  H53  1  0.505600  0.364800  0.799200  1.0  0.0958
  H  H54  1  0.867900  0.246100  0.810400  1.0  0.1111
  H  H55  1  0.034200  0.144400  0.931800  1.0  0.1137
  H  H56  1  0.343300  0.259600  0.920900  1.0  0.1123
  H  H57  1  0.580300  0.218800  0.834000  1.0  0.0926
  H  H58  1  0.307000  0.177500  0.806300  1.0  0.1362
  H  H59  1  0.864400  0.099000  0.846600  1.0  0.1052
  H  H60  1  0.201000  0.143200  0.032300  1.0  0.107
  H  H61  1  0.804900  0.180600  0.023100  1.0  0.132
  H  H62  1  0.575300  0.210800  0.954700  1.0  0.1043
  H  H63  1  0.283800  0.062400  0.778800  1.0  0.3639
  H  H64  1  0.745700  0.107900  0.134900  1.0  0.3751
  C  C65  1  0.910400  0.087310  0.255400  1.0  0.6614
  C  C66  1  0.063400  0.120590  0.279800  1.0  -0.1295
  C  C67  1  0.021000  0.162420  0.307000  1.0  -0.0454
  C  C68  1  0.154200  0.194460  0.331900  1.0  0.0196
  C  C69  1  0.337800  0.183030  0.327800  1.0  -0.1477
  C  C70  1  0.383000  0.141600  0.301000  1.0  -0.1978
  C  C71  1  0.250900  0.109320  0.276900  1.0  0.2988
  C  C72  1  0.112000  0.239820  0.361200  1.0  -0.0077
  C  C73  1  0.953500  0.265610  0.341800  1.0  -0.0784
  C  C74  1  0.919900  0.308490  0.368100  1.0  0.053
  C  C75  1  0.053100  0.326500  0.414600  1.0  -0.076
  C  C76  1  0.214500  0.300860  0.435400  1.0  0.0473
  C  C77  1  0.237800  0.257800  0.407600  1.0  -0.129
  C  C78  1  0.752200  0.336540  0.346400  1.0  0.0418
  C  C79  1  0.583800  0.313980  0.331700  1.0  -0.1113
  C  C80  1  0.418500  0.338500  0.313400  1.0  -0.1265
  C  C81  1  0.426300  0.387400  0.306200  1.0  0.3034
  C  C82  1  0.593500  0.411420  0.317500  1.0  -0.1987
  C  C83  1  0.753000  0.385050  0.338100  1.0  -0.0401
  C  C84  1  0.608400  0.462330  0.308700  1.0  0.7416
  C  C85  1  0.360000  0.320400  0.483000  1.0  0.0442
  C  C86  1  0.322700  0.349520  0.530200  1.0  -0.033
  C  C87  1  0.457200  0.367900  0.573400  1.0  -0.211
  C  C88  1  0.638800  0.356400  0.570900  1.0  0.2693
  C  C89  1  0.683400  0.326900  0.525100  1.0  -0.2394
  C  C90  1  0.545100  0.309600  0.484100  1.0  -0.1101
  C  C91  1  0.408500  0.399210  0.621800  1.0  0.7371
  C  C92  1  0.089600  0.587310  0.244600  1.0  0.6605
  C  C93  1  0.936600  0.620590  0.220200  1.0  -0.1298
  C  C94  1  0.979000  0.662420  0.193000  1.0  -0.0456
  C  C95  1  0.845800  0.694460  0.168100  1.0  0.0204
  C  C96  1  0.662200  0.683030  0.172200  1.0  -0.1467
  C  C97  1  0.617000  0.641600  0.199000  1.0  -0.1974
  C  C98  1  0.749100  0.609320  0.223100  1.0  0.298
  C  C99  1  0.888000  0.739820  0.138800  1.0  -0.008
  C  C100  1  0.046500  0.765610  0.158200  1.0  -0.079
  C  C101  1  0.080100  0.808490  0.131900  1.0  0.0533
  C  C102  1  0.946900  0.826500  0.085400  1.0  -0.0775
  C  C103  1  0.785500  0.800860  0.064600  1.0  0.0473
  C  C104  1  0.762200  0.757800  0.092400  1.0  -0.1303
  C  C105  1  0.247800  0.836540  0.153600  1.0  0.041
  C  C106  1  0.416200  0.813980  0.168300  1.0  -0.1106
  C  C107  1  0.581500  0.838500  0.186600  1.0  -0.1252
  C  C108  1  0.573700  0.887400  0.193800  1.0  0.3021
  C  C109  1  0.406500  0.911420  0.182500  1.0  -0.1978
  C  C110  1  0.247000  0.885050  0.161900  1.0  -0.0407
  C  C111  1  0.391600  0.962330  0.191300  1.0  0.7418
  C  C112  1  0.640000  0.820400  0.017000  1.0  0.0434
  C  C113  1  0.677300  0.849520  0.969800  1.0  -0.0325
  C  C114  1  0.542800  0.867900  0.926600  1.0  -0.2121
  C  C115  1  0.361200  0.856400  0.929100  1.0  0.271
  C  C116  1  0.316600  0.826900  0.974900  1.0  -0.2373
  C  C117  1  0.454900  0.809600  0.015900  1.0  -0.1088
  C  C118  1  0.591500  0.899210  0.878200  1.0  0.738
  C  C119  1  0.089600  0.912690  0.744600  1.0  0.6599
  C  C120  1  0.936600  0.879410  0.720200  1.0  -0.1288
  C  C121  1  0.979000  0.837580  0.693000  1.0  -0.0454
  C  C122  1  0.845800  0.805540  0.668100  1.0  0.0209
  C  C123  1  0.662200  0.816970  0.672200  1.0  -0.1461
  C  C124  1  0.617000  0.858400  0.699000  1.0  -0.1969
  C  C125  1  0.749100  0.890680  0.723100  1.0  0.2982
  C  C126  1  0.888000  0.760180  0.638800  1.0  -0.0083
  C  C127  1  0.046500  0.734390  0.658200  1.0  -0.08
  C  C128  1  0.080100  0.691510  0.631900  1.0  0.0532
  C  C129  1  0.946900  0.673500  0.585400  1.0  -0.0752
  C  C130  1  0.785500  0.699140  0.564600  1.0  0.047
  C  C131  1  0.762200  0.742200  0.592400  1.0  -0.1302
  C  C132  1  0.247800  0.663460  0.653600  1.0  0.0412
  C  C133  1  0.416200  0.686020  0.668300  1.0  -0.1102
  C  C134  1  0.581500  0.661500  0.686600  1.0  -0.1247
  C  C135  1  0.573700  0.612600  0.693800  1.0  0.3016
  C  C136  1  0.406500  0.588580  0.682500  1.0  -0.1977
  C  C137  1  0.247000  0.614950  0.661900  1.0  -0.0409
  C  C138  1  0.391600  0.537670  0.691300  1.0  0.7416
  C  C139  1  0.640000  0.679600  0.517000  1.0  0.0434
  C  C140  1  0.677300  0.650480  0.469800  1.0  -0.0324
  C  C141  1  0.542800  0.632100  0.426600  1.0  -0.2122
  C  C142  1  0.361200  0.643600  0.429100  1.0  0.2713
  C  C143  1  0.316600  0.673100  0.474900  1.0  -0.2378
  C  C144  1  0.454900  0.690400  0.515900  1.0  -0.1096
  C  C145  1  0.591500  0.600790  0.378200  1.0  0.7386
  C  C146  1  0.910400  0.412690  0.755400  1.0  0.6608
  C  C147  1  0.063400  0.379410  0.779800  1.0  -0.1283
  C  C148  1  0.021000  0.337580  0.807000  1.0  -0.0456
  C  C149  1  0.154200  0.305540  0.831900  1.0  0.0199
  C  C150  1  0.337800  0.316970  0.827800  1.0  -0.1471
  C  C151  1  0.383000  0.358400  0.801000  1.0  -0.1986
  C  C152  1  0.250900  0.390680  0.776900  1.0  0.2994
  C  C153  1  0.112000  0.260180  0.861200  1.0  -0.0078
  C  C154  1  0.953500  0.234390  0.841800  1.0  -0.0791
  C  C155  1  0.919900  0.191510  0.868100  1.0  0.0527
  C  C156  1  0.053100  0.173500  0.914600  1.0  -0.0746
  C  C157  1  0.214500  0.199140  0.935400  1.0  0.0476
  C  C158  1  0.237800  0.242200  0.907600  1.0  -0.1284
  C  C159  1  0.752200  0.163460  0.846400  1.0  0.0418
  C  C160  1  0.583800  0.186020  0.831700  1.0  -0.1112
  C  C161  1  0.418500  0.161500  0.813400  1.0  -0.1265
  C  C162  1  0.426300  0.112600  0.806200  1.0  0.3034
  C  C163  1  0.593500  0.088580  0.817500  1.0  -0.1985
  C  C164  1  0.753000  0.114950  0.838100  1.0  -0.0402
  C  C165  1  0.608400  0.037670  0.808700  1.0  0.7413
  C  C166  1  0.360000  0.179600  0.983000  1.0  0.0441
  C  C167  1  0.322700  0.150480  0.030200  1.0  -0.0328
  C  C168  1  0.457200  0.132100  0.073400  1.0  -0.2111
  C  C169  1  0.638800  0.143600  0.070900  1.0  0.2694
  C  C170  1  0.683400  0.173100  0.025100  1.0  -0.2386
  C  C171  1  0.545100  0.190400  0.984100  1.0  -0.1099
  C  C172  1  0.408500  0.100790  0.121800  1.0  0.7374
  O  O173  1  0.296600  0.068720  0.252720  1.0  -0.6715
  O  O174  1  0.924600  0.057350  0.215360  1.0  -0.6114
  O  O175  1  0.761800  0.091210  0.277410  1.0  -0.6171
  O  O176  1  0.263400  0.410180  0.287700  1.0  -0.5119
  O  O177  1  0.461100  0.485610  0.290700  1.0  -0.6434
  O  O178  1  0.763700  0.481330  0.319580  1.0  -0.6506
  O  O179  1  0.238200  0.408690  0.621300  1.0  -0.6474
  O  O180  1  0.534900  0.415910  0.659900  1.0  -0.6606
  O  O181  1  0.784400  0.373900  0.611500  1.0  -0.5239
  O  O182  1  0.703400  0.568720  0.247280  1.0  -0.6719
  O  O183  1  0.075400  0.557350  0.284640  1.0  -0.6122
  O  O184  1  0.238200  0.591210  0.222590  1.0  -0.611
  O  O185  1  0.736600  0.910180  0.212300  1.0  -0.515
  O  O186  1  0.538900  0.985610  0.209300  1.0  -0.6439
  O  O187  1  0.236300  0.981330  0.180420  1.0  -0.6528
  O  O188  1  0.761800  0.908690  0.878700  1.0  -0.6472
  O  O189  1  0.465100  0.915910  0.840100  1.0  -0.6603
  O  O190  1  0.215600  0.873900  0.888500  1.0  -0.5253
  O  O191  1  0.703400  0.931280  0.747280  1.0  -0.6728
  O  O192  1  0.075400  0.942650  0.784640  1.0  -0.6123
  O  O193  1  0.238200  0.908790  0.722590  1.0  -0.6178
  O  O194  1  0.736600  0.589820  0.712300  1.0  -0.5141
  O  O195  1  0.538900  0.514390  0.709300  1.0  -0.6432
  O  O196  1  0.236300  0.518670  0.680420  1.0  -0.6516
  O  O197  1  0.761800  0.591310  0.378700  1.0  -0.6468
  O  O198  1  0.465100  0.584090  0.340100  1.0  -0.6593
  O  O199  1  0.215600  0.626100  0.388500  1.0  -0.5263
  O  O200  1  0.296600  0.431280  0.752720  1.0  -0.6724
  O  O201  1  0.924600  0.442650  0.715360  1.0  -0.6113
  O  O202  1  0.761800  0.408790  0.777410  1.0  -0.6108
  O  O203  1  0.263400  0.089820  0.787700  1.0  -0.5141
  O  O204  1  0.461100  0.014390  0.790700  1.0  -0.6426
  O  O205  1  0.763700  0.018670  0.819580  1.0  -0.6521
  O  O206  1  0.238200  0.091310  0.121300  1.0  -0.6472
  O  O207  1  0.534900  0.084090  0.159900  1.0  -0.6597
  O  O208  1  0.784400  0.126100  0.111500  1.0  -0.5248
