# generated using pymatgen
data_In2H44C77(N2O3)4
_symmetry_space_group_name_H-M   'P 1'
_cell_length_a   21.03800000
_cell_length_b   12.51120000
_cell_length_c   53.18400000
_cell_angle_alpha   90.00000000
_cell_angle_beta   94.50900000
_cell_angle_gamma   90.00000000
_symmetry_Int_Tables_number   1
_chemical_formula_structural   In2H44C77(N2O3)4
_chemical_formula_sum   'In8 H176 C308 N32 O48'
_cell_volume   13955.26822327
_cell_formula_units_Z   4
loop_
 _symmetry_equiv_pos_site_id
 _symmetry_equiv_pos_as_xyz
  1  'x, y, z'
loop_
 _atom_site_type_symbol
 _atom_site_label
 _atom_site_symmetry_multiplicity
 _atom_site_fract_x
 _atom_site_fract_y
 _atom_site_fract_z
 _atom_site_occupancy
 _atom_site_charge
  In  In1  1  0.870530  0.373250  0.802280  1.0  1.461
  In  In2  1  0.388810  0.686700  0.553660  1.0  1.4317
  In  In3  1  0.870530  0.126750  0.302280  1.0  1.4633
  In  In4  1  0.388810  0.813300  0.053660  1.0  1.432
  In  In5  1  0.129470  0.873250  0.697720  1.0  1.4594
  In  In6  1  0.611190  0.186700  0.946340  1.0  1.4322
  In  In7  1  0.129470  0.626750  0.197720  1.0  1.4603
  In  In8  1  0.611190  0.313300  0.446340  1.0  1.4325
  H  H9  1  0.646800  0.029100  0.684100  1.0  0.2925
  H  H10  1  0.653500  0.931900  0.425000  1.0  0.2474
  H  H11  1  0.154700  0.567300  0.700800  1.0  0.3172
  H  H12  1  0.125900  0.369300  0.422300  1.0  0.2769
  H  H13  1  0.245800  0.209800  0.469900  1.0  0.1267
  H  H14  1  0.459900  0.819900  0.643600  1.0  0.131
  H  H15  1  0.023200  0.287000  0.745700  1.0  0.0984
  H  H16  1  0.585000  0.937600  0.564600  1.0  0.1385
  H  H17  1  0.236500  0.693600  0.635300  1.0  0.1026
  H  H18  1  0.585100  0.871400  0.520600  1.0  0.1126
  H  H19  1  0.558900  0.593800  0.479400  1.0  0.107
  H  H20  1  0.719200  0.132200  0.361900  1.0  0.0929
  H  H21  1  0.080100  0.633600  0.726700  1.0  0.1189
  H  H22  1  0.317600  0.412000  0.630000  1.0  0.0956
  H  H23  1  0.264500  0.350000  0.662800  1.0  0.0973
  H  H24  1  0.002200  0.599800  0.754100  1.0  0.0983
  H  H25  1  0.181900  0.634600  0.668800  1.0  0.1175
  H  H26  1  0.761000  0.083500  0.755700  1.0  0.0945
  H  H27  1  0.348800  0.497500  0.466900  1.0  0.1096
  H  H28  1  0.213000  0.453400  0.589800  1.0  0.1088
  H  H29  1  0.107100  0.317100  0.720200  1.0  0.1249
  H  H30  1  0.438700  0.605500  0.461600  1.0  0.1089
  H  H31  1  0.775800  0.839700  0.347700  1.0  0.085
  H  H32  1  0.703000  0.012700  0.720800  1.0  0.1158
  H  H33  1  0.719300  0.771000  0.380000  1.0  0.1174
  H  H34  1  0.201600  0.417800  0.544900  1.0  0.1189
  H  H35  1  0.662500  0.071800  0.394300  1.0  0.1226
  H  H36  1  0.722400  0.376600  0.729100  1.0  0.0999
  H  H37  1  0.609100  0.621800  0.443400  1.0  0.0966
  H  H38  1  0.565200  0.928800  0.443700  1.0  0.0925
  H  H39  1  0.022300  0.084900  0.371000  1.0  0.0949
  H  H40  1  0.511300  0.904700  0.479900  1.0  0.1123
  H  H41  1  0.596500  0.826100  0.621200  1.0  0.098
  H  H42  1  0.663900  0.304800  0.694500  1.0  0.1194
  H  H43  1  0.372500  0.693900  0.650300  1.0  0.1186
  H  H44  1  0.651200  0.942000  0.648800  1.0  0.124
  H  H45  1  0.126500  0.462800  0.464000  1.0  0.1025
  H  H46  1  0.467400  0.047100  0.603000  1.0  0.083
  H  H47  1  0.968200  0.386700  0.361200  1.0  0.126
  H  H48  1  0.081300  0.127500  0.408100  1.0  0.1229
  H  H49  1  0.513900  0.162400  0.632800  1.0  0.1324
  H  H50  1  0.297100  0.303200  0.504100  1.0  0.0762
  H  H51  1  0.189000  0.551400  0.492800  1.0  0.1131
  H  H52  1  0.036500  0.429800  0.397000  1.0  0.1035
  H  H53  1  0.646800  0.470900  0.184100  1.0  0.2903
  H  H54  1  0.653500  0.568100  0.925000  1.0  0.2478
  H  H55  1  0.154700  0.932700  0.200800  1.0  0.3174
  H  H56  1  0.125900  0.130700  0.922300  1.0  0.2763
  H  H57  1  0.245800  0.290200  0.969900  1.0  0.1261
  H  H58  1  0.459900  0.680100  0.143600  1.0  0.1311
  H  H59  1  0.023200  0.213000  0.245700  1.0  0.0984
  H  H60  1  0.585000  0.562400  0.064600  1.0  0.1384
  H  H61  1  0.236500  0.806400  0.135300  1.0  0.1023
  H  H62  1  0.585100  0.628600  0.020600  1.0  0.1122
  H  H63  1  0.558900  0.906200  0.979400  1.0  0.107
  H  H64  1  0.719200  0.367800  0.861900  1.0  0.0929
  H  H65  1  0.080100  0.866400  0.226700  1.0  0.1192
  H  H66  1  0.317600  0.088000  0.130000  1.0  0.0958
  H  H67  1  0.264500  0.150000  0.162800  1.0  0.0975
  H  H68  1  0.002200  0.900200  0.254100  1.0  0.0981
  H  H69  1  0.181900  0.865400  0.168800  1.0  0.1172
  H  H70  1  0.761000  0.416500  0.255700  1.0  0.0948
  H  H71  1  0.348800  0.002500  0.966900  1.0  0.1099
  H  H72  1  0.213000  0.046600  0.089800  1.0  0.1086
  H  H73  1  0.107100  0.182900  0.220200  1.0  0.125
  H  H74  1  0.438700  0.894500  0.961600  1.0  0.1089
  H  H75  1  0.775800  0.660300  0.847700  1.0  0.0849
  H  H76  1  0.703000  0.487300  0.220800  1.0  0.1158
  H  H77  1  0.719300  0.729000  0.880000  1.0  0.1167
  H  H78  1  0.201600  0.082200  0.044900  1.0  0.119
  H  H79  1  0.662500  0.428200  0.894300  1.0  0.1226
  H  H80  1  0.722400  0.123400  0.229100  1.0  0.1007
  H  H81  1  0.609100  0.878200  0.943400  1.0  0.0968
  H  H82  1  0.565200  0.571200  0.943700  1.0  0.093
  H  H83  1  0.022300  0.415100  0.871000  1.0  0.0949
  H  H84  1  0.511300  0.595300  0.979900  1.0  0.1123
  H  H85  1  0.596500  0.673900  0.121200  1.0  0.0966
  H  H86  1  0.663900  0.195200  0.194500  1.0  0.1201
  H  H87  1  0.372500  0.806100  0.150300  1.0  0.1184
  H  H88  1  0.651200  0.558000  0.148800  1.0  0.1244
  H  H89  1  0.126500  0.037200  0.964000  1.0  0.1023
  H  H90  1  0.467400  0.452900  0.103000  1.0  0.0824
  H  H91  1  0.968200  0.113300  0.861200  1.0  0.1256
  H  H92  1  0.081300  0.372500  0.908100  1.0  0.123
  H  H93  1  0.513900  0.337600  0.132800  1.0  0.1321
  H  H94  1  0.297100  0.196800  0.004100  1.0  0.0755
  H  H95  1  0.189000  0.948600  0.992800  1.0  0.1141
  H  H96  1  0.036500  0.070200  0.897000  1.0  0.1039
  H  H97  1  0.353200  0.529100  0.815900  1.0  0.2916
  H  H98  1  0.346500  0.431900  0.075000  1.0  0.2475
  H  H99  1  0.845300  0.067300  0.799200  1.0  0.3169
  H  H100  1  0.874100  0.869300  0.077700  1.0  0.277
  H  H101  1  0.754200  0.709800  0.030100  1.0  0.1265
  H  H102  1  0.540100  0.319900  0.856400  1.0  0.1312
  H  H103  1  0.976800  0.787000  0.754300  1.0  0.0993
  H  H104  1  0.415000  0.437600  0.935400  1.0  0.139
  H  H105  1  0.763500  0.193600  0.864700  1.0  0.1026
  H  H106  1  0.414900  0.371400  0.979400  1.0  0.1123
  H  H107  1  0.441100  0.093800  0.020600  1.0  0.1069
  H  H108  1  0.280800  0.632200  0.138100  1.0  0.0933
  H  H109  1  0.919900  0.133600  0.773300  1.0  0.1189
  H  H110  1  0.682400  0.912000  0.870000  1.0  0.0952
  H  H111  1  0.735500  0.850000  0.837200  1.0  0.0974
  H  H112  1  0.997800  0.099800  0.745900  1.0  0.098
  H  H113  1  0.818100  0.134600  0.831200  1.0  0.1175
  H  H114  1  0.239000  0.583500  0.744300  1.0  0.0953
  H  H115  1  0.651200  0.997500  0.033100  1.0  0.11
  H  H116  1  0.787000  0.953400  0.910200  1.0  0.1082
  H  H117  1  0.892900  0.817100  0.779800  1.0  0.1242
  H  H118  1  0.561300  0.105500  0.038400  1.0  0.1094
  H  H119  1  0.224200  0.339700  0.152300  1.0  0.0853
  H  H120  1  0.297000  0.512700  0.779200  1.0  0.1157
  H  H121  1  0.280700  0.271000  0.120000  1.0  0.1173
  H  H122  1  0.798400  0.917800  0.955100  1.0  0.1186
  H  H123  1  0.337500  0.571800  0.105700  1.0  0.1232
  H  H124  1  0.277600  0.876600  0.770900  1.0  0.1003
  H  H125  1  0.390900  0.121800  0.056600  1.0  0.0968
  H  H126  1  0.434800  0.428800  0.056300  1.0  0.0925
  H  H127  1  0.977700  0.584900  0.129000  1.0  0.0943
  H  H128  1  0.488700  0.404700  0.020100  1.0  0.1126
  H  H129  1  0.403500  0.326100  0.878800  1.0  0.0975
  H  H130  1  0.336100  0.804800  0.805500  1.0  0.1209
  H  H131  1  0.627500  0.193900  0.849700  1.0  0.119
  H  H132  1  0.348800  0.442000  0.851200  1.0  0.1241
  H  H133  1  0.873500  0.962800  0.036000  1.0  0.1025
  H  H134  1  0.532600  0.547100  0.897000  1.0  0.0826
  H  H135  1  0.031800  0.886700  0.138800  1.0  0.1256
  H  H136  1  0.918700  0.627500  0.091900  1.0  0.1227
  H  H137  1  0.486100  0.662400  0.867200  1.0  0.1321
  H  H138  1  0.702900  0.803200  0.995900  1.0  0.0762
  H  H139  1  0.811000  0.051400  0.007200  1.0  0.1128
  H  H140  1  0.963500  0.929800  0.103000  1.0  0.1037
  H  H141  1  0.353200  0.970900  0.315900  1.0  0.2901
  H  H142  1  0.346500  0.068100  0.575000  1.0  0.2487
  H  H143  1  0.845300  0.432700  0.299200  1.0  0.3171
  H  H144  1  0.874100  0.630700  0.577700  1.0  0.2755
  H  H145  1  0.754200  0.790200  0.530100  1.0  0.126
  H  H146  1  0.540100  0.180100  0.356400  1.0  0.1312
  H  H147  1  0.976800  0.713000  0.254300  1.0  0.099
  H  H148  1  0.415000  0.062400  0.435400  1.0  0.1386
  H  H149  1  0.763500  0.306400  0.364700  1.0  0.1025
  H  H150  1  0.414900  0.128600  0.479400  1.0  0.1123
  H  H151  1  0.441100  0.406200  0.520600  1.0  0.1069
  H  H152  1  0.280800  0.867800  0.638100  1.0  0.0932
  H  H153  1  0.919900  0.366400  0.273300  1.0  0.1192
  H  H154  1  0.682400  0.588000  0.370000  1.0  0.0954
  H  H155  1  0.735500  0.650000  0.337200  1.0  0.0979
  H  H156  1  0.997800  0.400200  0.245900  1.0  0.0982
  H  H157  1  0.818100  0.365400  0.331200  1.0  0.1173
  H  H158  1  0.239000  0.916500  0.244300  1.0  0.0959
  H  H159  1  0.651200  0.502500  0.533100  1.0  0.1097
  H  H160  1  0.787000  0.546600  0.410200  1.0  0.1085
  H  H161  1  0.892900  0.682900  0.279800  1.0  0.1245
  H  H162  1  0.561300  0.394500  0.538400  1.0  0.1094
  H  H163  1  0.224200  0.160300  0.652300  1.0  0.0852
  H  H164  1  0.297000  0.987300  0.279200  1.0  0.1158
  H  H165  1  0.280700  0.229000  0.620000  1.0  0.1169
  H  H166  1  0.798400  0.582200  0.455100  1.0  0.1187
  H  H167  1  0.337500  0.928200  0.605700  1.0  0.1232
  H  H168  1  0.277600  0.623400  0.270900  1.0  0.1013
  H  H169  1  0.390900  0.378200  0.556600  1.0  0.0968
  H  H170  1  0.434800  0.071200  0.556300  1.0  0.0927
  H  H171  1  0.977700  0.915100  0.629000  1.0  0.0944
  H  H172  1  0.488700  0.095300  0.520100  1.0  0.1125
  H  H173  1  0.403500  0.173900  0.378800  1.0  0.0974
  H  H174  1  0.336100  0.695200  0.305500  1.0  0.121
  H  H175  1  0.627500  0.306100  0.349700  1.0  0.119
  H  H176  1  0.348800  0.058000  0.351200  1.0  0.1244
  H  H177  1  0.873500  0.537200  0.536000  1.0  0.1022
  H  H178  1  0.532600  0.952900  0.397000  1.0  0.0825
  H  H179  1  0.031800  0.613300  0.638800  1.0  0.1256
  H  H180  1  0.918700  0.872500  0.591900  1.0  0.1227
  H  H181  1  0.486100  0.837600  0.367200  1.0  0.1323
  H  H182  1  0.702900  0.696800  0.495900  1.0  0.0764
  H  H183  1  0.811000  0.448600  0.507200  1.0  0.1136
  H  H184  1  0.963500  0.570200  0.603000  1.0  0.1039
  C  C185  1  0.954100  0.421400  0.771740  1.0  0.6488
  C  C186  1  0.599000  0.783000  0.442000  1.0  -0.0047
  C  C187  1  0.440400  0.787000  0.604230  1.0  0.1849
  C  C188  1  0.686000  0.913500  0.391200  1.0  0.2274
  C  C189  1  0.789800  0.285500  0.766590  1.0  0.5821
  C  C190  1  0.232000  0.276000  0.475100  1.0  -0.0985
  C  C191  1  0.792100  0.038100  0.331590  1.0  0.6778
  C  C192  1  0.292300  0.550300  0.583200  1.0  0.1336
  C  C193  1  0.438800  0.651600  0.500300  1.0  0.1227
  C  C194  1  0.097000  0.478600  0.719300  1.0  0.1924
  C  C195  1  0.486200  0.725900  0.504800  1.0  -0.0498
  C  C196  1  0.503100  0.836000  0.567110  1.0  0.2018
  C  C197  1  0.628800  0.787500  0.416400  1.0  0.5728
  C  C198  1  0.946800  0.197500  0.340900  1.0  0.6454
  C  C199  1  0.435300  0.782500  0.631230  1.0  -0.1629
  C  C200  1  0.350000  0.554700  0.505900  1.0  0.0824
  C  C201  1  0.036000  0.356500  0.742500  1.0  -0.0407
  C  C202  1  0.281300  0.557800  0.628700  1.0  0.0769
  C  C203  1  0.556600  0.889400  0.556600  1.0  -0.1649
  C  C204  1  0.241600  0.623200  0.640700  1.0  -0.1297
  C  C205  1  0.556000  0.853300  0.532200  1.0  -0.1607
  C  C206  1  0.559300  0.661500  0.472200  1.0  -0.1355
  C  C207  1  0.719500  0.059600  0.365600  1.0  -0.0183
  C  C208  1  0.068800  0.563700  0.730400  1.0  -0.2153
  C  C209  1  0.289500  0.457200  0.637500  1.0  -0.1482
  C  C210  1  0.257400  0.419800  0.657200  1.0  -0.1025
  C  C211  1  0.023000  0.542600  0.747200  1.0  -0.0204
  C  C212  1  0.284500  0.512600  0.542000  1.0  0.056
  C  C213  1  0.527200  0.921900  0.609420  1.0  0.1042
  C  C214  1  0.299100  0.503600  0.516200  1.0  -0.0668
  C  C215  1  0.208400  0.588200  0.660800  1.0  -0.174
  C  C216  1  0.742700  0.128900  0.743300  1.0  -0.0703
  C  C217  1  0.215500  0.482700  0.668800  1.0  -0.0644
  C  C218  1  0.369300  0.540800  0.479200  1.0  -0.1332
  C  C219  1  0.178300  0.435000  0.689100  1.0  0.6209
  C  C220  1  0.239200  0.480100  0.578000  1.0  -0.1331
  C  C221  1  0.084300  0.374000  0.726200  1.0  -0.1768
  C  C222  1  0.418700  0.598500  0.476500  1.0  -0.0991
  C  C223  1  0.007200  0.441500  0.753900  1.0  -0.1221
  C  C224  1  0.986900  0.227500  0.363400  1.0  -0.1433
  C  C225  1  0.750700  0.239500  0.745800  1.0  -0.0898
  C  C226  1  0.680100  0.151300  0.704000  1.0  0.2788
  C  C227  1  0.753000  0.886800  0.357100  1.0  -0.0284
  C  C228  1  0.707700  0.086400  0.722300  1.0  -0.1976
  C  C229  1  0.754300  0.991000  0.351300  1.0  -0.1327
  C  C230  1  0.591300  0.063000  0.643500  1.0  -0.0435
  C  C231  1  0.719200  0.844100  0.376800  1.0  -0.1999
  C  C232  1  0.233300  0.459300  0.553300  1.0  -0.1591
  C  C233  1  0.685500  0.024000  0.385200  1.0  -0.1668
  C  C234  1  0.254200  0.440400  0.499100  1.0  0.1691
  C  C235  1  0.719600  0.302700  0.727500  1.0  -0.0536
  C  C236  1  0.591600  0.679300  0.451500  1.0  -0.0669
  C  C237  1  0.619200  0.144600  0.661900  1.0  0.4143
  C  C238  1  0.565600  0.862100  0.451400  1.0  -0.1189
  C  C239  1  0.022200  0.155100  0.376700  1.0  -0.028
  C  C240  1  0.531000  0.847100  0.472650  1.0  -0.1203
  C  C241  1  0.580500  0.894700  0.623000  1.0  -0.1364
  C  C242  1  0.526700  0.746100  0.482550  1.0  0.0682
  C  C243  1  0.136600  0.263000  0.444600  1.0  0.5581
  C  C244  1  0.502600  0.783000  0.527700  1.0  0.1763
  C  C245  1  0.489100  0.843700  0.592600  1.0  -0.0582
  C  C246  1  0.684300  0.260000  0.706600  1.0  -0.1885
  C  C247  1  0.387400  0.712300  0.634840  1.0  -0.159
  C  C248  1  0.613600  0.964300  0.640000  1.0  -0.1574
  C  C249  1  0.314000  0.596800  0.606370  1.0  -0.0722
  C  C250  1  0.162600  0.429000  0.471400  1.0  -0.1212
  C  C251  1  0.364300  0.672600  0.610970  1.0  0.1457
  C  C252  1  0.503700  0.025500  0.612800  1.0  -0.113
  C  C253  1  0.990700  0.333900  0.370400  1.0  -0.1368
  C  C254  1  0.058900  0.180400  0.398900  1.0  -0.2031
  C  C255  1  0.532000  0.096100  0.629900  1.0  -0.1102
  C  C256  1  0.061300  0.285200  0.407000  1.0  0.2284
  C  C257  1  0.265000  0.337300  0.494100  1.0  -0.1109
  C  C258  1  0.174300  0.327600  0.464500  1.0  -0.0725
  C  C259  1  0.200500  0.483000  0.488300  1.0  -0.1676
  C  C260  1  0.031100  0.358400  0.392500  1.0  -0.128
  C  C261  1  0.848700  0.379200  0.795200  1.0  0.1556
  C  C262  1  0.954100  0.078600  0.271740  1.0  0.6489
  C  C263  1  0.599000  0.717000  0.942000  1.0  -0.0047
  C  C264  1  0.440400  0.713000  0.104230  1.0  0.1848
  C  C265  1  0.686000  0.586500  0.891200  1.0  0.2276
  C  C266  1  0.789800  0.214500  0.266590  1.0  0.5828
  C  C267  1  0.232000  0.224000  0.975100  1.0  -0.0985
  C  C268  1  0.792100  0.461900  0.831590  1.0  0.6782
  C  C269  1  0.292300  0.949700  0.083200  1.0  0.1329
  C  C270  1  0.438800  0.848400  0.000300  1.0  0.1231
  C  C271  1  0.097000  0.021400  0.219300  1.0  0.1925
  C  C272  1  0.486200  0.774100  0.004800  1.0  -0.0492
  C  C273  1  0.503100  0.664000  0.067110  1.0  0.201
  C  C274  1  0.628800  0.712500  0.916400  1.0  0.5728
  C  C275  1  0.946800  0.302500  0.840900  1.0  0.6457
  C  C276  1  0.435300  0.717500  0.131230  1.0  -0.1631
  C  C277  1  0.350000  0.945300  0.005900  1.0  0.0804
  C  C278  1  0.036000  0.143500  0.242500  1.0  -0.0408
  C  C279  1  0.281300  0.942200  0.128700  1.0  0.077
  C  C280  1  0.556600  0.610600  0.056600  1.0  -0.1648
  C  C281  1  0.241600  0.876800  0.140700  1.0  -0.1287
  C  C282  1  0.556000  0.646700  0.032200  1.0  -0.1604
  C  C283  1  0.559300  0.838500  0.972200  1.0  -0.1364
  C  C284  1  0.719500  0.440400  0.865600  1.0  -0.0162
  C  C285  1  0.068800  0.936300  0.230400  1.0  -0.2155
  C  C286  1  0.289500  0.042800  0.137500  1.0  -0.1489
  C  C287  1  0.257400  0.080200  0.157200  1.0  -0.1033
  C  C288  1  0.023000  0.957400  0.247200  1.0  -0.0205
  C  C289  1  0.284500  0.987400  0.042000  1.0  0.0566
  C  C290  1  0.527200  0.578100  0.109420  1.0  0.1038
  C  C291  1  0.299100  0.996400  0.016200  1.0  -0.0694
  C  C292  1  0.208400  0.911800  0.160800  1.0  -0.174
  C  C293  1  0.742700  0.371100  0.243300  1.0  -0.0723
  C  C294  1  0.215500  0.017300  0.168800  1.0  -0.0644
  C  C295  1  0.369300  0.959200  0.979200  1.0  -0.1329
  C  C296  1  0.178300  0.065000  0.189100  1.0  0.6189
  C  C297  1  0.239200  0.019900  0.078000  1.0  -0.133
  C  C298  1  0.084300  0.126000  0.226200  1.0  -0.1767
  C  C299  1  0.418700  0.901500  0.976500  1.0  -0.0992
  C  C300  1  0.007200  0.058500  0.253900  1.0  -0.1222
  C  C301  1  0.986900  0.272500  0.863400  1.0  -0.1431
  C  C302  1  0.750700  0.260500  0.245800  1.0  -0.0912
  C  C303  1  0.680100  0.348700  0.204000  1.0  0.2788
  C  C304  1  0.753000  0.613200  0.857100  1.0  -0.0283
  C  C305  1  0.707700  0.413600  0.222300  1.0  -0.1976
  C  C306  1  0.754300  0.509000  0.851300  1.0  -0.1325
  C  C307  1  0.591300  0.437000  0.143500  1.0  -0.0436
  C  C308  1  0.719200  0.655900  0.876800  1.0  -0.2009
  C  C309  1  0.233300  0.040700  0.053300  1.0  -0.1589
  C  C310  1  0.685500  0.476000  0.885200  1.0  -0.1664
  C  C311  1  0.254200  0.059600  0.999100  1.0  0.1688
  C  C312  1  0.719600  0.197300  0.227500  1.0  -0.0546
  C  C313  1  0.591600  0.820700  0.951500  1.0  -0.0671
  C  C314  1  0.619200  0.355400  0.161900  1.0  0.4155
  C  C315  1  0.565600  0.637900  0.951400  1.0  -0.1183
  C  C316  1  0.022200  0.344900  0.876700  1.0  -0.0272
  C  C317  1  0.531000  0.652900  0.972650  1.0  -0.1196
  C  C318  1  0.580500  0.605300  0.123000  1.0  -0.1362
  C  C319  1  0.526700  0.753900  0.982550  1.0  0.0682
  C  C320  1  0.136600  0.237000  0.944600  1.0  0.5566
  C  C321  1  0.502600  0.717000  0.027700  1.0  0.1763
  C  C322  1  0.489100  0.656300  0.092600  1.0  -0.056
  C  C323  1  0.684300  0.240000  0.206600  1.0  -0.1875
  C  C324  1  0.387400  0.787700  0.134840  1.0  -0.1595
  C  C325  1  0.613600  0.535700  0.140000  1.0  -0.1579
  C  C326  1  0.314000  0.903200  0.106370  1.0  -0.072
  C  C327  1  0.162600  0.071000  0.971400  1.0  -0.1209
  C  C328  1  0.364300  0.827400  0.110970  1.0  0.1466
  C  C329  1  0.503700  0.474500  0.112800  1.0  -0.1121
  C  C330  1  0.990700  0.166100  0.870400  1.0  -0.1362
  C  C331  1  0.058900  0.319600  0.898900  1.0  -0.2023
  C  C332  1  0.532000  0.403900  0.129900  1.0  -0.1107
  C  C333  1  0.061300  0.214800  0.907000  1.0  0.2281
  C  C334  1  0.265000  0.162700  0.994100  1.0  -0.1119
  C  C335  1  0.174300  0.172400  0.964500  1.0  -0.0722
  C  C336  1  0.200500  0.017000  0.988300  1.0  -0.1701
  C  C337  1  0.031100  0.141600  0.892500  1.0  -0.1278
  C  C338  1  0.848700  0.120800  0.295200  1.0  0.1543
  C  C339  1  0.045900  0.921400  0.728260  1.0  0.6507
  C  C340  1  0.401000  0.283000  0.058000  1.0  -0.0052
  C  C341  1  0.559600  0.287000  0.895770  1.0  0.1826
  C  C342  1  0.314000  0.413500  0.108800  1.0  0.2275
  C  C343  1  0.210200  0.785500  0.733410  1.0  0.5813
  C  C344  1  0.768000  0.776000  0.024900  1.0  -0.0981
  C  C345  1  0.207900  0.538100  0.168410  1.0  0.6776
  C  C346  1  0.707700  0.050300  0.916800  1.0  0.1323
  C  C347  1  0.561200  0.151600  0.999700  1.0  0.1245
  C  C348  1  0.903000  0.978600  0.780700  1.0  0.1928
  C  C349  1  0.513800  0.225900  0.995200  1.0  -0.0493
  C  C350  1  0.496900  0.336000  0.932890  1.0  0.2008
  C  C351  1  0.371200  0.287500  0.083600  1.0  0.5744
  C  C352  1  0.053200  0.697500  0.159100  1.0  0.6462
  C  C353  1  0.564700  0.282500  0.868770  1.0  -0.1628
  C  C354  1  0.650000  0.054700  0.994100  1.0  0.0835
  C  C355  1  0.964000  0.856500  0.757500  1.0  -0.0396
  C  C356  1  0.718700  0.057800  0.871300  1.0  0.0771
  C  C357  1  0.443400  0.389400  0.943400  1.0  -0.1643
  C  C358  1  0.758400  0.123200  0.859300  1.0  -0.1304
  C  C359  1  0.444000  0.353300  0.967800  1.0  -0.1632
  C  C360  1  0.440700  0.161500  0.027800  1.0  -0.1357
  C  C361  1  0.280500  0.559600  0.134400  1.0  -0.0175
  C  C362  1  0.931200  0.063700  0.769600  1.0  -0.2166
  C  C363  1  0.710500  0.957200  0.862500  1.0  -0.1493
  C  C364  1  0.742600  0.919800  0.842800  1.0  -0.1023
  C  C365  1  0.977000  0.042600  0.752800  1.0  -0.0208
  C  C366  1  0.715500  0.012600  0.958000  1.0  0.0574
  C  C367  1  0.472800  0.421900  0.890580  1.0  0.1036
  C  C368  1  0.700900  0.003600  0.983800  1.0  -0.0677
  C  C369  1  0.791600  0.088200  0.839200  1.0  -0.1745
  C  C370  1  0.257300  0.628900  0.756700  1.0  -0.0703
  C  C371  1  0.784500  0.982700  0.831200  1.0  -0.0641
  C  C372  1  0.630700  0.040800  0.020800  1.0  -0.1358
  C  C373  1  0.821700  0.935000  0.810900  1.0  0.6207
  C  C374  1  0.760800  0.980100  0.922000  1.0  -0.1329
  C  C375  1  0.915700  0.874000  0.773800  1.0  -0.1775
  C  C376  1  0.581300  0.098500  0.023500  1.0  -0.1011
  C  C377  1  0.992800  0.941500  0.746100  1.0  -0.1212
  C  C378  1  0.013100  0.727500  0.136600  1.0  -0.1417
  C  C379  1  0.249300  0.739500  0.754200  1.0  -0.0894
  C  C380  1  0.319900  0.651300  0.796000  1.0  0.2779
  C  C381  1  0.247000  0.386800  0.142900  1.0  -0.0267
  C  C382  1  0.292300  0.586400  0.777700  1.0  -0.199
  C  C383  1  0.245700  0.491000  0.148700  1.0  -0.1354
  C  C384  1  0.408700  0.563000  0.856500  1.0  -0.0432
  C  C385  1  0.280800  0.344100  0.123200  1.0  -0.1997
  C  C386  1  0.766700  0.959300  0.946700  1.0  -0.1595
  C  C387  1  0.314500  0.524000  0.114800  1.0  -0.1682
  C  C388  1  0.745800  0.940400  0.000900  1.0  0.1691
  C  C389  1  0.280400  0.802700  0.772500  1.0  -0.0535
  C  C390  1  0.408400  0.179300  0.048500  1.0  -0.0675
  C  C391  1  0.380800  0.644600  0.838100  1.0  0.4142
  C  C392  1  0.434400  0.362100  0.048600  1.0  -0.119
  C  C393  1  0.977800  0.655100  0.123300  1.0  -0.027
  C  C394  1  0.469000  0.347100  0.027350  1.0  -0.1206
  C  C395  1  0.419500  0.394700  0.877000  1.0  -0.1378
  C  C396  1  0.473300  0.246100  0.017450  1.0  0.0689
  C  C397  1  0.863400  0.763000  0.055400  1.0  0.5584
  C  C398  1  0.497400  0.283000  0.972300  1.0  0.1772
  C  C399  1  0.510900  0.343700  0.907400  1.0  -0.0598
  C  C400  1  0.315700  0.760000  0.793400  1.0  -0.1879
  C  C401  1  0.612600  0.212300  0.865160  1.0  -0.1592
  C  C402  1  0.386400  0.464300  0.860000  1.0  -0.1586
  C  C403  1  0.686000  0.096800  0.893630  1.0  -0.0723
  C  C404  1  0.837400  0.929000  0.028600  1.0  -0.1195
  C  C405  1  0.635700  0.172600  0.889030  1.0  0.1443
  C  C406  1  0.496300  0.525500  0.887200  1.0  -0.115
  C  C407  1  0.009300  0.833900  0.129600  1.0  -0.1355
  C  C408  1  0.941100  0.680400  0.101100  1.0  -0.2018
  C  C409  1  0.468000  0.596100  0.870100  1.0  -0.1103
  C  C410  1  0.938700  0.785200  0.093000  1.0  0.2279
  C  C411  1  0.735000  0.837300  0.005900  1.0  -0.1104
  C  C412  1  0.825700  0.827600  0.035500  1.0  -0.0712
  C  C413  1  0.799500  0.983000  0.011700  1.0  -0.1676
  C  C414  1  0.968900  0.858400  0.107500  1.0  -0.1292
  C  C415  1  0.151300  0.879200  0.704800  1.0  0.1508
  C  C416  1  0.045900  0.578600  0.228260  1.0  0.6504
  C  C417  1  0.401000  0.217000  0.558000  1.0  -0.0052
  C  C418  1  0.559600  0.213000  0.395770  1.0  0.183
  C  C419  1  0.314000  0.086500  0.608800  1.0  0.2278
  C  C420  1  0.210200  0.714500  0.233410  1.0  0.5818
  C  C421  1  0.768000  0.724000  0.524900  1.0  -0.0987
  C  C422  1  0.207900  0.961900  0.668410  1.0  0.678
  C  C423  1  0.707700  0.449700  0.416800  1.0  0.1318
  C  C424  1  0.561200  0.348400  0.499700  1.0  0.1246
  C  C425  1  0.903000  0.521400  0.280700  1.0  0.1929
  C  C426  1  0.513800  0.274100  0.495200  1.0  -0.049
  C  C427  1  0.496900  0.164000  0.432890  1.0  0.2
  C  C428  1  0.371200  0.212500  0.583600  1.0  0.5726
  C  C429  1  0.053200  0.802500  0.659100  1.0  0.6465
  C  C430  1  0.564700  0.217500  0.368770  1.0  -0.1625
  C  C431  1  0.650000  0.445300  0.494100  1.0  0.081
  C  C432  1  0.964000  0.643500  0.257500  1.0  -0.04
  C  C433  1  0.718700  0.442200  0.371300  1.0  0.077
  C  C434  1  0.443400  0.110600  0.443400  1.0  -0.1645
  C  C435  1  0.758400  0.376800  0.359300  1.0  -0.1286
  C  C436  1  0.444000  0.146700  0.467800  1.0  -0.1628
  C  C437  1  0.440700  0.338500  0.527800  1.0  -0.1361
  C  C438  1  0.280500  0.940400  0.634400  1.0  -0.0154
  C  C439  1  0.931200  0.436300  0.269600  1.0  -0.2167
  C  C440  1  0.710500  0.542800  0.362500  1.0  -0.149
  C  C441  1  0.742600  0.580200  0.342800  1.0  -0.1024
  C  C442  1  0.977000  0.457400  0.252800  1.0  -0.0207
  C  C443  1  0.715500  0.487400  0.458000  1.0  0.058
  C  C444  1  0.472800  0.078100  0.390580  1.0  0.1033
  C  C445  1  0.700900  0.496400  0.483800  1.0  -0.07
  C  C446  1  0.791600  0.411800  0.339200  1.0  -0.1747
  C  C447  1  0.257300  0.871100  0.256700  1.0  -0.0708
  C  C448  1  0.784500  0.517300  0.331200  1.0  -0.0642
  C  C449  1  0.630700  0.459200  0.520800  1.0  -0.1355
  C  C450  1  0.821700  0.565000  0.310900  1.0  0.6188
  C  C451  1  0.760800  0.519900  0.422000  1.0  -0.1327
  C  C452  1  0.915700  0.626000  0.273800  1.0  -0.1774
  C  C453  1  0.581300  0.401500  0.523500  1.0  -0.1014
  C  C454  1  0.992800  0.558500  0.246100  1.0  -0.1209
  C  C455  1  0.013100  0.772500  0.636600  1.0  -0.1418
  C  C456  1  0.249300  0.760500  0.254200  1.0  -0.0899
  C  C457  1  0.319900  0.848700  0.296000  1.0  0.278
  C  C458  1  0.247000  0.113200  0.642900  1.0  -0.0272
  C  C459  1  0.292300  0.913600  0.277700  1.0  -0.1984
  C  C460  1  0.245700  0.009000  0.648700  1.0  -0.1348
  C  C461  1  0.408700  0.937000  0.356500  1.0  -0.0442
  C  C462  1  0.280800  0.155900  0.623200  1.0  -0.2005
  C  C463  1  0.766700  0.540700  0.446700  1.0  -0.159
  C  C464  1  0.314500  0.976000  0.614800  1.0  -0.1673
  C  C465  1  0.745800  0.559600  0.500900  1.0  0.1689
  C  C466  1  0.280400  0.697300  0.272500  1.0  -0.0532
  C  C467  1  0.408400  0.320700  0.548500  1.0  -0.0668
  C  C468  1  0.380800  0.855400  0.338100  1.0  0.4155
  C  C469  1  0.434400  0.137900  0.548600  1.0  -0.1181
  C  C470  1  0.977800  0.844900  0.623300  1.0  -0.0269
  C  C471  1  0.469000  0.152900  0.527350  1.0  -0.1202
  C  C472  1  0.419500  0.105300  0.377000  1.0  -0.1367
  C  C473  1  0.473300  0.253900  0.517450  1.0  0.0692
  C  C474  1  0.863400  0.737000  0.555400  1.0  0.5575
  C  C475  1  0.497400  0.217000  0.472300  1.0  0.1773
  C  C476  1  0.510900  0.156300  0.407400  1.0  -0.0572
  C  C477  1  0.315700  0.740000  0.293400  1.0  -0.1878
  C  C478  1  0.612600  0.287700  0.365160  1.0  -0.1592
  C  C479  1  0.386400  0.035700  0.360000  1.0  -0.1591
  C  C480  1  0.686000  0.403200  0.393630  1.0  -0.0721
  C  C481  1  0.837400  0.571000  0.528600  1.0  -0.1192
  C  C482  1  0.635700  0.327400  0.389030  1.0  0.1439
  C  C483  1  0.496300  0.974500  0.387200  1.0  -0.1153
  C  C484  1  0.009300  0.666100  0.629600  1.0  -0.1366
  C  C485  1  0.941100  0.819600  0.601100  1.0  -0.2023
  C  C486  1  0.468000  0.903900  0.370100  1.0  -0.1105
  C  C487  1  0.938700  0.714800  0.593000  1.0  0.2279
  C  C488  1  0.735000  0.662700  0.505900  1.0  -0.1117
  C  C489  1  0.825700  0.672400  0.535500  1.0  -0.0715
  C  C490  1  0.799500  0.517000  0.511700  1.0  -0.1684
  C  C491  1  0.968900  0.641600  0.607500  1.0  -0.129
  C  C492  1  0.151300  0.620800  0.204800  1.0  0.1521
  N  N493  1  0.472100  0.776000  0.548880  1.0  -0.4124
  N  N494  1  0.393800  0.621800  0.517160  1.0  -0.4272
  N  N495  1  0.319500  0.568400  0.560500  1.0  -0.3805
  N  N496  1  0.398200  0.720800  0.593010  1.0  -0.3743
  N  N497  1  0.648700  0.097500  0.683100  1.0  -0.3375
  N  N498  1  0.655200  0.885300  0.413100  1.0  -0.3354
  N  N499  1  0.145300  0.500700  0.702200  1.0  -0.3765
  N  N500  1  0.100200  0.323200  0.427900  1.0  -0.3044
  N  N501  1  0.472100  0.724000  0.048880  1.0  -0.4131
  N  N502  1  0.393800  0.878200  0.017160  1.0  -0.4295
  N  N503  1  0.319500  0.931600  0.060500  1.0  -0.3817
  N  N504  1  0.398200  0.779200  0.093010  1.0  -0.3739
  N  N505  1  0.648700  0.402500  0.183100  1.0  -0.339
  N  N506  1  0.655200  0.614700  0.913100  1.0  -0.3357
  N  N507  1  0.145300  0.999300  0.202200  1.0  -0.3752
  N  N508  1  0.100200  0.176800  0.927900  1.0  -0.306
  N  N509  1  0.527900  0.276000  0.951120  1.0  -0.4142
  N  N510  1  0.606200  0.121800  0.982840  1.0  -0.4268
  N  N511  1  0.680500  0.068400  0.939500  1.0  -0.3799
  N  N512  1  0.601800  0.220800  0.906990  1.0  -0.3738
  N  N513  1  0.351300  0.597500  0.816900  1.0  -0.3366
  N  N514  1  0.344800  0.385300  0.086900  1.0  -0.3355
  N  N515  1  0.854700  0.000700  0.797800  1.0  -0.3766
  N  N516  1  0.899800  0.823200  0.072100  1.0  -0.3016
  N  N517  1  0.527900  0.224000  0.451120  1.0  -0.4154
  N  N518  1  0.606200  0.378200  0.482840  1.0  -0.429
  N  N519  1  0.680500  0.431600  0.439500  1.0  -0.3814
  N  N520  1  0.601800  0.279200  0.406990  1.0  -0.3745
  N  N521  1  0.351300  0.902500  0.316900  1.0  -0.338
  N  N522  1  0.344800  0.114700  0.586900  1.0  -0.3359
  N  N523  1  0.854700  0.499300  0.297800  1.0  -0.3755
  N  N524  1  0.899800  0.676800  0.572100  1.0  -0.3022
  O  O525  1  0.944700  0.326300  0.776540  1.0  -0.5786
  O  O526  1  0.816600  0.226800  0.784240  1.0  -0.6542
  O  O527  1  0.795200  0.137400  0.329540  1.0  -0.6616
  O  O528  1  0.927800  0.496700  0.781060  1.0  -0.594
  O  O529  1  0.822900  0.978000  0.318580  1.0  -0.635
  O  O530  1  0.941300  0.100400  0.334790  1.0  -0.6013
  O  O531  1  0.799000  0.384500  0.767910  1.0  -0.5667
  O  O532  1  0.916400  0.265500  0.326990  1.0  -0.6634
  O  O533  1  0.636600  0.712600  0.402970  1.0  -0.4691
  O  O534  1  0.177600  0.337800  0.691300  1.0  -0.4911
  O  O535  1  0.613100  0.241200  0.658100  1.0  -0.4344
  O  O536  1  0.132600  0.166000  0.446000  1.0  -0.4319
  O  O537  1  0.944700  0.173700  0.276540  1.0  -0.5779
  O  O538  1  0.816600  0.273200  0.284240  1.0  -0.6551
  O  O539  1  0.795200  0.362600  0.829540  1.0  -0.6606
  O  O540  1  0.927800  0.003300  0.281060  1.0  -0.5935
  O  O541  1  0.822900  0.522000  0.818580  1.0  -0.6355
  O  O542  1  0.941300  0.399600  0.834790  1.0  -0.6002
  O  O543  1  0.799000  0.115500  0.267910  1.0  -0.5634
  O  O544  1  0.916400  0.234500  0.826990  1.0  -0.6638
  O  O545  1  0.636600  0.787400  0.902970  1.0  -0.4696
  O  O546  1  0.177600  0.162200  0.191300  1.0  -0.4906
  O  O547  1  0.613100  0.258800  0.158100  1.0  -0.4344
  O  O548  1  0.132600  0.334000  0.946000  1.0  -0.429
  O  O549  1  0.055300  0.826300  0.723460  1.0  -0.5787
  O  O550  1  0.183400  0.726800  0.715760  1.0  -0.6515
  O  O551  1  0.204800  0.637400  0.170460  1.0  -0.661
  O  O552  1  0.072200  0.996700  0.718940  1.0  -0.5939
  O  O553  1  0.177100  0.478000  0.181420  1.0  -0.6342
  O  O554  1  0.058700  0.600400  0.165210  1.0  -0.5996
  O  O555  1  0.201000  0.884500  0.732090  1.0  -0.5675
  O  O556  1  0.083600  0.765500  0.173010  1.0  -0.6641
  O  O557  1  0.363400  0.212600  0.097030  1.0  -0.4684
  O  O558  1  0.822400  0.837800  0.808700  1.0  -0.4918
  O  O559  1  0.386900  0.741200  0.841900  1.0  -0.434
  O  O560  1  0.867400  0.666000  0.054000  1.0  -0.4313
  O  O561  1  0.055300  0.673700  0.223460  1.0  -0.5785
  O  O562  1  0.183400  0.773200  0.215760  1.0  -0.6514
  O  O563  1  0.204800  0.862600  0.670460  1.0  -0.6608
  O  O564  1  0.072200  0.503300  0.218940  1.0  -0.5942
  O  O565  1  0.177100  0.022000  0.681420  1.0  -0.6351
  O  O566  1  0.058700  0.899600  0.665210  1.0  -0.6017
  O  O567  1  0.201000  0.615500  0.232090  1.0  -0.5676
  O  O568  1  0.083600  0.734500  0.673010  1.0  -0.6634
  O  O569  1  0.363400  0.287400  0.597030  1.0  -0.4691
  O  O570  1  0.822400  0.662200  0.308700  1.0  -0.4914
  O  O571  1  0.386900  0.758800  0.341900  1.0  -0.4347
  O  O572  1  0.867400  0.834000  0.554000  1.0  -0.4282
