# generated using pymatgen
data_SmH7(C5O2)3
_symmetry_space_group_name_H-M   'P 1'
_cell_length_a   14.30900000
_cell_length_b   14.30900000
_cell_length_c   63.90000000
_cell_angle_alpha   90.00000000
_cell_angle_beta   90.00000000
_cell_angle_gamma   90.00000000
_symmetry_Int_Tables_number   1
_chemical_formula_structural   SmH7(C5O2)3
_chemical_formula_sum   'Sm24 H168 C360 O144'
_cell_volume   13083.36403590
_cell_formula_units_Z   24
loop_
 _symmetry_equiv_pos_site_id
 _symmetry_equiv_pos_as_xyz
  1  'x, y, z'
loop_
 _atom_site_type_symbol
 _atom_site_label
 _atom_site_symmetry_multiplicity
 _atom_site_fract_x
 _atom_site_fract_y
 _atom_site_fract_z
 _atom_site_occupancy
 _atom_site_charge
  Sm  Sm1  1  0.520190  0.276940  0.562020  1.0  2.2771
  Sm  Sm2  1  0.020190  0.776940  0.062020  1.0  2.2771
  Sm  Sm3  1  0.479810  0.723060  0.562020  1.0  2.2759
  Sm  Sm4  1  0.979810  0.223060  0.062020  1.0  2.2759
  Sm  Sm5  1  0.276940  0.479810  0.437980  1.0  2.2751
  Sm  Sm6  1  0.776940  0.979810  0.937980  1.0  2.2751
  Sm  Sm7  1  0.723060  0.520190  0.437980  1.0  2.2725
  Sm  Sm8  1  0.223060  0.020190  0.937980  1.0  2.2725
  Sm  Sm9  1  0.979810  0.276940  0.187980  1.0  2.274
  Sm  Sm10  1  0.479810  0.776940  0.687980  1.0  2.274
  Sm  Sm11  1  0.020190  0.723060  0.187980  1.0  2.2748
  Sm  Sm12  1  0.520190  0.223060  0.687980  1.0  2.2748
  Sm  Sm13  1  0.223060  0.479810  0.312020  1.0  2.2739
  Sm  Sm14  1  0.723060  0.979810  0.812020  1.0  2.2739
  Sm  Sm15  1  0.776940  0.520190  0.312020  1.0  2.2738
  Sm  Sm16  1  0.276940  0.020190  0.812020  1.0  2.2738
  Sm  Sm17  1  0.000000  0.500000  0.459830  1.0  2.3265
  Sm  Sm18  1  0.500000  0.000000  0.959830  1.0  2.3265
  Sm  Sm19  1  0.500000  0.000000  0.540170  1.0  2.317
  Sm  Sm20  1  0.000000  0.500000  0.040170  1.0  2.317
  Sm  Sm21  1  0.500000  0.500000  0.290170  1.0  2.3247
  Sm  Sm22  1  0.000000  0.000000  0.790170  1.0  2.3247
  Sm  Sm23  1  0.000000  0.000000  0.209830  1.0  2.3187
  Sm  Sm24  1  0.500000  0.500000  0.709830  1.0  2.3187
  H  H25  1  0.697700  0.323000  0.499800  1.0  0.1066
  H  H26  1  0.827800  0.039900  0.483100  1.0  0.094
  H  H27  1  0.719200  0.050700  0.510300  1.0  0.0956
  H  H28  1  0.817800  0.241000  0.435800  1.0  0.1039
  H  H29  1  0.875000  0.462500  0.385200  1.0  0.1032
  H  H30  1  0.862100  0.225900  0.352500  1.0  0.1033
  H  H31  1  0.899200  0.142800  0.381200  1.0  0.1008
  H  H32  1  0.055700  0.142600  0.411900  1.0  0.1151
  H  H33  1  0.094900  0.077500  0.443900  1.0  0.1084
  H  H34  1  0.995000  0.091900  0.471800  1.0  0.0927
  H  H35  1  0.197700  0.823000  0.999800  1.0  0.1066
  H  H36  1  0.327800  0.539900  0.983100  1.0  0.094
  H  H37  1  0.219200  0.550700  0.010300  1.0  0.0956
  H  H38  1  0.317800  0.741000  0.935800  1.0  0.1039
  H  H39  1  0.375000  0.962500  0.885200  1.0  0.1032
  H  H40  1  0.362100  0.725900  0.852500  1.0  0.1033
  H  H41  1  0.399200  0.642800  0.881200  1.0  0.1008
  H  H42  1  0.555700  0.642600  0.911900  1.0  0.1151
  H  H43  1  0.594900  0.577500  0.943900  1.0  0.1084
  H  H44  1  0.495000  0.591900  0.971800  1.0  0.0927
  H  H45  1  0.302300  0.677000  0.499800  1.0  0.1062
  H  H46  1  0.172200  0.960100  0.483100  1.0  0.0956
  H  H47  1  0.280800  0.949300  0.510300  1.0  0.0958
  H  H48  1  0.182200  0.759000  0.435800  1.0  0.1046
  H  H49  1  0.125000  0.537500  0.385200  1.0  0.1079
  H  H50  1  0.137900  0.774100  0.352500  1.0  0.1028
  H  H51  1  0.100800  0.857200  0.381200  1.0  0.1014
  H  H52  1  0.944300  0.857400  0.411900  1.0  0.1153
  H  H53  1  0.905100  0.922500  0.443900  1.0  0.108
  H  H54  1  0.005000  0.908100  0.471800  1.0  0.0928
  H  H55  1  0.802300  0.177000  0.999800  1.0  0.1062
  H  H56  1  0.672200  0.460100  0.983100  1.0  0.0956
  H  H57  1  0.780800  0.449300  0.010300  1.0  0.0958
  H  H58  1  0.682200  0.259000  0.935800  1.0  0.1046
  H  H59  1  0.625000  0.037500  0.885200  1.0  0.1079
  H  H60  1  0.637900  0.274100  0.852500  1.0  0.1028
  H  H61  1  0.600800  0.357200  0.881200  1.0  0.1014
  H  H62  1  0.444300  0.357400  0.911900  1.0  0.1153
  H  H63  1  0.405100  0.422500  0.943900  1.0  0.108
  H  H64  1  0.505000  0.408100  0.971800  1.0  0.0928
  H  H65  1  0.323000  0.302300  0.500200  1.0  0.1057
  H  H66  1  0.039900  0.172200  0.516900  1.0  0.0967
  H  H67  1  0.050700  0.280800  0.489700  1.0  0.0961
  H  H68  1  0.241000  0.182200  0.564200  1.0  0.1055
  H  H69  1  0.462500  0.125000  0.614800  1.0  0.1072
  H  H70  1  0.225900  0.137900  0.647500  1.0  0.1047
  H  H71  1  0.142800  0.100800  0.618800  1.0  0.1054
  H  H72  1  0.142600  0.944300  0.588100  1.0  0.1153
  H  H73  1  0.077500  0.905100  0.556100  1.0  0.1069
  H  H74  1  0.091900  0.005000  0.528200  1.0  0.0926
  H  H75  1  0.823000  0.802300  0.000200  1.0  0.1057
  H  H76  1  0.539900  0.672200  0.016900  1.0  0.0967
  H  H77  1  0.550700  0.780800  0.989700  1.0  0.0961
  H  H78  1  0.741000  0.682200  0.064200  1.0  0.1055
  H  H79  1  0.962500  0.625000  0.114800  1.0  0.1072
  H  H80  1  0.725900  0.637900  0.147500  1.0  0.1047
  H  H81  1  0.642800  0.600800  0.118800  1.0  0.1054
  H  H82  1  0.642600  0.444300  0.088100  1.0  0.1153
  H  H83  1  0.577500  0.405100  0.056100  1.0  0.1069
  H  H84  1  0.591900  0.505000  0.028200  1.0  0.0926
  H  H85  1  0.677000  0.697700  0.500200  1.0  0.1057
  H  H86  1  0.960100  0.827800  0.516900  1.0  0.0959
  H  H87  1  0.949300  0.719200  0.489700  1.0  0.0954
  H  H88  1  0.759000  0.817800  0.564200  1.0  0.1057
  H  H89  1  0.537500  0.875000  0.614800  1.0  0.1066
  H  H90  1  0.774100  0.862100  0.647500  1.0  0.1039
  H  H91  1  0.857200  0.899200  0.618800  1.0  0.1041
  H  H92  1  0.857400  0.055700  0.588100  1.0  0.1147
  H  H93  1  0.922500  0.094900  0.556100  1.0  0.1071
  H  H94  1  0.908100  0.995000  0.528200  1.0  0.0929
  H  H95  1  0.177000  0.197700  0.000200  1.0  0.1057
  H  H96  1  0.460100  0.327800  0.016900  1.0  0.0959
  H  H97  1  0.449300  0.219200  0.989700  1.0  0.0954
  H  H98  1  0.259000  0.317800  0.064200  1.0  0.1057
  H  H99  1  0.037500  0.375000  0.114800  1.0  0.1066
  H  H100  1  0.274100  0.362100  0.147500  1.0  0.1039
  H  H101  1  0.357200  0.399200  0.118800  1.0  0.1041
  H  H102  1  0.357400  0.555700  0.088100  1.0  0.1147
  H  H103  1  0.422500  0.594900  0.056100  1.0  0.1071
  H  H104  1  0.408100  0.495000  0.028200  1.0  0.0929
  H  H105  1  0.802300  0.323000  0.250200  1.0  0.1059
  H  H106  1  0.672200  0.039900  0.266900  1.0  0.0951
  H  H107  1  0.780800  0.050700  0.239700  1.0  0.0959
  H  H108  1  0.682200  0.241000  0.314200  1.0  0.1046
  H  H109  1  0.625000  0.462500  0.364800  1.0  0.1035
  H  H110  1  0.637900  0.225900  0.397500  1.0  0.1035
  H  H111  1  0.600800  0.142800  0.368800  1.0  0.1014
  H  H112  1  0.444300  0.142600  0.338100  1.0  0.1156
  H  H113  1  0.405100  0.077500  0.306100  1.0  0.1077
  H  H114  1  0.505000  0.091900  0.278200  1.0  0.0936
  H  H115  1  0.302300  0.823000  0.750200  1.0  0.1059
  H  H116  1  0.172200  0.539900  0.766900  1.0  0.0951
  H  H117  1  0.280800  0.550700  0.739700  1.0  0.0959
  H  H118  1  0.182200  0.741000  0.814200  1.0  0.1046
  H  H119  1  0.125000  0.962500  0.864800  1.0  0.1035
  H  H120  1  0.137900  0.725900  0.897500  1.0  0.1035
  H  H121  1  0.100800  0.642800  0.868800  1.0  0.1014
  H  H122  1  0.944300  0.642600  0.838100  1.0  0.1156
  H  H123  1  0.905100  0.577500  0.806100  1.0  0.1077
  H  H124  1  0.005000  0.591900  0.778200  1.0  0.0936
  H  H125  1  0.197700  0.677000  0.250200  1.0  0.1059
  H  H126  1  0.327800  0.960100  0.266900  1.0  0.0946
  H  H127  1  0.219200  0.949300  0.239700  1.0  0.0961
  H  H128  1  0.317800  0.759000  0.314200  1.0  0.1044
  H  H129  1  0.375000  0.537500  0.364800  1.0  0.1082
  H  H130  1  0.362100  0.774100  0.397500  1.0  0.1031
  H  H131  1  0.399200  0.857200  0.368800  1.0  0.1013
  H  H132  1  0.555700  0.857400  0.338100  1.0  0.1143
  H  H133  1  0.594900  0.922500  0.306100  1.0  0.1082
  H  H134  1  0.495000  0.908100  0.278200  1.0  0.0931
  H  H135  1  0.697700  0.177000  0.750200  1.0  0.1059
  H  H136  1  0.827800  0.460100  0.766900  1.0  0.0946
  H  H137  1  0.719200  0.449300  0.739700  1.0  0.0961
  H  H138  1  0.817800  0.259000  0.814200  1.0  0.1044
  H  H139  1  0.875000  0.037500  0.864800  1.0  0.1082
  H  H140  1  0.862100  0.274100  0.897500  1.0  0.1031
  H  H141  1  0.899200  0.357200  0.868800  1.0  0.1013
  H  H142  1  0.055700  0.357400  0.838100  1.0  0.1143
  H  H143  1  0.094900  0.422500  0.806100  1.0  0.1082
  H  H144  1  0.995000  0.408100  0.778200  1.0  0.0931
  H  H145  1  0.177000  0.302300  0.249800  1.0  0.1057
  H  H146  1  0.460100  0.172200  0.233100  1.0  0.0961
  H  H147  1  0.449300  0.280800  0.260300  1.0  0.0955
  H  H148  1  0.259000  0.182200  0.185800  1.0  0.1056
  H  H149  1  0.037500  0.125000  0.135200  1.0  0.1062
  H  H150  1  0.274100  0.137900  0.102500  1.0  0.1047
  H  H151  1  0.357200  0.100800  0.131200  1.0  0.104
  H  H152  1  0.357400  0.944300  0.161900  1.0  0.1145
  H  H153  1  0.422500  0.905100  0.193900  1.0  0.1074
  H  H154  1  0.408100  0.005000  0.221800  1.0  0.0922
  H  H155  1  0.677000  0.802300  0.749800  1.0  0.1057
  H  H156  1  0.960100  0.672200  0.733100  1.0  0.0961
  H  H157  1  0.949300  0.780800  0.760300  1.0  0.0955
  H  H158  1  0.759000  0.682200  0.685800  1.0  0.1056
  H  H159  1  0.537500  0.625000  0.635200  1.0  0.1062
  H  H160  1  0.774100  0.637900  0.602500  1.0  0.1047
  H  H161  1  0.857200  0.600800  0.631200  1.0  0.104
  H  H162  1  0.857400  0.444300  0.661900  1.0  0.1145
  H  H163  1  0.922500  0.405100  0.693900  1.0  0.1074
  H  H164  1  0.908100  0.505000  0.721800  1.0  0.0922
  H  H165  1  0.823000  0.697700  0.249800  1.0  0.1056
  H  H166  1  0.539900  0.827800  0.233100  1.0  0.0961
  H  H167  1  0.550700  0.719200  0.260300  1.0  0.0957
  H  H168  1  0.741000  0.817800  0.185800  1.0  0.1053
  H  H169  1  0.962500  0.875000  0.135200  1.0  0.107
  H  H170  1  0.725900  0.862100  0.102500  1.0  0.1039
  H  H171  1  0.642800  0.899200  0.131200  1.0  0.1053
  H  H172  1  0.642600  0.055700  0.161900  1.0  0.1154
  H  H173  1  0.577500  0.094900  0.193900  1.0  0.1075
  H  H174  1  0.591900  0.995000  0.221800  1.0  0.0921
  H  H175  1  0.323000  0.197700  0.749800  1.0  0.1056
  H  H176  1  0.039900  0.327800  0.733100  1.0  0.0961
  H  H177  1  0.050700  0.219200  0.760300  1.0  0.0957
  H  H178  1  0.241000  0.317800  0.685800  1.0  0.1053
  H  H179  1  0.462500  0.375000  0.635200  1.0  0.107
  H  H180  1  0.225900  0.362100  0.602500  1.0  0.1039
  H  H181  1  0.142800  0.399200  0.631200  1.0  0.1053
  H  H182  1  0.142600  0.555700  0.661900  1.0  0.1154
  H  H183  1  0.077500  0.594900  0.693900  1.0  0.1075
  H  H184  1  0.091900  0.495000  0.721800  1.0  0.0921
  H  H185  1  0.500000  0.500000  0.572700  1.0  0.049
  H  H186  1  0.000000  0.000000  0.072700  1.0  0.049
  H  H187  1  0.500000  0.500000  0.427300  1.0  0.0497
  H  H188  1  0.000000  0.000000  0.927300  1.0  0.0497
  H  H189  1  0.000000  0.500000  0.177300  1.0  0.0497
  H  H190  1  0.500000  0.000000  0.677300  1.0  0.0497
  H  H191  1  0.000000  0.500000  0.322700  1.0  0.049
  H  H192  1  0.500000  0.000000  0.822700  1.0  0.049
  C  C193  1  0.633300  0.200800  0.525490  1.0  0.6942
  C  C194  1  0.701000  0.187500  0.507880  1.0  -0.1434
  C  C195  1  0.725800  0.266100  0.496630  1.0  -0.0351
  C  C196  1  0.791100  0.262600  0.480750  1.0  -0.0669
  C  C197  1  0.818600  0.354700  0.470560  1.0  0.6993
  C  C198  1  0.829300  0.176600  0.475420  1.0  -0.0023
  C  C199  1  0.802300  0.097700  0.486540  1.0  -0.1049
  C  C200  1  0.737100  0.103900  0.502940  1.0  -0.0619
  C  C201  1  0.894500  0.166800  0.457260  1.0  0.0486
  C  C202  1  0.873200  0.207900  0.437520  1.0  -0.1414
  C  C203  1  0.933900  0.199100  0.420860  1.0  0.0224
  C  C204  1  0.913900  0.251400  0.401440  1.0  0.0127
  C  C205  1  0.906200  0.347200  0.402100  1.0  -0.1
  C  C206  1  0.881100  0.397900  0.384340  1.0  -0.0527
  C  C207  1  0.865100  0.353200  0.365650  1.0  -0.1994
  C  C208  1  0.835200  0.410500  0.346800  1.0  0.6691
  C  C209  1  0.872900  0.257100  0.365020  1.0  -0.0462
  C  C210  1  0.895600  0.207600  0.382120  1.0  -0.1359
  C  C211  1  0.015600  0.149500  0.423260  1.0  -0.1083
  C  C212  1  0.039000  0.109800  0.442380  1.0  -0.124
  C  C213  1  0.979000  0.118600  0.459050  1.0  -0.141
  C  C214  1  0.929500  0.401200  0.421850  1.0  0.6875
  C  C215  1  0.133300  0.700800  0.025490  1.0  0.6942
  C  C216  1  0.201000  0.687500  0.007880  1.0  -0.1434
  C  C217  1  0.225800  0.766100  0.996630  1.0  -0.0351
  C  C218  1  0.291100  0.762600  0.980750  1.0  -0.0669
  C  C219  1  0.318600  0.854700  0.970560  1.0  0.6993
  C  C220  1  0.329300  0.676600  0.975420  1.0  -0.0023
  C  C221  1  0.302300  0.597700  0.986540  1.0  -0.1049
  C  C222  1  0.237100  0.603900  0.002940  1.0  -0.0619
  C  C223  1  0.394500  0.666800  0.957260  1.0  0.0486
  C  C224  1  0.373200  0.707900  0.937520  1.0  -0.1414
  C  C225  1  0.433900  0.699100  0.920860  1.0  0.0224
  C  C226  1  0.413900  0.751400  0.901440  1.0  0.0127
  C  C227  1  0.406200  0.847200  0.902100  1.0  -0.1
  C  C228  1  0.381100  0.897900  0.884340  1.0  -0.0527
  C  C229  1  0.365100  0.853200  0.865650  1.0  -0.1994
  C  C230  1  0.335200  0.910500  0.846800  1.0  0.6691
  C  C231  1  0.372900  0.757100  0.865020  1.0  -0.0462
  C  C232  1  0.395600  0.707600  0.882120  1.0  -0.1359
  C  C233  1  0.515600  0.649500  0.923260  1.0  -0.1083
  C  C234  1  0.539000  0.609800  0.942380  1.0  -0.124
  C  C235  1  0.479000  0.618600  0.959050  1.0  -0.141
  C  C236  1  0.429500  0.901200  0.921850  1.0  0.6875
  C  C237  1  0.366700  0.799200  0.525490  1.0  0.6963
  C  C238  1  0.299000  0.812500  0.507880  1.0  -0.1456
  C  C239  1  0.274200  0.733900  0.496630  1.0  -0.0355
  C  C240  1  0.208900  0.737400  0.480750  1.0  -0.0662
  C  C241  1  0.181400  0.645300  0.470560  1.0  0.7016
  C  C242  1  0.170700  0.823400  0.475420  1.0  -0.0013
  C  C243  1  0.197700  0.902300  0.486540  1.0  -0.1047
  C  C244  1  0.262900  0.896100  0.502940  1.0  -0.0629
  C  C245  1  0.105500  0.833200  0.457260  1.0  0.0491
  C  C246  1  0.126800  0.792100  0.437520  1.0  -0.1417
  C  C247  1  0.066100  0.800900  0.420860  1.0  0.0226
  C  C248  1  0.086100  0.748600  0.401440  1.0  0.0119
  C  C249  1  0.093800  0.652800  0.402100  1.0  -0.1004
  C  C250  1  0.118900  0.602100  0.384340  1.0  -0.0509
  C  C251  1  0.134900  0.646800  0.365650  1.0  -0.2012
  C  C252  1  0.164800  0.589500  0.346800  1.0  0.6695
  C  C253  1  0.127100  0.742900  0.365020  1.0  -0.0468
  C  C254  1  0.104400  0.792400  0.382120  1.0  -0.1345
  C  C255  1  0.984400  0.850500  0.423260  1.0  -0.1096
  C  C256  1  0.961000  0.890200  0.442380  1.0  -0.1238
  C  C257  1  0.021000  0.881400  0.459050  1.0  -0.1407
  C  C258  1  0.070500  0.598800  0.421850  1.0  0.6888
  C  C259  1  0.866700  0.299200  0.025490  1.0  0.6963
  C  C260  1  0.799000  0.312500  0.007880  1.0  -0.1456
  C  C261  1  0.774200  0.233900  0.996630  1.0  -0.0355
  C  C262  1  0.708900  0.237400  0.980750  1.0  -0.0662
  C  C263  1  0.681400  0.145300  0.970560  1.0  0.7016
  C  C264  1  0.670700  0.323400  0.975420  1.0  -0.0013
  C  C265  1  0.697700  0.402300  0.986540  1.0  -0.1047
  C  C266  1  0.762900  0.396100  0.002940  1.0  -0.0629
  C  C267  1  0.605500  0.333200  0.957260  1.0  0.0491
  C  C268  1  0.626800  0.292100  0.937520  1.0  -0.1417
  C  C269  1  0.566100  0.300900  0.920860  1.0  0.0226
  C  C270  1  0.586100  0.248600  0.901440  1.0  0.0119
  C  C271  1  0.593800  0.152800  0.902100  1.0  -0.1004
  C  C272  1  0.618900  0.102100  0.884340  1.0  -0.0509
  C  C273  1  0.634900  0.146800  0.865650  1.0  -0.2012
  C  C274  1  0.664800  0.089500  0.846800  1.0  0.6695
  C  C275  1  0.627100  0.242900  0.865020  1.0  -0.0468
  C  C276  1  0.604400  0.292400  0.882120  1.0  -0.1345
  C  C277  1  0.484400  0.350500  0.923260  1.0  -0.1096
  C  C278  1  0.461000  0.390200  0.942380  1.0  -0.1238
  C  C279  1  0.521000  0.381400  0.959050  1.0  -0.1407
  C  C280  1  0.570500  0.098800  0.921850  1.0  0.6888
  C  C281  1  0.200800  0.366700  0.474510  1.0  0.696
  C  C282  1  0.187500  0.299000  0.492120  1.0  -0.1441
  C  C283  1  0.266100  0.274200  0.503370  1.0  -0.0356
  C  C284  1  0.262600  0.208900  0.519250  1.0  -0.0679
  C  C285  1  0.354700  0.181400  0.529440  1.0  0.6998
  C  C286  1  0.176600  0.170700  0.524580  1.0  -0.0011
  C  C287  1  0.097700  0.197700  0.513460  1.0  -0.1037
  C  C288  1  0.103900  0.262900  0.497060  1.0  -0.0643
  C  C289  1  0.166800  0.105500  0.542740  1.0  0.0487
  C  C290  1  0.207900  0.126800  0.562480  1.0  -0.1411
  C  C291  1  0.199100  0.066100  0.579140  1.0  0.0226
  C  C292  1  0.251400  0.086100  0.598560  1.0  0.0128
  C  C293  1  0.347200  0.093800  0.597900  1.0  -0.1009
  C  C294  1  0.397900  0.118900  0.615660  1.0  -0.0533
  C  C295  1  0.353200  0.134900  0.634350  1.0  -0.1987
  C  C296  1  0.410500  0.164800  0.653200  1.0  0.6689
  C  C297  1  0.257100  0.127100  0.634980  1.0  -0.0426
  C  C298  1  0.207600  0.104400  0.617880  1.0  -0.1314
  C  C299  1  0.149500  0.984400  0.576740  1.0  -0.1109
  C  C300  1  0.109800  0.961000  0.557620  1.0  -0.1221
  C  C301  1  0.118600  0.021000  0.540950  1.0  -0.1388
  C  C302  1  0.401200  0.070500  0.578150  1.0  0.6877
  C  C303  1  0.700800  0.866700  0.974510  1.0  0.696
  C  C304  1  0.687500  0.799000  0.992120  1.0  -0.1441
  C  C305  1  0.766100  0.774200  0.003370  1.0  -0.0356
  C  C306  1  0.762600  0.708900  0.019250  1.0  -0.0679
  C  C307  1  0.854700  0.681400  0.029440  1.0  0.6998
  C  C308  1  0.676600  0.670700  0.024580  1.0  -0.0011
  C  C309  1  0.597700  0.697700  0.013460  1.0  -0.1037
  C  C310  1  0.603900  0.762900  0.997060  1.0  -0.0643
  C  C311  1  0.666800  0.605500  0.042740  1.0  0.0487
  C  C312  1  0.707900  0.626800  0.062480  1.0  -0.1411
  C  C313  1  0.699100  0.566100  0.079140  1.0  0.0226
  C  C314  1  0.751400  0.586100  0.098560  1.0  0.0128
  C  C315  1  0.847200  0.593800  0.097900  1.0  -0.1009
  C  C316  1  0.897900  0.618900  0.115660  1.0  -0.0533
  C  C317  1  0.853200  0.634900  0.134350  1.0  -0.1987
  C  C318  1  0.910500  0.664800  0.153200  1.0  0.6689
  C  C319  1  0.757100  0.627100  0.134980  1.0  -0.0426
  C  C320  1  0.707600  0.604400  0.117880  1.0  -0.1314
  C  C321  1  0.649500  0.484400  0.076740  1.0  -0.1109
  C  C322  1  0.609800  0.461000  0.057620  1.0  -0.1221
  C  C323  1  0.618600  0.521000  0.040950  1.0  -0.1388
  C  C324  1  0.901200  0.570500  0.078150  1.0  0.6877
  C  C325  1  0.799200  0.633300  0.474510  1.0  0.6973
  C  C326  1  0.812500  0.701000  0.492120  1.0  -0.1434
  C  C327  1  0.733900  0.725800  0.503370  1.0  -0.0372
  C  C328  1  0.737400  0.791100  0.519250  1.0  -0.0676
  C  C329  1  0.645300  0.818600  0.529440  1.0  0.6998
  C  C330  1  0.823400  0.829300  0.524580  1.0  -0.0004
  C  C331  1  0.902300  0.802300  0.513460  1.0  -0.1033
  C  C332  1  0.896100  0.737100  0.497060  1.0  -0.0626
  C  C333  1  0.833200  0.894500  0.542740  1.0  0.0488
  C  C334  1  0.792100  0.873200  0.562480  1.0  -0.1423
  C  C335  1  0.800900  0.933900  0.579140  1.0  0.0234
  C  C336  1  0.748600  0.913900  0.598560  1.0  0.014
  C  C337  1  0.652800  0.906200  0.597900  1.0  -0.0997
  C  C338  1  0.602100  0.881100  0.615660  1.0  -0.0529
  C  C339  1  0.646800  0.865100  0.634350  1.0  -0.1974
  C  C340  1  0.589500  0.835200  0.653200  1.0  0.6658
  C  C341  1  0.742900  0.872900  0.634980  1.0  -0.0441
  C  C342  1  0.792400  0.895600  0.617880  1.0  -0.1323
  C  C343  1  0.850500  0.015600  0.576740  1.0  -0.1118
  C  C344  1  0.890200  0.039000  0.557620  1.0  -0.1195
  C  C345  1  0.881400  0.979000  0.540950  1.0  -0.1396
  C  C346  1  0.598800  0.929500  0.578150  1.0  0.6872
  C  C347  1  0.299200  0.133300  0.974510  1.0  0.6973
  C  C348  1  0.312500  0.201000  0.992120  1.0  -0.1434
  C  C349  1  0.233900  0.225800  0.003370  1.0  -0.0372
  C  C350  1  0.237400  0.291100  0.019250  1.0  -0.0676
  C  C351  1  0.145300  0.318600  0.029440  1.0  0.6998
  C  C352  1  0.323400  0.329300  0.024580  1.0  -0.0004
  C  C353  1  0.402300  0.302300  0.013460  1.0  -0.1033
  C  C354  1  0.396100  0.237100  0.997060  1.0  -0.0626
  C  C355  1  0.333200  0.394500  0.042740  1.0  0.0488
  C  C356  1  0.292100  0.373200  0.062480  1.0  -0.1423
  C  C357  1  0.300900  0.433900  0.079140  1.0  0.0234
  C  C358  1  0.248600  0.413900  0.098560  1.0  0.014
  C  C359  1  0.152800  0.406200  0.097900  1.0  -0.0997
  C  C360  1  0.102100  0.381100  0.115660  1.0  -0.0529
  C  C361  1  0.146800  0.365100  0.134350  1.0  -0.1974
  C  C362  1  0.089500  0.335200  0.153200  1.0  0.6658
  C  C363  1  0.242900  0.372900  0.134980  1.0  -0.0441
  C  C364  1  0.292400  0.395600  0.117880  1.0  -0.1323
  C  C365  1  0.350500  0.515600  0.076740  1.0  -0.1118
  C  C366  1  0.390200  0.539000  0.057620  1.0  -0.1195
  C  C367  1  0.381400  0.479000  0.040950  1.0  -0.1396
  C  C368  1  0.098800  0.429500  0.078150  1.0  0.6872
  C  C369  1  0.866700  0.200800  0.224510  1.0  0.6957
  C  C370  1  0.799000  0.187500  0.242120  1.0  -0.1449
  C  C371  1  0.774200  0.266100  0.253370  1.0  -0.0362
  C  C372  1  0.708900  0.262600  0.269250  1.0  -0.0665
  C  C373  1  0.681400  0.354700  0.279440  1.0  0.7016
  C  C374  1  0.670700  0.176600  0.274580  1.0  -0.0009
  C  C375  1  0.697700  0.097700  0.263460  1.0  -0.104
  C  C376  1  0.762900  0.103900  0.247060  1.0  -0.0622
  C  C377  1  0.605500  0.166800  0.292740  1.0  0.0497
  C  C378  1  0.626800  0.207900  0.312480  1.0  -0.142
  C  C379  1  0.566100  0.199100  0.329140  1.0  0.0217
  C  C380  1  0.586100  0.251400  0.348560  1.0  0.0129
  C  C381  1  0.593800  0.347200  0.347900  1.0  -0.1002
  C  C382  1  0.618900  0.397900  0.365660  1.0  -0.0521
  C  C383  1  0.634900  0.353200  0.384350  1.0  -0.2013
  C  C384  1  0.664800  0.410500  0.403200  1.0  0.6688
  C  C385  1  0.627100  0.257100  0.384980  1.0  -0.0461
  C  C386  1  0.604400  0.207600  0.367880  1.0  -0.1361
  C  C387  1  0.484400  0.149500  0.326740  1.0  -0.1106
  C  C388  1  0.461000  0.109800  0.307620  1.0  -0.1235
  C  C389  1  0.521000  0.118600  0.290950  1.0  -0.1402
  C  C390  1  0.570500  0.401200  0.328150  1.0  0.6875
  C  C391  1  0.366700  0.700800  0.724510  1.0  0.6957
  C  C392  1  0.299000  0.687500  0.742120  1.0  -0.1449
  C  C393  1  0.274200  0.766100  0.753370  1.0  -0.0362
  C  C394  1  0.208900  0.762600  0.769250  1.0  -0.0665
  C  C395  1  0.181400  0.854700  0.779440  1.0  0.7016
  C  C396  1  0.170700  0.676600  0.774580  1.0  -0.0009
  C  C397  1  0.197700  0.597700  0.763460  1.0  -0.104
  C  C398  1  0.262900  0.603900  0.747060  1.0  -0.0622
  C  C399  1  0.105500  0.666800  0.792740  1.0  0.0497
  C  C400  1  0.126800  0.707900  0.812480  1.0  -0.142
  C  C401  1  0.066100  0.699100  0.829140  1.0  0.0217
  C  C402  1  0.086100  0.751400  0.848560  1.0  0.0129
  C  C403  1  0.093800  0.847200  0.847900  1.0  -0.1002
  C  C404  1  0.118900  0.897900  0.865660  1.0  -0.0521
  C  C405  1  0.134900  0.853200  0.884350  1.0  -0.2013
  C  C406  1  0.164800  0.910500  0.903200  1.0  0.6688
  C  C407  1  0.127100  0.757100  0.884980  1.0  -0.0461
  C  C408  1  0.104400  0.707600  0.867880  1.0  -0.1361
  C  C409  1  0.984400  0.649500  0.826740  1.0  -0.1106
  C  C410  1  0.961000  0.609800  0.807620  1.0  -0.1235
  C  C411  1  0.021000  0.618600  0.790950  1.0  -0.1402
  C  C412  1  0.070500  0.901200  0.828150  1.0  0.6875
  C  C413  1  0.133300  0.799200  0.224510  1.0  0.696
  C  C414  1  0.201000  0.812500  0.242120  1.0  -0.1455
  C  C415  1  0.225800  0.733900  0.253370  1.0  -0.0366
  C  C416  1  0.291100  0.737400  0.269250  1.0  -0.0681
  C  C417  1  0.318600  0.645300  0.279440  1.0  0.7016
  C  C418  1  0.329300  0.823400  0.274580  1.0  -0.0028
  C  C419  1  0.302300  0.902300  0.263460  1.0  -0.1041
  C  C420  1  0.237100  0.896100  0.247060  1.0  -0.0632
  C  C421  1  0.394500  0.833200  0.292740  1.0  0.0487
  C  C422  1  0.373200  0.792100  0.312480  1.0  -0.1413
  C  C423  1  0.433900  0.800900  0.329140  1.0  0.0236
  C  C424  1  0.413900  0.748600  0.348560  1.0  0.0142
  C  C425  1  0.406200  0.652800  0.347900  1.0  -0.1003
  C  C426  1  0.381100  0.602100  0.365660  1.0  -0.0515
  C  C427  1  0.365100  0.646800  0.384350  1.0  -0.2017
  C  C428  1  0.335200  0.589500  0.403200  1.0  0.6693
  C  C429  1  0.372900  0.742900  0.384980  1.0  -0.0445
  C  C430  1  0.395600  0.792400  0.367880  1.0  -0.1362
  C  C431  1  0.515600  0.850500  0.326740  1.0  -0.11
  C  C432  1  0.539000  0.890200  0.307620  1.0  -0.1245
  C  C433  1  0.479000  0.881400  0.290950  1.0  -0.14
  C  C434  1  0.429500  0.598800  0.328150  1.0  0.688
  C  C435  1  0.633300  0.299200  0.724510  1.0  0.696
  C  C436  1  0.701000  0.312500  0.742120  1.0  -0.1455
  C  C437  1  0.725800  0.233900  0.753370  1.0  -0.0366
  C  C438  1  0.791100  0.237400  0.769250  1.0  -0.0681
  C  C439  1  0.818600  0.145300  0.779440  1.0  0.7016
  C  C440  1  0.829300  0.323400  0.774580  1.0  -0.0028
  C  C441  1  0.802300  0.402300  0.763460  1.0  -0.1041
  C  C442  1  0.737100  0.396100  0.747060  1.0  -0.0632
  C  C443  1  0.894500  0.333200  0.792740  1.0  0.0487
  C  C444  1  0.873200  0.292100  0.812480  1.0  -0.1413
  C  C445  1  0.933900  0.300900  0.829140  1.0  0.0236
  C  C446  1  0.913900  0.248600  0.848560  1.0  0.0142
  C  C447  1  0.906200  0.152800  0.847900  1.0  -0.1003
  C  C448  1  0.881100  0.102100  0.865660  1.0  -0.0515
  C  C449  1  0.865100  0.146800  0.884350  1.0  -0.2017
  C  C450  1  0.835200  0.089500  0.903200  1.0  0.6693
  C  C451  1  0.872900  0.242900  0.884980  1.0  -0.0445
  C  C452  1  0.895600  0.292400  0.867880  1.0  -0.1362
  C  C453  1  0.015600  0.350500  0.826740  1.0  -0.11
  C  C454  1  0.039000  0.390200  0.807620  1.0  -0.1245
  C  C455  1  0.979000  0.381400  0.790950  1.0  -0.14
  C  C456  1  0.929500  0.098800  0.828150  1.0  0.688
  C  C457  1  0.299200  0.366700  0.275490  1.0  0.6958
  C  C458  1  0.312500  0.299000  0.257880  1.0  -0.1428
  C  C459  1  0.233900  0.274200  0.246630  1.0  -0.0368
  C  C460  1  0.237400  0.208900  0.230750  1.0  -0.0666
  C  C461  1  0.145300  0.181400  0.220560  1.0  0.6976
  C  C462  1  0.323400  0.170700  0.225420  1.0  -0.001
  C  C463  1  0.402300  0.197700  0.236540  1.0  -0.1042
  C  C464  1  0.396100  0.262900  0.252940  1.0  -0.0619
  C  C465  1  0.333200  0.105500  0.207260  1.0  0.0488
  C  C466  1  0.292100  0.126800  0.187520  1.0  -0.1435
  C  C467  1  0.300900  0.066100  0.170860  1.0  0.0232
  C  C468  1  0.248600  0.086100  0.151440  1.0  0.0126
  C  C469  1  0.152800  0.093800  0.152100  1.0  -0.1001
  C  C470  1  0.102100  0.118900  0.134340  1.0  -0.052
  C  C471  1  0.146800  0.134900  0.115650  1.0  -0.1969
  C  C472  1  0.089500  0.164800  0.096800  1.0  0.6672
  C  C473  1  0.242900  0.127100  0.115020  1.0  -0.0454
  C  C474  1  0.292400  0.104400  0.132120  1.0  -0.1313
  C  C475  1  0.350500  0.984400  0.173260  1.0  -0.1111
  C  C476  1  0.390200  0.961000  0.192380  1.0  -0.1227
  C  C477  1  0.381400  0.021000  0.209050  1.0  -0.1398
  C  C478  1  0.098800  0.070500  0.171850  1.0  0.6878
  C  C479  1  0.799200  0.866700  0.775490  1.0  0.6958
  C  C480  1  0.812500  0.799000  0.757880  1.0  -0.1428
  C  C481  1  0.733900  0.774200  0.746630  1.0  -0.0368
  C  C482  1  0.737400  0.708900  0.730750  1.0  -0.0666
  C  C483  1  0.645300  0.681400  0.720560  1.0  0.6976
  C  C484  1  0.823400  0.670700  0.725420  1.0  -0.001
  C  C485  1  0.902300  0.697700  0.736540  1.0  -0.1042
  C  C486  1  0.896100  0.762900  0.752940  1.0  -0.0619
  C  C487  1  0.833200  0.605500  0.707260  1.0  0.0488
  C  C488  1  0.792100  0.626800  0.687520  1.0  -0.1435
  C  C489  1  0.800900  0.566100  0.670860  1.0  0.0232
  C  C490  1  0.748600  0.586100  0.651440  1.0  0.0126
  C  C491  1  0.652800  0.593800  0.652100  1.0  -0.1001
  C  C492  1  0.602100  0.618900  0.634340  1.0  -0.052
  C  C493  1  0.646800  0.634900  0.615650  1.0  -0.1969
  C  C494  1  0.589500  0.664800  0.596800  1.0  0.6672
  C  C495  1  0.742900  0.627100  0.615020  1.0  -0.0454
  C  C496  1  0.792400  0.604400  0.632120  1.0  -0.1313
  C  C497  1  0.850500  0.484400  0.673260  1.0  -0.1111
  C  C498  1  0.890200  0.461000  0.692380  1.0  -0.1227
  C  C499  1  0.881400  0.521000  0.709050  1.0  -0.1398
  C  C500  1  0.598800  0.570500  0.671850  1.0  0.6878
  C  C501  1  0.700800  0.633300  0.275490  1.0  0.6967
  C  C502  1  0.687500  0.701000  0.257880  1.0  -0.1434
  C  C503  1  0.766100  0.725800  0.246630  1.0  -0.0357
  C  C504  1  0.762600  0.791100  0.230750  1.0  -0.0671
  C  C505  1  0.854700  0.818600  0.220560  1.0  0.7003
  C  C506  1  0.676600  0.829300  0.225420  1.0  -0.0006
  C  C507  1  0.597700  0.802300  0.236540  1.0  -0.1031
  C  C508  1  0.603900  0.737100  0.252940  1.0  -0.0639
  C  C509  1  0.666800  0.894500  0.207260  1.0  0.0484
  C  C510  1  0.707900  0.873200  0.187520  1.0  -0.1413
  C  C511  1  0.699100  0.933900  0.170860  1.0  0.0223
  C  C512  1  0.751400  0.913900  0.151440  1.0  0.0117
  C  C513  1  0.847200  0.906200  0.152100  1.0  -0.1
  C  C514  1  0.897900  0.881100  0.134340  1.0  -0.0533
  C  C515  1  0.853200  0.865100  0.115650  1.0  -0.1963
  C  C516  1  0.910500  0.835200  0.096800  1.0  0.6679
  C  C517  1  0.757100  0.872900  0.115020  1.0  -0.0441
  C  C518  1  0.707600  0.895600  0.132120  1.0  -0.1317
  C  C519  1  0.649500  0.015600  0.173260  1.0  -0.1101
  C  C520  1  0.609800  0.039000  0.192380  1.0  -0.1198
  C  C521  1  0.618600  0.979000  0.209050  1.0  -0.1399
  C  C522  1  0.901200  0.929500  0.171850  1.0  0.6876
  C  C523  1  0.200800  0.133300  0.775490  1.0  0.6967
  C  C524  1  0.187500  0.201000  0.757880  1.0  -0.1434
  C  C525  1  0.266100  0.225800  0.746630  1.0  -0.0357
  C  C526  1  0.262600  0.291100  0.730750  1.0  -0.0671
  C  C527  1  0.354700  0.318600  0.720560  1.0  0.7003
  C  C528  1  0.176600  0.329300  0.725420  1.0  -0.0006
  C  C529  1  0.097700  0.302300  0.736540  1.0  -0.1031
  C  C530  1  0.103900  0.237100  0.752940  1.0  -0.0639
  C  C531  1  0.166800  0.394500  0.707260  1.0  0.0484
  C  C532  1  0.207900  0.373200  0.687520  1.0  -0.1413
  C  C533  1  0.199100  0.433900  0.670860  1.0  0.0223
  C  C534  1  0.251400  0.413900  0.651440  1.0  0.0117
  C  C535  1  0.347200  0.406200  0.652100  1.0  -0.1
  C  C536  1  0.397900  0.381100  0.634340  1.0  -0.0533
  C  C537  1  0.353200  0.365100  0.615650  1.0  -0.1963
  C  C538  1  0.410500  0.335200  0.596800  1.0  0.6679
  C  C539  1  0.257100  0.372900  0.615020  1.0  -0.0441
  C  C540  1  0.207600  0.395600  0.632120  1.0  -0.1317
  C  C541  1  0.149500  0.515600  0.673260  1.0  -0.1101
  C  C542  1  0.109800  0.539000  0.692380  1.0  -0.1198
  C  C543  1  0.118600  0.479000  0.709050  1.0  -0.1399
  C  C544  1  0.401200  0.429500  0.671850  1.0  0.6876
  C  C545  1  0.500000  0.500000  0.558100  1.0  0.6116
  C  C546  1  0.000000  0.000000  0.058100  1.0  0.6116
  C  C547  1  0.500000  0.500000  0.441900  1.0  0.6109
  C  C548  1  0.000000  0.000000  0.941900  1.0  0.6109
  C  C549  1  0.000000  0.500000  0.191900  1.0  0.6109
  C  C550  1  0.500000  0.000000  0.691900  1.0  0.6109
  C  C551  1  0.000000  0.500000  0.308100  1.0  0.6116
  C  C552  1  0.500000  0.000000  0.808100  1.0  0.6116
  O  O553  1  0.871100  0.459700  0.428770  1.0  -0.8149
  O  O554  1  0.616100  0.281800  0.531720  1.0  -0.6187
  O  O555  1  0.594400  0.131500  0.534390  1.0  -0.8071
  O  O556  1  0.903500  0.374000  0.470500  1.0  -0.7352
  O  O557  1  0.754400  0.405000  0.463950  1.0  -0.7319
  O  O558  1  0.819900  0.369200  0.329490  1.0  -0.6499
  O  O559  1  0.821000  0.494700  0.348650  1.0  -0.6191
  O  O560  1  0.491400  0.426600  0.549160  1.0  -0.5772
  O  O561  1  0.005100  0.386100  0.430440  1.0  -0.6144
  O  O562  1  0.371100  0.959700  0.928770  1.0  -0.8149
  O  O563  1  0.116100  0.781800  0.031720  1.0  -0.6187
  O  O564  1  0.094400  0.631500  0.034390  1.0  -0.8071
  O  O565  1  0.403500  0.874000  0.970500  1.0  -0.7352
  O  O566  1  0.254400  0.905000  0.963950  1.0  -0.7319
  O  O567  1  0.319900  0.869200  0.829490  1.0  -0.6499
  O  O568  1  0.321000  0.994700  0.848650  1.0  -0.6191
  O  O569  1  0.991400  0.926600  0.049160  1.0  -0.5772
  O  O570  1  0.505100  0.886100  0.930440  1.0  -0.6144
  O  O571  1  0.128900  0.540300  0.428770  1.0  -0.8143
  O  O572  1  0.383900  0.718200  0.531720  1.0  -0.6201
  O  O573  1  0.405600  0.868500  0.534390  1.0  -0.8068
  O  O574  1  0.096500  0.626000  0.470500  1.0  -0.7376
  O  O575  1  0.245600  0.595000  0.463950  1.0  -0.732
  O  O576  1  0.180100  0.630800  0.329490  1.0  -0.6496
  O  O577  1  0.179000  0.505300  0.348650  1.0  -0.6212
  O  O578  1  0.508600  0.573400  0.549160  1.0  -0.5763
  O  O579  1  0.994900  0.613900  0.430440  1.0  -0.6136
  O  O580  1  0.628900  0.040300  0.928770  1.0  -0.8143
  O  O581  1  0.883900  0.218200  0.031720  1.0  -0.6201
  O  O582  1  0.905600  0.368500  0.034390  1.0  -0.8068
  O  O583  1  0.596500  0.126000  0.970500  1.0  -0.7376
  O  O584  1  0.745600  0.095000  0.963950  1.0  -0.732
  O  O585  1  0.680100  0.130800  0.829490  1.0  -0.6496
  O  O586  1  0.679000  0.005300  0.848650  1.0  -0.6212
  O  O587  1  0.008600  0.073400  0.049160  1.0  -0.5763
  O  O588  1  0.494900  0.113900  0.930440  1.0  -0.6136
  O  O589  1  0.459700  0.128900  0.571230  1.0  -0.8126
  O  O590  1  0.281800  0.383900  0.468280  1.0  -0.6236
  O  O591  1  0.131500  0.405600  0.465610  1.0  -0.8088
  O  O592  1  0.374000  0.096500  0.529500  1.0  -0.739
  O  O593  1  0.405000  0.245600  0.536050  1.0  -0.7305
  O  O594  1  0.369200  0.180100  0.670510  1.0  -0.6486
  O  O595  1  0.494700  0.179000  0.651350  1.0  -0.618
  O  O596  1  0.426600  0.508600  0.450840  1.0  -0.5797
  O  O597  1  0.386100  0.994900  0.569560  1.0  -0.6127
  O  O598  1  0.959700  0.628900  0.071230  1.0  -0.8126
  O  O599  1  0.781800  0.883900  0.968280  1.0  -0.6236
  O  O600  1  0.631500  0.905600  0.965610  1.0  -0.8088
  O  O601  1  0.874000  0.596500  0.029500  1.0  -0.739
  O  O602  1  0.905000  0.745600  0.036050  1.0  -0.7305
  O  O603  1  0.869200  0.680100  0.170510  1.0  -0.6486
  O  O604  1  0.994700  0.679000  0.151350  1.0  -0.618
  O  O605  1  0.926600  0.008600  0.950840  1.0  -0.5797
  O  O606  1  0.886100  0.494900  0.069560  1.0  -0.6127
  O  O607  1  0.540300  0.871100  0.571230  1.0  -0.8132
  O  O608  1  0.718200  0.616100  0.468280  1.0  -0.6218
  O  O609  1  0.868500  0.594400  0.465610  1.0  -0.8086
  O  O610  1  0.626000  0.903500  0.529500  1.0  -0.7399
  O  O611  1  0.595000  0.754400  0.536050  1.0  -0.7296
  O  O612  1  0.630800  0.819900  0.670510  1.0  -0.6491
  O  O613  1  0.505300  0.821000  0.651350  1.0  -0.6205
  O  O614  1  0.573400  0.491400  0.450840  1.0  -0.5784
  O  O615  1  0.613900  0.005100  0.569560  1.0  -0.613
  O  O616  1  0.040300  0.371100  0.071230  1.0  -0.8132
  O  O617  1  0.218200  0.116100  0.968280  1.0  -0.6218
  O  O618  1  0.368500  0.094400  0.965610  1.0  -0.8086
  O  O619  1  0.126000  0.403500  0.029500  1.0  -0.7399
  O  O620  1  0.095000  0.254400  0.036050  1.0  -0.7296
  O  O621  1  0.130800  0.319900  0.170510  1.0  -0.6491
  O  O622  1  0.005300  0.321000  0.151350  1.0  -0.6205
  O  O623  1  0.073400  0.991400  0.950840  1.0  -0.5784
  O  O624  1  0.113900  0.505100  0.069560  1.0  -0.613
  O  O625  1  0.628900  0.459700  0.321230  1.0  -0.815
  O  O626  1  0.883900  0.281800  0.218280  1.0  -0.6187
  O  O627  1  0.905600  0.131500  0.215610  1.0  -0.8071
  O  O628  1  0.596500  0.374000  0.279500  1.0  -0.7358
  O  O629  1  0.745600  0.405000  0.286050  1.0  -0.733
  O  O630  1  0.680100  0.369200  0.420510  1.0  -0.6494
  O  O631  1  0.679000  0.494700  0.401350  1.0  -0.6206
  O  O632  1  0.008600  0.426600  0.200840  1.0  -0.5775
  O  O633  1  0.494900  0.386100  0.319560  1.0  -0.6142
  O  O634  1  0.128900  0.959700  0.821230  1.0  -0.815
  O  O635  1  0.383900  0.781800  0.718280  1.0  -0.6187
  O  O636  1  0.405600  0.631500  0.715610  1.0  -0.8071
  O  O637  1  0.096500  0.874000  0.779500  1.0  -0.7358
  O  O638  1  0.245600  0.905000  0.786050  1.0  -0.733
  O  O639  1  0.180100  0.869200  0.920510  1.0  -0.6494
  O  O640  1  0.179000  0.994700  0.901350  1.0  -0.6206
  O  O641  1  0.508600  0.926600  0.700840  1.0  -0.5775
  O  O642  1  0.994900  0.886100  0.819560  1.0  -0.6142
  O  O643  1  0.371100  0.540300  0.321230  1.0  -0.8147
  O  O644  1  0.116100  0.718200  0.218280  1.0  -0.6209
  O  O645  1  0.094400  0.868500  0.215610  1.0  -0.808
  O  O646  1  0.403500  0.626000  0.279500  1.0  -0.7356
  O  O647  1  0.254400  0.595000  0.286050  1.0  -0.7304
  O  O648  1  0.319900  0.630800  0.420510  1.0  -0.6533
  O  O649  1  0.321000  0.505300  0.401350  1.0  -0.6205
  O  O650  1  0.991400  0.573400  0.200840  1.0  -0.5782
  O  O651  1  0.505100  0.613900  0.319560  1.0  -0.6148
  O  O652  1  0.871100  0.040300  0.821230  1.0  -0.8147
  O  O653  1  0.616100  0.218200  0.718280  1.0  -0.6209
  O  O654  1  0.594400  0.368500  0.715610  1.0  -0.808
  O  O655  1  0.903500  0.126000  0.779500  1.0  -0.7356
  O  O656  1  0.754400  0.095000  0.786050  1.0  -0.7304
  O  O657  1  0.819900  0.130800  0.920510  1.0  -0.6533
  O  O658  1  0.821000  0.005300  0.901350  1.0  -0.6205
  O  O659  1  0.491400  0.073400  0.700840  1.0  -0.5782
  O  O660  1  0.005100  0.113900  0.819560  1.0  -0.6148
  O  O661  1  0.040300  0.128900  0.178770  1.0  -0.8123
  O  O662  1  0.218200  0.383900  0.281720  1.0  -0.6218
  O  O663  1  0.368500  0.405600  0.284390  1.0  -0.8077
  O  O664  1  0.126000  0.096500  0.220500  1.0  -0.7402
  O  O665  1  0.095000  0.245600  0.213950  1.0  -0.7298
  O  O666  1  0.130800  0.180100  0.079490  1.0  -0.6484
  O  O667  1  0.005300  0.179000  0.098650  1.0  -0.6203
  O  O668  1  0.073400  0.508600  0.299160  1.0  -0.5774
  O  O669  1  0.113900  0.994900  0.180440  1.0  -0.6122
  O  O670  1  0.540300  0.628900  0.678770  1.0  -0.8123
  O  O671  1  0.718200  0.883900  0.781720  1.0  -0.6218
  O  O672  1  0.868500  0.905600  0.784390  1.0  -0.8077
  O  O673  1  0.626000  0.596500  0.720500  1.0  -0.7402
  O  O674  1  0.595000  0.745600  0.713950  1.0  -0.7298
  O  O675  1  0.630800  0.680100  0.579490  1.0  -0.6484
  O  O676  1  0.505300  0.679000  0.598650  1.0  -0.6203
  O  O677  1  0.573400  0.008600  0.799160  1.0  -0.5774
  O  O678  1  0.613900  0.494900  0.680440  1.0  -0.6122
  O  O679  1  0.959700  0.871100  0.178770  1.0  -0.8138
  O  O680  1  0.781800  0.616100  0.281720  1.0  -0.6244
  O  O681  1  0.631500  0.594400  0.284390  1.0  -0.8081
  O  O682  1  0.874000  0.903500  0.220500  1.0  -0.7398
  O  O683  1  0.905000  0.754400  0.213950  1.0  -0.7297
  O  O684  1  0.869200  0.819900  0.079490  1.0  -0.6494
  O  O685  1  0.994700  0.821000  0.098650  1.0  -0.6186
  O  O686  1  0.926600  0.491400  0.299160  1.0  -0.5783
  O  O687  1  0.886100  0.005100  0.180440  1.0  -0.6129
  O  O688  1  0.459700  0.371100  0.678770  1.0  -0.8138
  O  O689  1  0.281800  0.116100  0.781720  1.0  -0.6244
  O  O690  1  0.131500  0.094400  0.784390  1.0  -0.8081
  O  O691  1  0.374000  0.403500  0.720500  1.0  -0.7398
  O  O692  1  0.405000  0.254400  0.713950  1.0  -0.7297
  O  O693  1  0.369200  0.319900  0.579490  1.0  -0.6494
  O  O694  1  0.494700  0.321000  0.598650  1.0  -0.6186
  O  O695  1  0.426600  0.991400  0.799160  1.0  -0.5783
  O  O696  1  0.386100  0.505100  0.680440  1.0  -0.6129
