# generated using pymatgen
data_EuH7(C5O2)3
_symmetry_space_group_name_H-M   'P 1'
_cell_length_a   14.21180000
_cell_length_b   14.21180000
_cell_length_c   63.50100000
_cell_angle_alpha   90.00000000
_cell_angle_beta   90.00000000
_cell_angle_gamma   90.00000000
_symmetry_Int_Tables_number   1
_chemical_formula_structural   EuH7(C5O2)3
_chemical_formula_sum   'Eu24 H168 C360 O144'
_cell_volume   12825.63093700
_cell_formula_units_Z   24
loop_
 _symmetry_equiv_pos_site_id
 _symmetry_equiv_pos_as_xyz
  1  'x, y, z'
loop_
 _atom_site_type_symbol
 _atom_site_label
 _atom_site_symmetry_multiplicity
 _atom_site_fract_x
 _atom_site_fract_y
 _atom_site_fract_z
 _atom_site_occupancy
 _atom_site_charge
  Eu  Eu1  1  0.222040  0.980800  0.438260  1.0  2.1302
  Eu  Eu2  1  0.722040  0.480800  0.938260  1.0  2.1302
  Eu  Eu3  1  0.777960  0.019200  0.438260  1.0  2.1305
  Eu  Eu4  1  0.277960  0.519200  0.938260  1.0  2.1305
  Eu  Eu5  1  0.980800  0.777960  0.561740  1.0  2.1298
  Eu  Eu6  1  0.480800  0.277960  0.061740  1.0  2.1298
  Eu  Eu7  1  0.019200  0.222040  0.561740  1.0  2.1314
  Eu  Eu8  1  0.519200  0.722040  0.061740  1.0  2.1314
  Eu  Eu9  1  0.277960  0.980800  0.311740  1.0  2.1308
  Eu  Eu10  1  0.777960  0.480800  0.811740  1.0  2.1308
  Eu  Eu11  1  0.722040  0.019200  0.311740  1.0  2.1301
  Eu  Eu12  1  0.222040  0.519200  0.811740  1.0  2.1301
  Eu  Eu13  1  0.519200  0.777960  0.188260  1.0  2.1311
  Eu  Eu14  1  0.019200  0.277960  0.688260  1.0  2.1311
  Eu  Eu15  1  0.480800  0.222040  0.188260  1.0  2.1294
  Eu  Eu16  1  0.980800  0.722040  0.688260  1.0  2.1294
  Eu  Eu17  1  0.500000  0.000000  0.459800  1.0  2.1782
  Eu  Eu18  1  0.000000  0.500000  0.959800  1.0  2.1782
  Eu  Eu19  1  0.000000  0.500000  0.540200  1.0  2.178
  Eu  Eu20  1  0.500000  0.000000  0.040200  1.0  2.178
  Eu  Eu21  1  0.000000  0.000000  0.290200  1.0  2.1777
  Eu  Eu22  1  0.500000  0.500000  0.790200  1.0  2.1777
  Eu  Eu23  1  0.500000  0.500000  0.209800  1.0  2.1783
  Eu  Eu24  1  0.000000  0.000000  0.709800  1.0  2.1783
  H  H25  1  0.449500  0.784800  0.490000  1.0  0.0964
  H  H26  1  0.463900  0.671000  0.516600  1.0  0.1071
  H  H27  1  0.177000  0.803800  0.500700  1.0  0.1169
  H  H28  1  0.400800  0.501500  0.527800  1.0  0.1001
  H  H29  1  0.425300  0.406800  0.556500  1.0  0.1043
  H  H30  1  0.358100  0.441400  0.587600  1.0  0.1043
  H  H31  1  0.253600  0.670800  0.563600  1.0  0.0689
  H  H32  1  0.358700  0.593600  0.620400  1.0  0.1236
  H  H33  1  0.269000  0.630500  0.648100  1.0  0.081
  H  H34  1  0.034700  0.632200  0.615000  1.0  0.1199
  H  H35  1  0.949500  0.284800  0.990000  1.0  0.0964
  H  H36  1  0.963900  0.171000  0.016600  1.0  0.1071
  H  H37  1  0.677000  0.303800  0.000700  1.0  0.1169
  H  H38  1  0.900800  0.001500  0.027800  1.0  0.1001
  H  H39  1  0.925300  0.906800  0.056500  1.0  0.1043
  H  H40  1  0.858100  0.941400  0.087600  1.0  0.1043
  H  H41  1  0.753600  0.170800  0.063600  1.0  0.0689
  H  H42  1  0.858700  0.093600  0.120400  1.0  0.1236
  H  H43  1  0.769000  0.130500  0.148100  1.0  0.081
  H  H44  1  0.534700  0.132200  0.115000  1.0  0.1199
  H  H45  1  0.550500  0.215200  0.490000  1.0  0.0962
  H  H46  1  0.536100  0.329000  0.516600  1.0  0.1066
  H  H47  1  0.823000  0.196200  0.500700  1.0  0.116
  H  H48  1  0.599200  0.498500  0.527800  1.0  0.1002
  H  H49  1  0.574700  0.593200  0.556500  1.0  0.1052
  H  H50  1  0.641900  0.558600  0.587600  1.0  0.1052
  H  H51  1  0.746400  0.329200  0.563600  1.0  0.0679
  H  H52  1  0.641300  0.406400  0.620400  1.0  0.123
  H  H53  1  0.731000  0.369500  0.648100  1.0  0.0814
  H  H54  1  0.965300  0.367800  0.615000  1.0  0.1207
  H  H55  1  0.050500  0.715200  0.990000  1.0  0.0962
  H  H56  1  0.036100  0.829000  0.016600  1.0  0.1066
  H  H57  1  0.323000  0.696200  0.000700  1.0  0.116
  H  H58  1  0.099200  0.998500  0.027800  1.0  0.1002
  H  H59  1  0.074700  0.093200  0.056500  1.0  0.1052
  H  H60  1  0.141900  0.058600  0.087600  1.0  0.1052
  H  H61  1  0.246400  0.829200  0.063600  1.0  0.0679
  H  H62  1  0.141300  0.906400  0.120400  1.0  0.123
  H  H63  1  0.231000  0.869500  0.148100  1.0  0.0814
  H  H64  1  0.465300  0.867800  0.115000  1.0  0.1207
  H  H65  1  0.784800  0.550500  0.510000  1.0  0.0955
  H  H66  1  0.671000  0.536100  0.483400  1.0  0.1054
  H  H67  1  0.803800  0.823000  0.499300  1.0  0.117
  H  H68  1  0.501500  0.599200  0.472200  1.0  0.0994
  H  H69  1  0.406800  0.574700  0.443500  1.0  0.1021
  H  H70  1  0.441400  0.641900  0.412400  1.0  0.106
  H  H71  1  0.670800  0.746400  0.436400  1.0  0.0709
  H  H72  1  0.593600  0.641300  0.379600  1.0  0.1226
  H  H73  1  0.630500  0.731000  0.351900  1.0  0.0785
  H  H74  1  0.632200  0.965300  0.385000  1.0  0.1205
  H  H75  1  0.284800  0.050500  0.010000  1.0  0.0955
  H  H76  1  0.171000  0.036100  0.983400  1.0  0.1054
  H  H77  1  0.303800  0.323000  0.999300  1.0  0.117
  H  H78  1  0.001500  0.099200  0.972200  1.0  0.0994
  H  H79  1  0.906800  0.074700  0.943500  1.0  0.1021
  H  H80  1  0.941400  0.141900  0.912400  1.0  0.106
  H  H81  1  0.170800  0.246400  0.936400  1.0  0.0709
  H  H82  1  0.093600  0.141300  0.879600  1.0  0.1226
  H  H83  1  0.130500  0.231000  0.851900  1.0  0.0785
  H  H84  1  0.132200  0.465300  0.885000  1.0  0.1205
  H  H85  1  0.215200  0.449500  0.510000  1.0  0.0966
  H  H86  1  0.329000  0.463900  0.483400  1.0  0.105
  H  H87  1  0.196200  0.177000  0.499300  1.0  0.1173
  H  H88  1  0.498500  0.400800  0.472200  1.0  0.0995
  H  H89  1  0.593200  0.425300  0.443500  1.0  0.1042
  H  H90  1  0.558600  0.358100  0.412400  1.0  0.1062
  H  H91  1  0.329200  0.253600  0.436400  1.0  0.0702
  H  H92  1  0.406400  0.358700  0.379600  1.0  0.1222
  H  H93  1  0.369500  0.269000  0.351900  1.0  0.079
  H  H94  1  0.367800  0.034700  0.385000  1.0  0.1221
  H  H95  1  0.715200  0.949500  0.010000  1.0  0.0966
  H  H96  1  0.829000  0.963900  0.983400  1.0  0.105
  H  H97  1  0.696200  0.677000  0.999300  1.0  0.1173
  H  H98  1  0.998500  0.900800  0.972200  1.0  0.0995
  H  H99  1  0.093200  0.925300  0.943500  1.0  0.1042
  H  H100  1  0.058600  0.858100  0.912400  1.0  0.1062
  H  H101  1  0.829200  0.753600  0.936400  1.0  0.0702
  H  H102  1  0.906400  0.858700  0.879600  1.0  0.1222
  H  H103  1  0.869500  0.769000  0.851900  1.0  0.079
  H  H104  1  0.867800  0.534700  0.885000  1.0  0.1221
  H  H105  1  0.050500  0.784800  0.260000  1.0  0.0961
  H  H106  1  0.036100  0.671000  0.233400  1.0  0.1067
  H  H107  1  0.323000  0.803800  0.249300  1.0  0.1162
  H  H108  1  0.099200  0.501500  0.222200  1.0  0.0989
  H  H109  1  0.074700  0.406800  0.193500  1.0  0.1045
  H  H110  1  0.141900  0.441400  0.162400  1.0  0.1047
  H  H111  1  0.246400  0.670800  0.186400  1.0  0.0687
  H  H112  1  0.141300  0.593600  0.129600  1.0  0.1234
  H  H113  1  0.231000  0.630500  0.101900  1.0  0.0816
  H  H114  1  0.465300  0.632200  0.135000  1.0  0.1205
  H  H115  1  0.550500  0.284800  0.760000  1.0  0.0961
  H  H116  1  0.536100  0.171000  0.733400  1.0  0.1067
  H  H117  1  0.823000  0.303800  0.749300  1.0  0.1162
  H  H118  1  0.599200  0.001500  0.722200  1.0  0.0989
  H  H119  1  0.574700  0.906800  0.693500  1.0  0.1045
  H  H120  1  0.641900  0.941400  0.662400  1.0  0.1047
  H  H121  1  0.746400  0.170800  0.686400  1.0  0.0687
  H  H122  1  0.641300  0.093600  0.629600  1.0  0.1234
  H  H123  1  0.731000  0.130500  0.601900  1.0  0.0816
  H  H124  1  0.965300  0.132200  0.635000  1.0  0.1205
  H  H125  1  0.949500  0.215200  0.260000  1.0  0.0958
  H  H126  1  0.963900  0.329000  0.233400  1.0  0.1066
  H  H127  1  0.677000  0.196200  0.249300  1.0  0.1169
  H  H128  1  0.900800  0.498500  0.222200  1.0  0.0992
  H  H129  1  0.925300  0.593200  0.193500  1.0  0.1052
  H  H130  1  0.858100  0.558600  0.162400  1.0  0.1049
  H  H131  1  0.753600  0.329200  0.186400  1.0  0.0683
  H  H132  1  0.858700  0.406400  0.129600  1.0  0.1232
  H  H133  1  0.769000  0.369500  0.101900  1.0  0.0805
  H  H134  1  0.534700  0.367800  0.135000  1.0  0.1201
  H  H135  1  0.449500  0.715200  0.760000  1.0  0.0958
  H  H136  1  0.463900  0.829000  0.733400  1.0  0.1066
  H  H137  1  0.177000  0.696200  0.749300  1.0  0.1169
  H  H138  1  0.400800  0.998500  0.722200  1.0  0.0992
  H  H139  1  0.425300  0.093200  0.693500  1.0  0.1052
  H  H140  1  0.358100  0.058600  0.662400  1.0  0.1049
  H  H141  1  0.253600  0.829200  0.686400  1.0  0.0683
  H  H142  1  0.358700  0.906400  0.629600  1.0  0.1232
  H  H143  1  0.269000  0.869500  0.601900  1.0  0.0805
  H  H144  1  0.034700  0.867800  0.635000  1.0  0.1201
  H  H145  1  0.715200  0.550500  0.240000  1.0  0.0965
  H  H146  1  0.829000  0.536100  0.266600  1.0  0.105
  H  H147  1  0.696200  0.823000  0.250700  1.0  0.1171
  H  H148  1  0.998500  0.599200  0.277800  1.0  0.1006
  H  H149  1  0.093200  0.574700  0.306500  1.0  0.1024
  H  H150  1  0.058600  0.641900  0.337600  1.0  0.1056
  H  H151  1  0.829200  0.746400  0.313600  1.0  0.0702
  H  H152  1  0.906400  0.641300  0.370400  1.0  0.1228
  H  H153  1  0.869500  0.731000  0.398100  1.0  0.0784
  H  H154  1  0.867800  0.965300  0.365000  1.0  0.1206
  H  H155  1  0.215200  0.050500  0.740000  1.0  0.0965
  H  H156  1  0.329000  0.036100  0.766600  1.0  0.105
  H  H157  1  0.196200  0.323000  0.750700  1.0  0.1171
  H  H158  1  0.498500  0.099200  0.777800  1.0  0.1006
  H  H159  1  0.593200  0.074700  0.806500  1.0  0.1024
  H  H160  1  0.558600  0.141900  0.837600  1.0  0.1056
  H  H161  1  0.329200  0.246400  0.813600  1.0  0.0702
  H  H162  1  0.406400  0.141300  0.870400  1.0  0.1228
  H  H163  1  0.369500  0.231000  0.898100  1.0  0.0784
  H  H164  1  0.367800  0.465300  0.865000  1.0  0.1206
  H  H165  1  0.284800  0.449500  0.240000  1.0  0.0964
  H  H166  1  0.171000  0.463900  0.266600  1.0  0.1057
  H  H167  1  0.303800  0.177000  0.250700  1.0  0.1174
  H  H168  1  0.001500  0.400800  0.277800  1.0  0.1003
  H  H169  1  0.906800  0.425300  0.306500  1.0  0.103
  H  H170  1  0.941400  0.358100  0.337600  1.0  0.1068
  H  H171  1  0.170800  0.253600  0.313600  1.0  0.0709
  H  H172  1  0.093600  0.358700  0.370400  1.0  0.1227
  H  H173  1  0.130500  0.269000  0.398100  1.0  0.079
  H  H174  1  0.132200  0.034700  0.365000  1.0  0.1219
  H  H175  1  0.784800  0.949500  0.740000  1.0  0.0964
  H  H176  1  0.671000  0.963900  0.766600  1.0  0.1057
  H  H177  1  0.803800  0.677000  0.750700  1.0  0.1174
  H  H178  1  0.501500  0.900800  0.777800  1.0  0.1003
  H  H179  1  0.406800  0.925300  0.806500  1.0  0.103
  H  H180  1  0.441400  0.858100  0.837600  1.0  0.1068
  H  H181  1  0.670800  0.753600  0.813600  1.0  0.0709
  H  H182  1  0.593600  0.858700  0.870400  1.0  0.1227
  H  H183  1  0.630500  0.769000  0.898100  1.0  0.079
  H  H184  1  0.632200  0.534700  0.865000  1.0  0.1219
  H  H185  1  0.000000  0.000000  0.428300  1.0  0.0119
  H  H186  1  0.500000  0.500000  0.928300  1.0  0.0119
  H  H187  1  0.000000  0.000000  0.571700  1.0  0.0109
  H  H188  1  0.500000  0.500000  0.071700  1.0  0.0109
  H  H189  1  0.500000  0.000000  0.321700  1.0  0.0109
  H  H190  1  0.000000  0.500000  0.821700  1.0  0.0109
  H  H191  1  0.500000  0.000000  0.178300  1.0  0.0119
  H  H192  1  0.000000  0.500000  0.678300  1.0  0.0119
  C  C193  1  0.316300  0.792200  0.491600  1.0  -0.0386
  C  C194  1  0.396200  0.762700  0.496900  1.0  -0.1316
  C  C195  1  0.405400  0.696400  0.513300  1.0  -0.114
  C  C196  1  0.321000  0.667900  0.525000  1.0  0.0295
  C  C197  1  0.236300  0.707500  0.518800  1.0  -0.0392
  C  C198  1  0.232800  0.772100  0.503600  1.0  -0.0719
  C  C199  1  0.335700  0.603600  0.542900  1.0  0.0651
  C  C200  1  0.378400  0.520100  0.541000  1.0  -0.1845
  C  C201  1  0.390000  0.461500  0.557900  1.0  -0.1331
  C  C202  1  0.350500  0.483000  0.576400  1.0  -0.1401
  C  C203  1  0.298400  0.564200  0.579500  1.0  0.1545
  C  C204  1  0.291700  0.617800  0.562500  1.0  -0.1109
  C  C205  1  0.247600  0.584500  0.598400  1.0  0.0161
  C  C206  1  0.293900  0.599700  0.618900  1.0  -0.1809
  C  C207  1  0.239000  0.622700  0.635200  1.0  -0.0551
  C  C208  1  0.145700  0.635700  0.635000  1.0  -0.1187
  C  C209  1  0.099200  0.622200  0.616100  1.0  -0.0792
  C  C210  1  0.152700  0.592800  0.598500  1.0  -0.1044
  C  C211  1  0.302600  0.868300  0.474600  1.0  0.5794
  C  C212  1  0.142000  0.681300  0.529000  1.0  0.6607
  C  C213  1  0.099000  0.571900  0.577700  1.0  0.6861
  C  C214  1  0.094000  0.659100  0.654000  1.0  0.6375
  C  C215  1  0.816300  0.292200  0.991600  1.0  -0.0386
  C  C216  1  0.896200  0.262700  0.996900  1.0  -0.1316
  C  C217  1  0.905400  0.196400  0.013300  1.0  -0.114
  C  C218  1  0.821000  0.167900  0.025000  1.0  0.0295
  C  C219  1  0.736300  0.207500  0.018800  1.0  -0.0392
  C  C220  1  0.732800  0.272100  0.003600  1.0  -0.0719
  C  C221  1  0.835700  0.103600  0.042900  1.0  0.0651
  C  C222  1  0.878400  0.020100  0.041000  1.0  -0.1845
  C  C223  1  0.890000  0.961500  0.057900  1.0  -0.1331
  C  C224  1  0.850500  0.983000  0.076400  1.0  -0.1401
  C  C225  1  0.798400  0.064200  0.079500  1.0  0.1545
  C  C226  1  0.791700  0.117800  0.062500  1.0  -0.1109
  C  C227  1  0.747600  0.084500  0.098400  1.0  0.0161
  C  C228  1  0.793900  0.099700  0.118900  1.0  -0.1809
  C  C229  1  0.739000  0.122700  0.135200  1.0  -0.0551
  C  C230  1  0.645700  0.135700  0.135000  1.0  -0.1187
  C  C231  1  0.599200  0.122200  0.116100  1.0  -0.0792
  C  C232  1  0.652700  0.092800  0.098500  1.0  -0.1044
  C  C233  1  0.802600  0.368300  0.974600  1.0  0.5794
  C  C234  1  0.642000  0.181300  0.029000  1.0  0.6607
  C  C235  1  0.599000  0.071900  0.077700  1.0  0.6861
  C  C236  1  0.594000  0.159100  0.154000  1.0  0.6375
  C  C237  1  0.683700  0.207800  0.491600  1.0  -0.0389
  C  C238  1  0.603800  0.237300  0.496900  1.0  -0.1338
  C  C239  1  0.594600  0.303600  0.513300  1.0  -0.115
  C  C240  1  0.679000  0.332100  0.525000  1.0  0.0293
  C  C241  1  0.763700  0.292500  0.518800  1.0  -0.0385
  C  C242  1  0.767200  0.227900  0.503600  1.0  -0.0706
  C  C243  1  0.664300  0.396400  0.542900  1.0  0.0652
  C  C244  1  0.621600  0.479900  0.541000  1.0  -0.1854
  C  C245  1  0.610000  0.538500  0.557900  1.0  -0.1339
  C  C246  1  0.649500  0.517000  0.576400  1.0  -0.1417
  C  C247  1  0.701600  0.435800  0.579500  1.0  0.1535
  C  C248  1  0.708300  0.382200  0.562500  1.0  -0.1083
  C  C249  1  0.752400  0.415500  0.598400  1.0  0.0151
  C  C250  1  0.706100  0.400300  0.618900  1.0  -0.1811
  C  C251  1  0.761000  0.377300  0.635200  1.0  -0.0558
  C  C252  1  0.854300  0.364300  0.635000  1.0  -0.1183
  C  C253  1  0.900800  0.377800  0.616100  1.0  -0.0795
  C  C254  1  0.847300  0.407200  0.598500  1.0  -0.1037
  C  C255  1  0.697400  0.131700  0.474600  1.0  0.5794
  C  C256  1  0.858000  0.318700  0.529000  1.0  0.6603
  C  C257  1  0.901000  0.428100  0.577700  1.0  0.685
  C  C258  1  0.906000  0.340900  0.654000  1.0  0.6364
  C  C259  1  0.183700  0.707800  0.991600  1.0  -0.0389
  C  C260  1  0.103800  0.737300  0.996900  1.0  -0.1338
  C  C261  1  0.094600  0.803600  0.013300  1.0  -0.115
  C  C262  1  0.179000  0.832100  0.025000  1.0  0.0293
  C  C263  1  0.263700  0.792500  0.018800  1.0  -0.0385
  C  C264  1  0.267200  0.727900  0.003600  1.0  -0.0706
  C  C265  1  0.164300  0.896400  0.042900  1.0  0.0652
  C  C266  1  0.121600  0.979900  0.041000  1.0  -0.1854
  C  C267  1  0.110000  0.038500  0.057900  1.0  -0.1339
  C  C268  1  0.149500  0.017000  0.076400  1.0  -0.1417
  C  C269  1  0.201600  0.935800  0.079500  1.0  0.1535
  C  C270  1  0.208300  0.882200  0.062500  1.0  -0.1083
  C  C271  1  0.252400  0.915500  0.098400  1.0  0.0151
  C  C272  1  0.206100  0.900300  0.118900  1.0  -0.1811
  C  C273  1  0.261000  0.877300  0.135200  1.0  -0.0558
  C  C274  1  0.354300  0.864300  0.135000  1.0  -0.1183
  C  C275  1  0.400800  0.877800  0.116100  1.0  -0.0795
  C  C276  1  0.347300  0.907200  0.098500  1.0  -0.1037
  C  C277  1  0.197400  0.631700  0.974600  1.0  0.5794
  C  C278  1  0.358000  0.818700  0.029000  1.0  0.6603
  C  C279  1  0.401000  0.928100  0.077700  1.0  0.685
  C  C280  1  0.406000  0.840900  0.154000  1.0  0.6364
  C  C281  1  0.792200  0.683700  0.508400  1.0  -0.036
  C  C282  1  0.762700  0.603800  0.503100  1.0  -0.1332
  C  C283  1  0.696400  0.594600  0.486700  1.0  -0.1085
  C  C284  1  0.667900  0.679000  0.475000  1.0  0.0289
  C  C285  1  0.707500  0.763700  0.481200  1.0  -0.0375
  C  C286  1  0.772100  0.767200  0.496400  1.0  -0.0698
  C  C287  1  0.603600  0.664300  0.457100  1.0  0.0654
  C  C288  1  0.520100  0.621600  0.459000  1.0  -0.1885
  C  C289  1  0.461500  0.610000  0.442100  1.0  -0.1331
  C  C290  1  0.483000  0.649500  0.423600  1.0  -0.1354
  C  C291  1  0.564200  0.701600  0.420500  1.0  0.1557
  C  C292  1  0.617800  0.708300  0.437500  1.0  -0.1087
  C  C293  1  0.584500  0.752400  0.401600  1.0  0.015
  C  C294  1  0.599700  0.706100  0.381100  1.0  -0.1793
  C  C295  1  0.622700  0.761000  0.364800  1.0  -0.0584
  C  C296  1  0.635700  0.854300  0.365000  1.0  -0.1233
  C  C297  1  0.622200  0.900800  0.383900  1.0  -0.0829
  C  C298  1  0.592800  0.847300  0.401500  1.0  -0.1034
  C  C299  1  0.868300  0.697400  0.525400  1.0  0.5797
  C  C300  1  0.681300  0.858000  0.471000  1.0  0.6591
  C  C301  1  0.571900  0.901000  0.422300  1.0  0.6854
  C  C302  1  0.659100  0.906000  0.346000  1.0  0.6382
  C  C303  1  0.292200  0.183700  0.008400  1.0  -0.036
  C  C304  1  0.262700  0.103800  0.003100  1.0  -0.1332
  C  C305  1  0.196400  0.094600  0.986700  1.0  -0.1085
  C  C306  1  0.167900  0.179000  0.975000  1.0  0.0289
  C  C307  1  0.207500  0.263700  0.981200  1.0  -0.0375
  C  C308  1  0.272100  0.267200  0.996400  1.0  -0.0698
  C  C309  1  0.103600  0.164300  0.957100  1.0  0.0654
  C  C310  1  0.020100  0.121600  0.959000  1.0  -0.1885
  C  C311  1  0.961500  0.110000  0.942100  1.0  -0.1331
  C  C312  1  0.983000  0.149500  0.923600  1.0  -0.1354
  C  C313  1  0.064200  0.201600  0.920500  1.0  0.1557
  C  C314  1  0.117800  0.208300  0.937500  1.0  -0.1087
  C  C315  1  0.084500  0.252400  0.901600  1.0  0.015
  C  C316  1  0.099700  0.206100  0.881100  1.0  -0.1793
  C  C317  1  0.122700  0.261000  0.864800  1.0  -0.0584
  C  C318  1  0.135700  0.354300  0.865000  1.0  -0.1233
  C  C319  1  0.122200  0.400800  0.883900  1.0  -0.0829
  C  C320  1  0.092800  0.347300  0.901500  1.0  -0.1034
  C  C321  1  0.368300  0.197400  0.025400  1.0  0.5797
  C  C322  1  0.181300  0.358000  0.971000  1.0  0.6591
  C  C323  1  0.071900  0.401000  0.922300  1.0  0.6854
  C  C324  1  0.159100  0.406000  0.846000  1.0  0.6382
  C  C325  1  0.207800  0.316300  0.508400  1.0  -0.035
  C  C326  1  0.237300  0.396200  0.503100  1.0  -0.1348
  C  C327  1  0.303600  0.405400  0.486700  1.0  -0.1123
  C  C328  1  0.332100  0.321000  0.475000  1.0  0.0283
  C  C329  1  0.292500  0.236300  0.481200  1.0  -0.0374
  C  C330  1  0.227900  0.232800  0.496400  1.0  -0.0692
  C  C331  1  0.396400  0.335700  0.457100  1.0  0.0651
  C  C332  1  0.479900  0.378400  0.459000  1.0  -0.1872
  C  C333  1  0.538500  0.390000  0.442100  1.0  -0.1318
  C  C334  1  0.517000  0.350500  0.423600  1.0  -0.1365
  C  C335  1  0.435800  0.298400  0.420500  1.0  0.1568
  C  C336  1  0.382200  0.291700  0.437500  1.0  -0.1074
  C  C337  1  0.415500  0.247600  0.401600  1.0  0.0165
  C  C338  1  0.400300  0.293900  0.381100  1.0  -0.1826
  C  C339  1  0.377300  0.239000  0.364800  1.0  -0.058
  C  C340  1  0.364300  0.145700  0.365000  1.0  -0.1219
  C  C341  1  0.377800  0.099200  0.383900  1.0  -0.0826
  C  C342  1  0.407200  0.152700  0.401500  1.0  -0.1033
  C  C343  1  0.131700  0.302600  0.525400  1.0  0.5787
  C  C344  1  0.318700  0.142000  0.471000  1.0  0.66
  C  C345  1  0.428100  0.099000  0.422300  1.0  0.6864
  C  C346  1  0.340900  0.094000  0.346000  1.0  0.6372
  C  C347  1  0.707800  0.816300  0.008400  1.0  -0.035
  C  C348  1  0.737300  0.896200  0.003100  1.0  -0.1348
  C  C349  1  0.803600  0.905400  0.986700  1.0  -0.1123
  C  C350  1  0.832100  0.821000  0.975000  1.0  0.0283
  C  C351  1  0.792500  0.736300  0.981200  1.0  -0.0374
  C  C352  1  0.727900  0.732800  0.996400  1.0  -0.0692
  C  C353  1  0.896400  0.835700  0.957100  1.0  0.0651
  C  C354  1  0.979900  0.878400  0.959000  1.0  -0.1872
  C  C355  1  0.038500  0.890000  0.942100  1.0  -0.1318
  C  C356  1  0.017000  0.850500  0.923600  1.0  -0.1365
  C  C357  1  0.935800  0.798400  0.920500  1.0  0.1568
  C  C358  1  0.882200  0.791700  0.937500  1.0  -0.1074
  C  C359  1  0.915500  0.747600  0.901600  1.0  0.0165
  C  C360  1  0.900300  0.793900  0.881100  1.0  -0.1826
  C  C361  1  0.877300  0.739000  0.864800  1.0  -0.058
  C  C362  1  0.864300  0.645700  0.865000  1.0  -0.1219
  C  C363  1  0.877800  0.599200  0.883900  1.0  -0.0826
  C  C364  1  0.907200  0.652700  0.901500  1.0  -0.1033
  C  C365  1  0.631700  0.802600  0.025400  1.0  0.5787
  C  C366  1  0.818700  0.642000  0.971000  1.0  0.66
  C  C367  1  0.928100  0.599000  0.922300  1.0  0.6864
  C  C368  1  0.840900  0.594000  0.846000  1.0  0.6372
  C  C369  1  0.183700  0.792200  0.258400  1.0  -0.0385
  C  C370  1  0.103800  0.762700  0.253100  1.0  -0.1358
  C  C371  1  0.094600  0.696400  0.236700  1.0  -0.1159
  C  C372  1  0.179000  0.667900  0.225000  1.0  0.0297
  C  C373  1  0.263700  0.707500  0.231200  1.0  -0.0393
  C  C374  1  0.267200  0.772100  0.246400  1.0  -0.0703
  C  C375  1  0.164300  0.603600  0.207100  1.0  0.0652
  C  C376  1  0.121600  0.520100  0.209000  1.0  -0.1858
  C  C377  1  0.110000  0.461500  0.192100  1.0  -0.1335
  C  C378  1  0.149500  0.483000  0.173600  1.0  -0.1393
  C  C379  1  0.201600  0.564200  0.170500  1.0  0.1535
  C  C380  1  0.208300  0.617800  0.187500  1.0  -0.1099
  C  C381  1  0.252400  0.584500  0.151600  1.0  0.014
  C  C382  1  0.206100  0.599700  0.131100  1.0  -0.1794
  C  C383  1  0.261000  0.622700  0.114800  1.0  -0.0556
  C  C384  1  0.354300  0.635700  0.115000  1.0  -0.1188
  C  C385  1  0.400800  0.622200  0.133900  1.0  -0.0808
  C  C386  1  0.347300  0.592800  0.151500  1.0  -0.1049
  C  C387  1  0.197400  0.868300  0.275400  1.0  0.5801
  C  C388  1  0.358000  0.681300  0.221000  1.0  0.6589
  C  C389  1  0.401000  0.571900  0.172300  1.0  0.6854
  C  C390  1  0.406000  0.659100  0.096000  1.0  0.6367
  C  C391  1  0.683700  0.292200  0.758400  1.0  -0.0385
  C  C392  1  0.603800  0.262700  0.753100  1.0  -0.1358
  C  C393  1  0.594600  0.196400  0.736700  1.0  -0.1159
  C  C394  1  0.679000  0.167900  0.725000  1.0  0.0297
  C  C395  1  0.763700  0.207500  0.731200  1.0  -0.0393
  C  C396  1  0.767200  0.272100  0.746400  1.0  -0.0703
  C  C397  1  0.664300  0.103600  0.707100  1.0  0.0652
  C  C398  1  0.621600  0.020100  0.709000  1.0  -0.1858
  C  C399  1  0.610000  0.961500  0.692100  1.0  -0.1335
  C  C400  1  0.649500  0.983000  0.673600  1.0  -0.1393
  C  C401  1  0.701600  0.064200  0.670500  1.0  0.1535
  C  C402  1  0.708300  0.117800  0.687500  1.0  -0.1099
  C  C403  1  0.752400  0.084500  0.651600  1.0  0.014
  C  C404  1  0.706100  0.099700  0.631100  1.0  -0.1794
  C  C405  1  0.761000  0.122700  0.614800  1.0  -0.0556
  C  C406  1  0.854300  0.135700  0.615000  1.0  -0.1188
  C  C407  1  0.900800  0.122200  0.633900  1.0  -0.0808
  C  C408  1  0.847300  0.092800  0.651500  1.0  -0.1049
  C  C409  1  0.697400  0.368300  0.775400  1.0  0.5801
  C  C410  1  0.858000  0.181300  0.721000  1.0  0.6589
  C  C411  1  0.901000  0.071900  0.672300  1.0  0.6854
  C  C412  1  0.906000  0.159100  0.596000  1.0  0.6367
  C  C413  1  0.816300  0.207800  0.258400  1.0  -0.0391
  C  C414  1  0.896200  0.237300  0.253100  1.0  -0.133
  C  C415  1  0.905400  0.303600  0.236700  1.0  -0.1133
  C  C416  1  0.821000  0.332100  0.225000  1.0  0.0293
  C  C417  1  0.736300  0.292500  0.231200  1.0  -0.0387
  C  C418  1  0.732800  0.227900  0.246400  1.0  -0.0707
  C  C419  1  0.835700  0.396400  0.207100  1.0  0.0652
  C  C420  1  0.878400  0.479900  0.209000  1.0  -0.1849
  C  C421  1  0.890000  0.538500  0.192100  1.0  -0.1317
  C  C422  1  0.850500  0.517000  0.173600  1.0  -0.1402
  C  C423  1  0.798400  0.435800  0.170500  1.0  0.1555
  C  C424  1  0.791700  0.382200  0.187500  1.0  -0.1089
  C  C425  1  0.747600  0.415500  0.151600  1.0  0.0147
  C  C426  1  0.793900  0.400300  0.131100  1.0  -0.1801
  C  C427  1  0.739000  0.377300  0.114800  1.0  -0.0581
  C  C428  1  0.645700  0.364300  0.115000  1.0  -0.1185
  C  C429  1  0.599200  0.377800  0.133900  1.0  -0.0802
  C  C430  1  0.652700  0.407200  0.151500  1.0  -0.1043
  C  C431  1  0.802600  0.131700  0.275400  1.0  0.5791
  C  C432  1  0.642000  0.318700  0.221000  1.0  0.6604
  C  C433  1  0.599000  0.428100  0.172300  1.0  0.6857
  C  C434  1  0.594000  0.340900  0.096000  1.0  0.638
  C  C435  1  0.316300  0.707800  0.758400  1.0  -0.0391
  C  C436  1  0.396200  0.737300  0.753100  1.0  -0.133
  C  C437  1  0.405400  0.803600  0.736700  1.0  -0.1133
  C  C438  1  0.321000  0.832100  0.725000  1.0  0.0293
  C  C439  1  0.236300  0.792500  0.731200  1.0  -0.0387
  C  C440  1  0.232800  0.727900  0.746400  1.0  -0.0707
  C  C441  1  0.335700  0.896400  0.707100  1.0  0.0652
  C  C442  1  0.378400  0.979900  0.709000  1.0  -0.1849
  C  C443  1  0.390000  0.038500  0.692100  1.0  -0.1317
  C  C444  1  0.350500  0.017000  0.673600  1.0  -0.1402
  C  C445  1  0.298400  0.935800  0.670500  1.0  0.1555
  C  C446  1  0.291700  0.882200  0.687500  1.0  -0.1089
  C  C447  1  0.247600  0.915500  0.651600  1.0  0.0147
  C  C448  1  0.293900  0.900300  0.631100  1.0  -0.1801
  C  C449  1  0.239000  0.877300  0.614800  1.0  -0.0581
  C  C450  1  0.145700  0.864300  0.615000  1.0  -0.1185
  C  C451  1  0.099200  0.877800  0.633900  1.0  -0.0802
  C  C452  1  0.152700  0.907200  0.651500  1.0  -0.1043
  C  C453  1  0.302600  0.631700  0.775400  1.0  0.5791
  C  C454  1  0.142000  0.818700  0.721000  1.0  0.6604
  C  C455  1  0.099000  0.928100  0.672300  1.0  0.6857
  C  C456  1  0.094000  0.840900  0.596000  1.0  0.638
  C  C457  1  0.707800  0.683700  0.241600  1.0  -0.0353
  C  C458  1  0.737300  0.603800  0.246900  1.0  -0.1336
  C  C459  1  0.803600  0.594600  0.263300  1.0  -0.1112
  C  C460  1  0.832100  0.679000  0.275000  1.0  0.0282
  C  C461  1  0.792500  0.763700  0.268800  1.0  -0.0377
  C  C462  1  0.727900  0.767200  0.253600  1.0  -0.0706
  C  C463  1  0.896400  0.664300  0.292900  1.0  0.0651
  C  C464  1  0.979900  0.621600  0.291000  1.0  -0.1867
  C  C465  1  0.038500  0.610000  0.307900  1.0  -0.1325
  C  C466  1  0.017000  0.649500  0.326400  1.0  -0.1366
  C  C467  1  0.935800  0.701600  0.329500  1.0  0.1556
  C  C468  1  0.882200  0.708300  0.312500  1.0  -0.108
  C  C469  1  0.915500  0.752400  0.348400  1.0  0.0173
  C  C470  1  0.900300  0.706100  0.368900  1.0  -0.18
  C  C471  1  0.877300  0.761000  0.385200  1.0  -0.0566
  C  C472  1  0.864300  0.854300  0.385000  1.0  -0.1223
  C  C473  1  0.877800  0.900800  0.366100  1.0  -0.0828
  C  C474  1  0.907200  0.847300  0.348500  1.0  -0.1031
  C  C475  1  0.631700  0.697400  0.224600  1.0  0.5785
  C  C476  1  0.818700  0.858000  0.279000  1.0  0.6609
  C  C477  1  0.928100  0.901000  0.327700  1.0  0.6855
  C  C478  1  0.840900  0.906000  0.404000  1.0  0.6357
  C  C479  1  0.207800  0.183700  0.741600  1.0  -0.0353
  C  C480  1  0.237300  0.103800  0.746900  1.0  -0.1336
  C  C481  1  0.303600  0.094600  0.763300  1.0  -0.1112
  C  C482  1  0.332100  0.179000  0.775000  1.0  0.0282
  C  C483  1  0.292500  0.263700  0.768800  1.0  -0.0377
  C  C484  1  0.227900  0.267200  0.753600  1.0  -0.0706
  C  C485  1  0.396400  0.164300  0.792900  1.0  0.0651
  C  C486  1  0.479900  0.121600  0.791000  1.0  -0.1867
  C  C487  1  0.538500  0.110000  0.807900  1.0  -0.1325
  C  C488  1  0.517000  0.149500  0.826400  1.0  -0.1366
  C  C489  1  0.435800  0.201600  0.829500  1.0  0.1556
  C  C490  1  0.382200  0.208300  0.812500  1.0  -0.108
  C  C491  1  0.415500  0.252400  0.848400  1.0  0.0173
  C  C492  1  0.400300  0.206100  0.868900  1.0  -0.18
  C  C493  1  0.377300  0.261000  0.885200  1.0  -0.0566
  C  C494  1  0.364300  0.354300  0.885000  1.0  -0.1223
  C  C495  1  0.377800  0.400800  0.866100  1.0  -0.0828
  C  C496  1  0.407200  0.347300  0.848500  1.0  -0.1031
  C  C497  1  0.131700  0.197400  0.724600  1.0  0.5785
  C  C498  1  0.318700  0.358000  0.779000  1.0  0.6609
  C  C499  1  0.428100  0.401000  0.827700  1.0  0.6855
  C  C500  1  0.340900  0.406000  0.904000  1.0  0.6357
  C  C501  1  0.292200  0.316300  0.241600  1.0  -0.0355
  C  C502  1  0.262700  0.396200  0.246900  1.0  -0.132
  C  C503  1  0.196400  0.405400  0.263300  1.0  -0.1091
  C  C504  1  0.167900  0.321000  0.275000  1.0  0.0288
  C  C505  1  0.207500  0.236300  0.268800  1.0  -0.0372
  C  C506  1  0.272100  0.232800  0.253600  1.0  -0.0687
  C  C507  1  0.103600  0.335700  0.292900  1.0  0.0654
  C  C508  1  0.020100  0.378400  0.291000  1.0  -0.1875
  C  C509  1  0.961500  0.390000  0.307900  1.0  -0.1324
  C  C510  1  0.983000  0.350500  0.326400  1.0  -0.1372
  C  C511  1  0.064200  0.298400  0.329500  1.0  0.1544
  C  C512  1  0.117800  0.291700  0.312500  1.0  -0.1078
  C  C513  1  0.084500  0.247600  0.348400  1.0  0.0169
  C  C514  1  0.099700  0.293900  0.368900  1.0  -0.1829
  C  C515  1  0.122700  0.239000  0.385200  1.0  -0.0584
  C  C516  1  0.135700  0.145700  0.385000  1.0  -0.1226
  C  C517  1  0.122200  0.099200  0.366100  1.0  -0.0812
  C  C518  1  0.092800  0.152700  0.348500  1.0  -0.1032
  C  C519  1  0.368300  0.302600  0.224600  1.0  0.5796
  C  C520  1  0.181300  0.142000  0.279000  1.0  0.6602
  C  C521  1  0.071900  0.099000  0.327700  1.0  0.6867
  C  C522  1  0.159100  0.094000  0.404000  1.0  0.6375
  C  C523  1  0.792200  0.816300  0.741600  1.0  -0.0355
  C  C524  1  0.762700  0.896200  0.746900  1.0  -0.132
  C  C525  1  0.696400  0.905400  0.763300  1.0  -0.1091
  C  C526  1  0.667900  0.821000  0.775000  1.0  0.0288
  C  C527  1  0.707500  0.736300  0.768800  1.0  -0.0372
  C  C528  1  0.772100  0.732800  0.753600  1.0  -0.0687
  C  C529  1  0.603600  0.835700  0.792900  1.0  0.0654
  C  C530  1  0.520100  0.878400  0.791000  1.0  -0.1875
  C  C531  1  0.461500  0.890000  0.807900  1.0  -0.1324
  C  C532  1  0.483000  0.850500  0.826400  1.0  -0.1372
  C  C533  1  0.564200  0.798400  0.829500  1.0  0.1544
  C  C534  1  0.617800  0.791700  0.812500  1.0  -0.1078
  C  C535  1  0.584500  0.747600  0.848400  1.0  0.0169
  C  C536  1  0.599700  0.793900  0.868900  1.0  -0.1829
  C  C537  1  0.622700  0.739000  0.885200  1.0  -0.0584
  C  C538  1  0.635700  0.645700  0.885000  1.0  -0.1226
  C  C539  1  0.622200  0.599200  0.866100  1.0  -0.0812
  C  C540  1  0.592800  0.652700  0.848500  1.0  -0.1032
  C  C541  1  0.868300  0.802600  0.724600  1.0  0.5796
  C  C542  1  0.681300  0.642000  0.779000  1.0  0.6602
  C  C543  1  0.571900  0.599000  0.827700  1.0  0.6867
  C  C544  1  0.659100  0.594000  0.904000  1.0  0.6375
  C  C545  1  0.000000  0.000000  0.443000  1.0  0.6411
  C  C546  1  0.500000  0.500000  0.943000  1.0  0.6411
  C  C547  1  0.000000  0.000000  0.557000  1.0  0.6416
  C  C548  1  0.500000  0.500000  0.057000  1.0  0.6416
  C  C549  1  0.500000  0.000000  0.307000  1.0  0.6416
  C  C550  1  0.000000  0.500000  0.807000  1.0  0.6416
  C  C551  1  0.500000  0.000000  0.193000  1.0  0.6411
  C  C552  1  0.000000  0.500000  0.693000  1.0  0.6411
  O  O553  1  0.374100  0.909000  0.465600  1.0  -0.7553
  O  O554  1  0.218900  0.883400  0.466800  1.0  -0.6416
  O  O555  1  0.095000  0.744500  0.535200  1.0  -0.6547
  O  O556  1  0.122600  0.595100  0.529200  1.0  -0.6757
  O  O557  1  0.044800  0.631500  0.571080  1.0  -0.7135
  O  O558  1  0.113600  0.497700  0.569610  1.0  -0.5875
  O  O559  1  0.136300  0.678600  0.671100  1.0  -0.6518
  O  O560  1  0.001800  0.676800  0.651940  1.0  -0.608
  O  O561  1  0.075500  0.011800  0.451300  1.0  -0.5993
  O  O562  1  0.874100  0.409000  0.965600  1.0  -0.7553
  O  O563  1  0.718900  0.383400  0.966800  1.0  -0.6416
  O  O564  1  0.595000  0.244500  0.035200  1.0  -0.6547
  O  O565  1  0.622600  0.095100  0.029200  1.0  -0.6757
  O  O566  1  0.544800  0.131500  0.071080  1.0  -0.7135
  O  O567  1  0.613600  0.997700  0.069610  1.0  -0.5875
  O  O568  1  0.636300  0.178600  0.171100  1.0  -0.6518
  O  O569  1  0.501800  0.176800  0.151940  1.0  -0.608
  O  O570  1  0.575500  0.511800  0.951300  1.0  -0.5993
  O  O571  1  0.625900  0.091000  0.465600  1.0  -0.7568
  O  O572  1  0.781100  0.116600  0.466800  1.0  -0.6409
  O  O573  1  0.905000  0.255500  0.535200  1.0  -0.6537
  O  O574  1  0.877400  0.404900  0.529200  1.0  -0.6771
  O  O575  1  0.955200  0.368500  0.571080  1.0  -0.7128
  O  O576  1  0.886400  0.502300  0.569610  1.0  -0.5866
  O  O577  1  0.863700  0.321400  0.671100  1.0  -0.6546
  O  O578  1  0.998200  0.323200  0.651940  1.0  -0.6146
  O  O579  1  0.924500  0.988200  0.451300  1.0  -0.5978
  O  O580  1  0.125900  0.591000  0.965600  1.0  -0.7568
  O  O581  1  0.281100  0.616600  0.966800  1.0  -0.6409
  O  O582  1  0.405000  0.755500  0.035200  1.0  -0.6537
  O  O583  1  0.377400  0.904900  0.029200  1.0  -0.6771
  O  O584  1  0.455200  0.868500  0.071080  1.0  -0.7128
  O  O585  1  0.386400  0.002300  0.069610  1.0  -0.5866
  O  O586  1  0.363700  0.821400  0.171100  1.0  -0.6546
  O  O587  1  0.498200  0.823200  0.151940  1.0  -0.6146
  O  O588  1  0.424500  0.488200  0.951300  1.0  -0.5978
  O  O589  1  0.909000  0.625900  0.534400  1.0  -0.7563
  O  O590  1  0.883400  0.781100  0.533200  1.0  -0.6425
  O  O591  1  0.744500  0.905000  0.464800  1.0  -0.656
  O  O592  1  0.595100  0.877400  0.470800  1.0  -0.6775
  O  O593  1  0.631500  0.955200  0.428920  1.0  -0.7135
  O  O594  1  0.497700  0.886400  0.430390  1.0  -0.5876
  O  O595  1  0.678600  0.863700  0.328900  1.0  -0.6565
  O  O596  1  0.676800  0.998200  0.348060  1.0  -0.615
  O  O597  1  0.011800  0.924500  0.548700  1.0  -0.5932
  O  O598  1  0.409000  0.125900  0.034400  1.0  -0.7563
  O  O599  1  0.383400  0.281100  0.033200  1.0  -0.6425
  O  O600  1  0.244500  0.405000  0.964800  1.0  -0.656
  O  O601  1  0.095100  0.377400  0.970800  1.0  -0.6775
  O  O602  1  0.131500  0.455200  0.928920  1.0  -0.7135
  O  O603  1  0.997700  0.386400  0.930390  1.0  -0.5876
  O  O604  1  0.178600  0.363700  0.828900  1.0  -0.6565
  O  O605  1  0.176800  0.498200  0.848060  1.0  -0.615
  O  O606  1  0.511800  0.424500  0.048700  1.0  -0.5932
  O  O607  1  0.091000  0.374100  0.534400  1.0  -0.7564
  O  O608  1  0.116600  0.218900  0.533200  1.0  -0.6423
  O  O609  1  0.255500  0.095000  0.464800  1.0  -0.6551
  O  O610  1  0.404900  0.122600  0.470800  1.0  -0.6766
  O  O611  1  0.368500  0.044800  0.428920  1.0  -0.7149
  O  O612  1  0.502300  0.113600  0.430390  1.0  -0.5858
  O  O613  1  0.321400  0.136300  0.328900  1.0  -0.6566
  O  O614  1  0.323200  0.001800  0.348060  1.0  -0.612
  O  O615  1  0.988200  0.075500  0.548700  1.0  -0.5945
  O  O616  1  0.591000  0.874100  0.034400  1.0  -0.7564
  O  O617  1  0.616600  0.718900  0.033200  1.0  -0.6423
  O  O618  1  0.755500  0.595000  0.964800  1.0  -0.6551
  O  O619  1  0.904900  0.622600  0.970800  1.0  -0.6766
  O  O620  1  0.868500  0.544800  0.928920  1.0  -0.7149
  O  O621  1  0.002300  0.613600  0.930390  1.0  -0.5858
  O  O622  1  0.821400  0.636300  0.828900  1.0  -0.6566
  O  O623  1  0.823200  0.501800  0.848060  1.0  -0.612
  O  O624  1  0.488200  0.575500  0.048700  1.0  -0.5945
  O  O625  1  0.125900  0.909000  0.284400  1.0  -0.756
  O  O626  1  0.281100  0.883400  0.283200  1.0  -0.6418
  O  O627  1  0.405000  0.744500  0.214800  1.0  -0.6536
  O  O628  1  0.377400  0.595100  0.220800  1.0  -0.6769
  O  O629  1  0.455200  0.631500  0.178920  1.0  -0.7127
  O  O630  1  0.386400  0.497700  0.180390  1.0  -0.5869
  O  O631  1  0.363700  0.678600  0.078900  1.0  -0.6507
  O  O632  1  0.498200  0.676800  0.098060  1.0  -0.6151
  O  O633  1  0.424500  0.011800  0.298700  1.0  -0.5945
  O  O634  1  0.625900  0.409000  0.784400  1.0  -0.756
  O  O635  1  0.781100  0.383400  0.783200  1.0  -0.6418
  O  O636  1  0.905000  0.244500  0.714800  1.0  -0.6536
  O  O637  1  0.877400  0.095100  0.720800  1.0  -0.6769
  O  O638  1  0.955200  0.131500  0.678920  1.0  -0.7127
  O  O639  1  0.886400  0.997700  0.680390  1.0  -0.5869
  O  O640  1  0.863700  0.178600  0.578900  1.0  -0.6507
  O  O641  1  0.998200  0.176800  0.598060  1.0  -0.6151
  O  O642  1  0.924500  0.511800  0.798700  1.0  -0.5945
  O  O643  1  0.874100  0.091000  0.284400  1.0  -0.7542
  O  O644  1  0.718900  0.116600  0.283200  1.0  -0.6426
  O  O645  1  0.595000  0.255500  0.214800  1.0  -0.6536
  O  O646  1  0.622600  0.404900  0.220800  1.0  -0.6783
  O  O647  1  0.544800  0.368500  0.178920  1.0  -0.7137
  O  O648  1  0.613600  0.502300  0.180390  1.0  -0.587
  O  O649  1  0.636300  0.321400  0.078900  1.0  -0.6534
  O  O650  1  0.501800  0.323200  0.098060  1.0  -0.6077
  O  O651  1  0.575500  0.988200  0.298700  1.0  -0.5957
  O  O652  1  0.374100  0.591000  0.784400  1.0  -0.7542
  O  O653  1  0.218900  0.616600  0.783200  1.0  -0.6426
  O  O654  1  0.095000  0.755500  0.714800  1.0  -0.6536
  O  O655  1  0.122600  0.904900  0.720800  1.0  -0.6783
  O  O656  1  0.044800  0.868500  0.678920  1.0  -0.7137
  O  O657  1  0.113600  0.002300  0.680390  1.0  -0.587
  O  O658  1  0.136300  0.821400  0.578900  1.0  -0.6534
  O  O659  1  0.001800  0.823200  0.598060  1.0  -0.6077
  O  O660  1  0.075500  0.488200  0.798700  1.0  -0.5957
  O  O661  1  0.591000  0.625900  0.215600  1.0  -0.7574
  O  O662  1  0.616600  0.781100  0.216800  1.0  -0.642
  O  O663  1  0.755500  0.905000  0.285200  1.0  -0.6563
  O  O664  1  0.904900  0.877400  0.279200  1.0  -0.6757
  O  O665  1  0.868500  0.955200  0.321080  1.0  -0.7135
  O  O666  1  0.002300  0.886400  0.319610  1.0  -0.5859
  O  O667  1  0.821400  0.863700  0.421100  1.0  -0.6582
  O  O668  1  0.823200  0.998200  0.401940  1.0  -0.6142
  O  O669  1  0.488200  0.924500  0.201300  1.0  -0.597
  O  O670  1  0.091000  0.125900  0.715600  1.0  -0.7574
  O  O671  1  0.116600  0.281100  0.716800  1.0  -0.642
  O  O672  1  0.255500  0.405000  0.785200  1.0  -0.6563
  O  O673  1  0.404900  0.377400  0.779200  1.0  -0.6757
  O  O674  1  0.368500  0.455200  0.821080  1.0  -0.7135
  O  O675  1  0.502300  0.386400  0.819610  1.0  -0.5859
  O  O676  1  0.321400  0.363700  0.921100  1.0  -0.6582
  O  O677  1  0.323200  0.498200  0.901940  1.0  -0.6142
  O  O678  1  0.988200  0.424500  0.701300  1.0  -0.597
  O  O679  1  0.409000  0.374100  0.215600  1.0  -0.7566
  O  O680  1  0.383400  0.218900  0.216800  1.0  -0.6413
  O  O681  1  0.244500  0.095000  0.285200  1.0  -0.6555
  O  O682  1  0.095100  0.122600  0.279200  1.0  -0.6772
  O  O683  1  0.131500  0.044800  0.321080  1.0  -0.714
  O  O684  1  0.997700  0.113600  0.319610  1.0  -0.5877
  O  O685  1  0.178600  0.136300  0.421100  1.0  -0.6556
  O  O686  1  0.176800  0.001800  0.401940  1.0  -0.6122
  O  O687  1  0.511800  0.075500  0.201300  1.0  -0.597
  O  O688  1  0.909000  0.874100  0.715600  1.0  -0.7566
  O  O689  1  0.883400  0.718900  0.716800  1.0  -0.6413
  O  O690  1  0.744500  0.595000  0.785200  1.0  -0.6555
  O  O691  1  0.595100  0.622600  0.779200  1.0  -0.6772
  O  O692  1  0.631500  0.544800  0.821080  1.0  -0.714
  O  O693  1  0.497700  0.613600  0.819610  1.0  -0.5877
  O  O694  1  0.678600  0.636300  0.921100  1.0  -0.6556
  O  O695  1  0.676800  0.501800  0.901940  1.0  -0.6122
  O  O696  1  0.011800  0.575500  0.701300  1.0  -0.597
