# generated using pymatgen
data_DyH7(C5O2)3
_symmetry_space_group_name_H-M   'P 1'
_cell_length_a   14.15450000
_cell_length_b   14.15450000
_cell_length_c   62.93800000
_cell_angle_alpha   90.00000000
_cell_angle_beta   90.00000000
_cell_angle_gamma   90.00000000
_symmetry_Int_Tables_number   1
_chemical_formula_structural   DyH7(C5O2)3
_chemical_formula_sum   'Dy24 H168 C360 O144'
_cell_volume   12609.62013379
_cell_formula_units_Z   24
loop_
 _symmetry_equiv_pos_site_id
 _symmetry_equiv_pos_as_xyz
  1  'x, y, z'
loop_
 _atom_site_type_symbol
 _atom_site_label
 _atom_site_symmetry_multiplicity
 _atom_site_fract_x
 _atom_site_fract_y
 _atom_site_fract_z
 _atom_site_occupancy
 _atom_site_charge
  Dy  Dy1  1  0.722830  0.488840  0.438890  1.0  2.2699
  Dy  Dy2  1  0.222830  0.988840  0.938890  1.0  2.2699
  Dy  Dy3  1  0.277170  0.511160  0.438890  1.0  2.2689
  Dy  Dy4  1  0.777170  0.011160  0.938890  1.0  2.2689
  Dy  Dy5  1  0.488840  0.277170  0.561110  1.0  2.2699
  Dy  Dy6  1  0.988840  0.777170  0.061110  1.0  2.2699
  Dy  Dy7  1  0.511160  0.722830  0.561110  1.0  2.2702
  Dy  Dy8  1  0.011160  0.222830  0.061110  1.0  2.2702
  Dy  Dy9  1  0.777170  0.488840  0.311110  1.0  2.2702
  Dy  Dy10  1  0.277170  0.988840  0.811110  1.0  2.2702
  Dy  Dy11  1  0.222830  0.511160  0.311110  1.0  2.2678
  Dy  Dy12  1  0.722830  0.011160  0.811110  1.0  2.2678
  Dy  Dy13  1  0.011160  0.277170  0.188890  1.0  2.271
  Dy  Dy14  1  0.511160  0.777170  0.688890  1.0  2.271
  Dy  Dy15  1  0.988840  0.722830  0.188890  1.0  2.2698
  Dy  Dy16  1  0.488840  0.222830  0.688890  1.0  2.2698
  Dy  Dy17  1  0.000000  0.500000  0.459080  1.0  2.3219
  Dy  Dy18  1  0.500000  0.000000  0.959080  1.0  2.3219
  Dy  Dy19  1  0.500000  0.000000  0.540920  1.0  2.3217
  Dy  Dy20  1  0.000000  0.500000  0.040920  1.0  2.3217
  Dy  Dy21  1  0.500000  0.500000  0.290920  1.0  2.3217
  Dy  Dy22  1  0.000000  0.000000  0.790920  1.0  2.3217
  Dy  Dy23  1  0.000000  0.000000  0.209080  1.0  2.3219
  Dy  Dy24  1  0.500000  0.500000  0.709080  1.0  2.3219
  H  H25  1  0.703500  0.675800  0.500900  1.0  0.1086
  H  H26  1  0.721000  0.954500  0.510700  1.0  0.0934
  H  H27  1  0.826500  0.966400  0.483500  1.0  0.0971
  H  H28  1  0.001900  0.909200  0.472900  1.0  0.0945
  H  H29  1  0.104400  0.922400  0.444700  1.0  0.1033
  H  H30  1  0.067500  0.856500  0.412100  1.0  0.1212
  H  H31  1  0.819800  0.768500  0.435900  1.0  0.1081
  H  H32  1  0.912700  0.862800  0.380500  1.0  0.1041
  H  H33  1  0.866100  0.781700  0.351200  1.0  0.1149
  H  H34  1  0.870100  0.541600  0.384100  1.0  0.1081
  H  H35  1  0.203500  0.175800  0.000900  1.0  0.1086
  H  H36  1  0.221000  0.454500  0.010700  1.0  0.0934
  H  H37  1  0.326500  0.466400  0.983500  1.0  0.0971
  H  H38  1  0.501900  0.409200  0.972900  1.0  0.0945
  H  H39  1  0.604400  0.422400  0.944700  1.0  0.1033
  H  H40  1  0.567500  0.356500  0.912100  1.0  0.1212
  H  H41  1  0.319800  0.268500  0.935900  1.0  0.1081
  H  H42  1  0.412700  0.362800  0.880500  1.0  0.1041
  H  H43  1  0.366100  0.281700  0.851200  1.0  0.1149
  H  H44  1  0.370100  0.041600  0.884100  1.0  0.1081
  H  H45  1  0.296500  0.324200  0.500900  1.0  0.1083
  H  H46  1  0.279000  0.045500  0.510700  1.0  0.0931
  H  H47  1  0.173500  0.033600  0.483500  1.0  0.0983
  H  H48  1  0.998100  0.090800  0.472900  1.0  0.0947
  H  H49  1  0.895600  0.077600  0.444700  1.0  0.1024
  H  H50  1  0.932500  0.143500  0.412100  1.0  0.1213
  H  H51  1  0.180200  0.231500  0.435900  1.0  0.1081
  H  H52  1  0.087300  0.137200  0.380500  1.0  0.1041
  H  H53  1  0.133900  0.218300  0.351200  1.0  0.1149
  H  H54  1  0.129900  0.458400  0.384100  1.0  0.1071
  H  H55  1  0.796500  0.824200  0.000900  1.0  0.1083
  H  H56  1  0.779000  0.545500  0.010700  1.0  0.0931
  H  H57  1  0.673500  0.533600  0.983500  1.0  0.0983
  H  H58  1  0.498100  0.590800  0.972900  1.0  0.0947
  H  H59  1  0.395600  0.577600  0.944700  1.0  0.1024
  H  H60  1  0.432500  0.643500  0.912100  1.0  0.1213
  H  H61  1  0.680200  0.731500  0.935900  1.0  0.1081
  H  H62  1  0.587300  0.637200  0.880500  1.0  0.1041
  H  H63  1  0.633900  0.718300  0.851200  1.0  0.1149
  H  H64  1  0.629900  0.958400  0.884100  1.0  0.1071
  H  H65  1  0.675800  0.296500  0.499100  1.0  0.1088
  H  H66  1  0.954500  0.279000  0.489300  1.0  0.0939
  H  H67  1  0.966400  0.173500  0.516500  1.0  0.0978
  H  H68  1  0.909200  0.998100  0.527100  1.0  0.0952
  H  H69  1  0.922400  0.895600  0.555300  1.0  0.1026
  H  H70  1  0.856500  0.932500  0.587900  1.0  0.1212
  H  H71  1  0.768500  0.180200  0.564100  1.0  0.109
  H  H72  1  0.862800  0.087300  0.619500  1.0  0.1048
  H  H73  1  0.781700  0.133900  0.648800  1.0  0.1149
  H  H74  1  0.541600  0.129900  0.615900  1.0  0.1067
  H  H75  1  0.175800  0.796500  0.999100  1.0  0.1088
  H  H76  1  0.454500  0.779000  0.989300  1.0  0.0939
  H  H77  1  0.466400  0.673500  0.016500  1.0  0.0978
  H  H78  1  0.409200  0.498100  0.027100  1.0  0.0952
  H  H79  1  0.422400  0.395600  0.055300  1.0  0.1026
  H  H80  1  0.356500  0.432500  0.087900  1.0  0.1212
  H  H81  1  0.268500  0.680200  0.064100  1.0  0.109
  H  H82  1  0.362800  0.587300  0.119500  1.0  0.1048
  H  H83  1  0.281700  0.633900  0.148800  1.0  0.1149
  H  H84  1  0.041600  0.629900  0.115900  1.0  0.1067
  H  H85  1  0.324200  0.703500  0.499100  1.0  0.1081
  H  H86  1  0.045500  0.721000  0.489300  1.0  0.0936
  H  H87  1  0.033600  0.826500  0.516500  1.0  0.0985
  H  H88  1  0.090800  0.001900  0.527100  1.0  0.0953
  H  H89  1  0.077600  0.104400  0.555300  1.0  0.1014
  H  H90  1  0.143500  0.067500  0.587900  1.0  0.1213
  H  H91  1  0.231500  0.819800  0.564100  1.0  0.1093
  H  H92  1  0.137200  0.912700  0.619500  1.0  0.1058
  H  H93  1  0.218300  0.866100  0.648800  1.0  0.1155
  H  H94  1  0.458400  0.870100  0.615900  1.0  0.1084
  H  H95  1  0.824200  0.203500  0.999100  1.0  0.1081
  H  H96  1  0.545500  0.221000  0.989300  1.0  0.0936
  H  H97  1  0.533600  0.326500  0.016500  1.0  0.0985
  H  H98  1  0.590800  0.501900  0.027100  1.0  0.0953
  H  H99  1  0.577600  0.604400  0.055300  1.0  0.1014
  H  H100  1  0.643500  0.567500  0.087900  1.0  0.1213
  H  H101  1  0.731500  0.319800  0.064100  1.0  0.1093
  H  H102  1  0.637200  0.412700  0.119500  1.0  0.1058
  H  H103  1  0.718300  0.366100  0.148800  1.0  0.1155
  H  H104  1  0.958400  0.370100  0.115900  1.0  0.1084
  H  H105  1  0.796500  0.675800  0.249100  1.0  0.1084
  H  H106  1  0.779000  0.954500  0.239300  1.0  0.0933
  H  H107  1  0.673500  0.966400  0.266500  1.0  0.0967
  H  H108  1  0.498100  0.909200  0.277100  1.0  0.0954
  H  H109  1  0.395600  0.922400  0.305300  1.0  0.1025
  H  H110  1  0.432500  0.856500  0.337900  1.0  0.1219
  H  H111  1  0.680200  0.768500  0.314100  1.0  0.1083
  H  H112  1  0.587300  0.862800  0.369500  1.0  0.1043
  H  H113  1  0.633900  0.781700  0.398800  1.0  0.1149
  H  H114  1  0.629900  0.541600  0.365900  1.0  0.1082
  H  H115  1  0.296500  0.175800  0.749100  1.0  0.1084
  H  H116  1  0.279000  0.454500  0.739300  1.0  0.0933
  H  H117  1  0.173500  0.466400  0.766500  1.0  0.0967
  H  H118  1  0.998100  0.409200  0.777100  1.0  0.0954
  H  H119  1  0.895600  0.422400  0.805300  1.0  0.1025
  H  H120  1  0.932500  0.356500  0.837900  1.0  0.1219
  H  H121  1  0.180200  0.268500  0.814100  1.0  0.1083
  H  H122  1  0.087300  0.362800  0.869500  1.0  0.1043
  H  H123  1  0.133900  0.281700  0.898800  1.0  0.1149
  H  H124  1  0.129900  0.041600  0.865900  1.0  0.1082
  H  H125  1  0.203500  0.324200  0.249100  1.0  0.1088
  H  H126  1  0.221000  0.045500  0.239300  1.0  0.0937
  H  H127  1  0.326500  0.033600  0.266500  1.0  0.0976
  H  H128  1  0.501900  0.090800  0.277100  1.0  0.0953
  H  H129  1  0.604400  0.077600  0.305300  1.0  0.1024
  H  H130  1  0.567500  0.143500  0.337900  1.0  0.1208
  H  H131  1  0.319800  0.231500  0.314100  1.0  0.1082
  H  H132  1  0.412700  0.137200  0.369500  1.0  0.1045
  H  H133  1  0.366100  0.218300  0.398800  1.0  0.1146
  H  H134  1  0.370100  0.458400  0.365900  1.0  0.1069
  H  H135  1  0.703500  0.824200  0.749100  1.0  0.1088
  H  H136  1  0.721000  0.545500  0.739300  1.0  0.0937
  H  H137  1  0.826500  0.533600  0.766500  1.0  0.0976
  H  H138  1  0.001900  0.590800  0.777100  1.0  0.0953
  H  H139  1  0.104400  0.577600  0.805300  1.0  0.1024
  H  H140  1  0.067500  0.643500  0.837900  1.0  0.1208
  H  H141  1  0.819800  0.731500  0.814100  1.0  0.1082
  H  H142  1  0.912700  0.637200  0.869500  1.0  0.1045
  H  H143  1  0.866100  0.718300  0.898800  1.0  0.1146
  H  H144  1  0.870100  0.958400  0.865900  1.0  0.1069
  H  H145  1  0.824200  0.296500  0.250900  1.0  0.1083
  H  H146  1  0.545500  0.279000  0.260700  1.0  0.0937
  H  H147  1  0.533600  0.173500  0.233500  1.0  0.0982
  H  H148  1  0.590800  0.998100  0.222900  1.0  0.0945
  H  H149  1  0.577600  0.895600  0.194700  1.0  0.1022
  H  H150  1  0.643500  0.932500  0.162100  1.0  0.1213
  H  H151  1  0.731500  0.180200  0.185900  1.0  0.1088
  H  H152  1  0.637200  0.087300  0.130500  1.0  0.1058
  H  H153  1  0.718300  0.133900  0.101200  1.0  0.1157
  H  H154  1  0.958400  0.129900  0.134100  1.0  0.1085
  H  H155  1  0.324200  0.796500  0.750900  1.0  0.1083
  H  H156  1  0.045500  0.779000  0.760700  1.0  0.0937
  H  H157  1  0.033600  0.673500  0.733500  1.0  0.0982
  H  H158  1  0.090800  0.498100  0.722900  1.0  0.0945
  H  H159  1  0.077600  0.395600  0.694700  1.0  0.1022
  H  H160  1  0.143500  0.432500  0.662100  1.0  0.1213
  H  H161  1  0.231500  0.680200  0.685900  1.0  0.1088
  H  H162  1  0.137200  0.587300  0.630500  1.0  0.1058
  H  H163  1  0.218300  0.633900  0.601200  1.0  0.1157
  H  H164  1  0.458400  0.629900  0.634100  1.0  0.1085
  H  H165  1  0.175800  0.703500  0.250900  1.0  0.109
  H  H166  1  0.454500  0.721000  0.260700  1.0  0.0935
  H  H167  1  0.466400  0.826500  0.233500  1.0  0.0986
  H  H168  1  0.409200  0.001900  0.222900  1.0  0.0944
  H  H169  1  0.422400  0.104400  0.194700  1.0  0.1014
  H  H170  1  0.356500  0.067500  0.162100  1.0  0.121
  H  H171  1  0.268500  0.819800  0.185900  1.0  0.1088
  H  H172  1  0.362800  0.912700  0.130500  1.0  0.1048
  H  H173  1  0.281700  0.866100  0.101200  1.0  0.115
  H  H174  1  0.041600  0.870100  0.134100  1.0  0.1071
  H  H175  1  0.675800  0.203500  0.750900  1.0  0.109
  H  H176  1  0.954500  0.221000  0.760700  1.0  0.0935
  H  H177  1  0.966400  0.326500  0.733500  1.0  0.0986
  H  H178  1  0.909200  0.501900  0.722900  1.0  0.0944
  H  H179  1  0.922400  0.604400  0.694700  1.0  0.1014
  H  H180  1  0.856500  0.567500  0.662100  1.0  0.121
  H  H181  1  0.768500  0.319800  0.685900  1.0  0.1088
  H  H182  1  0.862800  0.412700  0.630500  1.0  0.1048
  H  H183  1  0.781700  0.366100  0.601200  1.0  0.115
  H  H184  1  0.541600  0.370100  0.634100  1.0  0.1071
  H  H185  1  0.500000  0.500000  0.429200  1.0  0.1265
  H  H186  1  0.000000  0.000000  0.929200  1.0  0.1265
  H  H187  1  0.500000  0.500000  0.570800  1.0  0.1271
  H  H188  1  0.000000  0.000000  0.070800  1.0  0.1271
  H  H189  1  0.000000  0.500000  0.320800  1.0  0.1271
  H  H190  1  0.500000  0.000000  0.820800  1.0  0.1271
  H  H191  1  0.000000  0.500000  0.179200  1.0  0.1265
  H  H192  1  0.500000  0.000000  0.679200  1.0  0.1265
  C  C193  1  0.824200  0.647200  0.471280  1.0  0.7107
  C  C194  1  0.795900  0.739000  0.481660  1.0  -0.0663
  C  C195  1  0.729700  0.734100  0.497480  1.0  -0.0579
  C  C196  1  0.700600  0.813400  0.508620  1.0  -0.1923
  C  C197  1  0.739000  0.900600  0.503240  1.0  -0.0297
  C  C198  1  0.802800  0.907400  0.487160  1.0  -0.1333
  C  C199  1  0.834300  0.825500  0.475790  1.0  0.0072
  C  C200  1  0.630000  0.800100  0.526250  1.0  0.726
  C  C201  1  0.901800  0.835800  0.457610  1.0  0.0282
  C  C202  1  0.986100  0.882600  0.459900  1.0  -0.1516
  C  C203  1  0.047500  0.890400  0.442920  1.0  -0.0974
  C  C204  1  0.025500  0.851400  0.423360  1.0  -0.1314
  C  C205  1  0.940700  0.804800  0.420860  1.0  -0.0211
  C  C206  1  0.877900  0.798100  0.437760  1.0  -0.0907
  C  C207  1  0.917100  0.753800  0.400700  1.0  -0.0106
  C  C208  1  0.903600  0.797800  0.381480  1.0  -0.1269
  C  C209  1  0.877500  0.749500  0.363820  1.0  -0.0796
  C  C210  1  0.867700  0.652700  0.364600  1.0  -0.149
  C  C211  1  0.879900  0.606500  0.383370  1.0  -0.0942
  C  C212  1  0.906700  0.655700  0.401360  1.0  -0.1031
  C  C213  1  0.836300  0.597400  0.345440  1.0  0.6654
  C  C214  1  0.929800  0.601700  0.421470  1.0  0.6845
  C  C215  1  0.324200  0.147200  0.971280  1.0  0.7107
  C  C216  1  0.295900  0.239000  0.981660  1.0  -0.0663
  C  C217  1  0.229700  0.234100  0.997480  1.0  -0.0579
  C  C218  1  0.200600  0.313400  0.008620  1.0  -0.1923
  C  C219  1  0.239000  0.400600  0.003240  1.0  -0.0297
  C  C220  1  0.302800  0.407400  0.987160  1.0  -0.1333
  C  C221  1  0.334300  0.325500  0.975790  1.0  0.0072
  C  C222  1  0.130000  0.300100  0.026250  1.0  0.726
  C  C223  1  0.401800  0.335800  0.957610  1.0  0.0282
  C  C224  1  0.486100  0.382600  0.959900  1.0  -0.1516
  C  C225  1  0.547500  0.390400  0.942920  1.0  -0.0974
  C  C226  1  0.525500  0.351400  0.923360  1.0  -0.1314
  C  C227  1  0.440700  0.304800  0.920860  1.0  -0.0211
  C  C228  1  0.377900  0.298100  0.937760  1.0  -0.0907
  C  C229  1  0.417100  0.253800  0.900700  1.0  -0.0106
  C  C230  1  0.403600  0.297800  0.881480  1.0  -0.1269
  C  C231  1  0.377500  0.249500  0.863820  1.0  -0.0796
  C  C232  1  0.367700  0.152700  0.864600  1.0  -0.149
  C  C233  1  0.379900  0.106500  0.883370  1.0  -0.0942
  C  C234  1  0.406700  0.155700  0.901360  1.0  -0.1031
  C  C235  1  0.336300  0.097400  0.845440  1.0  0.6654
  C  C236  1  0.429800  0.101700  0.921470  1.0  0.6845
  C  C237  1  0.175800  0.352800  0.471280  1.0  0.7098
  C  C238  1  0.204100  0.261000  0.481660  1.0  -0.0658
  C  C239  1  0.270300  0.265900  0.497480  1.0  -0.0572
  C  C240  1  0.299400  0.186600  0.508620  1.0  -0.1922
  C  C241  1  0.261000  0.099400  0.503240  1.0  -0.0291
  C  C242  1  0.197200  0.092600  0.487160  1.0  -0.1334
  C  C243  1  0.165700  0.174500  0.475790  1.0  0.0082
  C  C244  1  0.370000  0.199900  0.526250  1.0  0.7273
  C  C245  1  0.098200  0.164200  0.457610  1.0  0.0303
  C  C246  1  0.013900  0.117400  0.459900  1.0  -0.151
  C  C247  1  0.952500  0.109600  0.442920  1.0  -0.0982
  C  C248  1  0.974500  0.148600  0.423360  1.0  -0.1323
  C  C249  1  0.059300  0.195200  0.420860  1.0  -0.0234
  C  C250  1  0.122100  0.201900  0.437760  1.0  -0.0923
  C  C251  1  0.082900  0.246200  0.400700  1.0  -0.0123
  C  C252  1  0.096400  0.202200  0.381480  1.0  -0.1276
  C  C253  1  0.122500  0.250500  0.363820  1.0  -0.0792
  C  C254  1  0.132300  0.347300  0.364600  1.0  -0.1479
  C  C255  1  0.120100  0.393500  0.383370  1.0  -0.0936
  C  C256  1  0.093300  0.344300  0.401360  1.0  -0.1031
  C  C257  1  0.163700  0.402600  0.345440  1.0  0.6666
  C  C258  1  0.070200  0.398300  0.421470  1.0  0.6832
  C  C259  1  0.675800  0.852800  0.971280  1.0  0.7098
  C  C260  1  0.704100  0.761000  0.981660  1.0  -0.0658
  C  C261  1  0.770300  0.765900  0.997480  1.0  -0.0572
  C  C262  1  0.799400  0.686600  0.008620  1.0  -0.1922
  C  C263  1  0.761000  0.599400  0.003240  1.0  -0.0291
  C  C264  1  0.697200  0.592600  0.987160  1.0  -0.1334
  C  C265  1  0.665700  0.674500  0.975790  1.0  0.0082
  C  C266  1  0.870000  0.699900  0.026250  1.0  0.7273
  C  C267  1  0.598200  0.664200  0.957610  1.0  0.0303
  C  C268  1  0.513900  0.617400  0.959900  1.0  -0.151
  C  C269  1  0.452500  0.609600  0.942920  1.0  -0.0982
  C  C270  1  0.474500  0.648600  0.923360  1.0  -0.1323
  C  C271  1  0.559300  0.695200  0.920860  1.0  -0.0234
  C  C272  1  0.622100  0.701900  0.937760  1.0  -0.0923
  C  C273  1  0.582900  0.746200  0.900700  1.0  -0.0123
  C  C274  1  0.596400  0.702200  0.881480  1.0  -0.1276
  C  C275  1  0.622500  0.750500  0.863820  1.0  -0.0792
  C  C276  1  0.632300  0.847300  0.864600  1.0  -0.1479
  C  C277  1  0.620100  0.893500  0.883370  1.0  -0.0936
  C  C278  1  0.593300  0.844300  0.901360  1.0  -0.1031
  C  C279  1  0.663700  0.902600  0.845440  1.0  0.6666
  C  C280  1  0.570200  0.898300  0.921470  1.0  0.6832
  C  C281  1  0.647200  0.175800  0.528720  1.0  0.7094
  C  C282  1  0.739000  0.204100  0.518340  1.0  -0.0674
  C  C283  1  0.734100  0.270300  0.502520  1.0  -0.0587
  C  C284  1  0.813400  0.299400  0.491380  1.0  -0.1914
  C  C285  1  0.900600  0.261000  0.496760  1.0  -0.0291
  C  C286  1  0.907400  0.197200  0.512840  1.0  -0.1373
  C  C287  1  0.825500  0.165700  0.524210  1.0  0.0082
  C  C288  1  0.800100  0.370000  0.473750  1.0  0.7256
  C  C289  1  0.835800  0.098200  0.542390  1.0  0.0303
  C  C290  1  0.882600  0.013900  0.540100  1.0  -0.1496
  C  C291  1  0.890400  0.952500  0.557080  1.0  -0.0977
  C  C292  1  0.851400  0.974500  0.576640  1.0  -0.1331
  C  C293  1  0.804800  0.059300  0.579140  1.0  -0.0214
  C  C294  1  0.798100  0.122100  0.562240  1.0  -0.093
  C  C295  1  0.753800  0.082900  0.599300  1.0  -0.0105
  C  C296  1  0.797800  0.096400  0.618520  1.0  -0.121
  C  C297  1  0.749500  0.122500  0.636180  1.0  -0.0769
  C  C298  1  0.652700  0.132300  0.635400  1.0  -0.1482
  C  C299  1  0.606500  0.120100  0.616630  1.0  -0.0937
  C  C300  1  0.655700  0.093300  0.598640  1.0  -0.1046
  C  C301  1  0.597400  0.163700  0.654560  1.0  0.6673
  C  C302  1  0.601700  0.070200  0.578530  1.0  0.6833
  C  C303  1  0.147200  0.675800  0.028720  1.0  0.7094
  C  C304  1  0.239000  0.704100  0.018340  1.0  -0.0674
  C  C305  1  0.234100  0.770300  0.002520  1.0  -0.0587
  C  C306  1  0.313400  0.799400  0.991380  1.0  -0.1914
  C  C307  1  0.400600  0.761000  0.996760  1.0  -0.0291
  C  C308  1  0.407400  0.697200  0.012840  1.0  -0.1373
  C  C309  1  0.325500  0.665700  0.024210  1.0  0.0082
  C  C310  1  0.300100  0.870000  0.973750  1.0  0.7256
  C  C311  1  0.335800  0.598200  0.042390  1.0  0.0303
  C  C312  1  0.382600  0.513900  0.040100  1.0  -0.1496
  C  C313  1  0.390400  0.452500  0.057080  1.0  -0.0977
  C  C314  1  0.351400  0.474500  0.076640  1.0  -0.1331
  C  C315  1  0.304800  0.559300  0.079140  1.0  -0.0214
  C  C316  1  0.298100  0.622100  0.062240  1.0  -0.093
  C  C317  1  0.253800  0.582900  0.099300  1.0  -0.0105
  C  C318  1  0.297800  0.596400  0.118520  1.0  -0.121
  C  C319  1  0.249500  0.622500  0.136180  1.0  -0.0769
  C  C320  1  0.152700  0.632300  0.135400  1.0  -0.1482
  C  C321  1  0.106500  0.620100  0.116630  1.0  -0.0937
  C  C322  1  0.155700  0.593300  0.098640  1.0  -0.1046
  C  C323  1  0.097400  0.663700  0.154560  1.0  0.6673
  C  C324  1  0.101700  0.570200  0.078530  1.0  0.6833
  C  C325  1  0.352800  0.824200  0.528720  1.0  0.7094
  C  C326  1  0.261000  0.795900  0.518340  1.0  -0.0663
  C  C327  1  0.265900  0.729700  0.502520  1.0  -0.0555
  C  C328  1  0.186600  0.700600  0.491380  1.0  -0.1913
  C  C329  1  0.099400  0.739000  0.496760  1.0  -0.0318
  C  C330  1  0.092600  0.802800  0.512840  1.0  -0.1362
  C  C331  1  0.174500  0.834300  0.524210  1.0  0.0075
  C  C332  1  0.199900  0.630000  0.473750  1.0  0.7257
  C  C333  1  0.164200  0.901800  0.542390  1.0  0.0281
  C  C334  1  0.117400  0.986100  0.540100  1.0  -0.1492
  C  C335  1  0.109600  0.047500  0.557080  1.0  -0.0955
  C  C336  1  0.148600  0.025500  0.576640  1.0  -0.1345
  C  C337  1  0.195200  0.940700  0.579140  1.0  -0.0218
  C  C338  1  0.201900  0.877900  0.562240  1.0  -0.0908
  C  C339  1  0.246200  0.917100  0.599300  1.0  -0.012
  C  C340  1  0.202200  0.903600  0.618520  1.0  -0.1218
  C  C341  1  0.250500  0.877500  0.636180  1.0  -0.0772
  C  C342  1  0.347300  0.867700  0.635400  1.0  -0.148
  C  C343  1  0.393500  0.879900  0.616630  1.0  -0.0942
  C  C344  1  0.344300  0.906700  0.598640  1.0  -0.1043
  C  C345  1  0.402600  0.836300  0.654560  1.0  0.6649
  C  C346  1  0.398300  0.929800  0.578530  1.0  0.6829
  C  C347  1  0.852800  0.324200  0.028720  1.0  0.7094
  C  C348  1  0.761000  0.295900  0.018340  1.0  -0.0663
  C  C349  1  0.765900  0.229700  0.002520  1.0  -0.0555
  C  C350  1  0.686600  0.200600  0.991380  1.0  -0.1913
  C  C351  1  0.599400  0.239000  0.996760  1.0  -0.0318
  C  C352  1  0.592600  0.302800  0.012840  1.0  -0.1362
  C  C353  1  0.674500  0.334300  0.024210  1.0  0.0075
  C  C354  1  0.699900  0.130000  0.973750  1.0  0.7257
  C  C355  1  0.664200  0.401800  0.042390  1.0  0.0281
  C  C356  1  0.617400  0.486100  0.040100  1.0  -0.1492
  C  C357  1  0.609600  0.547500  0.057080  1.0  -0.0955
  C  C358  1  0.648600  0.525500  0.076640  1.0  -0.1345
  C  C359  1  0.695200  0.440700  0.079140  1.0  -0.0218
  C  C360  1  0.701900  0.377900  0.062240  1.0  -0.0908
  C  C361  1  0.746200  0.417100  0.099300  1.0  -0.012
  C  C362  1  0.702200  0.403600  0.118520  1.0  -0.1218
  C  C363  1  0.750500  0.377500  0.136180  1.0  -0.0772
  C  C364  1  0.847300  0.367700  0.135400  1.0  -0.148
  C  C365  1  0.893500  0.379900  0.116630  1.0  -0.0942
  C  C366  1  0.844300  0.406700  0.098640  1.0  -0.1043
  C  C367  1  0.902600  0.336300  0.154560  1.0  0.6649
  C  C368  1  0.898300  0.429800  0.078530  1.0  0.6829
  C  C369  1  0.675800  0.647200  0.278720  1.0  0.7105
  C  C370  1  0.704100  0.739000  0.268340  1.0  -0.067
  C  C371  1  0.770300  0.734100  0.252520  1.0  -0.0567
  C  C372  1  0.799400  0.813400  0.241380  1.0  -0.1918
  C  C373  1  0.761000  0.900600  0.246760  1.0  -0.0303
  C  C374  1  0.697200  0.907400  0.262840  1.0  -0.134
  C  C375  1  0.665700  0.825500  0.274210  1.0  0.0078
  C  C376  1  0.870000  0.800100  0.223750  1.0  0.7258
  C  C377  1  0.598200  0.835800  0.292390  1.0  0.0297
  C  C378  1  0.513900  0.882600  0.290100  1.0  -0.1499
  C  C379  1  0.452500  0.890400  0.307080  1.0  -0.0971
  C  C380  1  0.474500  0.851400  0.326640  1.0  -0.1342
  C  C381  1  0.559300  0.804800  0.329140  1.0  -0.0222
  C  C382  1  0.622100  0.798100  0.312240  1.0  -0.0911
  C  C383  1  0.582900  0.753800  0.349300  1.0  -0.0109
  C  C384  1  0.596400  0.797800  0.368520  1.0  -0.1264
  C  C385  1  0.622500  0.749500  0.386180  1.0  -0.0779
  C  C386  1  0.632300  0.652700  0.385400  1.0  -0.1496
  C  C387  1  0.620100  0.606500  0.366630  1.0  -0.0948
  C  C388  1  0.593300  0.655700  0.348640  1.0  -0.1045
  C  C389  1  0.663700  0.597400  0.404560  1.0  0.6681
  C  C390  1  0.570200  0.601700  0.328530  1.0  0.684
  C  C391  1  0.175800  0.147200  0.778720  1.0  0.7105
  C  C392  1  0.204100  0.239000  0.768340  1.0  -0.067
  C  C393  1  0.270300  0.234100  0.752520  1.0  -0.0567
  C  C394  1  0.299400  0.313400  0.741380  1.0  -0.1918
  C  C395  1  0.261000  0.400600  0.746760  1.0  -0.0303
  C  C396  1  0.197200  0.407400  0.762840  1.0  -0.134
  C  C397  1  0.165700  0.325500  0.774210  1.0  0.0078
  C  C398  1  0.370000  0.300100  0.723750  1.0  0.7258
  C  C399  1  0.098200  0.335800  0.792390  1.0  0.0297
  C  C400  1  0.013900  0.382600  0.790100  1.0  -0.1499
  C  C401  1  0.952500  0.390400  0.807080  1.0  -0.0971
  C  C402  1  0.974500  0.351400  0.826640  1.0  -0.1342
  C  C403  1  0.059300  0.304800  0.829140  1.0  -0.0222
  C  C404  1  0.122100  0.298100  0.812240  1.0  -0.0911
  C  C405  1  0.082900  0.253800  0.849300  1.0  -0.0109
  C  C406  1  0.096400  0.297800  0.868520  1.0  -0.1264
  C  C407  1  0.122500  0.249500  0.886180  1.0  -0.0779
  C  C408  1  0.132300  0.152700  0.885400  1.0  -0.1496
  C  C409  1  0.120100  0.106500  0.866630  1.0  -0.0948
  C  C410  1  0.093300  0.155700  0.848640  1.0  -0.1045
  C  C411  1  0.163700  0.097400  0.904560  1.0  0.6681
  C  C412  1  0.070200  0.101700  0.828530  1.0  0.684
  C  C413  1  0.324200  0.352800  0.278720  1.0  0.7117
  C  C414  1  0.295900  0.261000  0.268340  1.0  -0.0674
  C  C415  1  0.229700  0.265900  0.252520  1.0  -0.0583
  C  C416  1  0.200600  0.186600  0.241380  1.0  -0.1925
  C  C417  1  0.239000  0.099400  0.246760  1.0  -0.0294
  C  C418  1  0.302800  0.092600  0.262840  1.0  -0.1346
  C  C419  1  0.334300  0.174500  0.274210  1.0  0.0069
  C  C420  1  0.130000  0.199900  0.223750  1.0  0.7242
  C  C421  1  0.401800  0.164200  0.292390  1.0  0.0289
  C  C422  1  0.486100  0.117400  0.290100  1.0  -0.1512
  C  C423  1  0.547500  0.109600  0.307080  1.0  -0.0977
  C  C424  1  0.525500  0.148600  0.326640  1.0  -0.1326
  C  C425  1  0.440700  0.195200  0.329140  1.0  -0.021
  C  C426  1  0.377900  0.201900  0.312240  1.0  -0.0905
  C  C427  1  0.417100  0.246200  0.349300  1.0  -0.0099
  C  C428  1  0.403600  0.202200  0.368520  1.0  -0.1283
  C  C429  1  0.377500  0.250500  0.386180  1.0  -0.0792
  C  C430  1  0.367700  0.347300  0.385400  1.0  -0.1517
  C  C431  1  0.379900  0.393500  0.366630  1.0  -0.0932
  C  C432  1  0.406700  0.344300  0.348640  1.0  -0.1035
  C  C433  1  0.336300  0.402600  0.404560  1.0  0.6658
  C  C434  1  0.429800  0.398300  0.328530  1.0  0.6833
  C  C435  1  0.824200  0.852800  0.778720  1.0  0.7117
  C  C436  1  0.795900  0.761000  0.768340  1.0  -0.0674
  C  C437  1  0.729700  0.765900  0.752520  1.0  -0.0583
  C  C438  1  0.700600  0.686600  0.741380  1.0  -0.1925
  C  C439  1  0.739000  0.599400  0.746760  1.0  -0.0294
  C  C440  1  0.802800  0.592600  0.762840  1.0  -0.1346
  C  C441  1  0.834300  0.674500  0.774210  1.0  0.0069
  C  C442  1  0.630000  0.699900  0.723750  1.0  0.7242
  C  C443  1  0.901800  0.664200  0.792390  1.0  0.0289
  C  C444  1  0.986100  0.617400  0.790100  1.0  -0.1512
  C  C445  1  0.047500  0.609600  0.807080  1.0  -0.0977
  C  C446  1  0.025500  0.648600  0.826640  1.0  -0.1326
  C  C447  1  0.940700  0.695200  0.829140  1.0  -0.021
  C  C448  1  0.877900  0.701900  0.812240  1.0  -0.0905
  C  C449  1  0.917100  0.746200  0.849300  1.0  -0.0099
  C  C450  1  0.903600  0.702200  0.868520  1.0  -0.1283
  C  C451  1  0.877500  0.750500  0.886180  1.0  -0.0792
  C  C452  1  0.867700  0.847300  0.885400  1.0  -0.1517
  C  C453  1  0.879900  0.893500  0.866630  1.0  -0.0932
  C  C454  1  0.906700  0.844300  0.848640  1.0  -0.1035
  C  C455  1  0.836300  0.902600  0.904560  1.0  0.6658
  C  C456  1  0.929800  0.898300  0.828530  1.0  0.6833
  C  C457  1  0.852800  0.175800  0.221280  1.0  0.7087
  C  C458  1  0.761000  0.204100  0.231660  1.0  -0.0666
  C  C459  1  0.765900  0.270300  0.247480  1.0  -0.0554
  C  C460  1  0.686600  0.299400  0.258620  1.0  -0.1912
  C  C461  1  0.599400  0.261000  0.253240  1.0  -0.0311
  C  C462  1  0.592600  0.197200  0.237160  1.0  -0.137
  C  C463  1  0.674500  0.165700  0.225790  1.0  0.0087
  C  C464  1  0.699900  0.370000  0.276250  1.0  0.7274
  C  C465  1  0.664200  0.098200  0.207610  1.0  0.0289
  C  C466  1  0.617400  0.013900  0.209900  1.0  -0.1498
  C  C467  1  0.609600  0.952500  0.192920  1.0  -0.0977
  C  C468  1  0.648600  0.974500  0.173360  1.0  -0.1307
  C  C469  1  0.695200  0.059300  0.170860  1.0  -0.0229
  C  C470  1  0.701900  0.122100  0.187760  1.0  -0.092
  C  C471  1  0.746200  0.082900  0.150700  1.0  -0.0133
  C  C472  1  0.702200  0.096400  0.131480  1.0  -0.1219
  C  C473  1  0.750500  0.122500  0.113820  1.0  -0.0778
  C  C474  1  0.847300  0.132300  0.114600  1.0  -0.1472
  C  C475  1  0.893500  0.120100  0.133370  1.0  -0.0944
  C  C476  1  0.844300  0.093300  0.151360  1.0  -0.1034
  C  C477  1  0.902600  0.163700  0.095440  1.0  0.6646
  C  C478  1  0.898300  0.070200  0.171470  1.0  0.6838
  C  C479  1  0.352800  0.675800  0.721280  1.0  0.7087
  C  C480  1  0.261000  0.704100  0.731660  1.0  -0.0666
  C  C481  1  0.265900  0.770300  0.747480  1.0  -0.0554
  C  C482  1  0.186600  0.799400  0.758620  1.0  -0.1912
  C  C483  1  0.099400  0.761000  0.753240  1.0  -0.0311
  C  C484  1  0.092600  0.697200  0.737160  1.0  -0.137
  C  C485  1  0.174500  0.665700  0.725790  1.0  0.0087
  C  C486  1  0.199900  0.870000  0.776250  1.0  0.7274
  C  C487  1  0.164200  0.598200  0.707610  1.0  0.0289
  C  C488  1  0.117400  0.513900  0.709900  1.0  -0.1498
  C  C489  1  0.109600  0.452500  0.692920  1.0  -0.0977
  C  C490  1  0.148600  0.474500  0.673360  1.0  -0.1307
  C  C491  1  0.195200  0.559300  0.670860  1.0  -0.0229
  C  C492  1  0.201900  0.622100  0.687760  1.0  -0.092
  C  C493  1  0.246200  0.582900  0.650700  1.0  -0.0133
  C  C494  1  0.202200  0.596400  0.631480  1.0  -0.1219
  C  C495  1  0.250500  0.622500  0.613820  1.0  -0.0778
  C  C496  1  0.347300  0.632300  0.614600  1.0  -0.1472
  C  C497  1  0.393500  0.620100  0.633370  1.0  -0.0944
  C  C498  1  0.344300  0.593300  0.651360  1.0  -0.1034
  C  C499  1  0.402600  0.663700  0.595440  1.0  0.6646
  C  C500  1  0.398300  0.570200  0.671470  1.0  0.6838
  C  C501  1  0.147200  0.824200  0.221280  1.0  0.7089
  C  C502  1  0.239000  0.795900  0.231660  1.0  -0.0657
  C  C503  1  0.234100  0.729700  0.247480  1.0  -0.0571
  C  C504  1  0.313400  0.700600  0.258620  1.0  -0.1916
  C  C505  1  0.400600  0.739000  0.253240  1.0  -0.029
  C  C506  1  0.407400  0.802800  0.237160  1.0  -0.1369
  C  C507  1  0.325500  0.834300  0.225790  1.0  0.0078
  C  C508  1  0.300100  0.630000  0.276250  1.0  0.7265
  C  C509  1  0.335800  0.901800  0.207610  1.0  0.0294
  C  C510  1  0.382600  0.986100  0.209900  1.0  -0.15
  C  C511  1  0.390400  0.047500  0.192920  1.0  -0.0952
  C  C512  1  0.351400  0.025500  0.173360  1.0  -0.1321
  C  C513  1  0.304800  0.940700  0.170860  1.0  -0.0216
  C  C514  1  0.298100  0.877900  0.187760  1.0  -0.0907
  C  C515  1  0.253800  0.917100  0.150700  1.0  -0.0113
  C  C516  1  0.297800  0.903600  0.131480  1.0  -0.1201
  C  C517  1  0.249500  0.877500  0.113820  1.0  -0.0774
  C  C518  1  0.152700  0.867700  0.114600  1.0  -0.1457
  C  C519  1  0.106500  0.879900  0.133370  1.0  -0.0941
  C  C520  1  0.155700  0.906700  0.151360  1.0  -0.1038
  C  C521  1  0.097400  0.836300  0.095440  1.0  0.6658
  C  C522  1  0.101700  0.929800  0.171470  1.0  0.683
  C  C523  1  0.647200  0.324200  0.721280  1.0  0.7089
  C  C524  1  0.739000  0.295900  0.731660  1.0  -0.0657
  C  C525  1  0.734100  0.229700  0.747480  1.0  -0.0571
  C  C526  1  0.813400  0.200600  0.758620  1.0  -0.1916
  C  C527  1  0.900600  0.239000  0.753240  1.0  -0.029
  C  C528  1  0.907400  0.302800  0.737160  1.0  -0.1369
  C  C529  1  0.825500  0.334300  0.725790  1.0  0.0078
  C  C530  1  0.800100  0.130000  0.776250  1.0  0.7265
  C  C531  1  0.835800  0.401800  0.707610  1.0  0.0294
  C  C532  1  0.882600  0.486100  0.709900  1.0  -0.15
  C  C533  1  0.890400  0.547500  0.692920  1.0  -0.0952
  C  C534  1  0.851400  0.525500  0.673360  1.0  -0.1321
  C  C535  1  0.804800  0.440700  0.670860  1.0  -0.0216
  C  C536  1  0.798100  0.377900  0.687760  1.0  -0.0907
  C  C537  1  0.753800  0.417100  0.650700  1.0  -0.0113
  C  C538  1  0.797800  0.403600  0.631480  1.0  -0.1201
  C  C539  1  0.749500  0.377500  0.613820  1.0  -0.0774
  C  C540  1  0.652700  0.367700  0.614600  1.0  -0.1457
  C  C541  1  0.606500  0.379900  0.633370  1.0  -0.0941
  C  C542  1  0.655700  0.406700  0.651360  1.0  -0.1038
  C  C543  1  0.597400  0.336300  0.595440  1.0  0.6658
  C  C544  1  0.601700  0.429800  0.671470  1.0  0.683
  C  C545  1  0.500000  0.500000  0.443900  1.0  0.5548
  C  C546  1  0.000000  0.000000  0.943900  1.0  0.5548
  C  C547  1  0.500000  0.500000  0.556100  1.0  0.5553
  C  C548  1  0.000000  0.000000  0.056100  1.0  0.5553
  C  C549  1  0.000000  0.500000  0.306100  1.0  0.5553
  C  C550  1  0.500000  0.000000  0.806100  1.0  0.5553
  C  C551  1  0.000000  0.500000  0.193900  1.0  0.5548
  C  C552  1  0.500000  0.000000  0.693900  1.0  0.5548
  O  O553  1  0.758600  0.596000  0.464890  1.0  -0.6821
  O  O554  1  0.910800  0.627400  0.470570  1.0  -0.6853
  O  O555  1  0.613800  0.717600  0.532260  1.0  -0.6426
  O  O556  1  0.591800  0.870200  0.534730  1.0  -0.7578
  O  O557  1  0.824200  0.637600  0.327750  1.0  -0.6247
  O  O558  1  0.821400  0.510200  0.347320  1.0  -0.6363
  O  O559  1  0.868900  0.544700  0.428700  1.0  -0.8066
  O  O560  1  0.008100  0.610400  0.429810  1.0  -0.6137
  O  O561  1  0.569800  0.525500  0.456000  1.0  -0.6707
  O  O562  1  0.258600  0.096000  0.964890  1.0  -0.6821
  O  O563  1  0.410800  0.127400  0.970570  1.0  -0.6853
  O  O564  1  0.113800  0.217600  0.032260  1.0  -0.6426
  O  O565  1  0.091800  0.370200  0.034730  1.0  -0.7578
  O  O566  1  0.324200  0.137600  0.827750  1.0  -0.6247
  O  O567  1  0.321400  0.010200  0.847320  1.0  -0.6363
  O  O568  1  0.368900  0.044700  0.928700  1.0  -0.8066
  O  O569  1  0.508100  0.110400  0.929810  1.0  -0.6137
  O  O570  1  0.069800  0.025500  0.956000  1.0  -0.6707
  O  O571  1  0.241400  0.404000  0.464890  1.0  -0.6835
  O  O572  1  0.089200  0.372600  0.470570  1.0  -0.6837
  O  O573  1  0.386200  0.282400  0.532260  1.0  -0.6414
  O  O574  1  0.408200  0.129800  0.534730  1.0  -0.7585
  O  O575  1  0.175800  0.362400  0.327750  1.0  -0.625
  O  O576  1  0.178600  0.489800  0.347320  1.0  -0.6368
  O  O577  1  0.131100  0.455300  0.428700  1.0  -0.8058
  O  O578  1  0.991900  0.389600  0.429810  1.0  -0.6127
  O  O579  1  0.430200  0.474500  0.456000  1.0  -0.6712
  O  O580  1  0.741400  0.904000  0.964890  1.0  -0.6835
  O  O581  1  0.589200  0.872600  0.970570  1.0  -0.6837
  O  O582  1  0.886200  0.782400  0.032260  1.0  -0.6414
  O  O583  1  0.908200  0.629800  0.034730  1.0  -0.7585
  O  O584  1  0.675800  0.862400  0.827750  1.0  -0.625
  O  O585  1  0.678600  0.989800  0.847320  1.0  -0.6368
  O  O586  1  0.631100  0.955300  0.928700  1.0  -0.8058
  O  O587  1  0.491900  0.889600  0.929810  1.0  -0.6127
  O  O588  1  0.930200  0.974500  0.956000  1.0  -0.6712
  O  O589  1  0.596000  0.241400  0.535110  1.0  -0.6807
  O  O590  1  0.627400  0.089200  0.529430  1.0  -0.6848
  O  O591  1  0.717600  0.386200  0.467740  1.0  -0.6464
  O  O592  1  0.870200  0.408200  0.465270  1.0  -0.7597
  O  O593  1  0.637600  0.175800  0.672250  1.0  -0.6235
  O  O594  1  0.510200  0.178600  0.652680  1.0  -0.6319
  O  O595  1  0.544700  0.131100  0.571300  1.0  -0.8054
  O  O596  1  0.610400  0.991900  0.570190  1.0  -0.6083
  O  O597  1  0.525500  0.430200  0.544000  1.0  -0.6685
  O  O598  1  0.096000  0.741400  0.035110  1.0  -0.6807
  O  O599  1  0.127400  0.589200  0.029430  1.0  -0.6848
  O  O600  1  0.217600  0.886200  0.967740  1.0  -0.6464
  O  O601  1  0.370200  0.908200  0.965270  1.0  -0.7597
  O  O602  1  0.137600  0.675800  0.172250  1.0  -0.6235
  O  O603  1  0.010200  0.678600  0.152680  1.0  -0.6319
  O  O604  1  0.044700  0.631100  0.071300  1.0  -0.8054
  O  O605  1  0.110400  0.491900  0.070190  1.0  -0.6083
  O  O606  1  0.025500  0.930200  0.044000  1.0  -0.6685
  O  O607  1  0.404000  0.758600  0.535110  1.0  -0.6821
  O  O608  1  0.372600  0.910800  0.529430  1.0  -0.6851
  O  O609  1  0.282400  0.613800  0.467740  1.0  -0.6469
  O  O610  1  0.129800  0.591800  0.465270  1.0  -0.7594
  O  O611  1  0.362400  0.824200  0.672250  1.0  -0.6239
  O  O612  1  0.489800  0.821400  0.652680  1.0  -0.6329
  O  O613  1  0.455300  0.868900  0.571300  1.0  -0.8043
  O  O614  1  0.389600  0.008100  0.570190  1.0  -0.6086
  O  O615  1  0.474500  0.569800  0.544000  1.0  -0.6676
  O  O616  1  0.904000  0.258600  0.035110  1.0  -0.6821
  O  O617  1  0.872600  0.410800  0.029430  1.0  -0.6851
  O  O618  1  0.782400  0.113800  0.967740  1.0  -0.6469
  O  O619  1  0.629800  0.091800  0.965270  1.0  -0.7594
  O  O620  1  0.862400  0.324200  0.172250  1.0  -0.6239
  O  O621  1  0.989800  0.321400  0.152680  1.0  -0.6329
  O  O622  1  0.955300  0.368900  0.071300  1.0  -0.8043
  O  O623  1  0.889600  0.508100  0.070190  1.0  -0.6086
  O  O624  1  0.974500  0.069800  0.044000  1.0  -0.6676
  O  O625  1  0.741400  0.596000  0.285110  1.0  -0.6829
  O  O626  1  0.589200  0.627400  0.279430  1.0  -0.6837
  O  O627  1  0.886200  0.717600  0.217740  1.0  -0.6446
  O  O628  1  0.908200  0.870200  0.215270  1.0  -0.7586
  O  O629  1  0.675800  0.637600  0.422250  1.0  -0.6254
  O  O630  1  0.678600  0.510200  0.402680  1.0  -0.6364
  O  O631  1  0.631100  0.544700  0.321300  1.0  -0.8049
  O  O632  1  0.491900  0.610400  0.320190  1.0  -0.6125
  O  O633  1  0.930200  0.525500  0.294000  1.0  -0.6675
  O  O634  1  0.241400  0.096000  0.785110  1.0  -0.6829
  O  O635  1  0.089200  0.127400  0.779430  1.0  -0.6837
  O  O636  1  0.386200  0.217600  0.717740  1.0  -0.6446
  O  O637  1  0.408200  0.370200  0.715270  1.0  -0.7586
  O  O638  1  0.175800  0.137600  0.922250  1.0  -0.6254
  O  O639  1  0.178600  0.010200  0.902680  1.0  -0.6364
  O  O640  1  0.131100  0.044700  0.821300  1.0  -0.8049
  O  O641  1  0.991900  0.110400  0.820190  1.0  -0.6125
  O  O642  1  0.430200  0.025500  0.794000  1.0  -0.6675
  O  O643  1  0.258600  0.404000  0.285110  1.0  -0.6821
  O  O644  1  0.410800  0.372600  0.279430  1.0  -0.683
  O  O645  1  0.113800  0.282400  0.217740  1.0  -0.641
  O  O646  1  0.091800  0.129800  0.215270  1.0  -0.7588
  O  O647  1  0.324200  0.362400  0.422250  1.0  -0.6259
  O  O648  1  0.321400  0.489800  0.402680  1.0  -0.6365
  O  O649  1  0.368900  0.455300  0.321300  1.0  -0.8065
  O  O650  1  0.508100  0.389600  0.320190  1.0  -0.6133
  O  O651  1  0.069800  0.474500  0.294000  1.0  -0.6683
  O  O652  1  0.758600  0.904000  0.785110  1.0  -0.6821
  O  O653  1  0.910800  0.872600  0.779430  1.0  -0.683
  O  O654  1  0.613800  0.782400  0.717740  1.0  -0.641
  O  O655  1  0.591800  0.629800  0.715270  1.0  -0.7588
  O  O656  1  0.824200  0.862400  0.922250  1.0  -0.6259
  O  O657  1  0.821400  0.989800  0.902680  1.0  -0.6365
  O  O658  1  0.868900  0.955300  0.821300  1.0  -0.8065
  O  O659  1  0.008100  0.889600  0.820190  1.0  -0.6133
  O  O660  1  0.569800  0.974500  0.794000  1.0  -0.6683
  O  O661  1  0.904000  0.241400  0.214890  1.0  -0.6823
  O  O662  1  0.872600  0.089200  0.220570  1.0  -0.6856
  O  O663  1  0.782400  0.386200  0.282260  1.0  -0.6461
  O  O664  1  0.629800  0.408200  0.284730  1.0  -0.7588
  O  O665  1  0.862400  0.175800  0.077750  1.0  -0.6219
  O  O666  1  0.989800  0.178600  0.097320  1.0  -0.6339
  O  O667  1  0.955300  0.131100  0.178700  1.0  -0.8046
  O  O668  1  0.889600  0.991900  0.179810  1.0  -0.6078
  O  O669  1  0.974500  0.430200  0.206000  1.0  -0.672
  O  O670  1  0.404000  0.741400  0.714890  1.0  -0.6823
  O  O671  1  0.372600  0.589200  0.720570  1.0  -0.6856
  O  O672  1  0.282400  0.886200  0.782260  1.0  -0.6461
  O  O673  1  0.129800  0.908200  0.784730  1.0  -0.7588
  O  O674  1  0.362400  0.675800  0.577750  1.0  -0.6219
  O  O675  1  0.489800  0.678600  0.597320  1.0  -0.6339
  O  O676  1  0.455300  0.631100  0.678700  1.0  -0.8046
  O  O677  1  0.389600  0.491900  0.679810  1.0  -0.6078
  O  O678  1  0.474500  0.930200  0.706000  1.0  -0.672
  O  O679  1  0.096000  0.758600  0.214890  1.0  -0.6801
  O  O680  1  0.127400  0.910800  0.220570  1.0  -0.6875
  O  O681  1  0.217600  0.613800  0.282260  1.0  -0.6456
  O  O682  1  0.370200  0.591800  0.284730  1.0  -0.7588
  O  O683  1  0.137600  0.824200  0.077750  1.0  -0.6235
  O  O684  1  0.010200  0.821400  0.097320  1.0  -0.6322
  O  O685  1  0.044700  0.868900  0.178700  1.0  -0.8057
  O  O686  1  0.110400  0.008100  0.179810  1.0  -0.6099
  O  O687  1  0.025500  0.569800  0.206000  1.0  -0.6699
  O  O688  1  0.596000  0.258600  0.714890  1.0  -0.6801
  O  O689  1  0.627400  0.410800  0.720570  1.0  -0.6875
  O  O690  1  0.717600  0.113800  0.782260  1.0  -0.6456
  O  O691  1  0.870200  0.091800  0.784730  1.0  -0.7588
  O  O692  1  0.637600  0.324200  0.577750  1.0  -0.6235
  O  O693  1  0.510200  0.321400  0.597320  1.0  -0.6322
  O  O694  1  0.544700  0.368900  0.678700  1.0  -0.8057
  O  O695  1  0.610400  0.508100  0.679810  1.0  -0.6099
  O  O696  1  0.525500  0.069800  0.706000  1.0  -0.6699
