# generated using pymatgen
data_KFe(CN)6
_symmetry_space_group_name_H-M   'P 1'
_cell_length_a   13.73680000
_cell_length_b   8.87370000
_cell_length_c   7.98390000
_cell_angle_alpha   90.00000000
_cell_angle_beta   120.81500000
_cell_angle_gamma   90.00000000
_symmetry_Int_Tables_number   1
_chemical_formula_structural   KFe(CN)6
_chemical_formula_sum   'K2 Fe2 C12 N12'
_cell_volume   835.81564514
_cell_formula_units_Z   2
loop_
 _symmetry_equiv_pos_site_id
 _symmetry_equiv_pos_as_xyz
  1  'x, y, z'
loop_
 _atom_site_type_symbol
 _atom_site_label
 _atom_site_symmetry_multiplicity
 _atom_site_fract_x
 _atom_site_fract_y
 _atom_site_fract_z
 _atom_site_occupancy
 _atom_site_charge
  K  K1  1  0.000000  0.000000  0.000000  1.0  1.0613
  K  K2  1  0.500000  0.500000  0.000000  1.0  1.0613
  Fe  Fe3  1  0.500000  0.000000  0.500000  1.0  -0.2318
  Fe  Fe4  1  0.000000  0.500000  0.500000  1.0  -0.2318
  C  C5  1  0.496500  0.159400  0.662000  1.0  0.339
  C  C6  1  0.996500  0.659400  0.662000  1.0  0.339
  C  C7  1  0.503500  0.159400  0.338000  1.0  0.3436
  C  C8  1  0.003500  0.659400  0.338000  1.0  0.3403
  C  C9  1  0.503500  0.840600  0.338000  1.0  0.341
  C  C10  1  0.003500  0.340600  0.338000  1.0  0.341
  C  C11  1  0.496500  0.840600  0.662000  1.0  0.3435
  C  C12  1  0.996500  0.340600  0.662000  1.0  0.3435
  C  C13  1  0.663000  0.000000  0.657800  1.0  0.3357
  C  C14  1  0.163000  0.500000  0.657800  1.0  0.3357
  C  C15  1  0.337000  0.000000  0.342200  1.0  0.3345
  C  C16  1  0.837000  0.500000  0.342200  1.0  0.3345
  N  N17  1  0.494400  0.259100  0.752200  1.0  -0.4966
  N  N18  1  0.994400  0.759100  0.752200  1.0  -0.4966
  N  N19  1  0.505600  0.259100  0.247800  1.0  -0.4972
  N  N20  1  0.005600  0.759100  0.247800  1.0  -0.4972
  N  N21  1  0.505600  0.740900  0.247800  1.0  -0.4966
  N  N22  1  0.005600  0.240900  0.247800  1.0  -0.4966
  N  N23  1  0.494400  0.740900  0.752200  1.0  -0.4941
  N  N24  1  0.994400  0.240900  0.752200  1.0  -0.4941
  N  N25  1  0.760100  0.000000  0.756100  1.0  -0.4414
  N  N26  1  0.260100  0.500000  0.756100  1.0  -0.4414
  N  N27  1  0.239900  0.000000  0.243900  1.0  -0.4392
  N  N28  1  0.739900  0.500000  0.243900  1.0  -0.4392
