# generated using pymatgen
data_KFe(CN)6
_symmetry_space_group_name_H-M   'P 1'
_cell_length_a   8.42900000
_cell_length_b   8.42900000
_cell_length_c   39.66190000
_cell_angle_alpha   90.00000000
_cell_angle_beta   90.00000000
_cell_angle_gamma   120.00000000
_symmetry_Int_Tables_number   1
_chemical_formula_structural   KFe(CN)6
_chemical_formula_sum   'K6 Fe6 C36 N36'
_cell_volume   2440.37324283
_cell_formula_units_Z   6
loop_
 _symmetry_equiv_pos_site_id
 _symmetry_equiv_pos_as_xyz
  1  'x, y, z'
loop_
 _atom_site_type_symbol
 _atom_site_label
 _atom_site_symmetry_multiplicity
 _atom_site_fract_x
 _atom_site_fract_y
 _atom_site_fract_z
 _atom_site_occupancy
 _atom_site_charge
  K  K1  1  0.666667  0.333333  0.083330  1.0  1.0515
  K  K2  1  0.000000  0.000000  0.750000  1.0  1.0511
  K  K3  1  0.333333  0.666667  0.416670  1.0  1.0513
  K  K4  1  0.333333  0.666667  0.916670  1.0  1.0513
  K  K5  1  0.000000  0.000000  0.250000  1.0  1.053
  K  K6  1  0.666667  0.333333  0.583330  1.0  1.0515
  Fe  Fe7  1  0.000000  0.000000  0.000000  1.0  -0.2628
  Fe  Fe8  1  0.666667  0.333333  0.333333  1.0  -0.2666
  Fe  Fe9  1  0.333333  0.666667  0.666667  1.0  -0.2659
  Fe  Fe10  1  0.000000  0.000000  0.500000  1.0  -0.2628
  Fe  Fe11  1  0.666667  0.333333  0.833330  1.0  -0.2647
  Fe  Fe12  1  0.333333  0.666667  0.166670  1.0  -0.2659
  C  C13  1  0.861040  0.783450  0.027630  1.0  0.2813
  C  C14  1  0.527710  0.116780  0.360960  1.0  0.2813
  C  C15  1  0.194370  0.450120  0.694300  1.0  0.2808
  C  C16  1  0.216550  0.077590  0.027630  1.0  0.2808
  C  C17  1  0.883220  0.410920  0.360960  1.0  0.2776
  C  C18  1  0.549880  0.744260  0.694300  1.0  0.2829
  C  C19  1  0.922410  0.138960  0.027630  1.0  0.2779
  C  C20  1  0.589080  0.472290  0.360960  1.0  0.2746
  C  C21  1  0.255740  0.805630  0.694300  1.0  0.2725
  C  C22  1  0.783450  0.861040  0.472370  1.0  0.2795
  C  C23  1  0.450120  0.194370  0.805700  1.0  0.2813
  C  C24  1  0.116780  0.527710  0.139040  1.0  0.2795
  C  C25  1  0.077590  0.216550  0.472370  1.0  0.2768
  C  C26  1  0.744260  0.549880  0.805700  1.0  0.2816
  C  C27  1  0.410920  0.883220  0.139040  1.0  0.2768
  C  C28  1  0.138960  0.922410  0.472370  1.0  0.2792
  C  C29  1  0.805630  0.255740  0.805700  1.0  0.2736
  C  C30  1  0.472290  0.589080  0.139040  1.0  0.2758
  C  C31  1  0.138960  0.216550  0.972370  1.0  0.2836
  C  C32  1  0.805630  0.549880  0.305700  1.0  0.285
  C  C33  1  0.472290  0.883220  0.639040  1.0  0.2836
  C  C34  1  0.783450  0.922410  0.972370  1.0  0.2844
  C  C35  1  0.450120  0.255740  0.305700  1.0  0.2868
  C  C36  1  0.116780  0.589080  0.639040  1.0  0.2837
  C  C37  1  0.077590  0.861040  0.972370  1.0  0.2809
  C  C38  1  0.744260  0.194370  0.305700  1.0  0.2848
  C  C39  1  0.410920  0.527710  0.639040  1.0  0.2809
  C  C40  1  0.216550  0.138960  0.527630  1.0  0.2843
  C  C41  1  0.883220  0.472290  0.860960  1.0  0.2844
  C  C42  1  0.549880  0.805630  0.194300  1.0  0.2861
  C  C43  1  0.922410  0.783450  0.527630  1.0  0.2866
  C  C44  1  0.589080  0.116780  0.860960  1.0  0.2866
  C  C45  1  0.255740  0.450120  0.194300  1.0  0.2888
  C  C46  1  0.861040  0.077590  0.527630  1.0  0.2834
  C  C47  1  0.527710  0.410920  0.860960  1.0  0.2793
  C  C48  1  0.194370  0.744260  0.194300  1.0  0.283
  N  N49  1  0.777200  0.653930  0.043380  1.0  -0.4099
  N  N50  1  0.443870  0.987260  0.376710  1.0  -0.4099
  N  N51  1  0.110530  0.320600  0.710050  1.0  -0.4141
  N  N52  1  0.346070  0.123270  0.043380  1.0  -0.4139
  N  N53  1  0.012740  0.456600  0.376710  1.0  -0.4139
  N  N54  1  0.679400  0.789940  0.710050  1.0  -0.4108
  N  N55  1  0.876730  0.222800  0.043380  1.0  -0.412
  N  N56  1  0.543400  0.556130  0.376710  1.0  -0.412
  N  N57  1  0.210060  0.889470  0.710050  1.0  -0.4116
  N  N58  1  0.653930  0.777200  0.456620  1.0  -0.4091
  N  N59  1  0.320600  0.110530  0.789950  1.0  -0.4136
  N  N60  1  0.987260  0.443870  0.123290  1.0  -0.4091
  N  N61  1  0.123270  0.346070  0.456620  1.0  -0.4191
  N  N62  1  0.789940  0.679400  0.789950  1.0  -0.4159
  N  N63  1  0.456600  0.012740  0.123290  1.0  -0.4191
  N  N64  1  0.222800  0.876730  0.456620  1.0  -0.4092
  N  N65  1  0.889470  0.210060  0.789950  1.0  -0.4097
  N  N66  1  0.556130  0.543400  0.123290  1.0  -0.4092
  N  N67  1  0.222800  0.346070  0.956620  1.0  -0.4157
  N  N68  1  0.889470  0.679400  0.289950  1.0  -0.4195
  N  N69  1  0.556130  0.012740  0.623290  1.0  -0.4157
  N  N70  1  0.653930  0.876730  0.956620  1.0  -0.4128
  N  N71  1  0.320600  0.210060  0.289950  1.0  -0.4091
  N  N72  1  0.987260  0.543400  0.623290  1.0  -0.4128
  N  N73  1  0.123270  0.777200  0.956620  1.0  -0.4112
  N  N74  1  0.789940  0.110530  0.289950  1.0  -0.4113
  N  N75  1  0.456600  0.443870  0.623290  1.0  -0.4112
  N  N76  1  0.346070  0.222800  0.543380  1.0  -0.4126
  N  N77  1  0.012740  0.556130  0.876710  1.0  -0.4126
  N  N78  1  0.679400  0.889470  0.210050  1.0  -0.4165
  N  N79  1  0.876730  0.653930  0.543380  1.0  -0.4129
  N  N80  1  0.543400  0.987260  0.876710  1.0  -0.4129
  N  N81  1  0.210060  0.320600  0.210050  1.0  -0.4095
  N  N82  1  0.777200  0.123270  0.543380  1.0  -0.4109
  N  N83  1  0.443870  0.456600  0.876710  1.0  -0.4109
  N  N84  1  0.110530  0.789940  0.210050  1.0  -0.4107
