# generated using pymatgen
data_AgH4(C3N2)2
_symmetry_space_group_name_H-M   'P 1'
_cell_length_a   10.01440000
_cell_length_b   10.12600000
_cell_length_c   20.43630000
_cell_angle_alpha   90.00000000
_cell_angle_beta   90.00000000
_cell_angle_gamma   90.00000000
_symmetry_Int_Tables_number   1
_chemical_formula_structural   AgH4(C3N2)2
_chemical_formula_sum   'Ag8 H32 C48 N32'
_cell_volume   2072.35964482
_cell_formula_units_Z   8
loop_
 _symmetry_equiv_pos_site_id
 _symmetry_equiv_pos_as_xyz
  1  'x, y, z'
loop_
 _atom_site_type_symbol
 _atom_site_label
 _atom_site_symmetry_multiplicity
 _atom_site_fract_x
 _atom_site_fract_y
 _atom_site_fract_z
 _atom_site_occupancy
 _atom_site_charge
  Ag  Ag1  1  0.005380  0.232040  0.272500  1.0  0.3561
  Ag  Ag2  1  0.509640  0.234170  0.521650  1.0  0.4463
  Ag  Ag3  1  0.494620  0.767960  0.772500  1.0  0.3563
  Ag  Ag4  1  0.990360  0.765830  0.021650  1.0  0.446
  Ag  Ag5  1  0.994620  0.732040  0.227500  1.0  0.3561
  Ag  Ag6  1  0.490360  0.734170  0.978350  1.0  0.4463
  Ag  Ag7  1  0.505380  0.267960  0.727500  1.0  0.356
  Ag  Ag8  1  0.009640  0.265830  0.478350  1.0  0.4466
  H  H9  1  0.634100  0.091000  0.104000  1.0  0.1742
  H  H10  1  0.596500  0.983200  0.158200  1.0  0.187
  H  H11  1  0.767000  0.615400  0.409400  1.0  0.1614
  H  H12  1  0.675000  0.588800  0.346400  1.0  0.1504
  H  H13  1  0.368900  0.489300  0.142200  1.0  0.1681
  H  H14  1  0.323500  0.403300  0.080000  1.0  0.1797
  H  H15  1  0.251600  0.841600  0.397700  1.0  0.1791
  H  H16  1  0.357400  0.885800  0.342700  1.0  0.1636
  H  H17  1  0.865900  0.909000  0.604000  1.0  0.1734
  H  H18  1  0.903500  0.016800  0.658200  1.0  0.1877
  H  H19  1  0.733000  0.384600  0.909400  1.0  0.1617
  H  H20  1  0.825000  0.411200  0.846400  1.0  0.1497
  H  H21  1  0.131100  0.510700  0.642200  1.0  0.1677
  H  H22  1  0.176500  0.596700  0.580000  1.0  0.1808
  H  H23  1  0.248400  0.158400  0.897700  1.0  0.1787
  H  H24  1  0.142600  0.114200  0.842700  1.0  0.1646
  H  H25  1  0.365900  0.591000  0.396000  1.0  0.175
  H  H26  1  0.403500  0.483200  0.341800  1.0  0.1868
  H  H27  1  0.233000  0.115400  0.090600  1.0  0.1619
  H  H28  1  0.325000  0.088800  0.153600  1.0  0.1508
  H  H29  1  0.631100  0.989300  0.357800  1.0  0.1687
  H  H30  1  0.676500  0.903300  0.420000  1.0  0.1812
  H  H31  1  0.748400  0.341600  0.102300  1.0  0.1791
  H  H32  1  0.642600  0.385800  0.157300  1.0  0.1653
  H  H33  1  0.134100  0.409000  0.896000  1.0  0.1745
  H  H34  1  0.096500  0.516800  0.841800  1.0  0.1881
  H  H35  1  0.267000  0.884600  0.590600  1.0  0.1612
  H  H36  1  0.175000  0.911200  0.653600  1.0  0.1506
  H  H37  1  0.868900  0.010700  0.857800  1.0  0.1688
  H  H38  1  0.823500  0.096700  0.920000  1.0  0.1809
  H  H39  1  0.751600  0.658400  0.602300  1.0  0.1788
  H  H40  1  0.857400  0.614200  0.657300  1.0  0.165
  C  C41  1  0.671800  0.025900  0.135000  1.0  -0.4634
  C  C42  1  0.731000  0.546000  0.380300  1.0  -0.3307
  C  C43  1  0.653000  0.454800  0.417100  1.0  0.3952
  C  C44  1  0.843600  0.471900  0.348400  1.0  0.3549
  C  C45  1  0.290800  0.457100  0.117200  1.0  -0.4048
  C  C46  1  0.745700  0.926400  0.098700  1.0  0.351
  C  C47  1  0.293500  0.918600  0.376000  1.0  -0.375
  C  C48  1  0.203500  0.376200  0.159900  1.0  0.3861
  C  C49  1  0.363000  0.000200  0.424200  1.0  0.3558
  C  C50  1  0.190700  0.000900  0.344700  1.0  0.3134
  C  C51  1  0.754100  0.093700  0.181800  1.0  0.3764
  C  C52  1  0.212100  0.569700  0.092800  1.0  0.3414
  C  C53  1  0.828200  0.974100  0.635000  1.0  -0.4645
  C  C54  1  0.769000  0.454000  0.880300  1.0  -0.334
  C  C55  1  0.847000  0.545200  0.917100  1.0  0.3949
  C  C56  1  0.656400  0.528100  0.848400  1.0  0.3536
  C  C57  1  0.209200  0.542900  0.617200  1.0  -0.4056
  C  C58  1  0.754300  0.073600  0.598700  1.0  0.3519
  C  C59  1  0.206500  0.081400  0.876000  1.0  -0.373
  C  C60  1  0.296500  0.623800  0.659900  1.0  0.3878
  C  C61  1  0.137000  0.999800  0.924200  1.0  0.3575
  C  C62  1  0.309300  0.999100  0.844700  1.0  0.3128
  C  C63  1  0.745900  0.906300  0.681800  1.0  0.3759
  C  C64  1  0.287900  0.430300  0.592800  1.0  0.3421
  C  C65  1  0.328200  0.525900  0.365000  1.0  -0.4639
  C  C66  1  0.269000  0.046000  0.119700  1.0  -0.3313
  C  C67  1  0.347000  0.954800  0.082900  1.0  0.3944
  C  C68  1  0.156400  0.971900  0.151600  1.0  0.3552
  C  C69  1  0.709200  0.957100  0.382800  1.0  -0.4058
  C  C70  1  0.254300  0.426400  0.401300  1.0  0.3538
  C  C71  1  0.706500  0.418600  0.124000  1.0  -0.3718
  C  C72  1  0.796500  0.876200  0.340100  1.0  0.3875
  C  C73  1  0.637000  0.500200  0.075800  1.0  0.3576
  C  C74  1  0.809300  0.500900  0.155300  1.0  0.3119
  C  C75  1  0.245900  0.593700  0.318200  1.0  0.3767
  C  C76  1  0.787900  0.069700  0.407200  1.0  0.3401
  C  C77  1  0.171800  0.474100  0.865000  1.0  -0.4632
  C  C78  1  0.231000  0.954000  0.619700  1.0  -0.3342
  C  C79  1  0.153000  0.045200  0.582900  1.0  0.3938
  C  C80  1  0.343600  0.028100  0.651600  1.0  0.3554
  C  C81  1  0.790800  0.042900  0.882800  1.0  -0.4046
  C  C82  1  0.245700  0.573600  0.901300  1.0  0.3495
  C  C83  1  0.793500  0.581400  0.624000  1.0  -0.3687
  C  C84  1  0.703500  0.123800  0.840100  1.0  0.3858
  C  C85  1  0.863000  0.499800  0.575800  1.0  0.3586
  C  C86  1  0.690700  0.499100  0.655300  1.0  0.3142
  C  C87  1  0.254100  0.406300  0.818200  1.0  0.3774
  C  C88  1  0.712100  0.930300  0.907200  1.0  0.3422
  N  N89  1  0.588300  0.382900  0.447300  1.0  -0.4462
  N  N90  1  0.112300  0.064900  0.320300  1.0  -0.4378
  N  N91  1  0.420000  0.069000  0.459800  1.0  -0.4394
  N  N92  1  0.138400  0.312400  0.190300  1.0  -0.4038
  N  N93  1  0.923900  0.410500  0.325000  1.0  -0.4267
  N  N94  1  0.821200  0.147400  0.217000  1.0  -0.4349
  N  N95  1  0.809600  0.851000  0.072300  1.0  -0.4442
  N  N96  1  0.155000  0.658500  0.074400  1.0  -0.4381
  N  N97  1  0.911700  0.617100  0.947300  1.0  -0.4475
  N  N98  1  0.387700  0.935100  0.820300  1.0  -0.4346
  N  N99  1  0.080000  0.931000  0.959800  1.0  -0.4383
  N  N100  1  0.361600  0.687600  0.690300  1.0  -0.4034
  N  N101  1  0.576100  0.589500  0.825000  1.0  -0.4274
  N  N102  1  0.678800  0.852600  0.717000  1.0  -0.4344
  N  N103  1  0.690400  0.149000  0.572300  1.0  -0.4474
  N  N104  1  0.345000  0.341500  0.574400  1.0  -0.437
  N  N105  1  0.411700  0.882900  0.052700  1.0  -0.4456
  N  N106  1  0.887700  0.564900  0.179700  1.0  -0.4382
  N  N107  1  0.580000  0.569000  0.040200  1.0  -0.439
  N  N108  1  0.861600  0.812400  0.309700  1.0  -0.4035
  N  N109  1  0.076100  0.910500  0.175000  1.0  -0.426
  N  N110  1  0.178800  0.647400  0.283000  1.0  -0.4351
  N  N111  1  0.190400  0.351000  0.427700  1.0  -0.4443
  N  N112  1  0.845000  0.158500  0.425600  1.0  -0.4392
  N  N113  1  0.088300  0.117100  0.552700  1.0  -0.4464
  N  N114  1  0.612300  0.435100  0.679700  1.0  -0.4359
  N  N115  1  0.920000  0.431000  0.540200  1.0  -0.4396
  N  N116  1  0.638400  0.187600  0.809700  1.0  -0.4043
  N  N117  1  0.423900  0.089500  0.675000  1.0  -0.4281
  N  N118  1  0.321200  0.352600  0.783000  1.0  -0.4343
  N  N119  1  0.309600  0.649000  0.927700  1.0  -0.4466
  N  N120  1  0.655000  0.841500  0.925600  1.0  -0.4371
