# generated using pymatgen
data_ZnMo3HC3O8
_symmetry_space_group_name_H-M   'P 1'
_cell_length_a   21.62120000
_cell_length_b   22.55020000
_cell_length_c   26.21540000
_cell_angle_alpha   115.47400000
_cell_angle_beta   114.35400000
_cell_angle_gamma   90.00000000
_symmetry_Int_Tables_number   1
_chemical_formula_structural   ZnMo3HC3O8
_chemical_formula_sum   'Zn12 Mo36 H12 C36 O96'
_cell_volume   10264.86976425
_cell_formula_units_Z   12
loop_
 _symmetry_equiv_pos_site_id
 _symmetry_equiv_pos_as_xyz
  1  'x, y, z'
loop_
 _atom_site_type_symbol
 _atom_site_label
 _atom_site_symmetry_multiplicity
 _atom_site_fract_x
 _atom_site_fract_y
 _atom_site_fract_z
 _atom_site_occupancy
 _atom_site_charge
  Zn  Zn1  1  0.812880  0.755650  0.390180  1.0  1.0512
  Zn  Zn2  1  0.865780  0.690570  0.605360  1.0  1.1574
  Zn  Zn3  1  0.948230  0.640590  0.100400  1.0  1.0431
  Zn  Zn4  1  0.577300  0.634530  0.390180  1.0  1.0514
  Zn  Zn5  1  0.739580  0.914790  0.605360  1.0  1.1566
  Zn  Zn6  1  0.152170  0.459810  0.100400  1.0  1.042
  Zn  Zn7  1  0.187120  0.365470  0.609820  1.0  1.0515
  Zn  Zn8  1  0.134220  0.085210  0.394640  1.0  1.1556
  Zn  Zn9  1  0.051770  0.540190  0.899600  1.0  1.0426
  Zn  Zn10  1  0.422700  0.244350  0.609820  1.0  1.052
  Zn  Zn11  1  0.260420  0.309430  0.394640  1.0  1.1543
  Zn  Zn12  1  0.847830  0.359410  0.899600  1.0  1.0443
  Mo  Mo13  1  0.702380  0.605280  0.334660  1.0  1.1117
  Mo  Mo14  1  0.722420  0.567240  0.453240  1.0  1.1107
  Mo  Mo15  1  0.868660  0.644680  0.454420  1.0  1.0319
  Mo  Mo16  1  0.937080  0.766870  0.542180  1.0  1.0753
  Mo  Mo17  1  0.895280  0.863860  0.660720  1.0  1.1514
  Mo  Mo18  1  0.684860  0.635260  0.541320  1.0  1.1503
  Mo  Mo19  1  0.126950  0.625000  0.163120  1.0  1.2158
  Mo  Mo20  1  0.067400  0.675410  0.046280  1.0  1.0939
  Mo  Mo21  1  0.868440  0.476180  0.051100  1.0  1.1564
  Mo  Mo22  1  0.632280  0.729380  0.334660  1.0  1.1143
  Mo  Mo23  1  0.730820  0.886000  0.453240  1.0  1.1137
  Mo  Mo24  1  0.585760  0.809740  0.454420  1.0  1.0321
  Mo  Mo25  1  0.605100  0.775310  0.542180  1.0  1.0767
  Mo  Mo26  1  0.765440  0.796860  0.660720  1.0  1.1548
  Mo  Mo27  1  0.856460  0.906060  0.541320  1.0  1.1504
  Mo  Mo28  1  0.036170  0.538120  0.163120  1.0  1.2123
  Mo  Mo29  1  0.978880  0.370870  0.046280  1.0  1.0935
  Mo  Mo30  1  0.182660  0.574920  0.051100  1.0  1.1586
  Mo  Mo31  1  0.297620  0.270620  0.665340  1.0  1.1086
  Mo  Mo32  1  0.277580  0.114000  0.546760  1.0  1.1124
  Mo  Mo33  1  0.131340  0.190260  0.545580  1.0  1.0299
  Mo  Mo34  1  0.062920  0.224690  0.457820  1.0  1.076
  Mo  Mo35  1  0.104720  0.203140  0.339280  1.0  1.1573
  Mo  Mo36  1  0.315140  0.093940  0.458680  1.0  1.1508
  Mo  Mo37  1  0.873050  0.461880  0.836880  1.0  1.2135
  Mo  Mo38  1  0.932600  0.629130  0.953720  1.0  1.0927
  Mo  Mo39  1  0.131560  0.425080  0.948900  1.0  1.1617
  Mo  Mo40  1  0.367720  0.394720  0.665340  1.0  1.1096
  Mo  Mo41  1  0.269180  0.432760  0.546760  1.0  1.1118
  Mo  Mo42  1  0.414240  0.355320  0.545580  1.0  1.0308
  Mo  Mo43  1  0.394900  0.233130  0.457820  1.0  1.0779
  Mo  Mo44  1  0.234560  0.136140  0.339280  1.0  1.1551
  Mo  Mo45  1  0.143540  0.364740  0.458680  1.0  1.1521
  Mo  Mo46  1  0.963830  0.375000  0.836880  1.0  1.214
  Mo  Mo47  1  0.021120  0.324590  0.953720  1.0  1.0931
  Mo  Mo48  1  0.817340  0.523820  0.948900  1.0  1.1598
  H  H49  1  0.010600  0.919900  0.423600  1.0  0.155
  H  H50  1  0.037200  0.868700  0.274200  1.0  0.1237
  H  H51  1  0.914000  0.737000  0.266200  1.0  0.1531
  H  H52  1  0.413000  0.503700  0.423600  1.0  0.1547
  H  H53  1  0.237000  0.405500  0.274200  1.0  0.1232
  H  H54  1  0.352200  0.529200  0.266200  1.0  0.1524
  H  H55  1  0.989400  0.496300  0.576400  1.0  0.1537
  H  H56  1  0.962800  0.594500  0.725800  1.0  0.1239
  H  H57  1  0.086000  0.470800  0.733800  1.0  0.1521
  H  H58  1  0.587000  0.080100  0.576400  1.0  0.1539
  H  H59  1  0.763000  0.131300  0.725800  1.0  0.1229
  H  H60  1  0.647800  0.263000  0.733800  1.0  0.1532
  C  C61  1  0.950500  0.828200  0.347200  1.0  -0.0816
  C  C62  1  0.997000  0.891100  0.380800  1.0  -0.0005
  C  C63  1  0.020210  0.906510  0.347220  1.0  0.007
  C  C64  1  0.009800  0.859100  0.290400  1.0  -0.0053
  C  C65  1  0.964700  0.798500  0.253200  1.0  0.0531
  C  C66  1  0.939100  0.780600  0.285000  1.0  -0.0439
  C  C67  1  0.914480  0.811380  0.378160  1.0  0.6723
  C  C68  1  0.065400  0.976600  0.382200  1.0  0.706
  C  C69  1  0.963600  0.751700  0.195400  1.0  0.5908
  C  C70  1  0.396700  0.519000  0.347200  1.0  -0.0804
  C  C71  1  0.383800  0.489700  0.380800  1.0  0.0002
  C  C72  1  0.327010  0.440710  0.347220  1.0  0.0043
  C  C73  1  0.280600  0.431300  0.290400  1.0  -0.0053
  C  C74  1  0.288500  0.454700  0.253200  1.0  0.0524
  C  C75  1  0.345900  0.504400  0.285000  1.0  -0.0427
  C  C76  1  0.463680  0.566780  0.378160  1.0  0.6743
  C  C77  1  0.316800  0.405600  0.382200  1.0  0.7078
  C  C78  1  0.231800  0.443700  0.195400  1.0  0.5863
  C  C79  1  0.049500  0.481000  0.652800  1.0  -0.081
  C  C80  1  0.003000  0.510300  0.619200  1.0  -0.0022
  C  C81  1  0.979790  0.559290  0.652780  1.0  0.0047
  C  C82  1  0.990200  0.568700  0.709600  1.0  -0.0096
  C  C83  1  0.035300  0.545300  0.746800  1.0  0.0488
  C  C84  1  0.060900  0.495600  0.715000  1.0  -0.0454
  C  C85  1  0.085520  0.433220  0.621840  1.0  0.6732
  C  C86  1  0.934600  0.594400  0.617800  1.0  0.7087
  C  C87  1  0.036400  0.556300  0.804600  1.0  0.5896
  C  C88  1  0.603300  0.171800  0.652800  1.0  -0.0796
  C  C89  1  0.616200  0.108900  0.619200  1.0  -0.0013
  C  C90  1  0.672990  0.093490  0.652780  1.0  0.0064
  C  C91  1  0.719400  0.140900  0.709600  1.0  -0.0066
  C  C92  1  0.711500  0.201500  0.746800  1.0  0.0549
  C  C93  1  0.654100  0.219400  0.715000  1.0  -0.044
  C  C94  1  0.536320  0.188620  0.621840  1.0  0.6739
  C  C95  1  0.683200  0.023400  0.617800  1.0  0.7072
  C  C96  1  0.768200  0.248300  0.804600  1.0  0.5882
  O  O97  1  0.796960  0.607260  0.363120  1.0  -0.6756
  O  O98  1  0.683440  0.548540  0.362280  1.0  -0.669
  O  O99  1  0.724850  0.694050  0.342500  1.0  -0.7143
  O  O100  1  0.638510  0.602310  0.449420  1.0  -0.7908
  O  O101  1  0.773040  0.624970  0.543880  1.0  -0.8099
  O  O102  1  0.819770  0.566870  0.456940  1.0  -0.6446
  O  O103  1  0.879510  0.729490  0.451020  1.0  -0.7881
  O  O104  1  0.901470  0.691970  0.548540  1.0  -0.8473
  O  O105  1  0.956530  0.815830  0.632260  1.0  -0.6351
  O  O106  1  0.936890  0.859090  0.537780  1.0  -0.6612
  O  O107  1  0.736140  0.705440  0.629880  1.0  -0.6655
  O  O108  1  0.855040  0.778140  0.652480  1.0  -0.6986
  O  O109  1  0.856700  0.766200  0.340600  1.0  -0.5485
  O  O110  1  0.073390  0.996990  0.347380  1.0  -0.5296
  O  O111  1  0.034270  0.611970  0.146540  1.0  -0.8943
  O  O112  1  0.111400  0.695700  0.135800  1.0  -0.6431
  O  O113  1  0.201670  0.606370  0.136140  1.0  -0.598
  O  O114  1  0.979150  0.658250  0.046100  1.0  -0.7926
  O  O115  1  0.872530  0.559730  0.041660  1.0  -0.7216
  O  O116  1  0.915500  0.695400  0.164000  1.0  -0.5136
  O  O117  1  0.008000  0.753100  0.177400  1.0  -0.5318
  O  O118  1  0.161930  0.653730  0.049460  1.0  -0.6632
  O  O119  1  0.935240  0.843340  0.430280  1.0  -0.326
  O  O120  1  0.088550  0.006450  0.435700  1.0  -0.3181
  O  O121  1  0.566160  0.755860  0.363120  1.0  -0.6736
  O  O122  1  0.678840  0.813740  0.362280  1.0  -0.6661
  O  O123  1  0.617650  0.648450  0.342500  1.0  -0.7137
  O  O124  1  0.810910  0.847110  0.449420  1.0  -0.7899
  O  O125  1  0.770840  0.918910  0.543880  1.0  -0.809
  O  O126  1  0.637170  0.890070  0.456940  1.0  -0.6461
  O  O127  1  0.571510  0.721530  0.451020  1.0  -0.7898
  O  O128  1  0.647070  0.856570  0.548540  1.0  -0.8476
  O  O129  1  0.675730  0.816430  0.632260  1.0  -0.6201
  O  O130  1  0.600890  0.678690  0.537780  1.0  -0.6594
  O  O131  1  0.893740  0.924440  0.629880  1.0  -0.6644
  O  O132  1  0.797440  0.874340  0.652480  1.0  -0.7064
  O  O133  1  0.483900  0.574400  0.340600  1.0  -0.5449
  O  O134  1  0.273990  0.350390  0.347380  1.0  -0.5326
  O  O135  1  0.112270  0.534570  0.146540  1.0  -0.8959
  O  O136  1  0.024400  0.440100  0.135800  1.0  -0.6456
  O  O137  1  0.934470  0.529770  0.136140  1.0  -0.6015
  O  O138  1  0.066950  0.387850  0.046100  1.0  -0.7933
  O  O139  1  0.169130  0.481930  0.041660  1.0  -0.7206
  O  O140  1  0.248500  0.468600  0.164000  1.0  -0.5139
  O  O141  1  0.169400  0.424300  0.177400  1.0  -0.5329
  O  O142  1  0.887530  0.395730  0.049460  1.0  -0.6643
  O  O143  1  0.495040  0.586940  0.430280  1.0  -0.3265
  O  O144  1  0.347150  0.429250  0.435700  1.0  -0.3203
  O  O145  1  0.203040  0.244140  0.636880  1.0  -0.6732
  O  O146  1  0.316560  0.186260  0.637720  1.0  -0.665
  O  O147  1  0.275150  0.351550  0.657500  1.0  -0.7141
  O  O148  1  0.361490  0.152890  0.550580  1.0  -0.79
  O  O149  1  0.226960  0.081090  0.456120  1.0  -0.8111
  O  O150  1  0.180230  0.109930  0.543060  1.0  -0.6453
  O  O151  1  0.120490  0.278470  0.548980  1.0  -0.7886
  O  O152  1  0.098530  0.143430  0.451460  1.0  -0.8479
  O  O153  1  0.043470  0.183570  0.367740  1.0  -0.6245
  O  O154  1  0.063110  0.321310  0.462220  1.0  -0.6605
  O  O155  1  0.263860  0.075560  0.370120  1.0  -0.6666
  O  O156  1  0.144960  0.125660  0.347520  1.0  -0.7068
  O  O157  1  0.143300  0.425600  0.659400  1.0  -0.5482
  O  O158  1  0.926610  0.649610  0.652620  1.0  -0.5291
  O  O159  1  0.965730  0.465430  0.853460  1.0  -0.8936
  O  O160  1  0.888600  0.559900  0.864200  1.0  -0.6455
  O  O161  1  0.798330  0.470230  0.863860  1.0  -0.5984
  O  O162  1  0.020850  0.612150  0.953900  1.0  -0.7923
  O  O163  1  0.127470  0.518070  0.958340  1.0  -0.7219
  O  O164  1  0.084500  0.531400  0.836000  1.0  -0.5137
  O  O165  1  0.992000  0.575700  0.822600  1.0  -0.5328
  O  O166  1  0.838070  0.604270  0.950540  1.0  -0.665
  O  O167  1  0.064760  0.413060  0.569720  1.0  -0.3236
  O  O168  1  0.911450  0.570750  0.564300  1.0  -0.3165
  O  O169  1  0.433840  0.392740  0.636880  1.0  -0.6756
  O  O170  1  0.321160  0.451460  0.637720  1.0  -0.6653
  O  O171  1  0.382350  0.305950  0.657500  1.0  -0.713
  O  O172  1  0.189090  0.397690  0.550580  1.0  -0.7892
  O  O173  1  0.229160  0.375030  0.456120  1.0  -0.8107
  O  O174  1  0.362830  0.433130  0.543060  1.0  -0.6446
  O  O175  1  0.428490  0.270510  0.548980  1.0  -0.788
  O  O176  1  0.352930  0.308030  0.451460  1.0  -0.8478
  O  O177  1  0.324270  0.184170  0.367740  1.0  -0.6282
  O  O178  1  0.399110  0.140910  0.462220  1.0  -0.6614
  O  O179  1  0.106260  0.294560  0.370120  1.0  -0.6658
  O  O180  1  0.202560  0.221860  0.347520  1.0  -0.6987
  O  O181  1  0.516100  0.233800  0.659400  1.0  -0.5467
  O  O182  1  0.726010  0.003010  0.652620  1.0  -0.5303
  O  O183  1  0.887730  0.388030  0.853460  1.0  -0.8944
  O  O184  1  0.975600  0.304300  0.864200  1.0  -0.6453
  O  O185  1  0.065530  0.393630  0.863860  1.0  -0.6038
  O  O186  1  0.933050  0.341750  0.953900  1.0  -0.794
  O  O187  1  0.830870  0.440270  0.958340  1.0  -0.7215
  O  O188  1  0.751500  0.304600  0.836000  1.0  -0.515
  O  O189  1  0.830600  0.246900  0.822600  1.0  -0.5341
  O  O190  1  0.112470  0.346270  0.950540  1.0  -0.6644
  O  O191  1  0.504960  0.156660  0.569720  1.0  -0.3261
  O  O192  1  0.652850  0.993550  0.564300  1.0  -0.3194
