# generated using pymatgen
data_Zn4Mo12PH3C9O34
_symmetry_space_group_name_H-M   'P 1'
_cell_length_a   16.21400000
_cell_length_b   24.15600000
_cell_length_c   24.99200000
_cell_angle_alpha   90.00000000
_cell_angle_beta   90.00000000
_cell_angle_gamma   90.00000000
_symmetry_Int_Tables_number   1
_chemical_formula_structural   Zn4Mo12PH3C9O34
_chemical_formula_sum   'Zn16 Mo48 P4 H12 C36 O136'
_cell_volume   9788.50127693
_cell_formula_units_Z   4
loop_
 _symmetry_equiv_pos_site_id
 _symmetry_equiv_pos_as_xyz
  1  'x, y, z'
loop_
 _atom_site_type_symbol
 _atom_site_label
 _atom_site_symmetry_multiplicity
 _atom_site_fract_x
 _atom_site_fract_y
 _atom_site_fract_z
 _atom_site_occupancy
 _atom_site_charge
  Zn  Zn1  1  0.821110  0.771280  0.511900  1.0  1.0717
  Zn  Zn2  1  0.821110  0.228720  0.488100  1.0  1.0698
  Zn  Zn3  1  0.678890  0.728720  0.011900  1.0  1.0715
  Zn  Zn4  1  0.678890  0.271280  0.988100  1.0  1.0706
  Zn  Zn5  1  0.178890  0.228720  0.488100  1.0  1.0706
  Zn  Zn6  1  0.178890  0.771280  0.511900  1.0  1.0728
  Zn  Zn7  1  0.321110  0.271280  0.988100  1.0  1.07
  Zn  Zn8  1  0.321110  0.728720  0.011900  1.0  1.0713
  Zn  Zn9  1  0.000000  0.021080  0.572030  1.0  0.956
  Zn  Zn10  1  0.000000  0.978920  0.427970  1.0  0.9546
  Zn  Zn11  1  0.500000  0.478920  0.072030  1.0  0.9571
  Zn  Zn12  1  0.500000  0.521080  0.927970  1.0  0.9537
  Zn  Zn13  1  0.500000  0.719330  0.792400  1.0  0.9921
  Zn  Zn14  1  0.500000  0.280670  0.207600  1.0  0.9919
  Zn  Zn15  1  0.000000  0.780670  0.292400  1.0  0.9937
  Zn  Zn16  1  0.000000  0.219330  0.707600  1.0  0.9947
  Mo  Mo17  1  0.108030  0.908420  0.537990  1.0  1.1973
  Mo  Mo18  1  0.190710  0.907620  0.447870  1.0  1.2375
  Mo  Mo19  1  0.098520  0.093990  0.675980  1.0  1.4468
  Mo  Mo20  1  0.812250  0.785120  0.365920  1.0  1.2619
  Mo  Mo21  1  0.890810  0.696630  0.396910  1.0  1.2029
  Mo  Mo22  1  0.108030  0.091580  0.462010  1.0  1.1967
  Mo  Mo23  1  0.190710  0.092380  0.552130  1.0  1.2365
  Mo  Mo24  1  0.098520  0.906010  0.324020  1.0  1.4502
  Mo  Mo25  1  0.812250  0.214880  0.634080  1.0  1.262
  Mo  Mo26  1  0.890810  0.303370  0.603090  1.0  1.2
  Mo  Mo27  1  0.391970  0.591580  0.037990  1.0  1.1992
  Mo  Mo28  1  0.309290  0.592380  0.947870  1.0  1.2394
  Mo  Mo29  1  0.401480  0.406010  0.175980  1.0  1.4588
  Mo  Mo30  1  0.687750  0.714880  0.865920  1.0  1.2611
  Mo  Mo31  1  0.609190  0.803370  0.896910  1.0  1.2009
  Mo  Mo32  1  0.391970  0.408420  0.962010  1.0  1.1988
  Mo  Mo33  1  0.309290  0.407620  0.052130  1.0  1.2391
  Mo  Mo34  1  0.401480  0.593990  0.824020  1.0  1.457
  Mo  Mo35  1  0.687750  0.285120  0.134080  1.0  1.2612
  Mo  Mo36  1  0.609190  0.196630  0.103090  1.0  1.201
  Mo  Mo37  1  0.891970  0.091580  0.462010  1.0  1.1989
  Mo  Mo38  1  0.809290  0.092380  0.552130  1.0  1.2393
  Mo  Mo39  1  0.901480  0.906010  0.324020  1.0  1.4522
  Mo  Mo40  1  0.187750  0.214880  0.634080  1.0  1.2612
  Mo  Mo41  1  0.109190  0.303370  0.603090  1.0  1.2
  Mo  Mo42  1  0.891970  0.908420  0.537990  1.0  1.1985
  Mo  Mo43  1  0.809290  0.907620  0.447870  1.0  1.2391
  Mo  Mo44  1  0.901480  0.093990  0.675980  1.0  1.4468
  Mo  Mo45  1  0.187750  0.785120  0.365920  1.0  1.2612
  Mo  Mo46  1  0.109190  0.696630  0.396910  1.0  1.2011
  Mo  Mo47  1  0.608030  0.408420  0.962010  1.0  1.1969
  Mo  Mo48  1  0.690710  0.407620  0.052130  1.0  1.2372
  Mo  Mo49  1  0.598520  0.593990  0.824020  1.0  1.4547
  Mo  Mo50  1  0.312250  0.285120  0.134080  1.0  1.2624
  Mo  Mo51  1  0.390810  0.196630  0.103090  1.0  1.2032
  Mo  Mo52  1  0.608030  0.591580  0.037990  1.0  1.198
  Mo  Mo53  1  0.690710  0.592380  0.947870  1.0  1.2367
  Mo  Mo54  1  0.598520  0.406010  0.175980  1.0  1.458
  Mo  Mo55  1  0.312250  0.714880  0.865920  1.0  1.2615
  Mo  Mo56  1  0.390810  0.803370  0.896910  1.0  1.2015
  Mo  Mo57  1  0.000000  0.796920  0.585870  1.0  1.3856
  Mo  Mo58  1  0.000000  0.687980  0.514110  1.0  1.3981
  Mo  Mo59  1  0.000000  0.203080  0.414130  1.0  1.3834
  Mo  Mo60  1  0.000000  0.312020  0.485890  1.0  1.4005
  Mo  Mo61  1  0.500000  0.703080  0.085870  1.0  1.3865
  Mo  Mo62  1  0.500000  0.812020  0.014110  1.0  1.4034
  Mo  Mo63  1  0.500000  0.296920  0.914130  1.0  1.3836
  Mo  Mo64  1  0.500000  0.187980  0.985890  1.0  1.4023
  P  P65  1  0.000000  0.822640  0.436920  1.0  1.6429
  P  P66  1  0.000000  0.177360  0.563080  1.0  1.6431
  P  P67  1  0.500000  0.677360  0.936920  1.0  1.6431
  P  P68  1  0.500000  0.322640  0.063080  1.0  1.6429
  H  H69  1  0.624600  0.741300  0.622500  1.0  0.1421
  H  H70  1  0.624600  0.258700  0.377500  1.0  0.1416
  H  H71  1  0.875400  0.758700  0.122500  1.0  0.1441
  H  H72  1  0.875400  0.241300  0.877500  1.0  0.1436
  H  H73  1  0.375400  0.258700  0.377500  1.0  0.1417
  H  H74  1  0.375400  0.741300  0.622500  1.0  0.1424
  H  H75  1  0.124600  0.241300  0.877500  1.0  0.1442
  H  H76  1  0.124600  0.758700  0.122500  1.0  0.1445
  H  H77  1  0.500000  0.773000  0.489200  1.0  0.1445
  H  H78  1  0.500000  0.227000  0.510800  1.0  0.1449
  H  H79  1  0.000000  0.727000  0.989200  1.0  0.1467
  H  H80  1  0.000000  0.273000  0.010800  1.0  0.147
  C  C81  1  0.575300  0.747900  0.604700  1.0  -0.0094
  C  C82  1  0.576200  0.759500  0.551300  1.0  -0.052
  C  C83  1  0.652200  0.768400  0.522100  1.0  0.7332
  C  C84  1  0.575300  0.252100  0.395300  1.0  -0.0091
  C  C85  1  0.576200  0.240500  0.448700  1.0  -0.052
  C  C86  1  0.652200  0.231600  0.477900  1.0  0.7337
  C  C87  1  0.924700  0.752100  0.104700  1.0  -0.0042
  C  C88  1  0.923800  0.740500  0.051300  1.0  -0.0464
  C  C89  1  0.847800  0.731600  0.022100  1.0  0.7329
  C  C90  1  0.924700  0.247900  0.895300  1.0  -0.0049
  C  C91  1  0.923800  0.259500  0.948700  1.0  -0.0461
  C  C92  1  0.847800  0.268400  0.977900  1.0  0.7329
  C  C93  1  0.424700  0.252100  0.395300  1.0  -0.0075
  C  C94  1  0.423800  0.240500  0.448700  1.0  -0.0514
  C  C95  1  0.347800  0.231600  0.477900  1.0  0.7328
  C  C96  1  0.424700  0.747900  0.604700  1.0  -0.0075
  C  C97  1  0.423800  0.759500  0.551300  1.0  -0.0517
  C  C98  1  0.347800  0.768400  0.522100  1.0  0.7329
  C  C99  1  0.075300  0.247900  0.895300  1.0  -0.0029
  C  C100  1  0.076200  0.259500  0.948700  1.0  -0.046
  C  C101  1  0.152200  0.268400  0.977900  1.0  0.7338
  C  C102  1  0.075300  0.752100  0.104700  1.0  -0.0024
  C  C103  1  0.076200  0.740500  0.051300  1.0  -0.0461
  C  C104  1  0.152200  0.731600  0.022100  1.0  0.7331
  C  C105  1  0.500000  0.765100  0.525600  1.0  -0.0041
  C  C106  1  0.500000  0.745800  0.633100  1.0  -0.1308
  C  C107  1  0.500000  0.734000  0.693700  1.0  0.7176
  C  C108  1  0.500000  0.234900  0.474400  1.0  -0.004
  C  C109  1  0.500000  0.254200  0.366900  1.0  -0.1309
  C  C110  1  0.500000  0.266000  0.306300  1.0  0.7189
  C  C111  1  0.000000  0.734900  0.025600  1.0  -0.0094
  C  C112  1  0.000000  0.754200  0.133100  1.0  -0.1341
  C  C113  1  0.000000  0.766000  0.193700  1.0  0.7174
  C  C114  1  0.000000  0.265100  0.974400  1.0  -0.0111
  C  C115  1  0.000000  0.245800  0.866900  1.0  -0.1323
  C  C116  1  0.000000  0.234000  0.806300  1.0  0.7188
  O  O117  1  0.092200  0.947100  0.469700  1.0  -0.7601
  O  O118  1  0.717600  0.752600  0.545700  1.0  -0.555
  O  O119  1  0.181500  0.852600  0.504100  1.0  -0.7904
  O  O120  1  0.924800  0.746700  0.544200  1.0  -0.7918
  O  O121  1  0.818100  0.749300  0.435900  1.0  -0.7876
  O  O122  1  0.078200  0.842600  0.408500  1.0  -0.7469
  O  O123  1  0.908500  0.748900  0.335500  1.0  -0.7791
  O  O124  1  0.083500  0.846500  0.590000  1.0  -0.6797
  O  O125  1  0.165000  0.936000  0.375900  1.0  -0.6699
  O  O126  1  0.257200  0.844100  0.408400  1.0  -0.7592
  O  O127  1  0.838500  0.845100  0.312600  1.0  -0.6348
  O  O128  1  0.085400  0.667800  0.470100  1.0  -0.6592
  O  O129  1  0.652800  0.790000  0.476600  1.0  -0.4037
  O  O130  1  0.436500  0.731700  0.719300  1.0  -0.5041
  O  O131  1  0.092200  0.052900  0.530300  1.0  -0.7598
  O  O132  1  0.717600  0.247400  0.454300  1.0  -0.5565
  O  O133  1  0.181500  0.147400  0.495900  1.0  -0.7911
  O  O134  1  0.924800  0.253300  0.455800  1.0  -0.7963
  O  O135  1  0.818100  0.250700  0.564100  1.0  -0.7906
  O  O136  1  0.078200  0.157400  0.591500  1.0  -0.7458
  O  O137  1  0.908500  0.251100  0.664500  1.0  -0.779
  O  O138  1  0.083500  0.153500  0.410000  1.0  -0.6854
  O  O139  1  0.165000  0.064000  0.624100  1.0  -0.6715
  O  O140  1  0.257200  0.155900  0.591600  1.0  -0.7593
  O  O141  1  0.838500  0.154900  0.687400  1.0  -0.635
  O  O142  1  0.085400  0.332200  0.529900  1.0  -0.6572
  O  O143  1  0.652800  0.210000  0.523400  1.0  -0.4059
  O  O144  1  0.436500  0.268300  0.280700  1.0  -0.5035
  O  O145  1  0.407800  0.552900  0.969700  1.0  -0.7602
  O  O146  1  0.782400  0.747400  0.045700  1.0  -0.5552
  O  O147  1  0.318500  0.647400  0.004100  1.0  -0.7912
  O  O148  1  0.575200  0.753300  0.044200  1.0  -0.7888
  O  O149  1  0.681900  0.750700  0.935900  1.0  -0.7899
  O  O150  1  0.421800  0.657400  0.908500  1.0  -0.7474
  O  O151  1  0.591500  0.751100  0.835500  1.0  -0.7821
  O  O152  1  0.416500  0.653500  0.090000  1.0  -0.6812
  O  O153  1  0.335000  0.564000  0.875900  1.0  -0.6828
  O  O154  1  0.242800  0.655900  0.908400  1.0  -0.7564
  O  O155  1  0.661500  0.654900  0.812600  1.0  -0.6346
  O  O156  1  0.414600  0.832200  0.970100  1.0  -0.657
  O  O157  1  0.847200  0.710000  0.976600  1.0  -0.4025
  O  O158  1  0.063500  0.768300  0.219300  1.0  -0.5054
  O  O159  1  0.407800  0.447100  0.030300  1.0  -0.7589
  O  O160  1  0.782400  0.252600  0.954300  1.0  -0.5539
  O  O161  1  0.318500  0.352600  0.995900  1.0  -0.7917
  O  O162  1  0.575200  0.246700  0.955800  1.0  -0.793
  O  O163  1  0.681900  0.249300  0.064100  1.0  -0.7879
  O  O164  1  0.421800  0.342600  0.091500  1.0  -0.7469
  O  O165  1  0.591500  0.248900  0.164500  1.0  -0.7804
  O  O166  1  0.416500  0.346500  0.910000  1.0  -0.6864
  O  O167  1  0.335000  0.436000  0.124100  1.0  -0.6798
  O  O168  1  0.242800  0.344100  0.091600  1.0  -0.7555
  O  O169  1  0.661500  0.345100  0.187400  1.0  -0.6374
  O  O170  1  0.414600  0.167800  0.029900  1.0  -0.6597
  O  O171  1  0.847200  0.290000  0.023400  1.0  -0.4052
  O  O172  1  0.063500  0.231700  0.780700  1.0  -0.505
  O  O173  1  0.907800  0.052900  0.530300  1.0  -0.7597
  O  O174  1  0.282400  0.247400  0.454300  1.0  -0.5552
  O  O175  1  0.818500  0.147400  0.495900  1.0  -0.7912
  O  O176  1  0.075200  0.253300  0.455800  1.0  -0.7963
  O  O177  1  0.181900  0.250700  0.564100  1.0  -0.7899
  O  O178  1  0.921800  0.157400  0.591500  1.0  -0.7466
  O  O179  1  0.091500  0.251100  0.664500  1.0  -0.7792
  O  O180  1  0.916500  0.153500  0.410000  1.0  -0.6864
  O  O181  1  0.835000  0.064000  0.624100  1.0  -0.6727
  O  O182  1  0.742800  0.155900  0.591600  1.0  -0.7554
  O  O183  1  0.161500  0.154900  0.687400  1.0  -0.6367
  O  O184  1  0.914600  0.332200  0.529900  1.0  -0.6563
  O  O185  1  0.347200  0.210000  0.523400  1.0  -0.4056
  O  O186  1  0.563500  0.268300  0.280700  1.0  -0.505
  O  O187  1  0.907800  0.947100  0.469700  1.0  -0.7594
  O  O188  1  0.282400  0.752600  0.545700  1.0  -0.5538
  O  O189  1  0.818500  0.852600  0.504100  1.0  -0.7917
  O  O190  1  0.075200  0.746700  0.544200  1.0  -0.791
  O  O191  1  0.181900  0.749300  0.435900  1.0  -0.7875
  O  O192  1  0.921800  0.842600  0.408500  1.0  -0.7474
  O  O193  1  0.091500  0.748900  0.335500  1.0  -0.7802
  O  O194  1  0.916500  0.846500  0.590000  1.0  -0.6808
  O  O195  1  0.835000  0.936000  0.375900  1.0  -0.6706
  O  O196  1  0.742800  0.844100  0.408400  1.0  -0.7563
  O  O197  1  0.161500  0.845100  0.312600  1.0  -0.6351
  O  O198  1  0.914600  0.667800  0.470100  1.0  -0.66
  O  O199  1  0.347200  0.790000  0.476600  1.0  -0.402
  O  O200  1  0.563500  0.731700  0.719300  1.0  -0.5057
  O  O201  1  0.592200  0.447100  0.030300  1.0  -0.7598
  O  O202  1  0.217600  0.252600  0.954300  1.0  -0.5553
  O  O203  1  0.681500  0.352600  0.995900  1.0  -0.7904
  O  O204  1  0.424800  0.246700  0.955800  1.0  -0.7923
  O  O205  1  0.318100  0.249300  0.064100  1.0  -0.7883
  O  O206  1  0.578200  0.342600  0.091500  1.0  -0.7463
  O  O207  1  0.408500  0.248900  0.164500  1.0  -0.7793
  O  O208  1  0.583500  0.346500  0.910000  1.0  -0.6855
  O  O209  1  0.665000  0.436000  0.124100  1.0  -0.6792
  O  O210  1  0.757200  0.344100  0.091600  1.0  -0.7602
  O  O211  1  0.338500  0.345100  0.187400  1.0  -0.6352
  O  O212  1  0.585400  0.167800  0.029900  1.0  -0.6564
  O  O213  1  0.152800  0.290000  0.023400  1.0  -0.4059
  O  O214  1  0.936500  0.231700  0.780700  1.0  -0.5037
  O  O215  1  0.592200  0.552900  0.969700  1.0  -0.7601
  O  O216  1  0.217600  0.747400  0.045700  1.0  -0.5564
  O  O217  1  0.681500  0.647400  0.004100  1.0  -0.7909
  O  O218  1  0.424800  0.753300  0.044200  1.0  -0.7903
  O  O219  1  0.318100  0.750700  0.935900  1.0  -0.7903
  O  O220  1  0.578200  0.657400  0.908500  1.0  -0.7466
  O  O221  1  0.408500  0.751100  0.835500  1.0  -0.7811
  O  O222  1  0.583500  0.653500  0.090000  1.0  -0.6801
  O  O223  1  0.665000  0.564000  0.875900  1.0  -0.682
  O  O224  1  0.757200  0.655900  0.908400  1.0  -0.7582
  O  O225  1  0.338500  0.654900  0.812600  1.0  -0.6348
  O  O226  1  0.585400  0.832200  0.970100  1.0  -0.6533
  O  O227  1  0.152800  0.710000  0.976600  1.0  -0.4039
  O  O228  1  0.936500  0.768300  0.219300  1.0  -0.5038
  O  O229  1  0.000000  0.940100  0.561600  1.0  -0.8176
  O  O230  1  0.000000  0.055600  0.642300  1.0  -0.7721
  O  O231  1  0.000000  0.757500  0.435400  1.0  -0.73
  O  O232  1  0.000000  0.845400  0.495000  1.0  -0.6968
  O  O233  1  0.000000  0.660500  0.373400  1.0  -0.6775
  O  O234  1  0.000000  0.059900  0.438400  1.0  -0.8206
  O  O235  1  0.000000  0.944400  0.357700  1.0  -0.7729
  O  O236  1  0.000000  0.242500  0.564600  1.0  -0.7286
  O  O237  1  0.000000  0.154600  0.505000  1.0  -0.6941
  O  O238  1  0.000000  0.339500  0.626600  1.0  -0.6686
  O  O239  1  0.500000  0.559900  0.061600  1.0  -0.8176
  O  O240  1  0.500000  0.444400  0.142300  1.0  -0.7711
  O  O241  1  0.500000  0.742500  0.935400  1.0  -0.7287
  O  O242  1  0.500000  0.654600  0.995000  1.0  -0.6967
  O  O243  1  0.500000  0.839500  0.873400  1.0  -0.6686
  O  O244  1  0.500000  0.440100  0.938400  1.0  -0.8205
  O  O245  1  0.500000  0.555600  0.857700  1.0  -0.7716
  O  O246  1  0.500000  0.257500  0.064600  1.0  -0.7299
  O  O247  1  0.500000  0.345400  0.005000  1.0  -0.694
  O  O248  1  0.500000  0.160500  0.126600  1.0  -0.6792
  O  O249  1  0.500000  0.636500  0.802300  1.0  -0.8344
  O  O250  1  0.500000  0.363500  0.197700  1.0  -0.8338
  O  O251  1  0.000000  0.863500  0.302300  1.0  -0.838
  O  O252  1  0.000000  0.136500  0.697700  1.0  -0.8377
