# generated using pymatgen
data_CuH7C7N5O2
_symmetry_space_group_name_H-M   'P 1'
_cell_length_a   15.29800000
_cell_length_b   15.29800000
_cell_length_c   15.61310000
_cell_angle_alpha   119.33500000
_cell_angle_beta   119.33500000
_cell_angle_gamma   90.00000000
_symmetry_Int_Tables_number   1
_chemical_formula_structural   CuH7C7N5O2
_chemical_formula_sum   'Cu8 H56 C56 N40 O16'
_cell_volume   2634.79062271
_cell_formula_units_Z   8
loop_
 _symmetry_equiv_pos_site_id
 _symmetry_equiv_pos_as_xyz
  1  'x, y, z'
loop_
 _atom_site_type_symbol
 _atom_site_label
 _atom_site_symmetry_multiplicity
 _atom_site_fract_x
 _atom_site_fract_y
 _atom_site_fract_z
 _atom_site_occupancy
 _atom_site_charge
  Cu  Cu1  1  0.425630  0.484070  0.888340  1.0  0.732
  Cu  Cu2  1  0.962710  0.404270  0.888340  1.0  0.7332
  Cu  Cu3  1  0.984070  0.462710  0.388340  1.0  0.732
  Cu  Cu4  1  0.904270  0.925630  0.388340  1.0  0.7306
  Cu  Cu5  1  0.574370  0.515930  0.111660  1.0  0.7317
  Cu  Cu6  1  0.037290  0.595730  0.111660  1.0  0.7329
  Cu  Cu7  1  0.015930  0.537290  0.611660  1.0  0.7324
  Cu  Cu8  1  0.095730  0.074370  0.611660  1.0  0.7312
  H  H9  1  0.457000  0.631900  0.815400  1.0  0.0494
  H  H10  1  0.794800  0.934200  0.172000  1.0  0.3328
  H  H11  1  0.728600  0.921000  0.055400  1.0  0.357
  H  H12  1  0.773500  0.717400  0.301000  1.0  0.0606
  H  H13  1  0.605200  0.285800  0.768400  1.0  0.1428
  H  H14  1  0.711000  0.347400  0.895000  1.0  0.1528
  H  H15  1  0.631100  0.248600  0.853200  1.0  0.1569
  H  H16  1  0.858400  0.183500  0.815400  1.0  0.0503
  H  H17  1  0.877200  0.237800  0.172000  1.0  0.3312
  H  H18  1  0.826800  0.134400  0.055400  1.0  0.3563
  H  H19  1  0.027500  0.583600  0.301000  1.0  0.0623
  H  H20  1  0.663200  0.482600  0.768400  1.0  0.1433
  H  H21  1  0.684000  0.547600  0.895000  1.0  0.1531
  H  H22  1  0.722100  0.604600  0.853200  1.0  0.155
  H  H23  1  0.131900  0.358400  0.315400  1.0  0.0483
  H  H24  1  0.434200  0.377200  0.672000  1.0  0.3342
  H  H25  1  0.421000  0.326800  0.555400  1.0  0.3576
  H  H26  1  0.217400  0.527500  0.801000  1.0  0.0607
  H  H27  1  0.785800  0.163200  0.268400  1.0  0.1433
  H  H28  1  0.847400  0.184000  0.395000  1.0  0.152
  H  H29  1  0.748600  0.222100  0.353200  1.0  0.1606
  H  H30  1  0.683500  0.957000  0.315400  1.0  0.0494
  H  H31  1  0.737800  0.294800  0.672000  1.0  0.3314
  H  H32  1  0.634400  0.228600  0.555400  1.0  0.3563
  H  H33  1  0.083600  0.273500  0.801000  1.0  0.0612
  H  H34  1  0.982600  0.105200  0.268400  1.0  0.1441
  H  H35  1  0.047600  0.211000  0.395000  1.0  0.1545
  H  H36  1  0.104600  0.131100  0.353200  1.0  0.1617
  H  H37  1  0.543000  0.368100  0.184600  1.0  0.0493
  H  H38  1  0.205200  0.065800  0.828000  1.0  0.333
  H  H39  1  0.271400  0.079000  0.944600  1.0  0.3581
  H  H40  1  0.226500  0.282600  0.699000  1.0  0.0612
  H  H41  1  0.394800  0.714200  0.231600  1.0  0.1435
  H  H42  1  0.289000  0.652600  0.105000  1.0  0.1516
  H  H43  1  0.368900  0.751400  0.146800  1.0  0.155
  H  H44  1  0.141600  0.816500  0.184600  1.0  0.0492
  H  H45  1  0.122800  0.762200  0.828000  1.0  0.3311
  H  H46  1  0.173200  0.865600  0.944600  1.0  0.359
  H  H47  1  0.972500  0.416400  0.699000  1.0  0.0622
  H  H48  1  0.336800  0.517400  0.231600  1.0  0.144
  H  H49  1  0.316000  0.452400  0.105000  1.0  0.1517
  H  H50  1  0.277900  0.395400  0.146800  1.0  0.1586
  H  H51  1  0.868100  0.641600  0.684600  1.0  0.0491
  H  H52  1  0.565800  0.622800  0.328000  1.0  0.3331
  H  H53  1  0.579000  0.673200  0.444600  1.0  0.3588
  H  H54  1  0.782600  0.472500  0.199000  1.0  0.0606
  H  H55  1  0.214200  0.836800  0.731600  1.0  0.1432
  H  H56  1  0.152600  0.816000  0.605000  1.0  0.1522
  H  H57  1  0.251400  0.777900  0.646800  1.0  0.1599
  H  H58  1  0.316500  0.043000  0.684600  1.0  0.0493
  H  H59  1  0.262200  0.705200  0.328000  1.0  0.3311
  H  H60  1  0.365600  0.771400  0.444600  1.0  0.3558
  H  H61  1  0.916400  0.726500  0.199000  1.0  0.062
  H  H62  1  0.017400  0.894800  0.731600  1.0  0.1442
  H  H63  1  0.952400  0.789000  0.605000  1.0  0.1545
  H  H64  1  0.895400  0.868900  0.646800  1.0  0.1616
  C  C65  1  0.517500  0.662600  0.891400  1.0  0.4002
  C  C66  1  0.615600  0.666200  0.056200  1.0  0.3844
  C  C67  1  0.689900  0.764200  0.116000  1.0  -0.078
  C  C68  1  0.676000  0.804600  0.054200  1.0  0.4794
  C  C69  1  0.735900  0.717100  0.232600  1.0  0.3073
  C  C70  1  0.583000  0.380100  0.900200  1.0  0.7491
  C  C71  1  0.637600  0.309000  0.849600  1.0  -0.499
  C  C72  1  0.873900  0.228800  0.891400  1.0  0.3981
  C  C73  1  0.940600  0.390000  0.056200  1.0  0.3851
  C  C74  1  0.926100  0.351800  0.116000  1.0  -0.0781
  C  C75  1  0.878200  0.249600  0.054200  1.0  0.4805
  C  C76  1  0.996700  0.515500  0.232600  1.0  0.3059
  C  C77  1  0.817200  0.520100  0.900200  1.0  0.7466
  C  C78  1  0.712000  0.540600  0.849600  1.0  -0.4997
  C  C79  1  0.162600  0.373900  0.391400  1.0  0.4037
  C  C80  1  0.166200  0.440600  0.556200  1.0  0.3853
  C  C81  1  0.264200  0.426100  0.616000  1.0  -0.0778
  C  C82  1  0.304600  0.378200  0.554200  1.0  0.4796
  C  C83  1  0.217100  0.496700  0.732600  1.0  0.3077
  C  C84  1  0.880100  0.317200  0.400200  1.0  0.749
  C  C85  1  0.809000  0.212000  0.349600  1.0  -0.5027
  C  C86  1  0.728800  0.017500  0.391400  1.0  0.3992
  C  C87  1  0.890000  0.115600  0.556200  1.0  0.385
  C  C88  1  0.851800  0.189900  0.616000  1.0  -0.0788
  C  C89  1  0.749600  0.176000  0.554200  1.0  0.476
  C  C90  1  0.015500  0.235900  0.732600  1.0  0.3067
  C  C91  1  0.020100  0.083000  0.400200  1.0  0.7497
  C  C92  1  0.040600  0.137600  0.349600  1.0  -0.5005
  C  C93  1  0.482500  0.337400  0.108600  1.0  0.3984
  C  C94  1  0.384400  0.333800  0.943800  1.0  0.384
  C  C95  1  0.310100  0.235800  0.884000  1.0  -0.079
  C  C96  1  0.324000  0.195400  0.945800  1.0  0.4764
  C  C97  1  0.264100  0.282900  0.767400  1.0  0.3078
  C  C98  1  0.417000  0.619900  0.099800  1.0  0.7488
  C  C99  1  0.362400  0.691000  0.150400  1.0  -0.4997
  C  C100  1  0.126100  0.771200  0.108600  1.0  0.3999
  C  C101  1  0.059400  0.610000  0.943800  1.0  0.3859
  C  C102  1  0.073900  0.648200  0.884000  1.0  -0.0779
  C  C103  1  0.121800  0.750400  0.945800  1.0  0.4802
  C  C104  1  0.003300  0.484500  0.767400  1.0  0.3063
  C  C105  1  0.182800  0.479900  0.099800  1.0  0.7468
  C  C106  1  0.288000  0.459400  0.150400  1.0  -0.4975
  C  C107  1  0.837400  0.626100  0.608600  1.0  0.4015
  C  C108  1  0.833800  0.559400  0.443800  1.0  0.3863
  C  C109  1  0.735800  0.573900  0.384000  1.0  -0.0781
  C  C110  1  0.695400  0.621800  0.445800  1.0  0.48
  C  C111  1  0.782900  0.503300  0.267400  1.0  0.3071
  C  C112  1  0.119900  0.682800  0.599800  1.0  0.7481
  C  C113  1  0.191000  0.788000  0.650400  1.0  -0.5023
  C  C114  1  0.271200  0.982500  0.608600  1.0  0.3969
  C  C115  1  0.110000  0.884400  0.443800  1.0  0.385
  C  C116  1  0.148200  0.810100  0.384000  1.0  -0.0785
  C  C117  1  0.250400  0.824000  0.445800  1.0  0.4763
  C  C118  1  0.984500  0.764100  0.267400  1.0  0.3072
  C  C119  1  0.979900  0.917000  0.599800  1.0  0.7477
  C  C120  1  0.959400  0.862400  0.650400  1.0  -0.4997
  N  N121  1  0.584000  0.749300  0.934200  1.0  -0.5843
  N  N122  1  0.526800  0.613300  0.944400  1.0  -0.4668
  N  N123  1  0.741100  0.898100  0.099400  1.0  -0.6735
  N  N124  1  0.766400  0.794600  0.226800  1.0  -0.3907
  N  N125  1  0.647400  0.638700  0.133200  1.0  -0.4608
  N  N126  1  0.850200  0.184900  0.934200  1.0  -0.574
  N  N127  1  0.917600  0.331100  0.944400  1.0  -0.4672
  N  N128  1  0.858300  0.201300  0.099400  1.0  -0.6745
  N  N129  1  0.960400  0.432200  0.226800  1.0  -0.3913
  N  N130  1  0.985800  0.494500  0.133200  1.0  -0.4595
  N  N131  1  0.249300  0.350200  0.434200  1.0  -0.5802
  N  N132  1  0.113300  0.417600  0.444400  1.0  -0.4704
  N  N133  1  0.398100  0.358300  0.599400  1.0  -0.6742
  N  N134  1  0.294600  0.460400  0.726800  1.0  -0.3898
  N  N135  1  0.138700  0.485800  0.633200  1.0  -0.4634
  N  N136  1  0.684900  0.084000  0.434200  1.0  -0.5743
  N  N137  1  0.831100  0.026800  0.444400  1.0  -0.4704
  N  N138  1  0.701300  0.241100  0.599400  1.0  -0.6778
  N  N139  1  0.932200  0.266400  0.726800  1.0  -0.3914
  N  N140  1  0.994500  0.147400  0.633200  1.0  -0.4635
  N  N141  1  0.416000  0.250700  0.065800  1.0  -0.5836
  N  N142  1  0.473200  0.386700  0.055600  1.0  -0.4662
  N  N143  1  0.258900  0.101900  0.900600  1.0  -0.6721
  N  N144  1  0.233600  0.205400  0.773200  1.0  -0.3915
  N  N145  1  0.352600  0.361300  0.866800  1.0  -0.4591
  N  N146  1  0.149800  0.815100  0.065800  1.0  -0.5756
  N  N147  1  0.082400  0.668900  0.055600  1.0  -0.4699
  N  N148  1  0.141700  0.798700  0.900600  1.0  -0.6742
  N  N149  1  0.039600  0.567800  0.773200  1.0  -0.3917
  N  N150  1  0.014200  0.505500  0.866800  1.0  -0.4623
  N  N151  1  0.750700  0.649800  0.565800  1.0  -0.5791
  N  N152  1  0.886700  0.582400  0.555600  1.0  -0.4703
  N  N153  1  0.601900  0.641700  0.400600  1.0  -0.676
  N  N154  1  0.705400  0.539600  0.273200  1.0  -0.3909
  N  N155  1  0.861300  0.514200  0.366800  1.0  -0.4634
  N  N156  1  0.315100  0.916000  0.565800  1.0  -0.5775
  N  N157  1  0.168900  0.973200  0.555600  1.0  -0.4723
  N  N158  1  0.298700  0.758900  0.400600  1.0  -0.6779
  N  N159  1  0.067800  0.733600  0.273200  1.0  -0.3899
  N  N160  1  0.005500  0.852600  0.366800  1.0  -0.4636
  O  O161  1  0.509600  0.399700  0.836200  1.0  -0.5774
  O  O162  1  0.620700  0.418000  0.006800  1.0  -0.5737
  O  O163  1  0.826600  0.436500  0.836200  1.0  -0.5789
  O  O164  1  0.886100  0.588800  0.006800  1.0  -0.5755
  O  O165  1  0.899700  0.326600  0.336200  1.0  -0.5779
  O  O166  1  0.918000  0.386100  0.506800  1.0  -0.5744
  O  O167  1  0.936500  0.009600  0.336200  1.0  -0.5764
  O  O168  1  0.088800  0.120700  0.506800  1.0  -0.5742
  O  O169  1  0.490400  0.600300  0.163800  1.0  -0.5754
  O  O170  1  0.379300  0.582000  0.993200  1.0  -0.5743
  O  O171  1  0.173400  0.563500  0.163800  1.0  -0.5794
  O  O172  1  0.113900  0.411200  0.993200  1.0  -0.5756
  O  O173  1  0.100300  0.673400  0.663800  1.0  -0.5782
  O  O174  1  0.082000  0.613900  0.493200  1.0  -0.5742
  O  O175  1  0.063500  0.990400  0.663800  1.0  -0.5752
  O  O176  1  0.911200  0.879300  0.493200  1.0  -0.5738
