# generated using pymatgen
data_ZnH8C12(N2Cl)2
_symmetry_space_group_name_H-M   'P 1'
_cell_length_a   49.62000000
_cell_length_b   50.58900000
_cell_length_c   6.05900000
_cell_angle_alpha   90.00000000
_cell_angle_beta   90.00000000
_cell_angle_gamma   90.00000000
_symmetry_Int_Tables_number   1
_chemical_formula_structural   ZnH8C12(N2Cl)2
_chemical_formula_sum   'Zn24 H192 C288 N96 Cl48'
_cell_volume   15209.46042462
_cell_formula_units_Z   24
loop_
 _symmetry_equiv_pos_site_id
 _symmetry_equiv_pos_as_xyz
  1  'x, y, z'
loop_
 _atom_site_type_symbol
 _atom_site_label
 _atom_site_symmetry_multiplicity
 _atom_site_fract_x
 _atom_site_fract_y
 _atom_site_fract_z
 _atom_site_occupancy
 _atom_site_charge
  Zn  Zn1  1  0.874690  0.137470  0.140120  1.0  0.8959
  Zn  Zn2  1  0.874690  0.637470  0.640120  1.0  0.8959
  Zn  Zn3  1  0.374690  0.137470  0.640120  1.0  0.8959
  Zn  Zn4  1  0.374690  0.637470  0.140120  1.0  0.8959
  Zn  Zn5  1  0.125310  0.862530  0.140120  1.0  0.8955
  Zn  Zn6  1  0.125310  0.362530  0.640120  1.0  0.8955
  Zn  Zn7  1  0.625310  0.862530  0.640120  1.0  0.8955
  Zn  Zn8  1  0.625310  0.362530  0.140120  1.0  0.8955
  Zn  Zn9  1  0.124690  0.112530  0.390120  1.0  0.8959
  Zn  Zn10  1  0.124690  0.612530  0.890120  1.0  0.8959
  Zn  Zn11  1  0.624690  0.112530  0.890120  1.0  0.8959
  Zn  Zn12  1  0.624690  0.612530  0.390120  1.0  0.8959
  Zn  Zn13  1  0.375310  0.387470  0.390120  1.0  0.8955
  Zn  Zn14  1  0.375310  0.887470  0.890120  1.0  0.8955
  Zn  Zn15  1  0.875310  0.387470  0.890120  1.0  0.8955
  Zn  Zn16  1  0.875310  0.887470  0.390120  1.0  0.8955
  Zn  Zn17  1  0.750000  0.250000  0.378900  1.0  0.8652
  Zn  Zn18  1  0.750000  0.750000  0.878900  1.0  0.8652
  Zn  Zn19  1  0.250000  0.750000  0.378900  1.0  0.8652
  Zn  Zn20  1  0.250000  0.250000  0.878900  1.0  0.8652
  Zn  Zn21  1  0.000000  0.000000  0.628900  1.0  0.8652
  Zn  Zn22  1  0.000000  0.500000  0.128900  1.0  0.8652
  Zn  Zn23  1  0.500000  0.500000  0.628900  1.0  0.8652
  Zn  Zn24  1  0.500000  0.000000  0.128900  1.0  0.8652
  H  H25  1  0.863500  0.167600  0.716900  1.0  0.0954
  H  H26  1  0.828400  0.174100  0.463900  1.0  0.1331
  H  H27  1  0.784000  0.121800  0.811500  1.0  0.1211
  H  H28  1  0.820700  0.115700  0.051400  1.0  0.11
  H  H29  1  0.797200  0.197700  0.972500  1.0  0.1259
  H  H30  1  0.794000  0.225000  0.672400  1.0  0.0887
  H  H31  1  0.716100  0.211200  0.616100  1.0  0.1057
  H  H32  1  0.716000  0.185700  0.918500  1.0  0.1175
  H  H33  1  0.681800  0.155900  0.294600  1.0  0.1281
  H  H34  1  0.641400  0.140500  0.470300  1.0  0.0841
  H  H35  1  0.682400  0.110200  0.963500  1.0  0.1065
  H  H36  1  0.723200  0.124700  0.812700  1.0  0.1222
  H  H37  1  0.863500  0.667600  0.216900  1.0  0.0954
  H  H38  1  0.828400  0.674100  0.963900  1.0  0.1331
  H  H39  1  0.784000  0.621800  0.311500  1.0  0.1217
  H  H40  1  0.820700  0.615700  0.551400  1.0  0.1061
  H  H41  1  0.797200  0.697700  0.472500  1.0  0.1259
  H  H42  1  0.794000  0.725000  0.172400  1.0  0.0887
  H  H43  1  0.716100  0.711200  0.116100  1.0  0.1057
  H  H44  1  0.716000  0.685700  0.418500  1.0  0.1175
  H  H45  1  0.681800  0.655900  0.794600  1.0  0.1281
  H  H46  1  0.641400  0.640500  0.970300  1.0  0.0841
  H  H47  1  0.682400  0.610200  0.463500  1.0  0.1058
  H  H48  1  0.723200  0.624700  0.312700  1.0  0.1197
  H  H49  1  0.363500  0.167600  0.216900  1.0  0.0954
  H  H50  1  0.328400  0.174100  0.963900  1.0  0.1331
  H  H51  1  0.284000  0.121800  0.311500  1.0  0.1221
  H  H52  1  0.320700  0.115700  0.551400  1.0  0.11
  H  H53  1  0.297200  0.197700  0.472500  1.0  0.1259
  H  H54  1  0.294000  0.225000  0.172400  1.0  0.0887
  H  H55  1  0.216100  0.211200  0.116100  1.0  0.1057
  H  H56  1  0.216000  0.185700  0.418500  1.0  0.1175
  H  H57  1  0.181800  0.155900  0.794600  1.0  0.1281
  H  H58  1  0.141400  0.140500  0.970300  1.0  0.0841
  H  H59  1  0.182400  0.110200  0.463500  1.0  0.1059
  H  H60  1  0.223200  0.124700  0.312700  1.0  0.1221
  H  H61  1  0.363500  0.667600  0.716900  1.0  0.0954
  H  H62  1  0.328400  0.674100  0.463900  1.0  0.1331
  H  H63  1  0.284000  0.621800  0.811500  1.0  0.1217
  H  H64  1  0.320700  0.615700  0.051400  1.0  0.1061
  H  H65  1  0.297200  0.697700  0.972500  1.0  0.1259
  H  H66  1  0.294000  0.725000  0.672400  1.0  0.0887
  H  H67  1  0.216100  0.711200  0.616100  1.0  0.1057
  H  H68  1  0.216000  0.685700  0.918500  1.0  0.1175
  H  H69  1  0.181800  0.655900  0.294600  1.0  0.1281
  H  H70  1  0.141400  0.640500  0.470300  1.0  0.0841
  H  H71  1  0.182400  0.610200  0.963500  1.0  0.1058
  H  H72  1  0.223200  0.624700  0.812700  1.0  0.1197
  H  H73  1  0.136500  0.832400  0.716900  1.0  0.0951
  H  H74  1  0.171600  0.825900  0.463900  1.0  0.1331
  H  H75  1  0.216000  0.878200  0.811500  1.0  0.1212
  H  H76  1  0.179300  0.884300  0.051400  1.0  0.1119
  H  H77  1  0.202800  0.802300  0.972500  1.0  0.1258
  H  H78  1  0.206000  0.775000  0.672400  1.0  0.089
  H  H79  1  0.283900  0.788800  0.616100  1.0  0.106
  H  H80  1  0.284000  0.814300  0.918500  1.0  0.1179
  H  H81  1  0.318200  0.844100  0.294600  1.0  0.1282
  H  H82  1  0.358600  0.859500  0.470300  1.0  0.0834
  H  H83  1  0.317600  0.889800  0.963500  1.0  0.1067
  H  H84  1  0.276800  0.875300  0.812700  1.0  0.1221
  H  H85  1  0.136500  0.332400  0.216900  1.0  0.0951
  H  H86  1  0.171600  0.325900  0.963900  1.0  0.1331
  H  H87  1  0.216000  0.378200  0.311500  1.0  0.1212
  H  H88  1  0.179300  0.384300  0.551400  1.0  0.1075
  H  H89  1  0.202800  0.302300  0.472500  1.0  0.1258
  H  H90  1  0.206000  0.275000  0.172400  1.0  0.089
  H  H91  1  0.283900  0.288800  0.116100  1.0  0.106
  H  H92  1  0.284000  0.314300  0.418500  1.0  0.1179
  H  H93  1  0.318200  0.344100  0.794600  1.0  0.1282
  H  H94  1  0.358600  0.359500  0.970300  1.0  0.0834
  H  H95  1  0.317600  0.389800  0.463500  1.0  0.1057
  H  H96  1  0.276800  0.375300  0.312700  1.0  0.1192
  H  H97  1  0.636500  0.832400  0.216900  1.0  0.0951
  H  H98  1  0.671600  0.825900  0.963900  1.0  0.1331
  H  H99  1  0.716000  0.878200  0.311500  1.0  0.1223
  H  H100  1  0.679300  0.884300  0.551400  1.0  0.1119
  H  H101  1  0.702800  0.802300  0.472500  1.0  0.1258
  H  H102  1  0.706000  0.775000  0.172400  1.0  0.089
  H  H103  1  0.783900  0.788800  0.116100  1.0  0.106
  H  H104  1  0.784000  0.814300  0.418500  1.0  0.1179
  H  H105  1  0.818200  0.844100  0.794600  1.0  0.1282
  H  H106  1  0.858600  0.859500  0.970300  1.0  0.0834
  H  H107  1  0.817600  0.889800  0.463500  1.0  0.1061
  H  H108  1  0.776800  0.875300  0.312700  1.0  0.1221
  H  H109  1  0.636500  0.332400  0.716900  1.0  0.0951
  H  H110  1  0.671600  0.325900  0.463900  1.0  0.1331
  H  H111  1  0.716000  0.378200  0.811500  1.0  0.1212
  H  H112  1  0.679300  0.384300  0.051400  1.0  0.1075
  H  H113  1  0.702800  0.302300  0.972500  1.0  0.1258
  H  H114  1  0.706000  0.275000  0.672400  1.0  0.089
  H  H115  1  0.783900  0.288800  0.616100  1.0  0.106
  H  H116  1  0.784000  0.314300  0.918500  1.0  0.1179
  H  H117  1  0.818200  0.344100  0.294600  1.0  0.1282
  H  H118  1  0.858600  0.359500  0.470300  1.0  0.0834
  H  H119  1  0.817600  0.389800  0.963500  1.0  0.1057
  H  H120  1  0.776800  0.375300  0.812700  1.0  0.1192
  H  H121  1  0.113500  0.082400  0.966900  1.0  0.0949
  H  H122  1  0.078400  0.075900  0.713900  1.0  0.1329
  H  H123  1  0.034000  0.128200  0.061500  1.0  0.1219
  H  H124  1  0.070700  0.134300  0.301400  1.0  0.1077
  H  H125  1  0.047200  0.052300  0.222500  1.0  0.1267
  H  H126  1  0.044000  0.025000  0.922400  1.0  0.0879
  H  H127  1  0.966100  0.038800  0.866100  1.0  0.1054
  H  H128  1  0.966000  0.064300  0.168500  1.0  0.1177
  H  H129  1  0.931800  0.094100  0.544600  1.0  0.1283
  H  H130  1  0.891400  0.109500  0.720300  1.0  0.0838
  H  H131  1  0.932400  0.139800  0.213500  1.0  0.1055
  H  H132  1  0.973200  0.125300  0.062700  1.0  0.1193
  H  H133  1  0.113500  0.582400  0.466900  1.0  0.0949
  H  H134  1  0.078400  0.575900  0.213900  1.0  0.1329
  H  H135  1  0.034000  0.628200  0.561500  1.0  0.1219
  H  H136  1  0.070700  0.634300  0.801400  1.0  0.1077
  H  H137  1  0.047200  0.552300  0.722500  1.0  0.1267
  H  H138  1  0.044000  0.525000  0.422400  1.0  0.0879
  H  H139  1  0.966100  0.538800  0.366100  1.0  0.1054
  H  H140  1  0.966000  0.564300  0.668500  1.0  0.1177
  H  H141  1  0.931800  0.594100  0.044600  1.0  0.1283
  H  H142  1  0.891400  0.609500  0.220300  1.0  0.0838
  H  H143  1  0.932400  0.639800  0.713500  1.0  0.1055
  H  H144  1  0.973200  0.625300  0.562700  1.0  0.1193
  H  H145  1  0.613500  0.082400  0.466900  1.0  0.0949
  H  H146  1  0.578400  0.075900  0.213900  1.0  0.1329
  H  H147  1  0.534000  0.128200  0.561500  1.0  0.1219
  H  H148  1  0.570700  0.134300  0.801400  1.0  0.1077
  H  H149  1  0.547200  0.052300  0.722500  1.0  0.1267
  H  H150  1  0.544000  0.025000  0.422400  1.0  0.0879
  H  H151  1  0.466100  0.038800  0.366100  1.0  0.1054
  H  H152  1  0.466000  0.064300  0.668500  1.0  0.1177
  H  H153  1  0.431800  0.094100  0.044600  1.0  0.1283
  H  H154  1  0.391400  0.109500  0.220300  1.0  0.0838
  H  H155  1  0.432400  0.139800  0.713500  1.0  0.1055
  H  H156  1  0.473200  0.125300  0.562700  1.0  0.1193
  H  H157  1  0.613500  0.582400  0.966900  1.0  0.0949
  H  H158  1  0.578400  0.575900  0.713900  1.0  0.1329
  H  H159  1  0.534000  0.628200  0.061500  1.0  0.1219
  H  H160  1  0.570700  0.634300  0.301400  1.0  0.1077
  H  H161  1  0.547200  0.552300  0.222500  1.0  0.1267
  H  H162  1  0.544000  0.525000  0.922400  1.0  0.0879
  H  H163  1  0.466100  0.538800  0.866100  1.0  0.1054
  H  H164  1  0.466000  0.564300  0.168500  1.0  0.1177
  H  H165  1  0.431800  0.594100  0.544600  1.0  0.1283
  H  H166  1  0.391400  0.609500  0.720300  1.0  0.0838
  H  H167  1  0.432400  0.639800  0.213500  1.0  0.1055
  H  H168  1  0.473200  0.625300  0.062700  1.0  0.1193
  H  H169  1  0.386500  0.417600  0.966900  1.0  0.0952
  H  H170  1  0.421600  0.424100  0.713900  1.0  0.1333
  H  H171  1  0.466000  0.371800  0.061500  1.0  0.1213
  H  H172  1  0.429300  0.365700  0.301400  1.0  0.1056
  H  H173  1  0.452800  0.447700  0.222500  1.0  0.1253
  H  H174  1  0.456000  0.475000  0.922400  1.0  0.0891
  H  H175  1  0.533900  0.461200  0.866100  1.0  0.1064
  H  H176  1  0.534000  0.435700  0.168500  1.0  0.1175
  H  H177  1  0.568200  0.405900  0.544600  1.0  0.1282
  H  H178  1  0.608600  0.390500  0.720300  1.0  0.0838
  H  H179  1  0.567600  0.360200  0.213500  1.0  0.1059
  H  H180  1  0.526800  0.374700  0.062700  1.0  0.1196
  H  H181  1  0.386500  0.917600  0.466900  1.0  0.0952
  H  H182  1  0.421600  0.924100  0.213900  1.0  0.1333
  H  H183  1  0.466000  0.871800  0.561500  1.0  0.1213
  H  H184  1  0.429300  0.865700  0.801400  1.0  0.1056
  H  H185  1  0.452800  0.947700  0.722500  1.0  0.1253
  H  H186  1  0.456000  0.975000  0.422400  1.0  0.0891
  H  H187  1  0.533900  0.961200  0.366100  1.0  0.1064
  H  H188  1  0.534000  0.935700  0.668500  1.0  0.1175
  H  H189  1  0.568200  0.905900  0.044600  1.0  0.1282
  H  H190  1  0.608600  0.890500  0.220300  1.0  0.0838
  H  H191  1  0.567600  0.860200  0.713500  1.0  0.1059
  H  H192  1  0.526800  0.874700  0.562700  1.0  0.1196
  H  H193  1  0.886500  0.417600  0.466900  1.0  0.0952
  H  H194  1  0.921600  0.424100  0.213900  1.0  0.1333
  H  H195  1  0.966000  0.371800  0.561500  1.0  0.1213
  H  H196  1  0.929300  0.365700  0.801400  1.0  0.1056
  H  H197  1  0.952800  0.447700  0.722500  1.0  0.1253
  H  H198  1  0.956000  0.475000  0.422400  1.0  0.0891
  H  H199  1  0.033900  0.461200  0.366100  1.0  0.1064
  H  H200  1  0.034000  0.435700  0.668500  1.0  0.1175
  H  H201  1  0.068200  0.405900  0.044600  1.0  0.1282
  H  H202  1  0.108600  0.390500  0.220300  1.0  0.0838
  H  H203  1  0.067600  0.360200  0.713500  1.0  0.1059
  H  H204  1  0.026800  0.374700  0.562700  1.0  0.1196
  H  H205  1  0.886500  0.917600  0.966900  1.0  0.0952
  H  H206  1  0.921600  0.924100  0.713900  1.0  0.1333
  H  H207  1  0.966000  0.871800  0.061500  1.0  0.1213
  H  H208  1  0.929300  0.865700  0.301400  1.0  0.1056
  H  H209  1  0.952800  0.947700  0.222500  1.0  0.1253
  H  H210  1  0.956000  0.975000  0.922400  1.0  0.0891
  H  H211  1  0.033900  0.961200  0.866100  1.0  0.1064
  H  H212  1  0.034000  0.935700  0.168500  1.0  0.1175
  H  H213  1  0.068200  0.905900  0.544600  1.0  0.1282
  H  H214  1  0.108600  0.890500  0.720300  1.0  0.0838
  H  H215  1  0.067600  0.860200  0.213500  1.0  0.1059
  H  H216  1  0.026800  0.874700  0.062700  1.0  0.1196
  C  C217  1  0.847120  0.158290  0.738000  1.0  0.1546
  C  C218  1  0.826300  0.162490  0.586100  1.0  -0.1539
  C  C219  1  0.802300  0.148760  0.623300  1.0  -0.1145
  C  C220  1  0.800190  0.131600  0.790300  1.0  -0.0891
  C  C221  1  0.822120  0.128120  0.934200  1.0  0.1514
  C  C222  1  0.777970  0.154560  0.476500  1.0  0.3353
  C  C223  1  0.756640  0.173050  0.190000  1.0  0.3372
  C  C224  1  0.732720  0.150620  0.441000  1.0  0.3382
  C  C225  1  0.756850  0.188990  0.991800  1.0  -0.0304
  C  C226  1  0.780210  0.200740  0.905400  1.0  -0.1668
  C  C227  1  0.778140  0.216480  0.724600  1.0  0.1626
  C  C228  1  0.732550  0.208600  0.693600  1.0  0.1792
  C  C229  1  0.732330  0.193580  0.870500  1.0  -0.1493
  C  C230  1  0.706420  0.140870  0.542700  1.0  -0.0709
  C  C231  1  0.682240  0.146600  0.430800  1.0  -0.1067
  C  C232  1  0.658280  0.137280  0.539000  1.0  0.165
  C  C233  1  0.682320  0.119640  0.828100  1.0  0.1556
  C  C234  1  0.706700  0.128000  0.738000  1.0  -0.0669
  C  C235  1  0.847120  0.658290  0.238000  1.0  0.1546
  C  C236  1  0.826300  0.662490  0.086100  1.0  -0.1539
  C  C237  1  0.802300  0.648760  0.123300  1.0  -0.1145
  C  C238  1  0.800190  0.631600  0.290300  1.0  -0.0891
  C  C239  1  0.822120  0.628120  0.434200  1.0  0.1514
  C  C240  1  0.777970  0.654560  0.976500  1.0  0.3353
  C  C241  1  0.756640  0.673050  0.690000  1.0  0.3372
  C  C242  1  0.732720  0.650620  0.941000  1.0  0.3382
  C  C243  1  0.756850  0.688990  0.491800  1.0  -0.0304
  C  C244  1  0.780210  0.700740  0.405400  1.0  -0.1668
  C  C245  1  0.778140  0.716480  0.224600  1.0  0.1626
  C  C246  1  0.732550  0.708600  0.193600  1.0  0.1792
  C  C247  1  0.732330  0.693580  0.370500  1.0  -0.1493
  C  C248  1  0.706420  0.640870  0.042700  1.0  -0.0709
  C  C249  1  0.682240  0.646600  0.930800  1.0  -0.1067
  C  C250  1  0.658280  0.637280  0.039000  1.0  0.165
  C  C251  1  0.682320  0.619640  0.328100  1.0  0.1556
  C  C252  1  0.706700  0.628000  0.238000  1.0  -0.0669
  C  C253  1  0.347120  0.158290  0.238000  1.0  0.1546
  C  C254  1  0.326300  0.162490  0.086100  1.0  -0.1539
  C  C255  1  0.302300  0.148760  0.123300  1.0  -0.1145
  C  C256  1  0.300190  0.131600  0.290300  1.0  -0.0891
  C  C257  1  0.322120  0.128120  0.434200  1.0  0.1514
  C  C258  1  0.277970  0.154560  0.976500  1.0  0.3353
  C  C259  1  0.256640  0.173050  0.690000  1.0  0.3372
  C  C260  1  0.232720  0.150620  0.941000  1.0  0.3382
  C  C261  1  0.256850  0.188990  0.491800  1.0  -0.0304
  C  C262  1  0.280210  0.200740  0.405400  1.0  -0.1668
  C  C263  1  0.278140  0.216480  0.224600  1.0  0.1626
  C  C264  1  0.232550  0.208600  0.193600  1.0  0.1792
  C  C265  1  0.232330  0.193580  0.370500  1.0  -0.1493
  C  C266  1  0.206420  0.140870  0.042700  1.0  -0.0709
  C  C267  1  0.182240  0.146600  0.930800  1.0  -0.1067
  C  C268  1  0.158280  0.137280  0.039000  1.0  0.165
  C  C269  1  0.182320  0.119640  0.328100  1.0  0.1556
  C  C270  1  0.206700  0.128000  0.238000  1.0  -0.0669
  C  C271  1  0.347120  0.658290  0.738000  1.0  0.1546
  C  C272  1  0.326300  0.662490  0.586100  1.0  -0.1539
  C  C273  1  0.302300  0.648760  0.623300  1.0  -0.1145
  C  C274  1  0.300190  0.631600  0.790300  1.0  -0.0891
  C  C275  1  0.322120  0.628120  0.934200  1.0  0.1514
  C  C276  1  0.277970  0.654560  0.476500  1.0  0.3353
  C  C277  1  0.256640  0.673050  0.190000  1.0  0.3372
  C  C278  1  0.232720  0.650620  0.441000  1.0  0.3382
  C  C279  1  0.256850  0.688990  0.991800  1.0  -0.0304
  C  C280  1  0.280210  0.700740  0.905400  1.0  -0.1668
  C  C281  1  0.278140  0.716480  0.724600  1.0  0.1626
  C  C282  1  0.232550  0.708600  0.693600  1.0  0.1792
  C  C283  1  0.232330  0.693580  0.870500  1.0  -0.1493
  C  C284  1  0.206420  0.640870  0.542700  1.0  -0.0709
  C  C285  1  0.182240  0.646600  0.430800  1.0  -0.1067
  C  C286  1  0.158280  0.637280  0.539000  1.0  0.165
  C  C287  1  0.182320  0.619640  0.828100  1.0  0.1556
  C  C288  1  0.206700  0.628000  0.738000  1.0  -0.0669
  C  C289  1  0.152880  0.841710  0.738000  1.0  0.1543
  C  C290  1  0.173700  0.837510  0.586100  1.0  -0.1542
  C  C291  1  0.197700  0.851240  0.623300  1.0  -0.1148
  C  C292  1  0.199810  0.868400  0.790300  1.0  -0.0898
  C  C293  1  0.177880  0.871880  0.934200  1.0  0.1515
  C  C294  1  0.222030  0.845440  0.476500  1.0  0.3365
  C  C295  1  0.243360  0.826950  0.190000  1.0  0.3374
  C  C296  1  0.267280  0.849380  0.441000  1.0  0.3402
  C  C297  1  0.243150  0.811010  0.991800  1.0  -0.0306
  C  C298  1  0.219790  0.799260  0.905400  1.0  -0.1665
  C  C299  1  0.221860  0.783520  0.724600  1.0  0.1622
  C  C300  1  0.267450  0.791400  0.693600  1.0  0.1763
  C  C301  1  0.267670  0.806420  0.870500  1.0  -0.1492
  C  C302  1  0.293580  0.859130  0.542700  1.0  -0.0715
  C  C303  1  0.317760  0.853400  0.430800  1.0  -0.1082
  C  C304  1  0.341720  0.862720  0.539000  1.0  0.1645
  C  C305  1  0.317680  0.880360  0.828100  1.0  0.1552
  C  C306  1  0.293300  0.872000  0.738000  1.0  -0.066
  C  C307  1  0.152880  0.341710  0.238000  1.0  0.1543
  C  C308  1  0.173700  0.337510  0.086100  1.0  -0.1542
  C  C309  1  0.197700  0.351240  0.123300  1.0  -0.1148
  C  C310  1  0.199810  0.368400  0.290300  1.0  -0.0898
  C  C311  1  0.177880  0.371880  0.434200  1.0  0.1515
  C  C312  1  0.222030  0.345440  0.976500  1.0  0.3365
  C  C313  1  0.243360  0.326950  0.690000  1.0  0.3374
  C  C314  1  0.267280  0.349380  0.941000  1.0  0.3402
  C  C315  1  0.243150  0.311010  0.491800  1.0  -0.0306
  C  C316  1  0.219790  0.299260  0.405400  1.0  -0.1665
  C  C317  1  0.221860  0.283520  0.224600  1.0  0.1622
  C  C318  1  0.267450  0.291400  0.193600  1.0  0.1763
  C  C319  1  0.267670  0.306420  0.370500  1.0  -0.1492
  C  C320  1  0.293580  0.359130  0.042700  1.0  -0.0715
  C  C321  1  0.317760  0.353400  0.930800  1.0  -0.1082
  C  C322  1  0.341720  0.362720  0.039000  1.0  0.1645
  C  C323  1  0.317680  0.380360  0.328100  1.0  0.1552
  C  C324  1  0.293300  0.372000  0.238000  1.0  -0.066
  C  C325  1  0.652880  0.841710  0.238000  1.0  0.1543
  C  C326  1  0.673700  0.837510  0.086100  1.0  -0.1542
  C  C327  1  0.697700  0.851240  0.123300  1.0  -0.1148
  C  C328  1  0.699810  0.868400  0.290300  1.0  -0.0898
  C  C329  1  0.677880  0.871880  0.434200  1.0  0.1515
  C  C330  1  0.722030  0.845440  0.976500  1.0  0.3365
  C  C331  1  0.743360  0.826950  0.690000  1.0  0.3374
  C  C332  1  0.767280  0.849380  0.941000  1.0  0.3402
  C  C333  1  0.743150  0.811010  0.491800  1.0  -0.0306
  C  C334  1  0.719790  0.799260  0.405400  1.0  -0.1665
  C  C335  1  0.721860  0.783520  0.224600  1.0  0.1622
  C  C336  1  0.767450  0.791400  0.193600  1.0  0.1763
  C  C337  1  0.767670  0.806420  0.370500  1.0  -0.1492
  C  C338  1  0.793580  0.859130  0.042700  1.0  -0.0715
  C  C339  1  0.817760  0.853400  0.930800  1.0  -0.1082
  C  C340  1  0.841720  0.862720  0.039000  1.0  0.1645
  C  C341  1  0.817680  0.880360  0.328100  1.0  0.1552
  C  C342  1  0.793300  0.872000  0.238000  1.0  -0.066
  C  C343  1  0.652880  0.341710  0.738000  1.0  0.1543
  C  C344  1  0.673700  0.337510  0.586100  1.0  -0.1542
  C  C345  1  0.697700  0.351240  0.623300  1.0  -0.1148
  C  C346  1  0.699810  0.368400  0.790300  1.0  -0.0898
  C  C347  1  0.677880  0.371880  0.934200  1.0  0.1515
  C  C348  1  0.722030  0.345440  0.476500  1.0  0.3365
  C  C349  1  0.743360  0.326950  0.190000  1.0  0.3374
  C  C350  1  0.767280  0.349380  0.441000  1.0  0.3402
  C  C351  1  0.743150  0.311010  0.991800  1.0  -0.0306
  C  C352  1  0.719790  0.299260  0.905400  1.0  -0.1665
  C  C353  1  0.721860  0.283520  0.724600  1.0  0.1622
  C  C354  1  0.767450  0.291400  0.693600  1.0  0.1763
  C  C355  1  0.767670  0.306420  0.870500  1.0  -0.1492
  C  C356  1  0.793580  0.359130  0.542700  1.0  -0.0715
  C  C357  1  0.817760  0.353400  0.430800  1.0  -0.1082
  C  C358  1  0.841720  0.362720  0.539000  1.0  0.1645
  C  C359  1  0.817680  0.380360  0.828100  1.0  0.1552
  C  C360  1  0.793300  0.372000  0.738000  1.0  -0.066
  C  C361  1  0.097120  0.091710  0.988000  1.0  0.1553
  C  C362  1  0.076300  0.087510  0.836100  1.0  -0.1539
  C  C363  1  0.052300  0.101240  0.873300  1.0  -0.114
  C  C364  1  0.050190  0.118400  0.040300  1.0  -0.0905
  C  C365  1  0.072120  0.121880  0.184200  1.0  0.1511
  C  C366  1  0.027970  0.095440  0.726500  1.0  0.3365
  C  C367  1  0.006640  0.076950  0.440000  1.0  0.3373
  C  C368  1  0.982720  0.099380  0.691000  1.0  0.3397
  C  C369  1  0.006850  0.061010  0.241800  1.0  -0.0306
  C  C370  1  0.030210  0.049260  0.155400  1.0  -0.1677
  C  C371  1  0.028140  0.033520  0.974600  1.0  0.1622
  C  C372  1  0.982550  0.041400  0.943600  1.0  0.1791
  C  C373  1  0.982330  0.056420  0.120500  1.0  -0.1492
  C  C374  1  0.956420  0.109130  0.792700  1.0  -0.0716
  C  C375  1  0.932240  0.103400  0.680800  1.0  -0.1066
  C  C376  1  0.908280  0.112720  0.789000  1.0  0.1648
  C  C377  1  0.932320  0.130360  0.078100  1.0  0.155
  C  C378  1  0.956700  0.122000  0.988000  1.0  -0.0657
  C  C379  1  0.097120  0.591710  0.488000  1.0  0.1553
  C  C380  1  0.076300  0.587510  0.336100  1.0  -0.1539
  C  C381  1  0.052300  0.601240  0.373300  1.0  -0.114
  C  C382  1  0.050190  0.618400  0.540300  1.0  -0.0905
  C  C383  1  0.072120  0.621880  0.684200  1.0  0.1511
  C  C384  1  0.027970  0.595440  0.226500  1.0  0.3365
  C  C385  1  0.006640  0.576950  0.940000  1.0  0.3373
  C  C386  1  0.982720  0.599380  0.191000  1.0  0.3397
  C  C387  1  0.006850  0.561010  0.741800  1.0  -0.0306
  C  C388  1  0.030210  0.549260  0.655400  1.0  -0.1677
  C  C389  1  0.028140  0.533520  0.474600  1.0  0.1622
  C  C390  1  0.982550  0.541400  0.443600  1.0  0.1791
  C  C391  1  0.982330  0.556420  0.620500  1.0  -0.1492
  C  C392  1  0.956420  0.609130  0.292700  1.0  -0.0716
  C  C393  1  0.932240  0.603400  0.180800  1.0  -0.1066
  C  C394  1  0.908280  0.612720  0.289000  1.0  0.1648
  C  C395  1  0.932320  0.630360  0.578100  1.0  0.155
  C  C396  1  0.956700  0.622000  0.488000  1.0  -0.0657
  C  C397  1  0.597120  0.091710  0.488000  1.0  0.1553
  C  C398  1  0.576300  0.087510  0.336100  1.0  -0.1539
  C  C399  1  0.552300  0.101240  0.373300  1.0  -0.114
  C  C400  1  0.550190  0.118400  0.540300  1.0  -0.0905
  C  C401  1  0.572120  0.121880  0.684200  1.0  0.1511
  C  C402  1  0.527970  0.095440  0.226500  1.0  0.3365
  C  C403  1  0.506640  0.076950  0.940000  1.0  0.3373
  C  C404  1  0.482720  0.099380  0.191000  1.0  0.3397
  C  C405  1  0.506850  0.061010  0.741800  1.0  -0.0306
  C  C406  1  0.530210  0.049260  0.655400  1.0  -0.1677
  C  C407  1  0.528140  0.033520  0.474600  1.0  0.1622
  C  C408  1  0.482550  0.041400  0.443600  1.0  0.1791
  C  C409  1  0.482330  0.056420  0.620500  1.0  -0.1492
  C  C410  1  0.456420  0.109130  0.292700  1.0  -0.0716
  C  C411  1  0.432240  0.103400  0.180800  1.0  -0.1066
  C  C412  1  0.408280  0.112720  0.289000  1.0  0.1648
  C  C413  1  0.432320  0.130360  0.578100  1.0  0.155
  C  C414  1  0.456700  0.122000  0.488000  1.0  -0.0657
  C  C415  1  0.597120  0.591710  0.988000  1.0  0.1553
  C  C416  1  0.576300  0.587510  0.836100  1.0  -0.1539
  C  C417  1  0.552300  0.601240  0.873300  1.0  -0.114
  C  C418  1  0.550190  0.618400  0.040300  1.0  -0.0905
  C  C419  1  0.572120  0.621880  0.184200  1.0  0.1511
  C  C420  1  0.527970  0.595440  0.726500  1.0  0.3365
  C  C421  1  0.506640  0.576950  0.440000  1.0  0.3373
  C  C422  1  0.482720  0.599380  0.691000  1.0  0.3397
  C  C423  1  0.506850  0.561010  0.241800  1.0  -0.0306
  C  C424  1  0.530210  0.549260  0.155400  1.0  -0.1677
  C  C425  1  0.528140  0.533520  0.974600  1.0  0.1622
  C  C426  1  0.482550  0.541400  0.943600  1.0  0.1791
  C  C427  1  0.482330  0.556420  0.120500  1.0  -0.1492
  C  C428  1  0.456420  0.609130  0.792700  1.0  -0.0716
  C  C429  1  0.432240  0.603400  0.680800  1.0  -0.1066
  C  C430  1  0.408280  0.612720  0.789000  1.0  0.1648
  C  C431  1  0.432320  0.630360  0.078100  1.0  0.155
  C  C432  1  0.456700  0.622000  0.988000  1.0  -0.0657
  C  C433  1  0.402880  0.408290  0.988000  1.0  0.154
  C  C434  1  0.423700  0.412490  0.836100  1.0  -0.154
  C  C435  1  0.447700  0.398760  0.873300  1.0  -0.1151
  C  C436  1  0.449810  0.381600  0.040300  1.0  -0.0901
  C  C437  1  0.427880  0.378120  0.184200  1.0  0.1527
  C  C438  1  0.472030  0.404560  0.726500  1.0  0.3352
  C  C439  1  0.493360  0.423050  0.440000  1.0  0.3373
  C  C440  1  0.517280  0.400620  0.691000  1.0  0.3386
  C  C441  1  0.493150  0.438990  0.241800  1.0  -0.0305
  C  C442  1  0.469790  0.450740  0.155400  1.0  -0.1657
  C  C443  1  0.471860  0.466480  0.974600  1.0  0.1622
  C  C444  1  0.517450  0.458600  0.943600  1.0  0.1769
  C  C445  1  0.517670  0.443580  0.120500  1.0  -0.1491
  C  C446  1  0.543580  0.390870  0.792700  1.0  -0.0711
  C  C447  1  0.567760  0.396600  0.680800  1.0  -0.1083
  C  C448  1  0.591720  0.387280  0.789000  1.0  0.1645
  C  C449  1  0.567680  0.369640  0.078100  1.0  0.1556
  C  C450  1  0.543300  0.378000  0.988000  1.0  -0.0653
  C  C451  1  0.402880  0.908290  0.488000  1.0  0.154
  C  C452  1  0.423700  0.912490  0.336100  1.0  -0.154
  C  C453  1  0.447700  0.898760  0.373300  1.0  -0.1151
  C  C454  1  0.449810  0.881600  0.540300  1.0  -0.0901
  C  C455  1  0.427880  0.878120  0.684200  1.0  0.1527
  C  C456  1  0.472030  0.904560  0.226500  1.0  0.3352
  C  C457  1  0.493360  0.923050  0.940000  1.0  0.3373
  C  C458  1  0.517280  0.900620  0.191000  1.0  0.3386
  C  C459  1  0.493150  0.938990  0.741800  1.0  -0.0305
  C  C460  1  0.469790  0.950740  0.655400  1.0  -0.1657
  C  C461  1  0.471860  0.966480  0.474600  1.0  0.1622
  C  C462  1  0.517450  0.958600  0.443600  1.0  0.1769
  C  C463  1  0.517670  0.943580  0.620500  1.0  -0.1491
  C  C464  1  0.543580  0.890870  0.292700  1.0  -0.0711
  C  C465  1  0.567760  0.896600  0.180800  1.0  -0.1083
  C  C466  1  0.591720  0.887280  0.289000  1.0  0.1645
  C  C467  1  0.567680  0.869640  0.578100  1.0  0.1556
  C  C468  1  0.543300  0.878000  0.488000  1.0  -0.0653
  C  C469  1  0.902880  0.408290  0.488000  1.0  0.154
  C  C470  1  0.923700  0.412490  0.336100  1.0  -0.154
  C  C471  1  0.947700  0.398760  0.373300  1.0  -0.1151
  C  C472  1  0.949810  0.381600  0.540300  1.0  -0.0901
  C  C473  1  0.927880  0.378120  0.684200  1.0  0.1527
  C  C474  1  0.972030  0.404560  0.226500  1.0  0.3352
  C  C475  1  0.993360  0.423050  0.940000  1.0  0.3373
  C  C476  1  0.017280  0.400620  0.191000  1.0  0.3386
  C  C477  1  0.993150  0.438990  0.741800  1.0  -0.0305
  C  C478  1  0.969790  0.450740  0.655400  1.0  -0.1657
  C  C479  1  0.971860  0.466480  0.474600  1.0  0.1622
  C  C480  1  0.017450  0.458600  0.443600  1.0  0.1769
  C  C481  1  0.017670  0.443580  0.620500  1.0  -0.1491
  C  C482  1  0.043580  0.390870  0.292700  1.0  -0.0711
  C  C483  1  0.067760  0.396600  0.180800  1.0  -0.1083
  C  C484  1  0.091720  0.387280  0.289000  1.0  0.1645
  C  C485  1  0.067680  0.369640  0.578100  1.0  0.1556
  C  C486  1  0.043300  0.378000  0.488000  1.0  -0.0653
  C  C487  1  0.902880  0.908290  0.988000  1.0  0.154
  C  C488  1  0.923700  0.912490  0.836100  1.0  -0.154
  C  C489  1  0.947700  0.898760  0.873300  1.0  -0.1151
  C  C490  1  0.949810  0.881600  0.040300  1.0  -0.0901
  C  C491  1  0.927880  0.878120  0.184200  1.0  0.1527
  C  C492  1  0.972030  0.904560  0.726500  1.0  0.3352
  C  C493  1  0.993360  0.923050  0.440000  1.0  0.3373
  C  C494  1  0.017280  0.900620  0.691000  1.0  0.3386
  C  C495  1  0.993150  0.938990  0.241800  1.0  -0.0305
  C  C496  1  0.969790  0.950740  0.155400  1.0  -0.1657
  C  C497  1  0.971860  0.966480  0.974600  1.0  0.1622
  C  C498  1  0.017450  0.958600  0.943600  1.0  0.1769
  C  C499  1  0.017670  0.943580  0.120500  1.0  -0.1491
  C  C500  1  0.043580  0.890870  0.792700  1.0  -0.0711
  C  C501  1  0.067760  0.896600  0.680800  1.0  -0.1083
  C  C502  1  0.091720  0.887280  0.789000  1.0  0.1645
  C  C503  1  0.067680  0.869640  0.078100  1.0  0.1556
  C  C504  1  0.043300  0.878000  0.988000  1.0  -0.0653
  N  N505  1  0.754760  0.143770  0.559000  1.0  -0.5037
  N  N506  1  0.780160  0.168890  0.299300  1.0  -0.4461
  N  N507  1  0.732330  0.163940  0.258000  1.0  -0.4
  N  N508  1  0.755140  0.220690  0.615900  1.0  -0.3318
  N  N509  1  0.845350  0.142100  0.909500  1.0  -0.3288
  N  N510  1  0.658330  0.124720  0.726400  1.0  -0.2953
  N  N511  1  0.754760  0.643770  0.059000  1.0  -0.5037
  N  N512  1  0.780160  0.668890  0.799300  1.0  -0.4461
  N  N513  1  0.732330  0.663940  0.758000  1.0  -0.4
  N  N514  1  0.755140  0.720690  0.115900  1.0  -0.3318
  N  N515  1  0.845350  0.642100  0.409500  1.0  -0.3288
  N  N516  1  0.658330  0.624720  0.226400  1.0  -0.2953
  N  N517  1  0.254760  0.143770  0.059000  1.0  -0.5037
  N  N518  1  0.280160  0.168890  0.799300  1.0  -0.4461
  N  N519  1  0.232330  0.163940  0.758000  1.0  -0.4
  N  N520  1  0.255140  0.220690  0.115900  1.0  -0.3318
  N  N521  1  0.345350  0.142100  0.409500  1.0  -0.3288
  N  N522  1  0.158330  0.124720  0.226400  1.0  -0.2953
  N  N523  1  0.254760  0.643770  0.559000  1.0  -0.5037
  N  N524  1  0.280160  0.668890  0.299300  1.0  -0.4461
  N  N525  1  0.232330  0.663940  0.258000  1.0  -0.4
  N  N526  1  0.255140  0.720690  0.615900  1.0  -0.3318
  N  N527  1  0.345350  0.642100  0.909500  1.0  -0.3288
  N  N528  1  0.158330  0.624720  0.726400  1.0  -0.2953
  N  N529  1  0.245240  0.856230  0.559000  1.0  -0.5054
  N  N530  1  0.219840  0.831110  0.299300  1.0  -0.4466
  N  N531  1  0.267670  0.836060  0.258000  1.0  -0.3999
  N  N532  1  0.244860  0.779310  0.615900  1.0  -0.3333
  N  N533  1  0.154650  0.857900  0.909500  1.0  -0.3291
  N  N534  1  0.341670  0.875280  0.726400  1.0  -0.296
  N  N535  1  0.245240  0.356230  0.059000  1.0  -0.5054
  N  N536  1  0.219840  0.331110  0.799300  1.0  -0.4466
  N  N537  1  0.267670  0.336060  0.758000  1.0  -0.3999
  N  N538  1  0.244860  0.279310  0.115900  1.0  -0.3333
  N  N539  1  0.154650  0.357900  0.409500  1.0  -0.3291
  N  N540  1  0.341670  0.375280  0.226400  1.0  -0.296
  N  N541  1  0.745240  0.856230  0.059000  1.0  -0.5054
  N  N542  1  0.719840  0.831110  0.799300  1.0  -0.4466
  N  N543  1  0.767670  0.836060  0.758000  1.0  -0.3999
  N  N544  1  0.744860  0.779310  0.115900  1.0  -0.3333
  N  N545  1  0.654650  0.857900  0.409500  1.0  -0.3291
  N  N546  1  0.841670  0.875280  0.226400  1.0  -0.296
  N  N547  1  0.745240  0.356230  0.559000  1.0  -0.5054
  N  N548  1  0.719840  0.331110  0.299300  1.0  -0.4466
  N  N549  1  0.767670  0.336060  0.258000  1.0  -0.3999
  N  N550  1  0.744860  0.279310  0.615900  1.0  -0.3333
  N  N551  1  0.654650  0.357900  0.909500  1.0  -0.3291
  N  N552  1  0.841670  0.375280  0.726400  1.0  -0.296
  N  N553  1  0.004760  0.106230  0.809000  1.0  -0.5054
  N  N554  1  0.030160  0.081110  0.549300  1.0  -0.4463
  N  N555  1  0.982330  0.086060  0.508000  1.0  -0.4004
  N  N556  1  0.005140  0.029310  0.865900  1.0  -0.3334
  N  N557  1  0.095350  0.107900  0.159500  1.0  -0.3294
  N  N558  1  0.908330  0.125280  0.976400  1.0  -0.2948
  N  N559  1  0.004760  0.606230  0.309000  1.0  -0.5054
  N  N560  1  0.030160  0.581110  0.049300  1.0  -0.4463
  N  N561  1  0.982330  0.586060  0.008000  1.0  -0.4004
  N  N562  1  0.005140  0.529310  0.365900  1.0  -0.3334
  N  N563  1  0.095350  0.607900  0.659500  1.0  -0.3294
  N  N564  1  0.908330  0.625280  0.476400  1.0  -0.2948
  N  N565  1  0.504760  0.106230  0.309000  1.0  -0.5054
  N  N566  1  0.530160  0.081110  0.049300  1.0  -0.4463
  N  N567  1  0.482330  0.086060  0.008000  1.0  -0.4004
  N  N568  1  0.505140  0.029310  0.365900  1.0  -0.3334
  N  N569  1  0.595350  0.107900  0.659500  1.0  -0.3294
  N  N570  1  0.408330  0.125280  0.476400  1.0  -0.2948
  N  N571  1  0.504760  0.606230  0.809000  1.0  -0.5054
  N  N572  1  0.530160  0.581110  0.549300  1.0  -0.4463
  N  N573  1  0.482330  0.586060  0.508000  1.0  -0.4004
  N  N574  1  0.505140  0.529310  0.865900  1.0  -0.3334
  N  N575  1  0.595350  0.607900  0.159500  1.0  -0.3294
  N  N576  1  0.408330  0.625280  0.976400  1.0  -0.2948
  N  N577  1  0.495240  0.393770  0.809000  1.0  -0.5037
  N  N578  1  0.469840  0.418890  0.549300  1.0  -0.4459
  N  N579  1  0.517670  0.413940  0.508000  1.0  -0.3997
  N  N580  1  0.494860  0.470690  0.865900  1.0  -0.3319
  N  N581  1  0.404650  0.392100  0.159500  1.0  -0.3289
  N  N582  1  0.591670  0.374720  0.976400  1.0  -0.296
  N  N583  1  0.495240  0.893770  0.309000  1.0  -0.5037
  N  N584  1  0.469840  0.918890  0.049300  1.0  -0.4459
  N  N585  1  0.517670  0.913940  0.008000  1.0  -0.3997
  N  N586  1  0.494860  0.970690  0.365900  1.0  -0.3319
  N  N587  1  0.404650  0.892100  0.659500  1.0  -0.3289
  N  N588  1  0.591670  0.874720  0.476400  1.0  -0.296
  N  N589  1  0.995240  0.393770  0.309000  1.0  -0.5037
  N  N590  1  0.969840  0.418890  0.049300  1.0  -0.4459
  N  N591  1  0.017670  0.413940  0.008000  1.0  -0.3997
  N  N592  1  0.994860  0.470690  0.365900  1.0  -0.3319
  N  N593  1  0.904650  0.392100  0.659500  1.0  -0.3289
  N  N594  1  0.091670  0.374720  0.476400  1.0  -0.296
  N  N595  1  0.995240  0.893770  0.809000  1.0  -0.5037
  N  N596  1  0.969840  0.918890  0.549300  1.0  -0.4459
  N  N597  1  0.017670  0.913940  0.508000  1.0  -0.3997
  N  N598  1  0.994860  0.970690  0.865900  1.0  -0.3319
  N  N599  1  0.904650  0.892100  0.159500  1.0  -0.3289
  N  N600  1  0.091670  0.874720  0.976400  1.0  -0.296
  Cl  Cl601  1  0.860180  0.105930  0.364700  1.0  -0.4402
  Cl  Cl602  1  0.887330  0.176720  0.277000  1.0  -0.4477
  Cl  Cl603  1  0.710490  0.242560  0.220500  1.0  -0.4944
  Cl  Cl604  1  0.860180  0.605930  0.864700  1.0  -0.4402
  Cl  Cl605  1  0.887330  0.676720  0.777000  1.0  -0.4477
  Cl  Cl606  1  0.710490  0.742560  0.720500  1.0  -0.4944
  Cl  Cl607  1  0.360180  0.105930  0.864700  1.0  -0.4402
  Cl  Cl608  1  0.387330  0.176720  0.777000  1.0  -0.4477
  Cl  Cl609  1  0.210490  0.242560  0.720500  1.0  -0.4944
  Cl  Cl610  1  0.360180  0.605930  0.364700  1.0  -0.4402
  Cl  Cl611  1  0.387330  0.676720  0.277000  1.0  -0.4477
  Cl  Cl612  1  0.210490  0.742560  0.220500  1.0  -0.4944
  Cl  Cl613  1  0.139820  0.894070  0.364700  1.0  -0.4436
  Cl  Cl614  1  0.112670  0.823280  0.277000  1.0  -0.4474
  Cl  Cl615  1  0.289510  0.757440  0.220500  1.0  -0.4926
  Cl  Cl616  1  0.139820  0.394070  0.864700  1.0  -0.4436
  Cl  Cl617  1  0.112670  0.323280  0.777000  1.0  -0.4474
  Cl  Cl618  1  0.289510  0.257440  0.720500  1.0  -0.4926
  Cl  Cl619  1  0.639820  0.894070  0.864700  1.0  -0.4436
  Cl  Cl620  1  0.612670  0.823280  0.777000  1.0  -0.4474
  Cl  Cl621  1  0.789510  0.757440  0.720500  1.0  -0.4926
  Cl  Cl622  1  0.639820  0.394070  0.364700  1.0  -0.4436
  Cl  Cl623  1  0.612670  0.323280  0.277000  1.0  -0.4474
  Cl  Cl624  1  0.789510  0.257440  0.220500  1.0  -0.4926
  Cl  Cl625  1  0.110180  0.144070  0.614700  1.0  -0.4435
  Cl  Cl626  1  0.137330  0.073280  0.527000  1.0  -0.4474
  Cl  Cl627  1  0.960490  0.007440  0.470500  1.0  -0.4945
  Cl  Cl628  1  0.110180  0.644070  0.114700  1.0  -0.4435
  Cl  Cl629  1  0.137330  0.573280  0.027000  1.0  -0.4478
  Cl  Cl630  1  0.960490  0.507440  0.970500  1.0  -0.4945
  Cl  Cl631  1  0.610180  0.144070  0.114700  1.0  -0.4435
  Cl  Cl632  1  0.637330  0.073280  0.027000  1.0  -0.4474
  Cl  Cl633  1  0.460490  0.007440  0.970500  1.0  -0.4945
  Cl  Cl634  1  0.610180  0.644070  0.614700  1.0  -0.4435
  Cl  Cl635  1  0.637330  0.573280  0.527000  1.0  -0.4478
  Cl  Cl636  1  0.460490  0.507440  0.470500  1.0  -0.4945
  Cl  Cl637  1  0.389820  0.355930  0.614700  1.0  -0.4402
  Cl  Cl638  1  0.362670  0.426720  0.527000  1.0  -0.4487
  Cl  Cl639  1  0.539510  0.492560  0.470500  1.0  -0.4924
  Cl  Cl640  1  0.389820  0.855930  0.114700  1.0  -0.4402
  Cl  Cl641  1  0.362670  0.926720  0.027000  1.0  -0.448
  Cl  Cl642  1  0.539510  0.992560  0.970500  1.0  -0.4924
  Cl  Cl643  1  0.889820  0.355930  0.114700  1.0  -0.4402
  Cl  Cl644  1  0.862670  0.426720  0.027000  1.0  -0.4487
  Cl  Cl645  1  0.039510  0.492560  0.970500  1.0  -0.4924
  Cl  Cl646  1  0.889820  0.855930  0.614700  1.0  -0.4402
  Cl  Cl647  1  0.862670  0.926720  0.527000  1.0  -0.448
  Cl  Cl648  1  0.039510  0.992560  0.470500  1.0  -0.4924
