# generated using pymatgen
data_CoH20C17N8
_symmetry_space_group_name_H-M   'P 1'
_cell_length_a   10.72280000
_cell_length_b   16.77400000
_cell_length_c   19.61910000
_cell_angle_alpha   90.00000000
_cell_angle_beta   120.92400000
_cell_angle_gamma   90.00000000
_symmetry_Int_Tables_number   1
_chemical_formula_structural   CoH20C17N8
_chemical_formula_sum   'Co4 H80 C68 N32'
_cell_volume   3027.15834312
_cell_formula_units_Z   4
loop_
 _symmetry_equiv_pos_site_id
 _symmetry_equiv_pos_as_xyz
  1  'x, y, z'
loop_
 _atom_site_type_symbol
 _atom_site_label
 _atom_site_symmetry_multiplicity
 _atom_site_fract_x
 _atom_site_fract_y
 _atom_site_fract_z
 _atom_site_occupancy
 _atom_site_charge
  Co  Co1  1  0.446200  0.274700  0.323100  1.0  0.6841
  Co  Co2  1  0.553800  0.774700  0.176900  1.0  0.6713
  Co  Co3  1  0.553800  0.725300  0.676900  1.0  0.6733
  Co  Co4  1  0.446200  0.225300  0.823100  1.0  0.6869
  H  H5  1  0.673300  0.240900  0.263800  1.0  0.0788
  H  H6  1  0.448000  0.079900  0.297900  1.0  0.0717
  H  H7  1  0.622500  0.009200  0.274800  1.0  0.1049
  H  H8  1  0.843500  0.052100  0.267300  1.0  0.0804
  H  H9  1  0.892700  0.140300  0.292000  1.0  0.0783
  H  H10  1  0.579300  0.095200  0.101500  1.0  0.0746
  H  H11  1  0.659500  0.092100  0.053800  1.0  0.0674
  H  H12  1  0.536500  0.963900  0.148300  1.0  0.0719
  H  H13  1  0.765000  0.818900  0.099300  1.0  0.0834
  H  H14  1  0.808900  0.953400  0.069600  1.0  0.1196
  H  H15  1  0.943000  0.036100  0.180800  1.0  0.0713
  H  H16  1  0.934800  0.107500  0.127400  1.0  0.0698
  H  H17  1  0.123100  0.056400  0.340400  1.0  0.1047
  H  H18  1  0.129600  0.214100  0.193500  1.0  0.0843
  H  H19  1  0.689200  0.229100  0.158600  1.0  0.0611
  H  H20  1  0.855000  0.242200  0.191500  1.0  0.0851
  H  H21  1  0.930300  0.270700  0.082600  1.0  0.1008
  H  H22  1  0.786500  0.291300  0.939500  1.0  0.0698
  H  H23  1  0.519200  0.221300  0.007400  1.0  0.0794
  H  H24  1  0.346400  0.235500  0.318500  1.0  0.165
  H  H25  1  0.326700  0.740900  0.236200  1.0  0.079
  H  H26  1  0.552000  0.579900  0.202100  1.0  0.0718
  H  H27  1  0.377500  0.509200  0.225200  1.0  0.1059
  H  H28  1  0.156500  0.552100  0.232700  1.0  0.0812
  H  H29  1  0.107300  0.640300  0.208000  1.0  0.079
  H  H30  1  0.420700  0.595200  0.398500  1.0  0.073
  H  H31  1  0.340500  0.592100  0.446200  1.0  0.0668
  H  H32  1  0.463500  0.463900  0.351700  1.0  0.0717
  H  H33  1  0.235000  0.318900  0.400700  1.0  0.0845
  H  H34  1  0.191100  0.453400  0.430400  1.0  0.1184
  H  H35  1  0.057000  0.536100  0.319200  1.0  0.0699
  H  H36  1  0.065200  0.607500  0.372600  1.0  0.0729
  H  H37  1  0.876900  0.556400  0.159600  1.0  0.1027
  H  H38  1  0.870400  0.714100  0.306500  1.0  0.0852
  H  H39  1  0.310800  0.729100  0.341400  1.0  0.0618
  H  H40  1  0.145000  0.742200  0.308500  1.0  0.0848
  H  H41  1  0.069700  0.770700  0.417400  1.0  0.1018
  H  H42  1  0.213500  0.791300  0.560500  1.0  0.0699
  H  H43  1  0.480800  0.721300  0.492600  1.0  0.0799
  H  H44  1  0.653600  0.735500  0.181500  1.0  0.1647
  H  H45  1  0.326700  0.759100  0.736200  1.0  0.0794
  H  H46  1  0.552000  0.920100  0.702100  1.0  0.0718
  H  H47  1  0.377500  0.990800  0.725200  1.0  0.1055
  H  H48  1  0.156500  0.947900  0.732700  1.0  0.0822
  H  H49  1  0.107300  0.859700  0.708000  1.0  0.0788
  H  H50  1  0.420700  0.904800  0.898500  1.0  0.0731
  H  H51  1  0.340500  0.907900  0.946200  1.0  0.0657
  H  H52  1  0.463500  0.036100  0.851700  1.0  0.0718
  H  H53  1  0.235000  0.181100  0.900700  1.0  0.0843
  H  H54  1  0.191100  0.046600  0.930400  1.0  0.1188
  H  H55  1  0.057000  0.963900  0.819200  1.0  0.0697
  H  H56  1  0.065200  0.892500  0.872600  1.0  0.0727
  H  H57  1  0.876900  0.943600  0.659600  1.0  0.1038
  H  H58  1  0.870400  0.785900  0.806500  1.0  0.0852
  H  H59  1  0.310800  0.770900  0.841400  1.0  0.0608
  H  H60  1  0.145000  0.757800  0.808500  1.0  0.0843
  H  H61  1  0.069700  0.729300  0.917400  1.0  0.1022
  H  H62  1  0.213500  0.708700  0.060500  1.0  0.0703
  H  H63  1  0.480800  0.778700  0.992600  1.0  0.079
  H  H64  1  0.653600  0.764500  0.681500  1.0  0.1661
  H  H65  1  0.673300  0.259100  0.763800  1.0  0.0798
  H  H66  1  0.448000  0.420100  0.797900  1.0  0.0722
  H  H67  1  0.622500  0.490800  0.774800  1.0  0.1046
  H  H68  1  0.843500  0.447900  0.767300  1.0  0.08
  H  H69  1  0.892700  0.359700  0.792000  1.0  0.0794
  H  H70  1  0.579300  0.404800  0.601500  1.0  0.0749
  H  H71  1  0.659500  0.407900  0.553800  1.0  0.0673
  H  H72  1  0.536500  0.536100  0.648300  1.0  0.0718
  H  H73  1  0.765000  0.681100  0.599300  1.0  0.0834
  H  H74  1  0.808900  0.546600  0.569600  1.0  0.1199
  H  H75  1  0.943000  0.463900  0.680800  1.0  0.0715
  H  H76  1  0.934800  0.392500  0.627400  1.0  0.0704
  H  H77  1  0.123100  0.443600  0.840400  1.0  0.1053
  H  H78  1  0.129600  0.285900  0.693500  1.0  0.0841
  H  H79  1  0.689200  0.270900  0.658600  1.0  0.0617
  H  H80  1  0.855000  0.257800  0.691500  1.0  0.084
  H  H81  1  0.930300  0.229300  0.582600  1.0  0.1002
  H  H82  1  0.786500  0.208700  0.439500  1.0  0.0699
  H  H83  1  0.519200  0.278700  0.507400  1.0  0.0785
  H  H84  1  0.346400  0.264500  0.818500  1.0  0.1672
  C  C85  1  0.637200  0.192100  0.268400  1.0  0.0945
  C  C86  1  0.514800  0.103700  0.287600  1.0  -0.0257
  C  C87  1  0.610600  0.064100  0.274400  1.0  -0.2087
  C  C88  1  0.814000  0.107200  0.253100  1.0  -0.1344
  C  C89  1  0.797700  0.123000  0.171500  1.0  -0.0205
  C  C90  1  0.667300  0.077300  0.103600  1.0  -0.113
  C  C91  1  0.599700  0.944400  0.133000  1.0  0.1102
  C  C92  1  0.724100  0.865200  0.105500  1.0  -0.021
  C  C93  1  0.750200  0.939400  0.089800  1.0  -0.1822
  C  C94  1  0.939300  0.093800  0.176600  1.0  -0.1241
  C  C95  1  0.150600  0.098200  0.319700  1.0  0.047
  C  C96  1  0.155600  0.185200  0.239400  1.0  -0.0011
  C  C97  1  0.769800  0.213000  0.152500  1.0  -0.0888
  C  C98  1  0.830800  0.262500  0.050100  1.0  -0.202
  C  C99  1  0.750400  0.273800  0.971100  1.0  0.0056
  C  C100  1  0.603300  0.235100  0.007500  1.0  0.1045
  C  C101  1  0.275200  0.197700  0.307600  1.0  -0.0806
  C  C102  1  0.362800  0.692100  0.231600  1.0  0.0935
  C  C103  1  0.485200  0.603700  0.212400  1.0  -0.026
  C  C104  1  0.389400  0.564100  0.225600  1.0  -0.2097
  C  C105  1  0.186000  0.607200  0.246900  1.0  -0.1315
  C  C106  1  0.202300  0.623000  0.328500  1.0  -0.0208
  C  C107  1  0.332700  0.577300  0.396400  1.0  -0.1122
  C  C108  1  0.400300  0.444400  0.367000  1.0  0.1089
  C  C109  1  0.275900  0.365200  0.394500  1.0  -0.0188
  C  C110  1  0.249800  0.439400  0.410200  1.0  -0.18
  C  C111  1  0.060700  0.593800  0.323400  1.0  -0.1276
  C  C112  1  0.849400  0.598200  0.180300  1.0  0.0456
  C  C113  1  0.844400  0.685200  0.260600  1.0  0.001
  C  C114  1  0.230200  0.713000  0.347500  1.0  -0.0897
  C  C115  1  0.169200  0.762500  0.449900  1.0  -0.2021
  C  C116  1  0.249600  0.773800  0.528900  1.0  0.0065
  C  C117  1  0.396700  0.735100  0.492500  1.0  0.1034
  C  C118  1  0.724800  0.697700  0.192400  1.0  -0.0815
  C  C119  1  0.362800  0.807900  0.731600  1.0  0.0944
  C  C120  1  0.485200  0.896300  0.712400  1.0  -0.0248
  C  C121  1  0.389400  0.935900  0.725600  1.0  -0.2078
  C  C122  1  0.186000  0.892800  0.746900  1.0  -0.132
  C  C123  1  0.202300  0.877000  0.828500  1.0  -0.0212
  C  C124  1  0.332700  0.922700  0.896400  1.0  -0.1124
  C  C125  1  0.400300  0.055600  0.867000  1.0  0.1095
  C  C126  1  0.275900  0.134800  0.894500  1.0  -0.0175
  C  C127  1  0.249800  0.060600  0.910200  1.0  -0.1818
  C  C128  1  0.060700  0.906200  0.823400  1.0  -0.1256
  C  C129  1  0.849400  0.901800  0.680300  1.0  0.0451
  C  C130  1  0.844400  0.814800  0.760600  1.0  0.0005
  C  C131  1  0.230200  0.787000  0.847500  1.0  -0.0888
  C  C132  1  0.169200  0.737500  0.949900  1.0  -0.2007
  C  C133  1  0.249600  0.726200  0.028900  1.0  0.0063
  C  C134  1  0.396700  0.764900  0.992500  1.0  0.1039
  C  C135  1  0.724800  0.802300  0.692400  1.0  -0.0812
  C  C136  1  0.637200  0.307900  0.768400  1.0  0.0946
  C  C137  1  0.514800  0.396300  0.787600  1.0  -0.0259
  C  C138  1  0.610600  0.435900  0.774400  1.0  -0.2074
  C  C139  1  0.814000  0.392800  0.753100  1.0  -0.1347
  C  C140  1  0.797700  0.377000  0.671500  1.0  -0.0208
  C  C141  1  0.667300  0.422700  0.603600  1.0  -0.1125
  C  C142  1  0.599700  0.555600  0.633000  1.0  0.1098
  C  C143  1  0.724100  0.634800  0.605500  1.0  -0.0193
  C  C144  1  0.750200  0.560600  0.589800  1.0  -0.182
  C  C145  1  0.939300  0.406200  0.676600  1.0  -0.1238
  C  C146  1  0.150600  0.401800  0.819700  1.0  0.0446
  C  C147  1  0.155600  0.314800  0.739400  1.0  -0.002
  C  C148  1  0.769800  0.287000  0.652500  1.0  -0.0874
  C  C149  1  0.830800  0.237500  0.550100  1.0  -0.2029
  C  C150  1  0.750400  0.226200  0.471100  1.0  0.0045
  C  C151  1  0.603300  0.264900  0.507500  1.0  0.1054
  C  C152  1  0.275200  0.302300  0.807600  1.0  -0.0808
  N  N153  1  0.531500  0.184000  0.283300  1.0  -0.4118
  N  N154  1  0.686800  0.121200  0.260400  1.0  0.0082
  N  N155  1  0.074800  0.126400  0.243200  1.0  0.0049
  N  N156  1  0.737200  0.236400  0.073200  1.0  -0.0177
  N  N157  1  0.606500  0.255800  0.943600  1.0  -0.4282
  N  N158  1  0.672800  0.990400  0.109400  1.0  0.0158
  N  N159  1  0.628200  0.868200  0.132000  1.0  -0.4094
  N  N160  1  0.273900  0.143000  0.359800  1.0  -0.3239
  N  N161  1  0.468500  0.684000  0.216700  1.0  -0.4127
  N  N162  1  0.313200  0.621200  0.239600  1.0  0.0057
  N  N163  1  0.925200  0.626400  0.256800  1.0  0.003
  N  N164  1  0.262800  0.736400  0.426800  1.0  -0.0185
  N  N165  1  0.393500  0.755800  0.556400  1.0  -0.4286
  N  N166  1  0.327200  0.490400  0.390600  1.0  0.015
  N  N167  1  0.371800  0.368200  0.368000  1.0  -0.4104
  N  N168  1  0.726100  0.643000  0.140200  1.0  -0.3234
  N  N169  1  0.468500  0.816000  0.716700  1.0  -0.4113
  N  N170  1  0.313200  0.878800  0.739600  1.0  0.0059
  N  N171  1  0.925200  0.873600  0.756800  1.0  0.0031
  N  N172  1  0.262800  0.763600  0.926800  1.0  -0.0188
  N  N173  1  0.393500  0.744200  0.056400  1.0  -0.4261
  N  N174  1  0.327200  0.009600  0.890600  1.0  0.0148
  N  N175  1  0.371800  0.131800  0.868000  1.0  -0.4108
  N  N176  1  0.726100  0.857000  0.640200  1.0  -0.3212
  N  N177  1  0.531500  0.316000  0.783300  1.0  -0.4118
  N  N178  1  0.686800  0.378800  0.760400  1.0  0.0076
  N  N179  1  0.074800  0.373600  0.743200  1.0  0.0049
  N  N180  1  0.737200  0.263600  0.573200  1.0  -0.0186
  N  N181  1  0.606500  0.244200  0.443600  1.0  -0.4268
  N  N182  1  0.672800  0.509600  0.609400  1.0  0.016
  N  N183  1  0.628200  0.631800  0.632000  1.0  -0.4107
  N  N184  1  0.273900  0.357000  0.859800  1.0  -0.3221
