# generated using pymatgen
data_Zn3H36C44(N2O3)4
_symmetry_space_group_name_H-M   'P 1'
_cell_length_a   23.27600000
_cell_length_b   20.66500000
_cell_length_c   17.50200000
_cell_angle_alpha   90.00000000
_cell_angle_beta   126.26500000
_cell_angle_gamma   90.00000000
_symmetry_Int_Tables_number   1
_chemical_formula_structural   Zn3H36C44(N2O3)4
_chemical_formula_sum   'Zn12 H144 C176 N32 O48'
_cell_volume   6787.69920460
_cell_formula_units_Z   4
loop_
 _symmetry_equiv_pos_site_id
 _symmetry_equiv_pos_as_xyz
  1  'x, y, z'
loop_
 _atom_site_type_symbol
 _atom_site_label
 _atom_site_symmetry_multiplicity
 _atom_site_fract_x
 _atom_site_fract_y
 _atom_site_fract_z
 _atom_site_occupancy
 _atom_site_charge
  Zn  Zn1  1  0.143400  0.664580  0.664510  1.0  0.9957
  Zn  Zn2  1  0.643400  0.164580  0.664510  1.0  0.9957
  Zn  Zn3  1  0.856600  0.664580  0.835490  1.0  0.9974
  Zn  Zn4  1  0.356600  0.164580  0.835490  1.0  0.9974
  Zn  Zn5  1  0.856600  0.335420  0.335490  1.0  0.9986
  Zn  Zn6  1  0.356600  0.835420  0.335490  1.0  0.9986
  Zn  Zn7  1  0.143400  0.335420  0.164510  1.0  0.9971
  Zn  Zn8  1  0.643400  0.835420  0.164510  1.0  0.9971
  Zn  Zn9  1  0.500000  0.837440  0.750000  1.0  0.9237
  Zn  Zn10  1  0.000000  0.337440  0.750000  1.0  0.9237
  Zn  Zn11  1  0.500000  0.162560  0.250000  1.0  0.9236
  Zn  Zn12  1  0.000000  0.662560  0.250000  1.0  0.9236
  H  H13  1  0.591900  0.016100  0.990000  1.0  0.1037
  H  H14  1  0.390000  0.734400  0.917100  1.0  0.1288
  H  H15  1  0.319800  0.944700  0.829600  1.0  0.1134
  H  H16  1  0.237600  0.863100  0.752100  1.0  0.1251
  H  H17  1  0.078500  0.501100  0.808400  1.0  0.1264
  H  H18  1  0.038600  0.585900  0.690500  1.0  0.1228
  H  H19  1  0.258600  0.433800  0.882100  1.0  0.0785
  H  H20  1  0.193000  0.408100  0.877100  1.0  0.0769
  H  H21  1  0.245400  0.583700  0.846400  1.0  0.1159
  H  H22  1  0.335700  0.404900  0.036200  1.0  0.068
  H  H23  1  0.273500  0.392200  0.045400  1.0  0.0717
  H  H24  1  0.274900  0.513800  0.979800  1.0  0.0754
  H  H25  1  0.212400  0.487100  0.981100  1.0  0.0898
  H  H26  1  0.297200  0.318700  0.933800  1.0  0.1057
  H  H27  1  0.237300  0.305100  0.948200  1.0  0.0969
  H  H28  1  0.403100  0.243700  0.054600  1.0  0.1044
  H  H29  1  0.310600  0.319300  0.163400  1.0  0.1356
  H  H30  1  0.398900  0.240600  0.274300  1.0  0.0962
  H  H31  1  0.091900  0.516100  0.990000  1.0  0.1037
  H  H32  1  0.890000  0.234400  0.917100  1.0  0.1288
  H  H33  1  0.819800  0.444700  0.829600  1.0  0.1134
  H  H34  1  0.737600  0.363100  0.752100  1.0  0.1251
  H  H35  1  0.578500  0.001100  0.808400  1.0  0.1264
  H  H36  1  0.538600  0.085900  0.690500  1.0  0.1228
  H  H37  1  0.758600  0.933800  0.882100  1.0  0.0785
  H  H38  1  0.693000  0.908100  0.877100  1.0  0.0769
  H  H39  1  0.745400  0.083700  0.846400  1.0  0.1159
  H  H40  1  0.835700  0.904900  0.036200  1.0  0.068
  H  H41  1  0.773500  0.892200  0.045400  1.0  0.0717
  H  H42  1  0.774900  0.013800  0.979800  1.0  0.0754
  H  H43  1  0.712400  0.987100  0.981100  1.0  0.0898
  H  H44  1  0.797200  0.818700  0.933800  1.0  0.1057
  H  H45  1  0.737300  0.805100  0.948200  1.0  0.0969
  H  H46  1  0.903100  0.743700  0.054600  1.0  0.1044
  H  H47  1  0.810600  0.819300  0.163400  1.0  0.1356
  H  H48  1  0.898900  0.740600  0.274300  1.0  0.0962
  H  H49  1  0.408100  0.016100  0.510000  1.0  0.104
  H  H50  1  0.610000  0.734400  0.582900  1.0  0.1287
  H  H51  1  0.680200  0.944700  0.670400  1.0  0.114
  H  H52  1  0.762400  0.863100  0.747900  1.0  0.1251
  H  H53  1  0.921500  0.501100  0.691600  1.0  0.1265
  H  H54  1  0.961400  0.585900  0.809500  1.0  0.1221
  H  H55  1  0.741400  0.433800  0.617900  1.0  0.0771
  H  H56  1  0.807000  0.408100  0.622900  1.0  0.0788
  H  H57  1  0.754600  0.583700  0.653600  1.0  0.116
  H  H58  1  0.664300  0.404900  0.463800  1.0  0.0687
  H  H59  1  0.726500  0.392200  0.454600  1.0  0.0723
  H  H60  1  0.725100  0.513800  0.520200  1.0  0.0772
  H  H61  1  0.787600  0.487100  0.518900  1.0  0.0907
  H  H62  1  0.702800  0.318700  0.566200  1.0  0.1047
  H  H63  1  0.762700  0.305100  0.551800  1.0  0.097
  H  H64  1  0.596900  0.243700  0.445400  1.0  0.1038
  H  H65  1  0.689400  0.319300  0.336600  1.0  0.1347
  H  H66  1  0.601100  0.240600  0.225700  1.0  0.0971
  H  H67  1  0.908100  0.516100  0.510000  1.0  0.104
  H  H68  1  0.110000  0.234400  0.582900  1.0  0.1287
  H  H69  1  0.180200  0.444700  0.670400  1.0  0.114
  H  H70  1  0.262400  0.363100  0.747900  1.0  0.1251
  H  H71  1  0.421500  0.001100  0.691600  1.0  0.1265
  H  H72  1  0.461400  0.085900  0.809500  1.0  0.1221
  H  H73  1  0.241400  0.933800  0.617900  1.0  0.0771
  H  H74  1  0.307000  0.908100  0.622900  1.0  0.0788
  H  H75  1  0.254600  0.083700  0.653600  1.0  0.116
  H  H76  1  0.164300  0.904900  0.463800  1.0  0.0687
  H  H77  1  0.226500  0.892200  0.454600  1.0  0.0723
  H  H78  1  0.225100  0.013800  0.520200  1.0  0.0772
  H  H79  1  0.287600  0.987100  0.518900  1.0  0.0907
  H  H80  1  0.202800  0.818700  0.566200  1.0  0.1047
  H  H81  1  0.262700  0.805100  0.551800  1.0  0.097
  H  H82  1  0.096900  0.743700  0.445400  1.0  0.1038
  H  H83  1  0.189400  0.819300  0.336600  1.0  0.1347
  H  H84  1  0.101100  0.740600  0.225700  1.0  0.0971
  H  H85  1  0.408100  0.983900  0.010000  1.0  0.1042
  H  H86  1  0.610000  0.265600  0.082900  1.0  0.1283
  H  H87  1  0.680200  0.055300  0.170400  1.0  0.1152
  H  H88  1  0.762400  0.136900  0.247900  1.0  0.1247
  H  H89  1  0.921500  0.498900  0.191600  1.0  0.1259
  H  H90  1  0.961400  0.414100  0.309500  1.0  0.1221
  H  H91  1  0.741400  0.566200  0.117900  1.0  0.0785
  H  H92  1  0.807000  0.591900  0.122900  1.0  0.0776
  H  H93  1  0.754600  0.416300  0.153600  1.0  0.1163
  H  H94  1  0.664300  0.595100  0.963800  1.0  0.0681
  H  H95  1  0.726500  0.607800  0.954600  1.0  0.0721
  H  H96  1  0.725100  0.486200  0.020200  1.0  0.0771
  H  H97  1  0.787600  0.512900  0.018900  1.0  0.0901
  H  H98  1  0.702800  0.681300  0.066200  1.0  0.1045
  H  H99  1  0.762700  0.694900  0.051800  1.0  0.0969
  H  H100  1  0.596900  0.756300  0.945400  1.0  0.104
  H  H101  1  0.689400  0.680700  0.836600  1.0  0.1347
  H  H102  1  0.601100  0.759400  0.725700  1.0  0.0985
  H  H103  1  0.908100  0.483900  0.010000  1.0  0.1042
  H  H104  1  0.110000  0.765600  0.082900  1.0  0.1283
  H  H105  1  0.180200  0.555300  0.170400  1.0  0.1152
  H  H106  1  0.262400  0.636900  0.247900  1.0  0.1247
  H  H107  1  0.421500  0.998900  0.191600  1.0  0.1259
  H  H108  1  0.461400  0.914100  0.309500  1.0  0.1221
  H  H109  1  0.241400  0.066200  0.117900  1.0  0.0785
  H  H110  1  0.307000  0.091900  0.122900  1.0  0.0776
  H  H111  1  0.254600  0.916300  0.153600  1.0  0.1163
  H  H112  1  0.164300  0.095100  0.963800  1.0  0.0681
  H  H113  1  0.226500  0.107800  0.954600  1.0  0.0721
  H  H114  1  0.225100  0.986200  0.020200  1.0  0.0771
  H  H115  1  0.287600  0.012900  0.018900  1.0  0.0901
  H  H116  1  0.202800  0.181300  0.066200  1.0  0.1045
  H  H117  1  0.262700  0.194900  0.051800  1.0  0.0969
  H  H118  1  0.096900  0.256300  0.945400  1.0  0.104
  H  H119  1  0.189400  0.180700  0.836600  1.0  0.1347
  H  H120  1  0.101100  0.259400  0.725700  1.0  0.0985
  H  H121  1  0.591900  0.983900  0.490000  1.0  0.1034
  H  H122  1  0.390000  0.265600  0.417100  1.0  0.1278
  H  H123  1  0.319800  0.055300  0.329600  1.0  0.1145
  H  H124  1  0.237600  0.136900  0.252100  1.0  0.125
  H  H125  1  0.078500  0.498900  0.308400  1.0  0.1264
  H  H126  1  0.038600  0.414100  0.190500  1.0  0.1228
  H  H127  1  0.258600  0.566200  0.382100  1.0  0.0781
  H  H128  1  0.193000  0.591900  0.377100  1.0  0.0767
  H  H129  1  0.245400  0.416300  0.346400  1.0  0.1154
  H  H130  1  0.335700  0.595100  0.536200  1.0  0.0679
  H  H131  1  0.273500  0.607800  0.545400  1.0  0.0724
  H  H132  1  0.274900  0.486200  0.479800  1.0  0.0753
  H  H133  1  0.212400  0.512900  0.481100  1.0  0.0908
  H  H134  1  0.297200  0.681300  0.433800  1.0  0.1055
  H  H135  1  0.237300  0.694900  0.448200  1.0  0.0972
  H  H136  1  0.403100  0.756300  0.554600  1.0  0.1043
  H  H137  1  0.310600  0.680700  0.663400  1.0  0.1359
  H  H138  1  0.398900  0.759400  0.774300  1.0  0.0975
  H  H139  1  0.091900  0.483900  0.490000  1.0  0.1034
  H  H140  1  0.890000  0.765600  0.417100  1.0  0.1278
  H  H141  1  0.819800  0.555300  0.329600  1.0  0.1145
  H  H142  1  0.737600  0.636900  0.252100  1.0  0.125
  H  H143  1  0.578500  0.998900  0.308400  1.0  0.1264
  H  H144  1  0.538600  0.914100  0.190500  1.0  0.1228
  H  H145  1  0.758600  0.066200  0.382100  1.0  0.0781
  H  H146  1  0.693000  0.091900  0.377100  1.0  0.0767
  H  H147  1  0.745400  0.916300  0.346400  1.0  0.1154
  H  H148  1  0.835700  0.095100  0.536200  1.0  0.0679
  H  H149  1  0.773500  0.107800  0.545400  1.0  0.0724
  H  H150  1  0.774900  0.986200  0.479800  1.0  0.0753
  H  H151  1  0.712400  0.012900  0.481100  1.0  0.0908
  H  H152  1  0.797200  0.181300  0.433800  1.0  0.1055
  H  H153  1  0.737300  0.194900  0.448200  1.0  0.0972
  H  H154  1  0.903100  0.256300  0.554600  1.0  0.1043
  H  H155  1  0.810600  0.180700  0.663400  1.0  0.1359
  H  H156  1  0.898900  0.259400  0.774300  1.0  0.0975
  C  C157  1  0.405700  0.890500  0.913000  1.0  0.0424
  C  C158  1  0.427000  0.825800  0.941100  1.0  -0.1447
  C  C159  1  0.511700  0.956300  0.949800  1.0  -0.1096
  C  C160  1  0.554300  0.009800  0.994100  1.0  -0.1501
  C  C161  1  0.455200  0.945600  0.956200  1.0  0.059
  C  C162  1  0.254500  0.736700  0.779300  1.0  0.6985
  C  C163  1  0.375900  0.777000  0.898000  1.0  -0.1463
  C  C164  1  0.526500  0.914500  0.894400  1.0  0.7038
  C  C165  1  0.305300  0.790000  0.827800  1.0  -0.1039
  C  C166  1  0.335000  0.902100  0.845800  1.0  -0.1549
  C  C167  1  0.500900  0.807800  0.014100  1.0  0.2494
  C  C168  1  0.284800  0.853200  0.800500  1.0  -0.0925
  C  C169  1  0.107400  0.528700  0.803000  1.0  -0.1077
  C  C170  1  0.085700  0.574500  0.737300  1.0  0.0307
  C  C171  1  0.238900  0.429400  0.917500  1.0  -0.1017
  C  C172  1  0.198600  0.574100  0.822900  1.0  0.1066
  C  C173  1  0.287300  0.389000  0.003000  1.0  -0.1048
  C  C174  1  0.229300  0.491600  0.942400  1.0  0.0698
  C  C175  1  0.284300  0.323300  0.977000  1.0  0.0187
  C  C176  1  0.389000  0.252000  0.093500  1.0  0.1884
  C  C177  1  0.338900  0.293600  0.154400  1.0  -0.1112
  C  C178  1  0.387600  0.250700  0.215100  1.0  -0.0253
  C  C179  1  0.905700  0.390500  0.913000  1.0  0.0424
  C  C180  1  0.927000  0.325800  0.941100  1.0  -0.1447
  C  C181  1  0.011700  0.456300  0.949800  1.0  -0.1096
  C  C182  1  0.054300  0.509800  0.994100  1.0  -0.1501
  C  C183  1  0.955200  0.445600  0.956200  1.0  0.059
  C  C184  1  0.754500  0.236700  0.779300  1.0  0.6985
  C  C185  1  0.875900  0.277000  0.898000  1.0  -0.1463
  C  C186  1  0.026500  0.414500  0.894400  1.0  0.7038
  C  C187  1  0.805300  0.290000  0.827800  1.0  -0.1039
  C  C188  1  0.835000  0.402100  0.845800  1.0  -0.1549
  C  C189  1  0.000900  0.307800  0.014100  1.0  0.2494
  C  C190  1  0.784800  0.353200  0.800500  1.0  -0.0925
  C  C191  1  0.607400  0.028700  0.803000  1.0  -0.1077
  C  C192  1  0.585700  0.074500  0.737300  1.0  0.0307
  C  C193  1  0.738900  0.929400  0.917500  1.0  -0.1017
  C  C194  1  0.698600  0.074100  0.822900  1.0  0.1066
  C  C195  1  0.787300  0.889000  0.003000  1.0  -0.1048
  C  C196  1  0.729300  0.991600  0.942400  1.0  0.0698
  C  C197  1  0.784300  0.823300  0.977000  1.0  0.0187
  C  C198  1  0.889000  0.752000  0.093500  1.0  0.1884
  C  C199  1  0.838900  0.793600  0.154400  1.0  -0.1112
  C  C200  1  0.887600  0.750700  0.215100  1.0  -0.0253
  C  C201  1  0.594300  0.890500  0.587000  1.0  0.0422
  C  C202  1  0.573000  0.825800  0.558900  1.0  -0.1489
  C  C203  1  0.488300  0.956300  0.550200  1.0  -0.1084
  C  C204  1  0.445700  0.009800  0.505900  1.0  -0.1509
  C  C205  1  0.544800  0.945600  0.543800  1.0  0.0588
  C  C206  1  0.745500  0.736700  0.720700  1.0  0.6986
  C  C207  1  0.624100  0.777000  0.602000  1.0  -0.1473
  C  C208  1  0.473500  0.914500  0.605600  1.0  0.7035
  C  C209  1  0.694700  0.790000  0.672200  1.0  -0.1068
  C  C210  1  0.665000  0.902100  0.654200  1.0  -0.1536
  C  C211  1  0.499100  0.807800  0.485900  1.0  0.2476
  C  C212  1  0.715200  0.853200  0.699500  1.0  -0.0938
  C  C213  1  0.892600  0.528700  0.697000  1.0  -0.1072
  C  C214  1  0.914300  0.574500  0.762700  1.0  0.0316
  C  C215  1  0.761100  0.429400  0.582500  1.0  -0.1054
  C  C216  1  0.801400  0.574100  0.677100  1.0  0.1061
  C  C217  1  0.712700  0.389000  0.497000  1.0  -0.104
  C  C218  1  0.770700  0.491600  0.557600  1.0  0.0681
  C  C219  1  0.715700  0.323300  0.523000  1.0  0.0175
  C  C220  1  0.611000  0.252000  0.406500  1.0  0.1893
  C  C221  1  0.661100  0.293600  0.345600  1.0  -0.1104
  C  C222  1  0.612400  0.250700  0.284900  1.0  -0.026
  C  C223  1  0.094300  0.390500  0.587000  1.0  0.0422
  C  C224  1  0.073000  0.325800  0.558900  1.0  -0.1489
  C  C225  1  0.988300  0.456300  0.550200  1.0  -0.1084
  C  C226  1  0.945700  0.509800  0.505900  1.0  -0.1509
  C  C227  1  0.044800  0.445600  0.543800  1.0  0.0588
  C  C228  1  0.245500  0.236700  0.720700  1.0  0.6986
  C  C229  1  0.124100  0.277000  0.602000  1.0  -0.1473
  C  C230  1  0.973500  0.414500  0.605600  1.0  0.7035
  C  C231  1  0.194700  0.290000  0.672200  1.0  -0.1068
  C  C232  1  0.165000  0.402100  0.654200  1.0  -0.1536
  C  C233  1  0.999100  0.307800  0.485900  1.0  0.2476
  C  C234  1  0.215200  0.353200  0.699500  1.0  -0.0938
  C  C235  1  0.392600  0.028700  0.697000  1.0  -0.1072
  C  C236  1  0.414300  0.074500  0.762700  1.0  0.0316
  C  C237  1  0.261100  0.929400  0.582500  1.0  -0.1054
  C  C238  1  0.301400  0.074100  0.677100  1.0  0.1061
  C  C239  1  0.212700  0.889000  0.497000  1.0  -0.104
  C  C240  1  0.270700  0.991600  0.557600  1.0  0.0681
  C  C241  1  0.215700  0.823300  0.523000  1.0  0.0175
  C  C242  1  0.111000  0.752000  0.406500  1.0  0.1893
  C  C243  1  0.161100  0.793600  0.345600  1.0  -0.1104
  C  C244  1  0.112400  0.750700  0.284900  1.0  -0.026
  C  C245  1  0.594300  0.109500  0.087000  1.0  0.0418
  C  C246  1  0.573000  0.174200  0.058900  1.0  -0.1482
  C  C247  1  0.488300  0.043700  0.050200  1.0  -0.1051
  C  C248  1  0.445700  0.990200  0.005900  1.0  -0.1515
  C  C249  1  0.544800  0.054400  0.043800  1.0  0.0588
  C  C250  1  0.745500  0.263300  0.220700  1.0  0.6992
  C  C251  1  0.624100  0.223000  0.102000  1.0  -0.1472
  C  C252  1  0.473500  0.085500  0.105600  1.0  0.7028
  C  C253  1  0.694700  0.210000  0.172200  1.0  -0.1049
  C  C254  1  0.665000  0.097900  0.154200  1.0  -0.1533
  C  C255  1  0.499100  0.192200  0.985900  1.0  0.2439
  C  C256  1  0.715200  0.146800  0.199500  1.0  -0.0938
  C  C257  1  0.892600  0.471300  0.197000  1.0  -0.1077
  C  C258  1  0.914300  0.425500  0.262700  1.0  0.0301
  C  C259  1  0.761100  0.570600  0.082500  1.0  -0.1043
  C  C260  1  0.801400  0.425900  0.177100  1.0  0.1073
  C  C261  1  0.712700  0.611000  0.997000  1.0  -0.1037
  C  C262  1  0.770700  0.508400  0.057600  1.0  0.0684
  C  C263  1  0.715700  0.676700  0.023000  1.0  0.0177
  C  C264  1  0.611000  0.748000  0.906500  1.0  0.1888
  C  C265  1  0.661100  0.706400  0.845600  1.0  -0.1118
  C  C266  1  0.612400  0.749300  0.784900  1.0  -0.0252
  C  C267  1  0.094300  0.609500  0.087000  1.0  0.0418
  C  C268  1  0.073000  0.674200  0.058900  1.0  -0.1482
  C  C269  1  0.988300  0.543700  0.050200  1.0  -0.1051
  C  C270  1  0.945700  0.490200  0.005900  1.0  -0.1515
  C  C271  1  0.044800  0.554400  0.043800  1.0  0.0588
  C  C272  1  0.245500  0.763300  0.220700  1.0  0.6992
  C  C273  1  0.124100  0.723000  0.102000  1.0  -0.1472
  C  C274  1  0.973500  0.585500  0.105600  1.0  0.7028
  C  C275  1  0.194700  0.710000  0.172200  1.0  -0.1049
  C  C276  1  0.165000  0.597900  0.154200  1.0  -0.1533
  C  C277  1  0.999100  0.692200  0.985900  1.0  0.2439
  C  C278  1  0.215200  0.646800  0.199500  1.0  -0.0938
  C  C279  1  0.392600  0.971300  0.197000  1.0  -0.1077
  C  C280  1  0.414300  0.925500  0.262700  1.0  0.0301
  C  C281  1  0.261100  0.070600  0.082500  1.0  -0.1043
  C  C282  1  0.301400  0.925900  0.177100  1.0  0.1073
  C  C283  1  0.212700  0.111000  0.997000  1.0  -0.1037
  C  C284  1  0.270700  0.008400  0.057600  1.0  0.0684
  C  C285  1  0.215700  0.176700  0.023000  1.0  0.0177
  C  C286  1  0.111000  0.248000  0.906500  1.0  0.1888
  C  C287  1  0.161100  0.206400  0.845600  1.0  -0.1118
  C  C288  1  0.112400  0.249300  0.784900  1.0  -0.0252
  C  C289  1  0.405700  0.109500  0.413000  1.0  0.042
  C  C290  1  0.427000  0.174200  0.441100  1.0  -0.1432
  C  C291  1  0.511700  0.043700  0.449800  1.0  -0.1058
  C  C292  1  0.554300  0.990200  0.494100  1.0  -0.1507
  C  C293  1  0.455200  0.054400  0.456200  1.0  0.059
  C  C294  1  0.254500  0.263300  0.279300  1.0  0.6975
  C  C295  1  0.375900  0.223000  0.398000  1.0  -0.148
  C  C296  1  0.526500  0.085500  0.394400  1.0  0.7035
  C  C297  1  0.305300  0.210000  0.327800  1.0  -0.103
  C  C298  1  0.335000  0.097900  0.345800  1.0  -0.1552
  C  C299  1  0.500900  0.192200  0.514100  1.0  0.2471
  C  C300  1  0.284800  0.146800  0.300500  1.0  -0.093
  C  C301  1  0.107400  0.471300  0.303000  1.0  -0.1078
  C  C302  1  0.085700  0.425500  0.237300  1.0  0.031
  C  C303  1  0.238900  0.570600  0.417500  1.0  -0.1017
  C  C304  1  0.198600  0.425900  0.322900  1.0  0.1068
  C  C305  1  0.287300  0.611000  0.503000  1.0  -0.1035
  C  C306  1  0.229300  0.508400  0.442400  1.0  0.0703
  C  C307  1  0.284300  0.676700  0.477000  1.0  0.0185
  C  C308  1  0.389000  0.748000  0.593500  1.0  0.1882
  C  C309  1  0.338900  0.706400  0.654400  1.0  -0.1109
  C  C310  1  0.387600  0.749300  0.715100  1.0  -0.0253
  C  C311  1  0.905700  0.609500  0.413000  1.0  0.042
  C  C312  1  0.927000  0.674200  0.441100  1.0  -0.1432
  C  C313  1  0.011700  0.543700  0.449800  1.0  -0.1058
  C  C314  1  0.054300  0.490200  0.494100  1.0  -0.1507
  C  C315  1  0.955200  0.554400  0.456200  1.0  0.059
  C  C316  1  0.754500  0.763300  0.279300  1.0  0.6975
  C  C317  1  0.875900  0.723000  0.398000  1.0  -0.148
  C  C318  1  0.026500  0.585500  0.394400  1.0  0.7035
  C  C319  1  0.805300  0.710000  0.327800  1.0  -0.103
  C  C320  1  0.835000  0.597900  0.345800  1.0  -0.1552
  C  C321  1  0.000900  0.692200  0.514100  1.0  0.2471
  C  C322  1  0.784800  0.646800  0.300500  1.0  -0.093
  C  C323  1  0.607400  0.971300  0.303000  1.0  -0.1078
  C  C324  1  0.585700  0.925500  0.237300  1.0  0.031
  C  C325  1  0.738900  0.070600  0.417500  1.0  -0.1017
  C  C326  1  0.698600  0.925900  0.322900  1.0  0.1068
  C  C327  1  0.787300  0.111000  0.503000  1.0  -0.1035
  C  C328  1  0.729300  0.008400  0.442400  1.0  0.0703
  C  C329  1  0.784300  0.176700  0.477000  1.0  0.0185
  C  C330  1  0.889000  0.248000  0.593500  1.0  0.1882
  C  C331  1  0.838900  0.206400  0.654400  1.0  -0.1109
  C  C332  1  0.887600  0.249300  0.715100  1.0  -0.0253
  N  N333  1  0.142600  0.601100  0.750000  1.0  -0.2777
  N  N334  1  0.179000  0.530200  0.859500  1.0  0.0566
  N  N335  1  0.338700  0.292400  0.071300  1.0  -0.0822
  N  N336  1  0.418200  0.224100  0.175900  1.0  -0.3279
  N  N337  1  0.642600  0.101100  0.750000  1.0  -0.2777
  N  N338  1  0.679000  0.030200  0.859500  1.0  0.0566
  N  N339  1  0.838700  0.792400  0.071300  1.0  -0.0822
  N  N340  1  0.918200  0.724100  0.175900  1.0  -0.3279
  N  N341  1  0.857400  0.601100  0.750000  1.0  -0.2771
  N  N342  1  0.821000  0.530200  0.640500  1.0  0.0552
  N  N343  1  0.661300  0.292400  0.428700  1.0  -0.0837
  N  N344  1  0.581800  0.224100  0.324100  1.0  -0.3295
  N  N345  1  0.357400  0.101100  0.750000  1.0  -0.2771
  N  N346  1  0.321000  0.030200  0.640500  1.0  0.0552
  N  N347  1  0.161300  0.792400  0.428700  1.0  -0.0837
  N  N348  1  0.081800  0.724100  0.324100  1.0  -0.3295
  N  N349  1  0.857400  0.398900  0.250000  1.0  -0.275
  N  N350  1  0.821000  0.469800  0.140500  1.0  0.0575
  N  N351  1  0.661300  0.707600  0.928700  1.0  -0.0838
  N  N352  1  0.581800  0.775900  0.824100  1.0  -0.3299
  N  N353  1  0.357400  0.898900  0.250000  1.0  -0.275
  N  N354  1  0.321000  0.969800  0.140500  1.0  0.0575
  N  N355  1  0.161300  0.207600  0.928700  1.0  -0.0838
  N  N356  1  0.081800  0.275900  0.824100  1.0  -0.3299
  N  N357  1  0.142600  0.398900  0.250000  1.0  -0.2756
  N  N358  1  0.179000  0.469800  0.359500  1.0  0.0584
  N  N359  1  0.338700  0.707600  0.571300  1.0  -0.0825
  N  N360  1  0.418200  0.775900  0.675900  1.0  -0.3289
  N  N361  1  0.642600  0.898900  0.250000  1.0  -0.2756
  N  N362  1  0.679000  0.969800  0.359500  1.0  0.0584
  N  N363  1  0.838700  0.207600  0.571300  1.0  -0.0825
  N  N364  1  0.918200  0.275900  0.675900  1.0  -0.3289
  O  O365  1  0.474800  0.888100  0.819500  1.0  -0.5758
  O  O366  1  0.589000  0.908500  0.920900  1.0  -0.4921
  O  O367  1  0.277200  0.678800  0.802800  1.0  -0.597
  O  O368  1  0.190300  0.747500  0.713800  1.0  -0.5875
  O  O369  1  0.521300  0.759200  0.984300  1.0  -0.5781
  O  O370  1  0.544500  0.835700  0.061900  1.0  -0.6453
  O  O371  1  0.974800  0.388100  0.819500  1.0  -0.5758
  O  O372  1  0.089000  0.408500  0.920900  1.0  -0.4921
  O  O373  1  0.777200  0.178800  0.802800  1.0  -0.597
  O  O374  1  0.690300  0.247500  0.713800  1.0  -0.5875
  O  O375  1  0.021300  0.259200  0.984300  1.0  -0.5781
  O  O376  1  0.044500  0.335700  0.061900  1.0  -0.6453
  O  O377  1  0.525200  0.888100  0.680500  1.0  -0.5757
  O  O378  1  0.411000  0.908500  0.579100  1.0  -0.4906
  O  O379  1  0.722800  0.678800  0.697200  1.0  -0.5951
  O  O380  1  0.809700  0.747500  0.786200  1.0  -0.5888
  O  O381  1  0.478700  0.759200  0.515700  1.0  -0.5747
  O  O382  1  0.455500  0.835700  0.438100  1.0  -0.6467
  O  O383  1  0.025200  0.388100  0.680500  1.0  -0.5757
  O  O384  1  0.911000  0.408500  0.579100  1.0  -0.4906
  O  O385  1  0.222800  0.178800  0.697200  1.0  -0.5951
  O  O386  1  0.309700  0.247500  0.786200  1.0  -0.5888
  O  O387  1  0.978700  0.259200  0.515700  1.0  -0.5747
  O  O388  1  0.955500  0.335700  0.438100  1.0  -0.6467
  O  O389  1  0.525200  0.111900  0.180500  1.0  -0.5761
  O  O390  1  0.411000  0.091500  0.079100  1.0  -0.49
  O  O391  1  0.722800  0.321200  0.197200  1.0  -0.5955
  O  O392  1  0.809700  0.252500  0.286200  1.0  -0.5881
  O  O393  1  0.478700  0.240800  0.015700  1.0  -0.5752
  O  O394  1  0.455500  0.164300  0.938100  1.0  -0.6472
  O  O395  1  0.025200  0.611900  0.180500  1.0  -0.5761
  O  O396  1  0.911000  0.591500  0.079100  1.0  -0.49
  O  O397  1  0.222800  0.821200  0.197200  1.0  -0.5955
  O  O398  1  0.309700  0.752500  0.286200  1.0  -0.5881
  O  O399  1  0.978700  0.740800  0.015700  1.0  -0.5752
  O  O400  1  0.955500  0.664300  0.938100  1.0  -0.6472
  O  O401  1  0.474800  0.111900  0.319500  1.0  -0.5758
  O  O402  1  0.589000  0.091500  0.420900  1.0  -0.4919
  O  O403  1  0.277200  0.321200  0.302800  1.0  -0.5954
  O  O404  1  0.190300  0.252500  0.213800  1.0  -0.5875
  O  O405  1  0.521300  0.240800  0.484300  1.0  -0.5764
  O  O406  1  0.544500  0.164300  0.561900  1.0  -0.646
  O  O407  1  0.974800  0.611900  0.319500  1.0  -0.5758
  O  O408  1  0.089000  0.591500  0.420900  1.0  -0.4919
  O  O409  1  0.777200  0.821200  0.302800  1.0  -0.5954
  O  O410  1  0.690300  0.752500  0.213800  1.0  -0.5875
  O  O411  1  0.021300  0.740800  0.484300  1.0  -0.5764
  O  O412  1  0.044500  0.664300  0.561900  1.0  -0.646
