# generated using pymatgen
data_CuH8C14N2O5
_symmetry_space_group_name_H-M   'P 1'
_cell_length_a   13.88200000
_cell_length_b   13.36500000
_cell_length_c   14.20900000
_cell_angle_alpha   90.00000000
_cell_angle_beta   112.04600000
_cell_angle_gamma   90.00000000
_symmetry_Int_Tables_number   1
_chemical_formula_structural   CuH8C14N2O5
_chemical_formula_sum   'Cu4 H32 C56 N8 O20'
_cell_volume   2443.48311112
_cell_formula_units_Z   4
loop_
 _symmetry_equiv_pos_site_id
 _symmetry_equiv_pos_as_xyz
  1  'x, y, z'
loop_
 _atom_site_type_symbol
 _atom_site_label
 _atom_site_symmetry_multiplicity
 _atom_site_fract_x
 _atom_site_fract_y
 _atom_site_fract_z
 _atom_site_occupancy
 _atom_site_charge
  Cu  Cu1  1  0.599670  0.446860  0.051030  1.0  0.7867
  Cu  Cu2  1  0.400330  0.946860  0.448970  1.0  0.7861
  Cu  Cu3  1  0.400330  0.553140  0.948970  1.0  0.786
  Cu  Cu4  1  0.599670  0.053140  0.551030  1.0  0.7868
  H  H5  1  0.278000  0.741700  0.912400  1.0  0.1172
  H  H6  1  0.104800  0.793600  0.846100  1.0  0.124
  H  H7  1  0.013400  0.507300  0.784700  1.0  0.1302
  H  H8  1  0.185900  0.458000  0.840600  1.0  0.1033
  H  H9  1  0.743400  0.560300  0.864200  1.0  0.1187
  H  H10  1  0.481700  0.710000  0.709200  1.0  0.117
  H  H11  1  0.740400  0.761500  0.652400  1.0  0.126
  H  H12  1  0.882500  0.570900  0.800700  1.0  0.2689
  H  H13  1  0.722000  0.241700  0.587600  1.0  0.1183
  H  H14  1  0.895200  0.293600  0.653900  1.0  0.1244
  H  H15  1  0.986600  0.007300  0.715300  1.0  0.1304
  H  H16  1  0.814100  0.958000  0.659400  1.0  0.1039
  H  H17  1  0.256600  0.060300  0.635800  1.0  0.1186
  H  H18  1  0.518300  0.210000  0.790800  1.0  0.1164
  H  H19  1  0.259600  0.261500  0.847600  1.0  0.1253
  H  H20  1  0.117500  0.070900  0.699300  1.0  0.2688
  H  H21  1  0.722000  0.258300  0.087600  1.0  0.1184
  H  H22  1  0.895200  0.206400  0.153900  1.0  0.1246
  H  H23  1  0.986600  0.492700  0.215300  1.0  0.1302
  H  H24  1  0.814100  0.542000  0.159400  1.0  0.1037
  H  H25  1  0.256600  0.439700  0.135800  1.0  0.1194
  H  H26  1  0.518300  0.290000  0.290800  1.0  0.1165
  H  H27  1  0.259600  0.238500  0.347600  1.0  0.1254
  H  H28  1  0.117500  0.429100  0.199300  1.0  0.2665
  H  H29  1  0.278000  0.758300  0.412400  1.0  0.1178
  H  H30  1  0.104800  0.706400  0.346100  1.0  0.1242
  H  H31  1  0.013400  0.992700  0.284700  1.0  0.1306
  H  H32  1  0.185900  0.042000  0.340600  1.0  0.1028
  H  H33  1  0.743400  0.939700  0.364200  1.0  0.1191
  H  H34  1  0.481700  0.790000  0.209200  1.0  0.1172
  H  H35  1  0.740400  0.738500  0.152400  1.0  0.1263
  H  H36  1  0.882500  0.929100  0.300700  1.0  0.2664
  C  C37  1  0.224900  0.695300  0.884800  1.0  0.1197
  C  C38  1  0.121400  0.726100  0.846800  1.0  -0.0996
  C  C39  1  0.044700  0.656000  0.810600  1.0  -0.031
  C  C40  1  0.066600  0.554200  0.808600  1.0  -0.1738
  C  C41  1  0.169500  0.525200  0.843100  1.0  0.1586
  C  C42  1  0.934400  0.695300  0.774600  1.0  0.546
  C  C43  1  0.758200  0.655500  0.761700  1.0  0.2189
  C  C44  1  0.707500  0.606700  0.814700  1.0  -0.1148
  C  C45  1  0.604100  0.625200  0.795500  1.0  -0.1527
  C  C46  1  0.551300  0.696900  0.722200  1.0  0.0107
  C  C47  1  0.600400  0.748100  0.669200  1.0  -0.0702
  C  C48  1  0.706100  0.727900  0.688000  1.0  -0.1432
  C  C49  1  0.556200  0.576300  0.862700  1.0  0.7125
  C  C50  1  0.551900  0.833000  0.597900  1.0  0.719
  C  C51  1  0.775100  0.195300  0.615200  1.0  0.1199
  C  C52  1  0.878600  0.226100  0.653200  1.0  -0.0992
  C  C53  1  0.955300  0.156000  0.689400  1.0  -0.031
  C  C54  1  0.933400  0.054200  0.691400  1.0  -0.1738
  C  C55  1  0.830500  0.025200  0.656900  1.0  0.1579
  C  C56  1  0.065600  0.195300  0.725400  1.0  0.5463
  C  C57  1  0.241800  0.155500  0.738300  1.0  0.2187
  C  C58  1  0.292500  0.106700  0.685300  1.0  -0.1148
  C  C59  1  0.395900  0.125200  0.704500  1.0  -0.1526
  C  C60  1  0.448700  0.196900  0.777800  1.0  0.013
  C  C61  1  0.399600  0.248100  0.830800  1.0  -0.0704
  C  C62  1  0.293900  0.227900  0.812000  1.0  -0.1441
  C  C63  1  0.443800  0.076300  0.637300  1.0  0.7104
  C  C64  1  0.448100  0.333000  0.902100  1.0  0.7192
  C  C65  1  0.775100  0.304700  0.115200  1.0  0.1218
  C  C66  1  0.878600  0.273900  0.153200  1.0  -0.0991
  C  C67  1  0.955300  0.344000  0.189400  1.0  -0.031
  C  C68  1  0.933400  0.445800  0.191400  1.0  -0.1736
  C  C69  1  0.830500  0.474800  0.156900  1.0  0.1582
  C  C70  1  0.065600  0.304700  0.225400  1.0  0.5475
  C  C71  1  0.241800  0.344500  0.238300  1.0  0.2185
  C  C72  1  0.292500  0.393300  0.185300  1.0  -0.1145
  C  C73  1  0.395900  0.374800  0.204500  1.0  -0.1526
  C  C74  1  0.448700  0.303100  0.277800  1.0  0.0133
  C  C75  1  0.399600  0.251900  0.330800  1.0  -0.071
  C  C76  1  0.293900  0.272100  0.312000  1.0  -0.1449
  C  C77  1  0.443800  0.423700  0.137300  1.0  0.7107
  C  C78  1  0.448100  0.167000  0.402100  1.0  0.7191
  C  C79  1  0.224900  0.804700  0.384800  1.0  0.121
  C  C80  1  0.121400  0.773900  0.346800  1.0  -0.0997
  C  C81  1  0.044700  0.844000  0.310600  1.0  -0.0314
  C  C82  1  0.066600  0.945800  0.308600  1.0  -0.1738
  C  C83  1  0.169500  0.974800  0.343100  1.0  0.1584
  C  C84  1  0.934400  0.804700  0.274600  1.0  0.5468
  C  C85  1  0.758200  0.844500  0.261700  1.0  0.2187
  C  C86  1  0.707500  0.893300  0.314700  1.0  -0.1157
  C  C87  1  0.604100  0.874800  0.295500  1.0  -0.1521
  C  C88  1  0.551300  0.803100  0.222200  1.0  0.0111
  C  C89  1  0.600400  0.751900  0.169200  1.0  -0.0711
  C  C90  1  0.706100  0.772100  0.188000  1.0  -0.1436
  C  C91  1  0.556200  0.923700  0.362700  1.0  0.7124
  C  C92  1  0.551900  0.667000  0.097900  1.0  0.7191
  N  N93  1  0.248100  0.594100  0.881200  1.0  -0.312
  N  N94  1  0.862900  0.631200  0.782100  1.0  -0.3942
  N  N95  1  0.751900  0.094100  0.618800  1.0  -0.3056
  N  N96  1  0.137100  0.131200  0.717900  1.0  -0.3944
  N  N97  1  0.751900  0.405900  0.118800  1.0  -0.3049
  N  N98  1  0.137100  0.368800  0.217900  1.0  -0.3933
  N  N99  1  0.248100  0.905900  0.381200  1.0  -0.3109
  N  N100  1  0.862900  0.868800  0.282100  1.0  -0.3936
  O  O101  1  0.918000  0.783300  0.747500  1.0  -0.4968
  O  O102  1  0.609300  0.513300  0.923900  1.0  -0.5992
  O  O103  1  0.465600  0.602800  0.850800  1.0  -0.5845
  O  O104  1  0.459300  0.823500  0.538500  1.0  -0.5865
  O  O105  1  0.605900  0.908300  0.602300  1.0  -0.6205
  O  O106  1  0.082000  0.283300  0.752500  1.0  -0.4988
  O  O107  1  0.390700  0.013300  0.576100  1.0  -0.5986
  O  O108  1  0.534400  0.102800  0.649200  1.0  -0.5846
  O  O109  1  0.540700  0.323500  0.961500  1.0  -0.5864
  O  O110  1  0.394100  0.408300  0.897700  1.0  -0.6212
  O  O111  1  0.082000  0.216700  0.252500  1.0  -0.4999
  O  O112  1  0.390700  0.486700  0.076100  1.0  -0.5994
  O  O113  1  0.534400  0.397200  0.149200  1.0  -0.5844
  O  O114  1  0.540700  0.176500  0.461500  1.0  -0.5868
  O  O115  1  0.394100  0.091700  0.397700  1.0  -0.622
  O  O116  1  0.918000  0.716700  0.247500  1.0  -0.4986
  O  O117  1  0.609300  0.986700  0.423900  1.0  -0.5991
  O  O118  1  0.465600  0.897200  0.350800  1.0  -0.5849
  O  O119  1  0.459300  0.676500  0.038500  1.0  -0.5867
  O  O120  1  0.605900  0.591700  0.102300  1.0  -0.6209
