# generated using pymatgen
data_ZnH5C6(N2O)2
_symmetry_space_group_name_H-M   'P 1'
_cell_length_a   12.62450000
_cell_length_b   12.62450000
_cell_length_c   25.50020000
_cell_angle_alpha   90.00000000
_cell_angle_beta   90.00000000
_cell_angle_gamma   90.00000000
_symmetry_Int_Tables_number   1
_chemical_formula_structural   ZnH5C6(N2O)2
_chemical_formula_sum   'Zn16 H80 C96 N64 O32'
_cell_volume   4064.17088198
_cell_formula_units_Z   16
loop_
 _symmetry_equiv_pos_site_id
 _symmetry_equiv_pos_as_xyz
  1  'x, y, z'
loop_
 _atom_site_type_symbol
 _atom_site_label
 _atom_site_symmetry_multiplicity
 _atom_site_fract_x
 _atom_site_fract_y
 _atom_site_fract_z
 _atom_site_occupancy
 _atom_site_charge
  Zn  Zn1  1  0.540080  0.064620  0.562640  1.0  0.8246
  Zn  Zn2  1  0.959920  0.435380  0.562640  1.0  0.8249
  Zn  Zn3  1  0.435380  0.540080  0.562640  1.0  0.8231
  Zn  Zn4  1  0.064620  0.959920  0.562640  1.0  0.8239
  Zn  Zn5  1  0.959920  0.064620  0.937360  1.0  0.8248
  Zn  Zn6  1  0.540080  0.435380  0.937360  1.0  0.825
  Zn  Zn7  1  0.064620  0.540080  0.937360  1.0  0.8238
  Zn  Zn8  1  0.435380  0.959920  0.937360  1.0  0.8234
  Zn  Zn9  1  0.459920  0.935380  0.437360  1.0  0.825
  Zn  Zn10  1  0.040080  0.564620  0.437360  1.0  0.8247
  Zn  Zn11  1  0.564620  0.459920  0.437360  1.0  0.8239
  Zn  Zn12  1  0.935380  0.040080  0.437360  1.0  0.8232
  Zn  Zn13  1  0.040080  0.935380  0.062640  1.0  0.8249
  Zn  Zn14  1  0.459920  0.564620  0.062640  1.0  0.8247
  Zn  Zn15  1  0.935380  0.459920  0.062640  1.0  0.8233
  Zn  Zn16  1  0.564620  0.040080  0.062640  1.0  0.8237
  H  H17  1  0.682000  0.068800  0.833600  1.0  0.0902
  H  H18  1  0.568800  0.071300  0.762600  1.0  0.096
  H  H19  1  0.563700  0.226600  0.472600  1.0  0.0803
  H  H20  1  0.455200  0.359600  0.646800  1.0  0.3551
  H  H21  1  0.473700  0.243100  0.645500  1.0  0.348
  H  H22  1  0.818000  0.431200  0.833600  1.0  0.0901
  H  H23  1  0.931200  0.428700  0.762600  1.0  0.096
  H  H24  1  0.936300  0.273400  0.472600  1.0  0.0804
  H  H25  1  0.044800  0.140400  0.646800  1.0  0.3558
  H  H26  1  0.026300  0.256900  0.645500  1.0  0.3471
  H  H27  1  0.431200  0.682000  0.833600  1.0  0.0905
  H  H28  1  0.428700  0.568800  0.762600  1.0  0.0957
  H  H29  1  0.273400  0.563700  0.472600  1.0  0.0805
  H  H30  1  0.140400  0.455200  0.646800  1.0  0.3559
  H  H31  1  0.256900  0.473700  0.645500  1.0  0.3506
  H  H32  1  0.068800  0.818000  0.833600  1.0  0.0902
  H  H33  1  0.071300  0.931200  0.762600  1.0  0.0957
  H  H34  1  0.226600  0.936300  0.472600  1.0  0.0807
  H  H35  1  0.359600  0.044800  0.646800  1.0  0.3564
  H  H36  1  0.243100  0.026300  0.645500  1.0  0.3492
  H  H37  1  0.818000  0.068800  0.666400  1.0  0.0896
  H  H38  1  0.931200  0.071300  0.737400  1.0  0.0959
  H  H39  1  0.936300  0.226600  0.027400  1.0  0.0802
  H  H40  1  0.044800  0.359600  0.853200  1.0  0.3551
  H  H41  1  0.026300  0.243100  0.854500  1.0  0.3478
  H  H42  1  0.682000  0.431200  0.666400  1.0  0.0897
  H  H43  1  0.568800  0.428700  0.737400  1.0  0.096
  H  H44  1  0.563700  0.273400  0.027400  1.0  0.0802
  H  H45  1  0.455200  0.140400  0.853200  1.0  0.3541
  H  H46  1  0.473700  0.256900  0.854500  1.0  0.3471
  H  H47  1  0.068800  0.682000  0.666400  1.0  0.09
  H  H48  1  0.071300  0.568800  0.737400  1.0  0.0955
  H  H49  1  0.226600  0.563700  0.027400  1.0  0.0809
  H  H50  1  0.359600  0.455200  0.853200  1.0  0.3557
  H  H51  1  0.243100  0.473700  0.854500  1.0  0.3487
  H  H52  1  0.431200  0.818000  0.666400  1.0  0.0899
  H  H53  1  0.428700  0.931200  0.737400  1.0  0.096
  H  H54  1  0.273400  0.936300  0.027400  1.0  0.08
  H  H55  1  0.140400  0.044800  0.853200  1.0  0.3558
  H  H56  1  0.256900  0.026300  0.854500  1.0  0.3495
  H  H57  1  0.318000  0.931200  0.166400  1.0  0.0896
  H  H58  1  0.431200  0.928700  0.237400  1.0  0.0961
  H  H59  1  0.436300  0.773400  0.527400  1.0  0.0802
  H  H60  1  0.544800  0.640400  0.353200  1.0  0.3554
  H  H61  1  0.526300  0.756900  0.354500  1.0  0.3473
  H  H62  1  0.182000  0.568800  0.166400  1.0  0.0894
  H  H63  1  0.068800  0.571300  0.237400  1.0  0.0961
  H  H64  1  0.063700  0.726600  0.527400  1.0  0.0802
  H  H65  1  0.955200  0.859600  0.353200  1.0  0.355
  H  H66  1  0.973700  0.743100  0.354500  1.0  0.3474
  H  H67  1  0.568800  0.318000  0.166400  1.0  0.0898
  H  H68  1  0.571300  0.431200  0.237400  1.0  0.0958
  H  H69  1  0.726600  0.436300  0.527400  1.0  0.0803
  H  H70  1  0.859600  0.544800  0.353200  1.0  0.3562
  H  H71  1  0.743100  0.526300  0.354500  1.0  0.349
  H  H72  1  0.931200  0.182000  0.166400  1.0  0.09
  H  H73  1  0.928700  0.068800  0.237400  1.0  0.0957
  H  H74  1  0.773400  0.063700  0.527400  1.0  0.0805
  H  H75  1  0.640400  0.955200  0.353200  1.0  0.3557
  H  H76  1  0.756900  0.973700  0.354500  1.0  0.3497
  H  H77  1  0.182000  0.931200  0.333600  1.0  0.0902
  H  H78  1  0.068800  0.928700  0.262600  1.0  0.096
  H  H79  1  0.063700  0.773400  0.972600  1.0  0.0803
  H  H80  1  0.955200  0.640400  0.146800  1.0  0.3546
  H  H81  1  0.973700  0.756900  0.145500  1.0  0.3471
  H  H82  1  0.318000  0.568800  0.333600  1.0  0.0904
  H  H83  1  0.431200  0.571300  0.262600  1.0  0.0958
  H  H84  1  0.436300  0.726600  0.972600  1.0  0.0805
  H  H85  1  0.544800  0.859600  0.146800  1.0  0.3551
  H  H86  1  0.526300  0.743100  0.145500  1.0  0.3482
  H  H87  1  0.931200  0.318000  0.333600  1.0  0.0903
  H  H88  1  0.928700  0.431200  0.262600  1.0  0.096
  H  H89  1  0.773400  0.436300  0.972600  1.0  0.0804
  H  H90  1  0.640400  0.544800  0.146800  1.0  0.3555
  H  H91  1  0.756900  0.526300  0.145500  1.0  0.35
  H  H92  1  0.568800  0.182000  0.333600  1.0  0.0907
  H  H93  1  0.571300  0.068800  0.262600  1.0  0.0955
  H  H94  1  0.726600  0.063700  0.972600  1.0  0.0808
  H  H95  1  0.859600  0.955200  0.146800  1.0  0.3565
  H  H96  1  0.743100  0.973700  0.145500  1.0  0.3493
  C  C97  1  0.605200  0.068300  0.661100  1.0  0.6757
  C  C98  1  0.709800  0.069600  0.799800  1.0  -0.0484
  C  C99  1  0.682000  0.069900  0.707000  1.0  -0.1437
  C  C100  1  0.641700  0.070400  0.757300  1.0  -0.0561
  C  C101  1  0.497000  0.309500  0.578300  1.0  0.6518
  C  C102  1  0.542200  0.266100  0.501500  1.0  0.2757
  C  C103  1  0.894800  0.431700  0.661100  1.0  0.6759
  C  C104  1  0.790200  0.430400  0.799800  1.0  -0.0482
  C  C105  1  0.818000  0.430100  0.707000  1.0  -0.1434
  C  C106  1  0.858300  0.429600  0.757300  1.0  -0.0557
  C  C107  1  0.003000  0.190500  0.578300  1.0  0.6529
  C  C108  1  0.957800  0.233900  0.501500  1.0  0.2748
  C  C109  1  0.431700  0.605200  0.661100  1.0  0.6779
  C  C110  1  0.430400  0.709800  0.799800  1.0  -0.0493
  C  C111  1  0.430100  0.682000  0.707000  1.0  -0.1435
  C  C112  1  0.429600  0.641700  0.757300  1.0  -0.0551
  C  C113  1  0.190500  0.497000  0.578300  1.0  0.6546
  C  C114  1  0.233900  0.542200  0.501500  1.0  0.2743
  C  C115  1  0.068300  0.894800  0.661100  1.0  0.677
  C  C116  1  0.069600  0.790200  0.799800  1.0  -0.0493
  C  C117  1  0.069900  0.818000  0.707000  1.0  -0.1443
  C  C118  1  0.070400  0.858300  0.757300  1.0  -0.0545
  C  C119  1  0.309500  0.003000  0.578300  1.0  0.6543
  C  C120  1  0.266100  0.957800  0.501500  1.0  0.2758
  C  C121  1  0.894800  0.068300  0.838900  1.0  0.6763
  C  C122  1  0.790200  0.069600  0.700200  1.0  -0.0484
  C  C123  1  0.818000  0.069900  0.793000  1.0  -0.1445
  C  C124  1  0.858300  0.070400  0.742700  1.0  -0.0573
  C  C125  1  0.003000  0.309500  0.921700  1.0  0.6528
  C  C126  1  0.957800  0.266100  0.998500  1.0  0.2749
  C  C127  1  0.605200  0.431700  0.838900  1.0  0.6758
  C  C128  1  0.709800  0.430400  0.700200  1.0  -0.0485
  C  C129  1  0.682000  0.430100  0.793000  1.0  -0.1435
  C  C130  1  0.641700  0.429600  0.742700  1.0  -0.0573
  C  C131  1  0.497000  0.190500  0.921700  1.0  0.6517
  C  C132  1  0.542200  0.233900  0.998500  1.0  0.2754
  C  C133  1  0.068300  0.605200  0.838900  1.0  0.6766
  C  C134  1  0.069600  0.709800  0.700200  1.0  -0.0491
  C  C135  1  0.069900  0.682000  0.793000  1.0  -0.1446
  C  C136  1  0.070400  0.641700  0.742700  1.0  -0.0566
  C  C137  1  0.309500  0.497000  0.921700  1.0  0.6547
  C  C138  1  0.266100  0.542200  0.998500  1.0  0.275
  C  C139  1  0.431700  0.894800  0.838900  1.0  0.6781
  C  C140  1  0.430400  0.790200  0.700200  1.0  -0.0494
  C  C141  1  0.430100  0.818000  0.793000  1.0  -0.1446
  C  C142  1  0.429600  0.858300  0.742700  1.0  -0.0561
  C  C143  1  0.190500  0.003000  0.921700  1.0  0.6541
  C  C144  1  0.233900  0.957800  0.998500  1.0  0.2745
  C  C145  1  0.394800  0.931700  0.338900  1.0  0.6758
  C  C146  1  0.290200  0.930400  0.200200  1.0  -0.0487
  C  C147  1  0.318000  0.930100  0.293000  1.0  -0.1438
  C  C148  1  0.358300  0.929600  0.242700  1.0  -0.0559
  C  C149  1  0.503000  0.690500  0.421700  1.0  0.6528
  C  C150  1  0.457800  0.733900  0.498500  1.0  0.2744
  C  C151  1  0.105200  0.568300  0.338900  1.0  0.6762
  C  C152  1  0.209800  0.569600  0.200200  1.0  -0.0486
  C  C153  1  0.182000  0.569900  0.293000  1.0  -0.1444
  C  C154  1  0.141700  0.570400  0.242700  1.0  -0.0562
  C  C155  1  0.997000  0.809500  0.421700  1.0  0.6517
  C  C156  1  0.042200  0.766100  0.498500  1.0  0.2759
  C  C157  1  0.568300  0.394800  0.338900  1.0  0.6768
  C  C158  1  0.569600  0.290200  0.200200  1.0  -0.0494
  C  C159  1  0.569900  0.318000  0.293000  1.0  -0.1452
  C  C160  1  0.570400  0.358300  0.242700  1.0  -0.0547
  C  C161  1  0.809500  0.503000  0.421700  1.0  0.6543
  C  C162  1  0.766100  0.457800  0.498500  1.0  0.275
  C  C163  1  0.931700  0.105200  0.338900  1.0  0.6775
  C  C164  1  0.930400  0.209800  0.200200  1.0  -0.0494
  C  C165  1  0.930100  0.182000  0.293000  1.0  -0.1439
  C  C166  1  0.929600  0.141700  0.242700  1.0  -0.0553
  C  C167  1  0.690500  0.997000  0.421700  1.0  0.6545
  C  C168  1  0.733900  0.042200  0.498500  1.0  0.2743
  C  C169  1  0.105200  0.931700  0.161100  1.0  0.6758
  C  C170  1  0.209800  0.930400  0.299800  1.0  -0.0485
  C  C171  1  0.182000  0.930100  0.207000  1.0  -0.1434
  C  C172  1  0.141700  0.929600  0.257300  1.0  -0.0572
  C  C173  1  0.997000  0.690500  0.078300  1.0  0.6517
  C  C174  1  0.042200  0.733900  0.001500  1.0  0.2755
  C  C175  1  0.394800  0.568300  0.161100  1.0  0.676
  C  C176  1  0.290200  0.569600  0.299800  1.0  -0.0478
  C  C177  1  0.318000  0.569900  0.207000  1.0  -0.1436
  C  C178  1  0.358300  0.570400  0.257300  1.0  -0.0572
  C  C179  1  0.503000  0.809500  0.078300  1.0  0.6529
  C  C180  1  0.457800  0.766100  0.001500  1.0  0.2752
  C  C181  1  0.931700  0.394800  0.161100  1.0  0.678
  C  C182  1  0.930400  0.290200  0.299800  1.0  -0.0491
  C  C183  1  0.930100  0.318000  0.207000  1.0  -0.1432
  C  C184  1  0.929600  0.358300  0.257300  1.0  -0.0558
  C  C185  1  0.690500  0.503000  0.078300  1.0  0.6542
  C  C186  1  0.733900  0.457800  0.001500  1.0  0.2746
  C  C187  1  0.568300  0.105200  0.161100  1.0  0.677
  C  C188  1  0.569600  0.209800  0.299800  1.0  -0.0493
  C  C189  1  0.569900  0.182000  0.207000  1.0  -0.1453
  C  C190  1  0.570400  0.141700  0.257300  1.0  -0.0563
  C  C191  1  0.809500  0.997000  0.078300  1.0  0.6547
  C  C192  1  0.766100  0.042200  0.001500  1.0  0.2755
  N  N193  1  0.472300  0.303300  0.629800  1.0  -0.7254
  N  N194  1  0.524100  0.223500  0.549060  1.0  -0.5526
  N  N195  1  0.526600  0.368800  0.499890  1.0  -0.3053
  N  N196  1  0.497100  0.397800  0.551010  1.0  -0.3764
  N  N197  1  0.027700  0.196700  0.629800  1.0  -0.7264
  N  N198  1  0.975900  0.276500  0.549060  1.0  -0.5521
  N  N199  1  0.973400  0.131200  0.499890  1.0  -0.3054
  N  N200  1  0.002900  0.102200  0.551010  1.0  -0.3778
  N  N201  1  0.196700  0.472300  0.629800  1.0  -0.7258
  N  N202  1  0.276500  0.524100  0.549060  1.0  -0.5508
  N  N203  1  0.131200  0.526600  0.499890  1.0  -0.3048
  N  N204  1  0.102200  0.497100  0.551010  1.0  -0.3788
  N  N205  1  0.303300  0.027700  0.629800  1.0  -0.7259
  N  N206  1  0.223500  0.975900  0.549060  1.0  -0.5535
  N  N207  1  0.368800  0.973400  0.499890  1.0  -0.3046
  N  N208  1  0.397800  0.002900  0.551010  1.0  -0.3779
  N  N209  1  0.027700  0.303300  0.870200  1.0  -0.7258
  N  N210  1  0.975900  0.223500  0.950940  1.0  -0.5522
  N  N211  1  0.973400  0.368800  0.000110  1.0  -0.3051
  N  N212  1  0.002900  0.397800  0.948990  1.0  -0.3763
  N  N213  1  0.472300  0.196700  0.870200  1.0  -0.7243
  N  N214  1  0.524100  0.276500  0.950940  1.0  -0.5525
  N  N215  1  0.526600  0.131200  0.000110  1.0  -0.3056
  N  N216  1  0.497100  0.102200  0.948990  1.0  -0.3783
  N  N217  1  0.303300  0.472300  0.870200  1.0  -0.7246
  N  N218  1  0.223500  0.524100  0.950940  1.0  -0.5533
  N  N219  1  0.368800  0.526600  0.000110  1.0  -0.3042
  N  N220  1  0.397800  0.497100  0.948990  1.0  -0.3781
  N  N221  1  0.196700  0.027700  0.870200  1.0  -0.7256
  N  N222  1  0.276500  0.975900  0.950940  1.0  -0.551
  N  N223  1  0.131200  0.973400  0.000110  1.0  -0.3055
  N  N224  1  0.102200  0.002900  0.948990  1.0  -0.3786
  N  N225  1  0.527700  0.696700  0.370200  1.0  -0.7256
  N  N226  1  0.475900  0.776500  0.450940  1.0  -0.5521
  N  N227  1  0.473400  0.631200  0.500110  1.0  -0.305
  N  N228  1  0.502900  0.602200  0.448990  1.0  -0.3778
  N  N229  1  0.972300  0.803300  0.370200  1.0  -0.7245
  N  N230  1  0.024100  0.723500  0.450940  1.0  -0.5526
  N  N231  1  0.026600  0.868800  0.500110  1.0  -0.3059
  N  N232  1  0.997100  0.897800  0.448990  1.0  -0.3766
  N  N233  1  0.803300  0.527700  0.370200  1.0  -0.725
  N  N234  1  0.723500  0.475900  0.450940  1.0  -0.5531
  N  N235  1  0.868800  0.473400  0.500110  1.0  -0.3049
  N  N236  1  0.897800  0.502900  0.448990  1.0  -0.3781
  N  N237  1  0.696700  0.972300  0.370200  1.0  -0.7254
  N  N238  1  0.776500  0.024100  0.450940  1.0  -0.5509
  N  N239  1  0.631200  0.026600  0.500110  1.0  -0.3049
  N  N240  1  0.602200  0.997100  0.448990  1.0  -0.3786
  N  N241  1  0.972300  0.696700  0.129800  1.0  -0.7255
  N  N242  1  0.024100  0.776500  0.049060  1.0  -0.5526
  N  N243  1  0.026600  0.631200  0.999890  1.0  -0.3056
  N  N244  1  0.997100  0.602200  0.051010  1.0  -0.3783
  N  N245  1  0.527700  0.803300  0.129800  1.0  -0.7262
  N  N246  1  0.475900  0.723500  0.049060  1.0  -0.5521
  N  N247  1  0.473400  0.868800  0.999890  1.0  -0.305
  N  N248  1  0.502900  0.897800  0.051010  1.0  -0.3762
  N  N249  1  0.696700  0.527700  0.129800  1.0  -0.7263
  N  N250  1  0.776500  0.475900  0.049060  1.0  -0.551
  N  N251  1  0.631200  0.473400  0.999890  1.0  -0.3048
  N  N252  1  0.602200  0.502900  0.051010  1.0  -0.3786
  N  N253  1  0.803300  0.972300  0.129800  1.0  -0.7252
  N  N254  1  0.723500  0.024100  0.049060  1.0  -0.5535
  N  N255  1  0.868800  0.026600  0.999890  1.0  -0.3044
  N  N256  1  0.897800  0.997100  0.051010  1.0  -0.378
  O  O257  1  0.510700  0.086400  0.668100  1.0  -0.5955
  O  O258  1  0.644900  0.047000  0.617000  1.0  -0.5946
  O  O259  1  0.989300  0.413600  0.668100  1.0  -0.5968
  O  O260  1  0.855100  0.453000  0.617000  1.0  -0.5941
  O  O261  1  0.413600  0.510700  0.668100  1.0  -0.5952
  O  O262  1  0.453000  0.644900  0.617000  1.0  -0.5947
  O  O263  1  0.086400  0.989300  0.668100  1.0  -0.5952
  O  O264  1  0.047000  0.855100  0.617000  1.0  -0.5957
  O  O265  1  0.989300  0.086400  0.831900  1.0  -0.5969
  O  O266  1  0.855100  0.047000  0.883000  1.0  -0.5938
  O  O267  1  0.510700  0.413600  0.831900  1.0  -0.5958
  O  O268  1  0.644900  0.453000  0.883000  1.0  -0.5929
  O  O269  1  0.086400  0.510700  0.831900  1.0  -0.5958
  O  O270  1  0.047000  0.644900  0.883000  1.0  -0.5945
  O  O271  1  0.413600  0.989300  0.831900  1.0  -0.5951
  O  O272  1  0.453000  0.855100  0.883000  1.0  -0.594
  O  O273  1  0.489300  0.913600  0.331900  1.0  -0.5971
  O  O274  1  0.355100  0.953000  0.383000  1.0  -0.5935
  O  O275  1  0.010700  0.586400  0.331900  1.0  -0.5955
  O  O276  1  0.144900  0.547000  0.383000  1.0  -0.5924
  O  O277  1  0.586400  0.489300  0.331900  1.0  -0.5952
  O  O278  1  0.547000  0.355100  0.383000  1.0  -0.5939
  O  O279  1  0.913600  0.010700  0.331900  1.0  -0.5958
  O  O280  1  0.953000  0.144900  0.383000  1.0  -0.594
  O  O281  1  0.010700  0.913600  0.168100  1.0  -0.5956
  O  O282  1  0.144900  0.953000  0.117000  1.0  -0.5936
  O  O283  1  0.489300  0.586400  0.168100  1.0  -0.5967
  O  O284  1  0.355100  0.547000  0.117000  1.0  -0.5949
  O  O285  1  0.913600  0.489300  0.168100  1.0  -0.5951
  O  O286  1  0.953000  0.355100  0.117000  1.0  -0.5954
  O  O287  1  0.586400  0.010700  0.168100  1.0  -0.5953
  O  O288  1  0.547000  0.144900  0.117000  1.0  -0.5948
