# generated using pymatgen
data_Ni3P4H30C30(N4O7)2
_symmetry_space_group_name_H-M   'P 1'
_cell_length_a   8.94400000
_cell_length_b   10.77600000
_cell_length_c   13.78900000
_cell_angle_alpha   68.76800000
_cell_angle_beta   78.14200000
_cell_angle_gamma   79.99100000
_symmetry_Int_Tables_number   1
_chemical_formula_structural   Ni3P4H30C30(N4O7)2
_chemical_formula_sum   'Ni3 P4 H30 C30 N8 O14'
_cell_volume   1205.12916430
_cell_formula_units_Z   1
loop_
 _symmetry_equiv_pos_site_id
 _symmetry_equiv_pos_as_xyz
  1  'x, y, z'
loop_
 _atom_site_type_symbol
 _atom_site_label
 _atom_site_symmetry_multiplicity
 _atom_site_fract_x
 _atom_site_fract_y
 _atom_site_fract_z
 _atom_site_occupancy
 _atom_site_charge
  Ni  Ni1  1  0.310620  0.900130  0.149130  1.0  0.8146
  Ni  Ni2  1  0.689380  0.099870  0.850870  1.0  0.8133
  Ni  Ni3  1  0.500000  0.500000  0.000000  1.0  0.8582
  P  P4  1  0.532050  0.818940  0.967690  1.0  1.3227
  P  P5  1  0.217610  0.716960  0.049870  1.0  1.4288
  P  P6  1  0.467950  0.181060  0.032310  1.0  1.3218
  P  P7  1  0.782390  0.283040  0.950130  1.0  1.4275
  H  H8  1  0.225900  0.048800  0.954600  1.0  0.3624
  H  H9  1  0.024700  0.748800  0.981800  1.0  0.3986
  H  H10  1  0.362200  0.972100  0.796400  1.0  0.1289
  H  H11  1  0.354800  0.821800  0.813100  1.0  0.1307
  H  H12  1  0.042000  0.059000  0.886900  1.0  0.1201
  H  H13  1  0.879000  0.921900  0.707400  1.0  0.1134
  H  H14  1  0.146000  0.820400  0.715900  1.0  0.1442
  H  H15  1  0.324400  0.633000  0.326300  1.0  0.0828
  H  H16  1  0.349900  0.541800  0.501900  1.0  0.1277
  H  H17  1  0.449300  0.897300  0.484600  1.0  0.1213
  H  H18  1  0.401300  0.983100  0.314600  1.0  0.0983
  H  H19  1  0.308200  0.456100  0.858900  1.0  0.0967
  H  H20  1  0.268700  0.530500  0.685700  1.0  0.1227
  H  H21  1  0.622500  0.748500  0.607200  1.0  0.1235
  H  H22  1  0.660100  0.663200  0.780300  1.0  0.1062
  H  H23  1  0.774100  0.951200  0.045400  1.0  0.3622
  H  H24  1  0.975300  0.251200  0.018200  1.0  0.3972
  H  H25  1  0.637800  0.027900  0.203600  1.0  0.1298
  H  H26  1  0.645200  0.178200  0.186900  1.0  0.1308
  H  H27  1  0.958000  0.941000  0.113100  1.0  0.1201
  H  H28  1  0.121000  0.078100  0.292600  1.0  0.1129
  H  H29  1  0.854000  0.179600  0.284100  1.0  0.1446
  H  H30  1  0.675600  0.367000  0.673700  1.0  0.0825
  H  H31  1  0.650100  0.458200  0.498100  1.0  0.1279
  H  H32  1  0.550700  0.102700  0.515400  1.0  0.1222
  H  H33  1  0.598700  0.016900  0.685400  1.0  0.0989
  H  H34  1  0.691800  0.543900  0.141100  1.0  0.0978
  H  H35  1  0.731300  0.469500  0.314300  1.0  0.1228
  H  H36  1  0.377500  0.251500  0.392800  1.0  0.1239
  H  H37  1  0.339900  0.336800  0.219700  1.0  0.1055
  C  C38  1  0.324000  0.857100  0.953100  1.0  -0.2046
  C  C39  1  0.306100  0.895500  0.837100  1.0  -0.1444
  C  C40  1  0.033500  0.012300  0.843600  1.0  0.1594
  C  C41  1  0.945100  0.936900  0.745000  1.0  0.0352
  C  C42  1  0.093100  0.879900  0.749300  1.0  -0.1345
  C  C43  1  0.347800  0.687700  0.358700  1.0  0.2003
  C  C44  1  0.367000  0.630500  0.464600  1.0  -0.198
  C  C45  1  0.411500  0.706800  0.513500  1.0  0.1234
  C  C46  1  0.423000  0.841200  0.454500  1.0  -0.1771
  C  C47  1  0.395700  0.892300  0.351500  1.0  0.1378
  C  C48  1  0.371800  0.515600  0.807900  1.0  0.1755
  C  C49  1  0.347300  0.560600  0.703400  1.0  -0.1375
  C  C50  1  0.440200  0.650600  0.625400  1.0  0.1089
  C  C51  1  0.557500  0.688900  0.656700  1.0  -0.1773
  C  C52  1  0.578400  0.638600  0.761600  1.0  0.1608
  C  C53  1  0.676000  0.142900  0.046900  1.0  -0.2048
  C  C54  1  0.693900  0.104500  0.162900  1.0  -0.1408
  C  C55  1  0.966500  0.987700  0.156400  1.0  0.158
  C  C56  1  0.054900  0.063100  0.255000  1.0  0.0353
  C  C57  1  0.906900  0.120100  0.250700  1.0  -0.1336
  C  C58  1  0.652200  0.312300  0.641300  1.0  0.2014
  C  C59  1  0.633000  0.369500  0.535400  1.0  -0.1984
  C  C60  1  0.588500  0.293200  0.486500  1.0  0.1245
  C  C61  1  0.577000  0.158800  0.545500  1.0  -0.1771
  C  C62  1  0.604300  0.107700  0.648500  1.0  0.1366
  C  C63  1  0.628200  0.484400  0.192100  1.0  0.1756
  C  C64  1  0.652700  0.439400  0.296600  1.0  -0.137
  C  C65  1  0.559800  0.349400  0.374600  1.0  0.1084
  C  C66  1  0.442500  0.311100  0.343300  1.0  -0.1787
  C  C67  1  0.421600  0.361400  0.238400  1.0  0.1606
  N  N68  1  0.907700  0.020000  0.804400  1.0  -0.3837
  N  N69  1  0.148000  0.928300  0.813000  1.0  0.0286
  N  N70  1  0.360900  0.814700  0.302200  1.0  -0.3113
  N  N71  1  0.484400  0.555300  0.837600  1.0  -0.3298
  N  N72  1  0.092300  0.980000  0.195600  1.0  -0.3858
  N  N73  1  0.852000  0.071700  0.187000  1.0  0.031
  N  N74  1  0.639100  0.185300  0.697800  1.0  -0.3115
  N  N75  1  0.515600  0.444700  0.162400  1.0  -0.3297
  O  O76  1  0.266600  0.972100  0.988900  1.0  -0.5762
  O  O77  1  0.589200  0.676700  0.968200  1.0  -0.805
  O  O78  1  0.532400  0.840300  0.072500  1.0  -0.8026
  O  O79  1  0.613100  0.923100  0.872400  1.0  -0.7972
  O  O80  1  0.038700  0.751200  0.040200  1.0  -0.6613
  O  O81  1  0.275900  0.590900  0.023700  1.0  -0.7846
  O  O82  1  0.234200  0.723100  0.154800  1.0  -0.7756
  O  O83  1  0.733400  0.027900  0.011100  1.0  -0.5787
  O  O84  1  0.410800  0.323300  0.031800  1.0  -0.8055
  O  O85  1  0.467600  0.159700  0.927500  1.0  -0.8029
  O  O86  1  0.386900  0.076900  0.127600  1.0  -0.7975
  O  O87  1  0.961300  0.248800  0.959800  1.0  -0.6631
  O  O88  1  0.724100  0.409100  0.976300  1.0  -0.7851
  O  O89  1  0.765800  0.276900  0.845200  1.0  -0.7739
