# generated using pymatgen
data_CdH4(CN)8
_symmetry_space_group_name_H-M   'P 1'
_cell_length_a   16.56110000
_cell_length_b   16.56110000
_cell_length_c   22.31200000
_cell_angle_alpha   90.00000000
_cell_angle_beta   90.00000000
_cell_angle_gamma   90.00000000
_symmetry_Int_Tables_number   1
_chemical_formula_structural   CdH4(CN)8
_chemical_formula_sum   'Cd8 H32 C64 N64'
_cell_volume   6119.51298098
_cell_formula_units_Z   8
loop_
 _symmetry_equiv_pos_site_id
 _symmetry_equiv_pos_as_xyz
  1  'x, y, z'
loop_
 _atom_site_type_symbol
 _atom_site_label
 _atom_site_symmetry_multiplicity
 _atom_site_fract_x
 _atom_site_fract_y
 _atom_site_fract_z
 _atom_site_occupancy
 _atom_site_charge
  Cd  Cd1  1  0.000000  0.828900  0.000000  1.0  0.8109
  Cd  Cd2  1  0.500000  0.328900  0.500000  1.0  0.8122
  Cd  Cd3  1  0.000000  0.171100  0.000000  1.0  0.8114
  Cd  Cd4  1  0.500000  0.671100  0.500000  1.0  0.8128
  Cd  Cd5  1  0.171100  0.000000  0.000000  1.0  0.8112
  Cd  Cd6  1  0.671100  0.500000  0.500000  1.0  0.8126
  Cd  Cd7  1  0.828900  0.000000  0.000000  1.0  0.812
  Cd  Cd8  1  0.328900  0.500000  0.500000  1.0  0.8132
  H  H9  1  0.138800  0.696500  0.792800  1.0  0.0971
  H  H10  1  0.638800  0.196500  0.292800  1.0  0.0971
  H  H11  1  0.861200  0.303500  0.792800  1.0  0.0968
  H  H12  1  0.361200  0.803500  0.292800  1.0  0.0968
  H  H13  1  0.303500  0.138800  0.792800  1.0  0.0959
  H  H14  1  0.803500  0.638800  0.292800  1.0  0.0959
  H  H15  1  0.696500  0.861200  0.792800  1.0  0.0969
  H  H16  1  0.196500  0.361200  0.292800  1.0  0.0969
  H  H17  1  0.861200  0.696500  0.207200  1.0  0.0965
  H  H18  1  0.361200  0.196500  0.707200  1.0  0.0965
  H  H19  1  0.138800  0.303500  0.207200  1.0  0.0975
  H  H20  1  0.638800  0.803500  0.707200  1.0  0.0975
  H  H21  1  0.696500  0.138800  0.207200  1.0  0.0964
  H  H22  1  0.196500  0.638800  0.707200  1.0  0.0964
  H  H23  1  0.303500  0.861200  0.207200  1.0  0.097
  H  H24  1  0.803500  0.361200  0.707200  1.0  0.097
  H  H25  1  0.861200  0.303500  0.207200  1.0  0.0973
  H  H26  1  0.361200  0.803500  0.707200  1.0  0.0973
  H  H27  1  0.138800  0.696500  0.207200  1.0  0.0972
  H  H28  1  0.638800  0.196500  0.707200  1.0  0.0972
  H  H29  1  0.696500  0.861200  0.207200  1.0  0.0971
  H  H30  1  0.196500  0.361200  0.707200  1.0  0.0971
  H  H31  1  0.303500  0.138800  0.207200  1.0  0.0964
  H  H32  1  0.803500  0.638800  0.707200  1.0  0.0964
  H  H33  1  0.138800  0.303500  0.792800  1.0  0.0973
  H  H34  1  0.638800  0.803500  0.292800  1.0  0.0973
  H  H35  1  0.861200  0.696500  0.792800  1.0  0.0962
  H  H36  1  0.361200  0.196500  0.292800  1.0  0.0962
  H  H37  1  0.303500  0.861200  0.792800  1.0  0.0963
  H  H38  1  0.803500  0.361200  0.292800  1.0  0.0963
  H  H39  1  0.696500  0.138800  0.792800  1.0  0.0965
  H  H40  1  0.196500  0.638800  0.292800  1.0  0.0965
  C  C41  1  0.184300  0.719600  0.775500  1.0  -0.0622
  C  C42  1  0.684300  0.219600  0.275500  1.0  -0.0619
  C  C43  1  0.815700  0.280400  0.775500  1.0  -0.0647
  C  C44  1  0.315700  0.780400  0.275500  1.0  -0.0644
  C  C45  1  0.280400  0.184300  0.775500  1.0  -0.0629
  C  C46  1  0.780400  0.684300  0.275500  1.0  -0.0629
  C  C47  1  0.719600  0.815700  0.775500  1.0  -0.0645
  C  C48  1  0.219600  0.315700  0.275500  1.0  -0.0643
  C  C49  1  0.815700  0.719600  0.224500  1.0  -0.0634
  C  C50  1  0.315700  0.219600  0.724500  1.0  -0.062
  C  C51  1  0.184300  0.280400  0.224500  1.0  -0.0652
  C  C52  1  0.684300  0.780400  0.724500  1.0  -0.0652
  C  C53  1  0.719600  0.184300  0.224500  1.0  -0.0646
  C  C54  1  0.219600  0.684300  0.724500  1.0  -0.0632
  C  C55  1  0.280400  0.815700  0.224500  1.0  -0.0639
  C  C56  1  0.780400  0.315700  0.724500  1.0  -0.0625
  C  C57  1  0.815700  0.280400  0.224500  1.0  -0.0643
  C  C58  1  0.315700  0.780400  0.724500  1.0  -0.0672
  C  C59  1  0.184300  0.719600  0.224500  1.0  -0.0618
  C  C60  1  0.684300  0.219600  0.724500  1.0  -0.0651
  C  C61  1  0.719600  0.815700  0.224500  1.0  -0.0635
  C  C62  1  0.219600  0.315700  0.724500  1.0  -0.0669
  C  C63  1  0.280400  0.184300  0.224500  1.0  -0.0627
  C  C64  1  0.780400  0.684300  0.724500  1.0  -0.0627
  C  C65  1  0.184300  0.280400  0.775500  1.0  -0.0645
  C  C66  1  0.684300  0.780400  0.275500  1.0  -0.0645
  C  C67  1  0.815700  0.719600  0.775500  1.0  -0.0615
  C  C68  1  0.315700  0.219600  0.275500  1.0  -0.0633
  C  C69  1  0.280400  0.815700  0.775500  1.0  -0.0631
  C  C70  1  0.780400  0.315700  0.275500  1.0  -0.0649
  C  C71  1  0.719600  0.184300  0.775500  1.0  -0.063
  C  C72  1  0.219600  0.684300  0.275500  1.0  -0.0649
  C  C73  1  0.215600  0.784400  0.798200  1.0  0.0333
  C  C74  1  0.177900  0.822100  0.854000  1.0  0.2492
  C  C75  1  0.715600  0.284400  0.298200  1.0  0.0333
  C  C76  1  0.677900  0.322100  0.354000  1.0  0.2492
  C  C77  1  0.784400  0.215600  0.798200  1.0  0.0334
  C  C78  1  0.822100  0.177900  0.854000  1.0  0.2496
  C  C79  1  0.284400  0.715600  0.298200  1.0  0.0334
  C  C80  1  0.322100  0.677900  0.354000  1.0  0.2496
  C  C81  1  0.215600  0.215600  0.798200  1.0  0.0331
  C  C82  1  0.177900  0.177900  0.854000  1.0  0.2497
  C  C83  1  0.715600  0.715600  0.298200  1.0  0.0331
  C  C84  1  0.677900  0.677900  0.354000  1.0  0.2497
  C  C85  1  0.784400  0.784400  0.798200  1.0  0.0335
  C  C86  1  0.822100  0.822100  0.854000  1.0  0.2492
  C  C87  1  0.284400  0.284400  0.298200  1.0  0.0335
  C  C88  1  0.322100  0.322100  0.354000  1.0  0.2492
  C  C89  1  0.784400  0.784400  0.201800  1.0  0.0337
  C  C90  1  0.822100  0.822100  0.146000  1.0  0.2498
  C  C91  1  0.284400  0.284400  0.701800  1.0  0.0337
  C  C92  1  0.322100  0.322100  0.646000  1.0  0.2498
  C  C93  1  0.215600  0.215600  0.201800  1.0  0.0328
  C  C94  1  0.177900  0.177900  0.146000  1.0  0.2505
  C  C95  1  0.715600  0.715600  0.701800  1.0  0.0328
  C  C96  1  0.677900  0.677900  0.646000  1.0  0.2505
  C  C97  1  0.784400  0.215600  0.201800  1.0  0.033
  C  C98  1  0.822100  0.177900  0.146000  1.0  0.2502
  C  C99  1  0.284400  0.715600  0.701800  1.0  0.033
  C  C100  1  0.322100  0.677900  0.646000  1.0  0.2502
  C  C101  1  0.215600  0.784400  0.201800  1.0  0.0335
  C  C102  1  0.177900  0.822100  0.146000  1.0  0.25
  C  C103  1  0.715600  0.284400  0.701800  1.0  0.0335
  C  C104  1  0.677900  0.322100  0.646000  1.0  0.25
  N  N105  1  0.102600  0.841600  0.927800  1.0  -0.0611
  N  N106  1  0.110800  0.795200  0.882400  1.0  -0.3153
  N  N107  1  0.602600  0.341600  0.427800  1.0  -0.0611
  N  N108  1  0.610800  0.295200  0.382400  1.0  -0.3153
  N  N109  1  0.897400  0.158400  0.927800  1.0  -0.0612
  N  N110  1  0.889200  0.204800  0.882400  1.0  -0.3168
  N  N111  1  0.397400  0.658400  0.427800  1.0  -0.0612
  N  N112  1  0.389200  0.704800  0.382400  1.0  -0.3168
  N  N113  1  0.158400  0.102600  0.927800  1.0  -0.0615
  N  N114  1  0.204800  0.110800  0.882400  1.0  -0.3146
  N  N115  1  0.658400  0.602600  0.427800  1.0  -0.0615
  N  N116  1  0.704800  0.610800  0.382400  1.0  -0.3146
  N  N117  1  0.841600  0.897400  0.927800  1.0  -0.0618
  N  N118  1  0.795200  0.889200  0.882400  1.0  -0.3157
  N  N119  1  0.341600  0.397400  0.427800  1.0  -0.0618
  N  N120  1  0.295200  0.389200  0.382400  1.0  -0.3157
  N  N121  1  0.897400  0.841600  0.072200  1.0  -0.0637
  N  N122  1  0.889200  0.795200  0.117600  1.0  -0.3154
  N  N123  1  0.397400  0.341600  0.572200  1.0  -0.0637
  N  N124  1  0.389200  0.295200  0.617600  1.0  -0.3154
  N  N125  1  0.102600  0.158400  0.072200  1.0  -0.0622
  N  N126  1  0.110800  0.204800  0.117600  1.0  -0.3153
  N  N127  1  0.602600  0.658400  0.572200  1.0  -0.0622
  N  N128  1  0.610800  0.704800  0.617600  1.0  -0.3153
  N  N129  1  0.841600  0.102600  0.072200  1.0  -0.0635
  N  N130  1  0.795200  0.110800  0.117600  1.0  -0.3147
  N  N131  1  0.341600  0.602600  0.572200  1.0  -0.0635
  N  N132  1  0.295200  0.610800  0.617600  1.0  -0.3147
  N  N133  1  0.158400  0.897400  0.072200  1.0  -0.0635
  N  N134  1  0.204800  0.889200  0.117600  1.0  -0.3151
  N  N135  1  0.658400  0.397400  0.572200  1.0  -0.0635
  N  N136  1  0.704800  0.389200  0.617600  1.0  -0.3151
  N  N137  1  0.897400  0.158400  0.072200  1.0  -0.0631
  N  N138  1  0.889200  0.204800  0.117600  1.0  -0.3154
  N  N139  1  0.397400  0.658400  0.572200  1.0  -0.0631
  N  N140  1  0.389200  0.704800  0.617600  1.0  -0.3154
  N  N141  1  0.102600  0.841600  0.072200  1.0  -0.0628
  N  N142  1  0.110800  0.795200  0.117600  1.0  -0.3148
  N  N143  1  0.602600  0.341600  0.572200  1.0  -0.0628
  N  N144  1  0.610800  0.295200  0.617600  1.0  -0.3148
  N  N145  1  0.841600  0.897400  0.072200  1.0  -0.0645
  N  N146  1  0.795200  0.889200  0.117600  1.0  -0.3142
  N  N147  1  0.341600  0.397400  0.572200  1.0  -0.0645
  N  N148  1  0.295200  0.389200  0.617600  1.0  -0.3142
  N  N149  1  0.158400  0.102600  0.072200  1.0  -0.0625
  N  N150  1  0.204800  0.110800  0.117600  1.0  -0.3142
  N  N151  1  0.658400  0.602600  0.572200  1.0  -0.0625
  N  N152  1  0.704800  0.610800  0.617600  1.0  -0.3142
  N  N153  1  0.102600  0.158400  0.927800  1.0  -0.061
  N  N154  1  0.110800  0.204800  0.882400  1.0  -0.316
  N  N155  1  0.602600  0.658400  0.427800  1.0  -0.061
  N  N156  1  0.610800  0.704800  0.382400  1.0  -0.316
  N  N157  1  0.897400  0.841600  0.927800  1.0  -0.0614
  N  N158  1  0.889200  0.795200  0.882400  1.0  -0.3152
  N  N159  1  0.397400  0.341600  0.427800  1.0  -0.0614
  N  N160  1  0.389200  0.295200  0.382400  1.0  -0.3152
  N  N161  1  0.158400  0.897400  0.927800  1.0  -0.0608
  N  N162  1  0.204800  0.889200  0.882400  1.0  -0.3155
  N  N163  1  0.658400  0.397400  0.427800  1.0  -0.0608
  N  N164  1  0.704800  0.389200  0.382400  1.0  -0.3155
  N  N165  1  0.841600  0.102600  0.927800  1.0  -0.0625
  N  N166  1  0.795200  0.110800  0.882400  1.0  -0.3146
  N  N167  1  0.341600  0.602600  0.427800  1.0  -0.0625
  N  N168  1  0.295200  0.610800  0.382400  1.0  -0.3146
