# generated using pymatgen
data_Cu2H24C43SN3(O2F3)4
_symmetry_space_group_name_H-M   'P 1'
_cell_length_a   7.31810000
_cell_length_b   29.04200000
_cell_length_c   23.59300000
_cell_angle_alpha   90.00000000
_cell_angle_beta   91.72100000
_cell_angle_gamma   90.00000000
_symmetry_Int_Tables_number   1
_chemical_formula_structural   Cu2H24C43SN3(O2F3)4
_chemical_formula_sum   'Cu8 H96 C172 S4 N12 O32 F48'
_cell_volume   5012.01177503
_cell_formula_units_Z   4
loop_
 _symmetry_equiv_pos_site_id
 _symmetry_equiv_pos_as_xyz
  1  'x, y, z'
loop_
 _atom_site_type_symbol
 _atom_site_label
 _atom_site_symmetry_multiplicity
 _atom_site_fract_x
 _atom_site_fract_y
 _atom_site_fract_z
 _atom_site_occupancy
 _atom_site_charge
  Cu  Cu1  1  0.764020  0.788930  0.092610  1.0  0.8451
  Cu  Cu2  1  0.472250  0.732050  0.087690  1.0  0.9516
  Cu  Cu3  1  0.235980  0.288930  0.407390  1.0  0.845
  Cu  Cu4  1  0.527750  0.232050  0.412310  1.0  0.9517
  Cu  Cu5  1  0.235980  0.211070  0.907390  1.0  0.8448
  Cu  Cu6  1  0.527750  0.267950  0.912310  1.0  0.9512
  Cu  Cu7  1  0.764020  0.711070  0.592610  1.0  0.8448
  Cu  Cu8  1  0.472250  0.767950  0.587690  1.0  0.9512
  H  H9  1  0.121700  0.708900  0.205400  1.0  0.1067
  H  H10  1  0.261500  0.659700  0.269900  1.0  0.118
  H  H11  1  0.797900  0.587200  0.278500  1.0  0.097
  H  H12  1  0.656000  0.637500  0.215800  1.0  0.0992
  H  H13  1  0.038600  0.659700  0.377600  1.0  0.1131
  H  H14  1  0.162600  0.701100  0.452600  1.0  0.0963
  H  H15  1  0.608600  0.621600  0.453300  1.0  0.1026
  H  H16  1  0.480800  0.578100  0.380400  1.0  0.0957
  H  H17  1  0.129300  0.790200  0.220200  1.0  0.1115
  H  H18  1  0.009400  0.830000  0.295000  1.0  0.109
  H  H19  1  0.437300  0.915900  0.296600  1.0  0.1085
  H  H20  1  0.561000  0.874500  0.224100  1.0  0.0969
  H  H21  1  0.231400  0.831700  0.404300  1.0  0.1136
  H  H22  1  0.103300  0.784700  0.471300  1.0  0.1011
  H  H23  1  0.640400  0.857700  0.458200  1.0  0.1005
  H  H24  1  0.769900  0.905900  0.393700  1.0  0.0963
  H  H25  1  0.127200  0.842900  0.046600  1.0  0.0755
  H  H26  1  0.843000  0.877100  0.176500  1.0  0.1081
  H  H27  1  0.073800  0.936600  0.165700  1.0  0.1322
  H  H28  1  0.530700  0.896800  0.103800  1.0  0.1045
  H  H29  1  0.707500  0.952300  0.049900  1.0  0.1117
  H  H30  1  0.922900  0.615900  0.086700  1.0  0.1468
  H  H31  1  0.073500  0.586800  0.119000  1.0  0.161
  H  H32  1  0.063900  0.587200  0.052500  1.0  0.1636
  H  H33  1  0.878300  0.208900  0.294600  1.0  0.1066
  H  H34  1  0.738500  0.159700  0.230100  1.0  0.119
  H  H35  1  0.202100  0.087200  0.221500  1.0  0.0977
  H  H36  1  0.344000  0.137500  0.284200  1.0  0.099
  H  H37  1  0.961400  0.159700  0.122400  1.0  0.1124
  H  H38  1  0.837400  0.201100  0.047400  1.0  0.0966
  H  H39  1  0.391400  0.121600  0.046700  1.0  0.1029
  H  H40  1  0.519200  0.078100  0.119600  1.0  0.0957
  H  H41  1  0.870700  0.290200  0.279800  1.0  0.1112
  H  H42  1  0.990600  0.330000  0.205000  1.0  0.1091
  H  H43  1  0.562700  0.415900  0.203400  1.0  0.1086
  H  H44  1  0.439000  0.374500  0.275900  1.0  0.0966
  H  H45  1  0.768600  0.331700  0.095700  1.0  0.1136
  H  H46  1  0.896700  0.284700  0.028700  1.0  0.1009
  H  H47  1  0.359600  0.357700  0.041800  1.0  0.1001
  H  H48  1  0.230100  0.405900  0.106300  1.0  0.0963
  H  H49  1  0.872800  0.342900  0.453400  1.0  0.0754
  H  H50  1  0.157000  0.377100  0.323500  1.0  0.1079
  H  H51  1  0.926200  0.436600  0.334300  1.0  0.1331
  H  H52  1  0.469300  0.396800  0.396200  1.0  0.1043
  H  H53  1  0.292500  0.452300  0.450100  1.0  0.1128
  H  H54  1  0.077100  0.115900  0.413300  1.0  0.1451
  H  H55  1  0.926500  0.086800  0.381000  1.0  0.1618
  H  H56  1  0.936100  0.087200  0.447500  1.0  0.1642
  H  H57  1  0.878300  0.291100  0.794600  1.0  0.1067
  H  H58  1  0.738500  0.340300  0.730100  1.0  0.1188
  H  H59  1  0.202100  0.412800  0.721500  1.0  0.0978
  H  H60  1  0.344000  0.362500  0.784200  1.0  0.0988
  H  H61  1  0.961400  0.340300  0.622400  1.0  0.1123
  H  H62  1  0.837400  0.298900  0.547400  1.0  0.097
  H  H63  1  0.391400  0.378400  0.546700  1.0  0.1028
  H  H64  1  0.519200  0.421900  0.619600  1.0  0.0961
  H  H65  1  0.870700  0.209800  0.779800  1.0  0.1113
  H  H66  1  0.990600  0.170000  0.705000  1.0  0.1093
  H  H67  1  0.562700  0.084100  0.703400  1.0  0.1084
  H  H68  1  0.439000  0.125500  0.775900  1.0  0.0965
  H  H69  1  0.768600  0.168300  0.595700  1.0  0.1133
  H  H70  1  0.896700  0.215300  0.528700  1.0  0.101
  H  H71  1  0.359600  0.142300  0.541800  1.0  0.0999
  H  H72  1  0.230100  0.094100  0.606300  1.0  0.0961
  H  H73  1  0.872800  0.157100  0.953400  1.0  0.0756
  H  H74  1  0.157000  0.122900  0.823500  1.0  0.1077
  H  H75  1  0.926200  0.063400  0.834300  1.0  0.1328
  H  H76  1  0.469300  0.103200  0.896200  1.0  0.1037
  H  H77  1  0.292500  0.047700  0.950100  1.0  0.1128
  H  H78  1  0.077100  0.384100  0.913300  1.0  0.1448
  H  H79  1  0.926500  0.413200  0.881000  1.0  0.1618
  H  H80  1  0.936100  0.412800  0.947500  1.0  0.1637
  H  H81  1  0.121700  0.791100  0.705400  1.0  0.1069
  H  H82  1  0.261500  0.840300  0.769900  1.0  0.1181
  H  H83  1  0.797900  0.912800  0.778500  1.0  0.0973
  H  H84  1  0.656000  0.862500  0.715800  1.0  0.0992
  H  H85  1  0.038600  0.840300  0.877600  1.0  0.113
  H  H86  1  0.162600  0.798900  0.952600  1.0  0.0963
  H  H87  1  0.608600  0.878400  0.953300  1.0  0.1026
  H  H88  1  0.480800  0.921900  0.880400  1.0  0.0959
  H  H89  1  0.129300  0.709800  0.720200  1.0  0.1116
  H  H90  1  0.009400  0.670000  0.795000  1.0  0.1092
  H  H91  1  0.437300  0.584100  0.796600  1.0  0.1085
  H  H92  1  0.561000  0.625500  0.724100  1.0  0.0969
  H  H93  1  0.231400  0.668300  0.904300  1.0  0.1136
  H  H94  1  0.103300  0.715300  0.971300  1.0  0.1009
  H  H95  1  0.640400  0.642300  0.958200  1.0  0.1007
  H  H96  1  0.769900  0.594100  0.893700  1.0  0.0962
  H  H97  1  0.127200  0.657100  0.546600  1.0  0.0758
  H  H98  1  0.843000  0.622900  0.676500  1.0  0.1082
  H  H99  1  0.073800  0.563400  0.665700  1.0  0.1325
  H  H100  1  0.530700  0.603200  0.603800  1.0  0.1042
  H  H101  1  0.707500  0.547700  0.549900  1.0  0.1117
  H  H102  1  0.922900  0.884100  0.586700  1.0  0.1463
  H  H103  1  0.073500  0.913200  0.619000  1.0  0.1616
  H  H104  1  0.063900  0.912800  0.552500  1.0  0.1629
  C  C105  1  0.778500  0.711220  0.163950  1.0  0.6703
  C  C106  1  0.872100  0.678750  0.204490  1.0  -0.1333
  C  C107  1  0.055600  0.684780  0.220540  1.0  -0.0364
  C  C108  1  0.139800  0.654960  0.258900  1.0  -0.1391
  C  C109  1  0.044400  0.617830  0.281300  1.0  0.0933
  C  C110  1  0.863400  0.611870  0.264320  1.0  -0.1364
  C  C111  1  0.778000  0.642030  0.226500  1.0  -0.0135
  C  C112  1  0.147900  0.585950  0.323370  1.0  -0.2917
  C  C113  1  0.015700  0.552970  0.354060  1.0  0.7017
  C  C114  1  0.282100  0.556690  0.288490  1.0  0.7029
  C  C115  1  0.246500  0.614080  0.370910  1.0  0.0803
  C  C116  1  0.152400  0.651540  0.393090  1.0  -0.1311
  C  C117  1  0.227600  0.676570  0.437940  1.0  -0.0419
  C  C118  1  0.397500  0.665690  0.461270  1.0  -0.184
  C  C119  1  0.492800  0.628930  0.438630  1.0  -0.0272
  C  C120  1  0.416700  0.603130  0.394440  1.0  -0.1353
  C  C121  1  0.477000  0.692290  0.510530  1.0  0.6747
  C  C122  1  0.444300  0.801850  0.166950  1.0  0.6776
  C  C123  1  0.359800  0.827930  0.214460  1.0  -0.1596
  C  C124  1  0.192600  0.815100  0.235800  1.0  -0.0232
  C  C125  1  0.120100  0.839360  0.280350  1.0  -0.1104
  C  C126  1  0.209400  0.877250  0.303500  1.0  0.0675
  C  C127  1  0.375600  0.890410  0.281770  1.0  -0.1532
  C  C128  1  0.448900  0.865640  0.238040  1.0  0.0029
  C  C129  1  0.111400  0.905560  0.349480  1.0  -0.2949
  C  C130  1  0.247400  0.935410  0.386170  1.0  0.6873
  C  C131  1  0.979300  0.938250  0.316930  1.0  0.6894
  C  C132  1  0.014100  0.874090  0.391200  1.0  0.067
  C  C133  1  0.112500  0.837190  0.415290  1.0  -0.1356
  C  C134  1  0.035500  0.808730  0.455240  1.0  -0.0315
  C  C135  1  0.857600  0.816200  0.471220  1.0  -0.1467
  C  C136  1  0.760100  0.852570  0.447560  1.0  -0.0089
  C  C137  1  0.837300  0.881320  0.408580  1.0  -0.1479
  C  C138  1  0.771700  0.786410  0.515320  1.0  0.6723
  C  C139  1  0.083300  0.858930  0.077500  1.0  0.205
  C  C140  1  0.929700  0.877740  0.148470  1.0  0.0367
  C  C141  1  0.056500  0.910870  0.142690  1.0  -0.0982
  C  C142  1  0.298600  0.925110  0.072760  1.0  0.1007
  C  C143  1  0.478300  0.919360  0.080540  1.0  -0.051
  C  C144  1  0.580400  0.951510  0.049450  1.0  -0.0875
  C  C145  1  0.473000  0.981290  0.018710  1.0  -0.0417
  C  C146  1  0.047100  0.605300  0.086000  1.0  -0.4239
  C  C147  1  0.177600  0.647200  0.085800  1.0  0.2534
  C  C148  1  0.221500  0.211220  0.336050  1.0  0.67
  C  C149  1  0.127900  0.178750  0.295510  1.0  -0.1318
  C  C150  1  0.944400  0.184780  0.279460  1.0  -0.0365
  C  C151  1  0.860200  0.154960  0.241100  1.0  -0.1394
  C  C152  1  0.955600  0.117830  0.218700  1.0  0.0939
  C  C153  1  0.136600  0.111870  0.235680  1.0  -0.1376
  C  C154  1  0.222000  0.142030  0.273500  1.0  -0.014
  C  C155  1  0.852100  0.085950  0.176630  1.0  -0.2914
  C  C156  1  0.984300  0.052970  0.145940  1.0  0.7005
  C  C157  1  0.717900  0.056690  0.211510  1.0  0.7033
  C  C158  1  0.753500  0.114080  0.129090  1.0  0.0804
  C  C159  1  0.847600  0.151540  0.106910  1.0  -0.1335
  C  C160  1  0.772400  0.176570  0.062060  1.0  -0.0411
  C  C161  1  0.602500  0.165690  0.038730  1.0  -0.1841
  C  C162  1  0.507200  0.128930  0.061370  1.0  -0.0265
  C  C163  1  0.583300  0.103130  0.105560  1.0  -0.1348
  C  C164  1  0.523000  0.192290  0.989470  1.0  0.6751
  C  C165  1  0.555700  0.301850  0.333050  1.0  0.678
  C  C166  1  0.640200  0.327930  0.285540  1.0  -0.1606
  C  C167  1  0.807400  0.315100  0.264200  1.0  -0.0241
  C  C168  1  0.879900  0.339360  0.219650  1.0  -0.1134
  C  C169  1  0.790600  0.377250  0.196500  1.0  0.0666
  C  C170  1  0.624400  0.390410  0.218230  1.0  -0.1529
  C  C171  1  0.551100  0.365640  0.261960  1.0  0.0033
  C  C172  1  0.888600  0.405560  0.150520  1.0  -0.2953
  C  C173  1  0.752600  0.435410  0.113830  1.0  0.6879
  C  C174  1  0.020700  0.438250  0.183070  1.0  0.6885
  C  C175  1  0.985900  0.374090  0.108800  1.0  0.0674
  C  C176  1  0.887500  0.337190  0.084710  1.0  -0.1338
  C  C177  1  0.964500  0.308730  0.044760  1.0  -0.0313
  C  C178  1  0.142400  0.316200  0.028780  1.0  -0.1448
  C  C179  1  0.239900  0.352570  0.052440  1.0  -0.0098
  C  C180  1  0.162700  0.381320  0.091420  1.0  -0.1473
  C  C181  1  0.228300  0.286410  0.984680  1.0  0.6722
  C  C182  1  0.916700  0.358930  0.422500  1.0  0.2047
  C  C183  1  0.070300  0.377740  0.351530  1.0  0.0353
  C  C184  1  0.943500  0.410870  0.357310  1.0  -0.0988
  C  C185  1  0.701400  0.425110  0.427240  1.0  0.1
  C  C186  1  0.521700  0.419360  0.419460  1.0  -0.0515
  C  C187  1  0.419600  0.451510  0.450550  1.0  -0.089
  C  C188  1  0.527000  0.481290  0.481290  1.0  -0.0419
  C  C189  1  0.952900  0.105300  0.414000  1.0  -0.4223
  C  C190  1  0.822400  0.147200  0.414200  1.0  0.2538
  C  C191  1  0.221500  0.288780  0.836050  1.0  0.6695
  C  C192  1  0.127900  0.321250  0.795510  1.0  -0.1317
  C  C193  1  0.944400  0.315220  0.779460  1.0  -0.0346
  C  C194  1  0.860200  0.345040  0.741100  1.0  -0.1394
  C  C195  1  0.955600  0.382170  0.718700  1.0  0.0944
  C  C196  1  0.136600  0.388130  0.735680  1.0  -0.1378
  C  C197  1  0.222000  0.357970  0.773500  1.0  -0.0141
  C  C198  1  0.852100  0.414050  0.676630  1.0  -0.2917
  C  C199  1  0.984300  0.447030  0.645940  1.0  0.7005
  C  C200  1  0.717900  0.443310  0.711510  1.0  0.703
  C  C201  1  0.753500  0.385920  0.629090  1.0  0.0805
  C  C202  1  0.847600  0.348460  0.606910  1.0  -0.1337
  C  C203  1  0.772400  0.323430  0.562060  1.0  -0.0414
  C  C204  1  0.602500  0.334310  0.538730  1.0  -0.1853
  C  C205  1  0.507200  0.371070  0.561370  1.0  -0.0264
  C  C206  1  0.583300  0.396870  0.605560  1.0  -0.1343
  C  C207  1  0.523000  0.307710  0.489470  1.0  0.675
  C  C208  1  0.555700  0.198150  0.833050  1.0  0.6778
  C  C209  1  0.640200  0.172070  0.785540  1.0  -0.1599
  C  C210  1  0.807400  0.184900  0.764200  1.0  -0.0221
  C  C211  1  0.879900  0.160640  0.719650  1.0  -0.1132
  C  C212  1  0.790600  0.122750  0.696500  1.0  0.0665
  C  C213  1  0.624400  0.109590  0.718230  1.0  -0.153
  C  C214  1  0.551100  0.134360  0.761960  1.0  0.0035
  C  C215  1  0.888600  0.094440  0.650520  1.0  -0.2952
  C  C216  1  0.752600  0.064590  0.613830  1.0  0.6864
  C  C217  1  0.020700  0.061750  0.683070  1.0  0.6899
  C  C218  1  0.985900  0.125910  0.608800  1.0  0.0671
  C  C219  1  0.887500  0.162810  0.584710  1.0  -0.134
  C  C220  1  0.964500  0.191270  0.544760  1.0  -0.0303
  C  C221  1  0.142400  0.183800  0.528780  1.0  -0.1442
  C  C222  1  0.239900  0.147430  0.552440  1.0  -0.0096
  C  C223  1  0.162700  0.118680  0.591420  1.0  -0.1475
  C  C224  1  0.228300  0.213590  0.484680  1.0  0.6727
  C  C225  1  0.916700  0.141070  0.922500  1.0  0.2048
  C  C226  1  0.070300  0.122260  0.851530  1.0  0.0355
  C  C227  1  0.943500  0.089130  0.857310  1.0  -0.0997
  C  C228  1  0.701400  0.074890  0.927240  1.0  0.1012
  C  C229  1  0.521700  0.080640  0.919460  1.0  -0.0525
  C  C230  1  0.419600  0.048490  0.950550  1.0  -0.0885
  C  C231  1  0.527000  0.018710  0.981290  1.0  -0.0417
  C  C232  1  0.952900  0.394700  0.914000  1.0  -0.4221
  C  C233  1  0.822400  0.352800  0.914200  1.0  0.2567
  C  C234  1  0.778500  0.788780  0.663950  1.0  0.6696
  C  C235  1  0.872100  0.821250  0.704490  1.0  -0.1336
  C  C236  1  0.055600  0.815220  0.720540  1.0  -0.0348
  C  C237  1  0.139800  0.845040  0.758900  1.0  -0.1397
  C  C238  1  0.044400  0.882170  0.781300  1.0  0.0937
  C  C239  1  0.863400  0.888130  0.764320  1.0  -0.1363
  C  C240  1  0.778000  0.857970  0.726500  1.0  -0.0134
  C  C241  1  0.147900  0.914050  0.823370  1.0  -0.2919
  C  C242  1  0.015700  0.947030  0.854060  1.0  0.7011
  C  C243  1  0.282100  0.943310  0.788490  1.0  0.7028
  C  C244  1  0.246500  0.885920  0.870910  1.0  0.0804
  C  C245  1  0.152400  0.848460  0.893090  1.0  -0.1314
  C  C246  1  0.227600  0.823430  0.937940  1.0  -0.0416
  C  C247  1  0.397500  0.834310  0.961270  1.0  -0.1839
  C  C248  1  0.492800  0.871070  0.938630  1.0  -0.0274
  C  C249  1  0.416700  0.896870  0.894440  1.0  -0.1349
  C  C250  1  0.477000  0.807710  0.010530  1.0  0.6745
  C  C251  1  0.444300  0.698150  0.666950  1.0  0.6779
  C  C252  1  0.359800  0.672070  0.714460  1.0  -0.1593
  C  C253  1  0.192600  0.684900  0.735800  1.0  -0.0229
  C  C254  1  0.120100  0.660640  0.780350  1.0  -0.111
  C  C255  1  0.209400  0.622750  0.803500  1.0  0.0672
  C  C256  1  0.375600  0.609590  0.781770  1.0  -0.1526
  C  C257  1  0.448900  0.634360  0.738040  1.0  0.0029
  C  C258  1  0.111400  0.594440  0.849480  1.0  -0.2947
  C  C259  1  0.247400  0.564590  0.886170  1.0  0.6876
  C  C260  1  0.979300  0.561750  0.816930  1.0  0.6896
  C  C261  1  0.014100  0.625910  0.891200  1.0  0.0669
  C  C262  1  0.112500  0.662810  0.915290  1.0  -0.1355
  C  C263  1  0.035500  0.691270  0.955240  1.0  -0.0305
  C  C264  1  0.857600  0.683800  0.971220  1.0  -0.1464
  C  C265  1  0.760100  0.647430  0.947560  1.0  -0.0087
  C  C266  1  0.837300  0.618680  0.908580  1.0  -0.1481
  C  C267  1  0.771700  0.713590  0.015320  1.0  0.6726
  C  C268  1  0.083300  0.641070  0.577500  1.0  0.2053
  C  C269  1  0.929700  0.622260  0.648470  1.0  0.0368
  C  C270  1  0.056500  0.589130  0.642690  1.0  -0.0988
  C  C271  1  0.298600  0.574890  0.572760  1.0  0.1017
  C  C272  1  0.478300  0.580640  0.580540  1.0  -0.0521
  C  C273  1  0.580400  0.548490  0.549450  1.0  -0.0873
  C  C274  1  0.473000  0.518710  0.518710  1.0  -0.0423
  C  C275  1  0.047100  0.894700  0.586000  1.0  -0.4235
  C  C276  1  0.177600  0.852800  0.585800  1.0  0.2564
  S  S277  1  0.244760  0.969780  0.027460  1.0  0.1186
  S  S278  1  0.755240  0.469780  0.472540  1.0  0.1179
  S  S279  1  0.755240  0.030220  0.972540  1.0  0.1186
  S  S280  1  0.244760  0.530220  0.527460  1.0  0.1189
  N  N281  1  0.946900  0.845140  0.107060  1.0  -0.3837
  N  N282  1  0.154600  0.899290  0.096570  1.0  -0.0019
  N  N283  1  0.256100  0.680580  0.084280  1.0  -0.4316
  N  N284  1  0.053100  0.345140  0.392940  1.0  -0.3824
  N  N285  1  0.845400  0.399290  0.403430  1.0  -0.0028
  N  N286  1  0.743900  0.180580  0.415720  1.0  -0.4321
  N  N287  1  0.053100  0.154860  0.892940  1.0  -0.3833
  N  N288  1  0.845400  0.100710  0.903430  1.0  -0.0031
  N  N289  1  0.743900  0.319420  0.915720  1.0  -0.4317
  N  N290  1  0.946900  0.654860  0.607060  1.0  -0.3832
  N  N291  1  0.154600  0.600710  0.596570  1.0  -0.004
  N  N292  1  0.256100  0.819420  0.584280  1.0  -0.4316
  O  O293  1  0.859800  0.747790  0.151870  1.0  -0.559
  O  O294  1  0.624600  0.698650  0.144270  1.0  -0.5725
  O  O295  1  0.379200  0.723780  0.530050  1.0  -0.5638
  O  O296  1  0.632500  0.680590  0.529440  1.0  -0.5739
  O  O297  1  0.592200  0.817200  0.148830  1.0  -0.5865
  O  O298  1  0.362400  0.766660  0.148930  1.0  -0.5586
  O  O299  1  0.865300  0.753860  0.536020  1.0  -0.5584
  O  O300  1  0.610800  0.797020  0.528230  1.0  -0.5747
  O  O301  1  0.140200  0.247790  0.348130  1.0  -0.5595
  O  O302  1  0.375400  0.198650  0.355730  1.0  -0.5727
  O  O303  1  0.620800  0.223780  0.969950  1.0  -0.5635
  O  O304  1  0.367500  0.180590  0.970560  1.0  -0.5738
  O  O305  1  0.407800  0.317200  0.351170  1.0  -0.5875
  O  O306  1  0.637600  0.266660  0.351070  1.0  -0.5583
  O  O307  1  0.134700  0.253860  0.963980  1.0  -0.5582
  O  O308  1  0.389200  0.297020  0.971770  1.0  -0.5754
  O  O309  1  0.140200  0.252210  0.848130  1.0  -0.5596
  O  O310  1  0.375400  0.301350  0.855730  1.0  -0.5726
  O  O311  1  0.620800  0.276220  0.469950  1.0  -0.5639
  O  O312  1  0.367500  0.319410  0.470560  1.0  -0.5738
  O  O313  1  0.407800  0.182800  0.851170  1.0  -0.5874
  O  O314  1  0.637600  0.233340  0.851070  1.0  -0.5588
  O  O315  1  0.134700  0.246140  0.463980  1.0  -0.5574
  O  O316  1  0.389200  0.202980  0.471770  1.0  -0.5759
  O  O317  1  0.859800  0.752210  0.651870  1.0  -0.5594
  O  O318  1  0.624600  0.801350  0.644270  1.0  -0.5724
  O  O319  1  0.379200  0.776220  0.030050  1.0  -0.5645
  O  O320  1  0.632500  0.819410  0.029440  1.0  -0.5737
  O  O321  1  0.592200  0.682800  0.648830  1.0  -0.5864
  O  O322  1  0.362400  0.733340  0.648930  1.0  -0.559
  O  O323  1  0.865300  0.746140  0.036020  1.0  -0.5579
  O  O324  1  0.610800  0.702980  0.028230  1.0  -0.5757
  F  F325  1  0.884500  0.575210  0.379480  1.0  -0.1894
  F  F326  1  0.936800  0.522040  0.318790  1.0  -0.1985
  F  F327  1  0.105500  0.528170  0.394320  1.0  -0.2067
  F  F328  1  0.198700  0.539420  0.242030  1.0  -0.2098
  F  F329  1  0.352900  0.520650  0.316910  1.0  -0.2034
  F  F330  1  0.421000  0.581550  0.271290  1.0  -0.1942
  F  F331  1  0.164800  0.952620  0.431110  1.0  -0.1937
  F  F332  1  0.314200  0.971140  0.358030  1.0  -0.2085
  F  F333  1  0.389300  0.911120  0.405320  1.0  -0.2012
  F  F334  1  0.063600  0.960980  0.276060  1.0  -0.2083
  F  F335  1  0.905300  0.970180  0.350190  1.0  -0.2124
  F  F336  1  0.841700  0.915400  0.292030  1.0  -0.1906
  F  F337  1  0.115500  0.075210  0.120520  1.0  -0.1886
  F  F338  1  0.063200  0.022040  0.181210  1.0  -0.1987
  F  F339  1  0.894500  0.028170  0.105680  1.0  -0.2064
  F  F340  1  0.801300  0.039420  0.257970  1.0  -0.2099
  F  F341  1  0.647100  0.020650  0.183090  1.0  -0.2027
  F  F342  1  0.579000  0.081550  0.228710  1.0  -0.1933
  F  F343  1  0.835200  0.452620  0.068890  1.0  -0.1946
  F  F344  1  0.685800  0.471140  0.141970  1.0  -0.2091
  F  F345  1  0.610700  0.411120  0.094680  1.0  -0.2002
  F  F346  1  0.936400  0.460980  0.223940  1.0  -0.2087
  F  F347  1  0.094700  0.470180  0.149810  1.0  -0.2117
  F  F348  1  0.158300  0.415400  0.207970  1.0  -0.1914
  F  F349  1  0.115500  0.424790  0.620520  1.0  -0.1882
  F  F350  1  0.063200  0.477960  0.681210  1.0  -0.1983
  F  F351  1  0.894500  0.471830  0.605680  1.0  -0.2062
  F  F352  1  0.801300  0.460580  0.757970  1.0  -0.2097
  F  F353  1  0.647100  0.479350  0.683090  1.0  -0.2044
  F  F354  1  0.579000  0.418450  0.728710  1.0  -0.1934
  F  F355  1  0.835200  0.047380  0.568890  1.0  -0.1946
  F  F356  1  0.685800  0.028860  0.641970  1.0  -0.2092
  F  F357  1  0.610700  0.088880  0.594680  1.0  -0.2006
  F  F358  1  0.936400  0.039020  0.723940  1.0  -0.2094
  F  F359  1  0.094700  0.029820  0.649810  1.0  -0.2117
  F  F360  1  0.158300  0.084600  0.707970  1.0  -0.1916
  F  F361  1  0.884500  0.924790  0.879480  1.0  -0.1891
  F  F362  1  0.936800  0.977960  0.818790  1.0  -0.1994
  F  F363  1  0.105500  0.971830  0.894320  1.0  -0.2074
  F  F364  1  0.198700  0.960580  0.742030  1.0  -0.2093
  F  F365  1  0.352900  0.979350  0.816910  1.0  -0.2038
  F  F366  1  0.421000  0.918450  0.771290  1.0  -0.194
  F  F367  1  0.164800  0.547380  0.931110  1.0  -0.1958
  F  F368  1  0.314200  0.528860  0.858030  1.0  -0.2098
  F  F369  1  0.389300  0.588880  0.905320  1.0  -0.2016
  F  F370  1  0.063600  0.539020  0.776060  1.0  -0.2086
  F  F371  1  0.905300  0.529820  0.850190  1.0  -0.2122
  F  F372  1  0.841700  0.584600  0.792030  1.0  -0.1908
