# generated using pymatgen
data_Zn2H8C10S(N2O)4
_symmetry_space_group_name_H-M   'P 1'
_cell_length_a   10.70200000
_cell_length_b   26.61730000
_cell_length_c   8.51890000
_cell_angle_alpha   90.00000000
_cell_angle_beta   90.00000000
_cell_angle_gamma   90.00000000
_symmetry_Int_Tables_number   1
_chemical_formula_structural   Zn2H8C10S(N2O)4
_chemical_formula_sum   'Zn8 H32 C40 S4 N32 O16'
_cell_volume   2426.67975181
_cell_formula_units_Z   4
loop_
 _symmetry_equiv_pos_site_id
 _symmetry_equiv_pos_as_xyz
  1  'x, y, z'
loop_
 _atom_site_type_symbol
 _atom_site_label
 _atom_site_symmetry_multiplicity
 _atom_site_fract_x
 _atom_site_fract_y
 _atom_site_fract_z
 _atom_site_occupancy
 _atom_site_charge
  Zn  Zn1  1  0.399320  0.547970  0.595640  1.0  0.803
  Zn  Zn2  1  0.100680  0.452030  0.095640  1.0  0.8036
  Zn  Zn3  1  0.600680  0.047970  0.404360  1.0  0.8037
  Zn  Zn4  1  0.899320  0.952030  0.904360  1.0  0.8029
  Zn  Zn5  1  0.600680  0.452030  0.404360  1.0  0.8034
  Zn  Zn6  1  0.899320  0.547970  0.904360  1.0  0.8031
  Zn  Zn7  1  0.399320  0.952030  0.595640  1.0  0.8029
  Zn  Zn8  1  0.100680  0.047970  0.095640  1.0  0.8038
  H  H9  1  0.384700  0.424200  0.178800  1.0  0.0777
  H  H10  1  0.534900  0.704100  0.736800  1.0  0.1052
  H  H11  1  0.177100  0.576500  0.387400  1.0  0.3375
  H  H12  1  0.095300  0.546600  0.281300  1.0  0.3498
  H  H13  1  0.115300  0.575800  0.678800  1.0  0.0777
  H  H14  1  0.965100  0.295900  0.236800  1.0  0.106
  H  H15  1  0.322900  0.423500  0.887400  1.0  0.3386
  H  H16  1  0.404700  0.453400  0.781300  1.0  0.3506
  H  H17  1  0.615300  0.924200  0.821200  1.0  0.0778
  H  H18  1  0.465100  0.204100  0.263200  1.0  0.1056
  H  H19  1  0.822900  0.076500  0.612600  1.0  0.3385
  H  H20  1  0.904700  0.046600  0.718700  1.0  0.3508
  H  H21  1  0.884700  0.075800  0.321200  1.0  0.078
  H  H22  1  0.034900  0.795900  0.763200  1.0  0.1059
  H  H23  1  0.677100  0.923500  0.112600  1.0  0.3385
  H  H24  1  0.595300  0.953400  0.218700  1.0  0.3493
  H  H25  1  0.615300  0.575800  0.821200  1.0  0.0774
  H  H26  1  0.465100  0.295900  0.263200  1.0  0.1062
  H  H27  1  0.822900  0.423500  0.612600  1.0  0.3387
  H  H28  1  0.904700  0.453400  0.718700  1.0  0.351
  H  H29  1  0.884700  0.424200  0.321200  1.0  0.0781
  H  H30  1  0.034900  0.704100  0.763200  1.0  0.1055
  H  H31  1  0.677100  0.576500  0.112600  1.0  0.3382
  H  H32  1  0.595300  0.546600  0.218700  1.0  0.3498
  H  H33  1  0.384700  0.075800  0.178800  1.0  0.0781
  H  H34  1  0.534900  0.795900  0.736800  1.0  0.1056
  H  H35  1  0.177100  0.923500  0.387400  1.0  0.3386
  H  H36  1  0.095300  0.953400  0.281300  1.0  0.349
  H  H37  1  0.115300  0.924200  0.678800  1.0  0.0776
  H  H38  1  0.965100  0.204100  0.236800  1.0  0.1055
  H  H39  1  0.322900  0.076500  0.887400  1.0  0.338
  H  H40  1  0.404700  0.046600  0.781300  1.0  0.3504
  C  C41  1  0.361700  0.453180  0.232400  1.0  0.2743
  C  C42  1  0.256600  0.515790  0.314000  1.0  0.6891
  C  C43  1  0.344400  0.649980  0.580900  1.0  0.7076
  C  C44  1  0.373200  0.703730  0.611100  1.0  -0.207
  C  C45  1  0.473400  0.723460  0.689000  1.0  -0.0779
  C  C46  1  0.138300  0.546820  0.732400  1.0  0.2742
  C  C47  1  0.243400  0.484210  0.814000  1.0  0.6895
  C  C48  1  0.155600  0.350020  0.080900  1.0  0.7071
  C  C49  1  0.126800  0.296270  0.111100  1.0  -0.206
  C  C50  1  0.026600  0.276540  0.189000  1.0  -0.0784
  C  C51  1  0.638300  0.953180  0.767600  1.0  0.2747
  C  C52  1  0.743400  0.015790  0.686000  1.0  0.6895
  C  C53  1  0.655600  0.149980  0.419100  1.0  0.7066
  C  C54  1  0.626800  0.203730  0.388900  1.0  -0.206
  C  C55  1  0.526600  0.223460  0.311000  1.0  -0.0776
  C  C56  1  0.861700  0.046820  0.267600  1.0  0.274
  C  C57  1  0.756600  0.984210  0.186000  1.0  0.6893
  C  C58  1  0.844400  0.850020  0.919100  1.0  0.7073
  C  C59  1  0.873200  0.796270  0.888900  1.0  -0.2068
  C  C60  1  0.973400  0.776540  0.811000  1.0  -0.0785
  C  C61  1  0.638300  0.546820  0.767600  1.0  0.2734
  C  C62  1  0.743400  0.484210  0.686000  1.0  0.6897
  C  C63  1  0.655600  0.350020  0.419100  1.0  0.7066
  C  C64  1  0.626800  0.296270  0.388900  1.0  -0.2058
  C  C65  1  0.526600  0.276540  0.311000  1.0  -0.0782
  C  C66  1  0.861700  0.453180  0.267600  1.0  0.2749
  C  C67  1  0.756600  0.515790  0.186000  1.0  0.6891
  C  C68  1  0.844400  0.649980  0.919100  1.0  0.7073
  C  C69  1  0.873200  0.703730  0.888900  1.0  -0.2069
  C  C70  1  0.973400  0.723460  0.811000  1.0  -0.0777
  C  C71  1  0.361700  0.046820  0.232400  1.0  0.2737
  C  C72  1  0.256600  0.984210  0.314000  1.0  0.689
  C  C73  1  0.344400  0.850020  0.580900  1.0  0.7078
  C  C74  1  0.373200  0.796270  0.611100  1.0  -0.207
  C  C75  1  0.473400  0.776540  0.689000  1.0  -0.0782
  C  C76  1  0.138300  0.953180  0.732400  1.0  0.275
  C  C77  1  0.243400  0.015790  0.814000  1.0  0.6895
  C  C78  1  0.155600  0.149980  0.080900  1.0  0.7068
  C  C79  1  0.126800  0.203730  0.111100  1.0  -0.2061
  C  C80  1  0.026600  0.223460  0.189000  1.0  -0.0776
  S  S81  1  0.277080  0.750000  0.538770  1.0  0.1513
  S  S82  1  0.222920  0.250000  0.038770  1.0  0.1495
  S  S83  1  0.722920  0.250000  0.461230  1.0  0.1496
  S  S84  1  0.777080  0.750000  0.961230  1.0  0.151
  N  N85  1  0.248200  0.474780  0.219500  1.0  -0.5504
  N  N86  1  0.436100  0.477350  0.328400  1.0  -0.2893
  N  N87  1  0.368000  0.518560  0.383800  1.0  -0.3717
  N  N88  1  0.165200  0.550500  0.329400  1.0  -0.7426
  N  N89  1  0.251800  0.525220  0.719500  1.0  -0.5497
  N  N90  1  0.063900  0.522650  0.828400  1.0  -0.2899
  N  N91  1  0.132000  0.481440  0.883800  1.0  -0.3726
  N  N92  1  0.334800  0.449500  0.829400  1.0  -0.7426
  N  N93  1  0.751800  0.974780  0.780500  1.0  -0.55
  N  N94  1  0.563900  0.977350  0.671600  1.0  -0.2889
  N  N95  1  0.632000  0.018560  0.616200  1.0  -0.3735
  N  N96  1  0.834800  0.050500  0.670600  1.0  -0.7419
  N  N97  1  0.748200  0.025220  0.280500  1.0  -0.5512
  N  N98  1  0.936100  0.022650  0.171600  1.0  -0.289
  N  N99  1  0.868000  0.981440  0.116200  1.0  -0.371
  N  N100  1  0.665200  0.949500  0.170600  1.0  -0.7406
  N  N101  1  0.751800  0.525220  0.780500  1.0  -0.5505
  N  N102  1  0.563900  0.522650  0.671600  1.0  -0.2889
  N  N103  1  0.632000  0.481440  0.616200  1.0  -0.3728
  N  N104  1  0.834800  0.449500  0.670600  1.0  -0.7411
  N  N105  1  0.748200  0.474780  0.280500  1.0  -0.551
  N  N106  1  0.936100  0.477350  0.171600  1.0  -0.2888
  N  N107  1  0.868000  0.518560  0.116200  1.0  -0.372
  N  N108  1  0.665200  0.550500  0.170600  1.0  -0.7417
  N  N109  1  0.248200  0.025220  0.219500  1.0  -0.5506
  N  N110  1  0.436100  0.022650  0.328400  1.0  -0.2897
  N  N111  1  0.368000  0.981440  0.383800  1.0  -0.3709
  N  N112  1  0.165200  0.949500  0.329400  1.0  -0.742
  N  N113  1  0.251800  0.974780  0.719500  1.0  -0.5493
  N  N114  1  0.063900  0.977350  0.828400  1.0  -0.2897
  N  N115  1  0.132000  0.018560  0.883800  1.0  -0.373
  N  N116  1  0.334800  0.050500  0.829400  1.0  -0.7428
  O  O117  1  0.430700  0.619350  0.621500  1.0  -0.6138
  O  O118  1  0.243700  0.638360  0.520500  1.0  -0.5677
  O  O119  1  0.069300  0.380650  0.121500  1.0  -0.6128
  O  O120  1  0.256300  0.361640  0.020500  1.0  -0.5696
  O  O121  1  0.569300  0.119350  0.378500  1.0  -0.6134
  O  O122  1  0.756300  0.138360  0.479500  1.0  -0.5702
  O  O123  1  0.930700  0.880650  0.878500  1.0  -0.6135
  O  O124  1  0.743700  0.861640  0.979500  1.0  -0.57
  O  O125  1  0.569300  0.380650  0.378500  1.0  -0.613
  O  O126  1  0.756300  0.361640  0.479500  1.0  -0.5708
  O  O127  1  0.930700  0.619350  0.878500  1.0  -0.6145
  O  O128  1  0.743700  0.638360  0.979500  1.0  -0.5693
  O  O129  1  0.430700  0.880650  0.621500  1.0  -0.6141
  O  O130  1  0.243700  0.861640  0.520500  1.0  -0.5683
  O  O131  1  0.069300  0.119350  0.121500  1.0  -0.6139
  O  O132  1  0.256300  0.138360  0.020500  1.0  -0.5689
