# generated using pymatgen
data_CeH3C12N5O7
_symmetry_space_group_name_H-M   'P 1'
_cell_length_a   7.69600000
_cell_length_b   21.22200000
_cell_length_c   19.66800000
_cell_angle_alpha   90.00000000
_cell_angle_beta   97.80100000
_cell_angle_gamma   90.00000000
_symmetry_Int_Tables_number   1
_chemical_formula_structural   CeH3C12N5O7
_chemical_formula_sum   'Ce8 H24 C96 N40 O56'
_cell_volume   3182.53849056
_cell_formula_units_Z   8
loop_
 _symmetry_equiv_pos_site_id
 _symmetry_equiv_pos_as_xyz
  1  'x, y, z'
loop_
 _atom_site_type_symbol
 _atom_site_label
 _atom_site_symmetry_multiplicity
 _atom_site_fract_x
 _atom_site_fract_y
 _atom_site_fract_z
 _atom_site_occupancy
 _atom_site_charge
  Ce  Ce1  1  0.009030  0.223130  0.245020  1.0  2.2707
  Ce  Ce2  1  0.509030  0.723130  0.245020  1.0  2.2707
  Ce  Ce3  1  0.990970  0.223130  0.754980  1.0  2.2703
  Ce  Ce4  1  0.490970  0.723130  0.754980  1.0  2.2703
  Ce  Ce5  1  0.990970  0.776870  0.754980  1.0  2.2698
  Ce  Ce6  1  0.490970  0.276870  0.754980  1.0  2.2698
  Ce  Ce7  1  0.009030  0.776870  0.245020  1.0  2.27
  Ce  Ce8  1  0.509030  0.276870  0.245020  1.0  2.27
  H  H9  1  0.403400  0.174900  0.105500  1.0  0.1263
  H  H10  1  0.830600  0.093300  0.231600  1.0  0.4404
  H  H11  1  0.978000  0.108100  0.273900  1.0  0.4853
  H  H12  1  0.903400  0.674900  0.105500  1.0  0.1263
  H  H13  1  0.330600  0.593300  0.231600  1.0  0.4404
  H  H14  1  0.478000  0.608100  0.273900  1.0  0.4853
  H  H15  1  0.596600  0.174900  0.894500  1.0  0.1284
  H  H16  1  0.169400  0.093300  0.768400  1.0  0.4421
  H  H17  1  0.022000  0.108100  0.726100  1.0  0.4868
  H  H18  1  0.096600  0.674900  0.894500  1.0  0.1284
  H  H19  1  0.669400  0.593300  0.768400  1.0  0.4421
  H  H20  1  0.522000  0.608100  0.726100  1.0  0.4868
  H  H21  1  0.596600  0.825100  0.894500  1.0  0.1281
  H  H22  1  0.169400  0.906700  0.768400  1.0  0.4414
  H  H23  1  0.022000  0.891900  0.726100  1.0  0.4873
  H  H24  1  0.096600  0.325100  0.894500  1.0  0.1281
  H  H25  1  0.669400  0.406700  0.768400  1.0  0.4414
  H  H26  1  0.522000  0.391900  0.726100  1.0  0.4873
  H  H27  1  0.403400  0.825100  0.105500  1.0  0.1262
  H  H28  1  0.830600  0.906700  0.231600  1.0  0.4403
  H  H29  1  0.978000  0.891900  0.273900  1.0  0.4844
  H  H30  1  0.903400  0.325100  0.105500  1.0  0.1262
  H  H31  1  0.330600  0.406700  0.231600  1.0  0.4403
  H  H32  1  0.478000  0.391900  0.273900  1.0  0.4844
  C  C33  1  0.283100  0.214700  0.368700  1.0  0.7087
  C  C34  1  0.396700  0.214800  0.436000  1.0  -0.0795
  C  C35  1  0.443900  0.157400  0.469000  1.0  0.197
  C  C36  1  0.448700  0.271500  0.468000  1.0  0.2965
  C  C37  1  0.744900  0.189200  0.123700  1.0  0.7166
  C  C38  1  0.620600  0.177300  0.059900  1.0  -0.0663
  C  C39  1  0.682600  0.174600  0.996200  1.0  0.2848
  C  C40  1  0.442200  0.175500  0.062700  1.0  -0.0702
  C  C41  1  0.887700  0.364600  0.249700  1.0  0.6832
  C  C42  1  0.877900  0.434900  0.250500  1.0  -0.114
  C  C43  1  0.754400  0.467000  0.203300  1.0  0.1566
  C  C44  1  0.994700  0.467400  0.298400  1.0  0.31
  C  C45  1  0.783100  0.714700  0.368700  1.0  0.7087
  C  C46  1  0.896700  0.714800  0.436000  1.0  -0.0795
  C  C47  1  0.943900  0.657400  0.469000  1.0  0.197
  C  C48  1  0.948700  0.771500  0.468000  1.0  0.2965
  C  C49  1  0.244900  0.689200  0.123700  1.0  0.7178
  C  C50  1  0.120600  0.677300  0.059900  1.0  -0.0663
  C  C51  1  0.182600  0.674600  0.996200  1.0  0.2848
  C  C52  1  0.942200  0.675500  0.062700  1.0  -0.0702
  C  C53  1  0.387700  0.864600  0.249700  1.0  0.6832
  C  C54  1  0.377900  0.934900  0.250500  1.0  -0.1143
  C  C55  1  0.254400  0.967000  0.203300  1.0  0.1566
  C  C56  1  0.494700  0.967400  0.298400  1.0  0.31
  C  C57  1  0.716900  0.214700  0.631300  1.0  0.7097
  C  C58  1  0.603300  0.214800  0.564000  1.0  -0.0793
  C  C59  1  0.556100  0.157400  0.531000  1.0  0.1997
  C  C60  1  0.551300  0.271500  0.532000  1.0  0.3012
  C  C61  1  0.255100  0.189200  0.876300  1.0  0.7166
  C  C62  1  0.379400  0.177300  0.940100  1.0  -0.0669
  C  C63  1  0.317400  0.174600  0.003800  1.0  0.2828
  C  C64  1  0.557800  0.175500  0.937300  1.0  -0.0677
  C  C65  1  0.112300  0.364600  0.750300  1.0  0.684
  C  C66  1  0.122100  0.434900  0.749500  1.0  -0.1127
  C  C67  1  0.245600  0.467000  0.796700  1.0  0.1558
  C  C68  1  0.005300  0.467400  0.701600  1.0  0.3099
  C  C69  1  0.216900  0.714700  0.631300  1.0  0.7097
  C  C70  1  0.103300  0.714800  0.564000  1.0  -0.0793
  C  C71  1  0.056100  0.657400  0.531000  1.0  0.1997
  C  C72  1  0.051300  0.771500  0.532000  1.0  0.3012
  C  C73  1  0.755100  0.689200  0.876300  1.0  0.7095
  C  C74  1  0.879400  0.677300  0.940100  1.0  -0.0669
  C  C75  1  0.817400  0.674600  0.003800  1.0  0.2828
  C  C76  1  0.057800  0.675500  0.937300  1.0  -0.0677
  C  C77  1  0.612300  0.864600  0.750300  1.0  0.683
  C  C78  1  0.622100  0.934900  0.749500  1.0  -0.1127
  C  C79  1  0.745600  0.967000  0.796700  1.0  0.1558
  C  C80  1  0.505300  0.967400  0.701600  1.0  0.3099
  C  C81  1  0.716900  0.785300  0.631300  1.0  0.7156
  C  C82  1  0.603300  0.785200  0.564000  1.0  -0.0792
  C  C83  1  0.556100  0.842600  0.531000  1.0  0.2007
  C  C84  1  0.551300  0.728500  0.532000  1.0  0.2962
  C  C85  1  0.255100  0.810800  0.876300  1.0  0.7157
  C  C86  1  0.379400  0.822700  0.940100  1.0  -0.0661
  C  C87  1  0.317400  0.825400  0.003800  1.0  0.283
  C  C88  1  0.557800  0.824500  0.937300  1.0  -0.0683
  C  C89  1  0.112300  0.635400  0.750300  1.0  0.683
  C  C90  1  0.122100  0.565100  0.749500  1.0  -0.1126
  C  C91  1  0.245600  0.533000  0.796700  1.0  0.156
  C  C92  1  0.005300  0.532600  0.701600  1.0  0.3102
  C  C93  1  0.216900  0.285300  0.631300  1.0  0.7156
  C  C94  1  0.103300  0.285200  0.564000  1.0  -0.0792
  C  C95  1  0.056100  0.342600  0.531000  1.0  0.2007
  C  C96  1  0.051300  0.228500  0.532000  1.0  0.2962
  C  C97  1  0.755100  0.310800  0.876300  1.0  0.7069
  C  C98  1  0.879400  0.322700  0.940100  1.0  -0.0661
  C  C99  1  0.817400  0.325400  0.003800  1.0  0.283
  C  C100  1  0.057800  0.324500  0.937300  1.0  -0.0683
  C  C101  1  0.612300  0.135400  0.750300  1.0  0.683
  C  C102  1  0.622100  0.065100  0.749500  1.0  -0.112
  C  C103  1  0.745600  0.033000  0.796700  1.0  0.156
  C  C104  1  0.505300  0.032600  0.701600  1.0  0.3102
  C  C105  1  0.283100  0.785300  0.368700  1.0  0.7155
  C  C106  1  0.396700  0.785200  0.436000  1.0  -0.0787
  C  C107  1  0.443900  0.842600  0.469000  1.0  0.2007
  C  C108  1  0.448700  0.728500  0.468000  1.0  0.2954
  C  C109  1  0.744900  0.810800  0.123700  1.0  0.7116
  C  C110  1  0.620600  0.822700  0.059900  1.0  -0.0661
  C  C111  1  0.682600  0.825400  0.996200  1.0  0.2851
  C  C112  1  0.442200  0.824500  0.062700  1.0  -0.0661
  C  C113  1  0.887700  0.635400  0.249700  1.0  0.683
  C  C114  1  0.877900  0.565100  0.250500  1.0  -0.1127
  C  C115  1  0.754400  0.533000  0.203300  1.0  0.1562
  C  C116  1  0.994700  0.532600  0.298400  1.0  0.3104
  C  C117  1  0.783100  0.285300  0.368700  1.0  0.7155
  C  C118  1  0.896700  0.285200  0.436000  1.0  -0.0792
  C  C119  1  0.943900  0.342600  0.469000  1.0  0.2007
  C  C120  1  0.948700  0.228500  0.468000  1.0  0.2954
  C  C121  1  0.244900  0.310800  0.123700  1.0  0.7172
  C  C122  1  0.120600  0.322700  0.059900  1.0  -0.0661
  C  C123  1  0.182600  0.325400  0.996200  1.0  0.2851
  C  C124  1  0.942200  0.324500  0.062700  1.0  -0.0661
  C  C125  1  0.387700  0.135400  0.249700  1.0  0.683
  C  C126  1  0.377900  0.065100  0.250500  1.0  -0.1127
  C  C127  1  0.254400  0.033000  0.203300  1.0  0.1562
  C  C128  1  0.494700  0.032600  0.298400  1.0  0.3104
  N  N129  1  0.366000  0.100200  0.446800  1.0  -0.2275
  N  N130  1  0.396000  0.325400  0.441400  1.0  -0.3169
  N  N131  1  0.851000  0.159900  0.990600  1.0  -0.3897
  N  N132  1  0.631000  0.443800  0.149800  1.0  -0.2422
  N  N133  1  0.128000  0.439700  0.338100  1.0  -0.239
  N  N134  1  0.866000  0.600200  0.446800  1.0  -0.2275
  N  N135  1  0.896000  0.825400  0.441400  1.0  -0.3169
  N  N136  1  0.351000  0.659900  0.990600  1.0  -0.3905
  N  N137  1  0.131000  0.943800  0.149800  1.0  -0.2422
  N  N138  1  0.628000  0.939700  0.338100  1.0  -0.239
  N  N139  1  0.634000  0.100200  0.553200  1.0  -0.2272
  N  N140  1  0.604000  0.325400  0.558600  1.0  -0.3196
  N  N141  1  0.149000  0.159900  0.009400  1.0  -0.3889
  N  N142  1  0.369000  0.443800  0.850200  1.0  -0.2421
  N  N143  1  0.872000  0.439700  0.661900  1.0  -0.2462
  N  N144  1  0.134000  0.600200  0.553200  1.0  -0.2272
  N  N145  1  0.104000  0.825400  0.558600  1.0  -0.3196
  N  N146  1  0.649000  0.659900  0.009400  1.0  -0.3889
  N  N147  1  0.869000  0.943800  0.850200  1.0  -0.2421
  N  N148  1  0.372000  0.939700  0.661900  1.0  -0.2427
  N  N149  1  0.634000  0.899800  0.553200  1.0  -0.229
  N  N150  1  0.604000  0.674600  0.558600  1.0  -0.3196
  N  N151  1  0.149000  0.840100  0.009400  1.0  -0.3903
  N  N152  1  0.369000  0.556200  0.850200  1.0  -0.242
  N  N153  1  0.872000  0.560300  0.661900  1.0  -0.2425
  N  N154  1  0.134000  0.399800  0.553200  1.0  -0.229
  N  N155  1  0.104000  0.174600  0.558600  1.0  -0.3198
  N  N156  1  0.649000  0.340100  0.009400  1.0  -0.3903
  N  N157  1  0.869000  0.056200  0.850200  1.0  -0.242
  N  N158  1  0.372000  0.060300  0.661900  1.0  -0.2406
  N  N159  1  0.366000  0.899800  0.446800  1.0  -0.2286
  N  N160  1  0.396000  0.674600  0.441400  1.0  -0.3172
  N  N161  1  0.851000  0.840100  0.990600  1.0  -0.3918
  N  N162  1  0.631000  0.556200  0.149800  1.0  -0.2414
  N  N163  1  0.128000  0.560300  0.338100  1.0  -0.2389
  N  N164  1  0.866000  0.399800  0.446800  1.0  -0.2286
  N  N165  1  0.896000  0.174600  0.441400  1.0  -0.3172
  N  N166  1  0.351000  0.340100  0.990600  1.0  -0.3918
  N  N167  1  0.131000  0.056200  0.149800  1.0  -0.2414
  N  N168  1  0.628000  0.060300  0.338100  1.0  -0.2389
  O  O169  1  0.868600  0.116600  0.265600  1.0  -0.7535
  O  O170  1  0.171800  0.172200  0.353400  1.0  -0.6689
  O  O171  1  0.296300  0.260100  0.326900  1.0  -0.7623
  O  O172  1  0.684400  0.209200  0.177300  1.0  -0.8175
  O  O173  1  0.906800  0.181300  0.125600  1.0  -0.6094
  O  O174  1  0.768800  0.333000  0.213900  1.0  -0.7376
  O  O175  1  0.017200  0.338200  0.282900  1.0  -0.5856
  O  O176  1  0.368600  0.616600  0.265600  1.0  -0.7535
  O  O177  1  0.671800  0.672200  0.353400  1.0  -0.6689
  O  O178  1  0.796300  0.760100  0.326900  1.0  -0.7623
  O  O179  1  0.184400  0.709200  0.177300  1.0  -0.8175
  O  O180  1  0.406800  0.681300  0.125600  1.0  -0.6094
  O  O181  1  0.268800  0.833000  0.213900  1.0  -0.7376
  O  O182  1  0.517200  0.838200  0.282900  1.0  -0.5856
  O  O183  1  0.131400  0.116600  0.734400  1.0  -0.7542
  O  O184  1  0.828200  0.172200  0.646600  1.0  -0.6693
  O  O185  1  0.703700  0.260100  0.673100  1.0  -0.7627
  O  O186  1  0.315600  0.209200  0.822700  1.0  -0.8158
  O  O187  1  0.093200  0.181300  0.874400  1.0  -0.6094
  O  O188  1  0.231200  0.333000  0.786100  1.0  -0.7384
  O  O189  1  0.982800  0.338200  0.717100  1.0  -0.5849
  O  O190  1  0.631400  0.616600  0.734400  1.0  -0.7542
  O  O191  1  0.328200  0.672200  0.646600  1.0  -0.6693
  O  O192  1  0.203700  0.760100  0.673100  1.0  -0.7627
  O  O193  1  0.815600  0.709200  0.822700  1.0  -0.8158
  O  O194  1  0.593200  0.681300  0.874400  1.0  -0.6094
  O  O195  1  0.731200  0.833000  0.786100  1.0  -0.7382
  O  O196  1  0.482800  0.838200  0.717100  1.0  -0.5849
  O  O197  1  0.131400  0.883400  0.734400  1.0  -0.7538
  O  O198  1  0.828200  0.827800  0.646600  1.0  -0.6691
  O  O199  1  0.703700  0.739900  0.673100  1.0  -0.7629
  O  O200  1  0.315600  0.790800  0.822700  1.0  -0.816
  O  O201  1  0.093200  0.818700  0.874400  1.0  -0.6091
  O  O202  1  0.231200  0.667000  0.786100  1.0  -0.738
  O  O203  1  0.982800  0.661800  0.717100  1.0  -0.5855
  O  O204  1  0.631400  0.383400  0.734400  1.0  -0.7538
  O  O205  1  0.328200  0.327800  0.646600  1.0  -0.6691
  O  O206  1  0.203700  0.239900  0.673100  1.0  -0.7629
  O  O207  1  0.815600  0.290800  0.822700  1.0  -0.816
  O  O208  1  0.593200  0.318700  0.874400  1.0  -0.6091
  O  O209  1  0.731200  0.167000  0.786100  1.0  -0.7382
  O  O210  1  0.482800  0.161800  0.717100  1.0  -0.5855
  O  O211  1  0.868600  0.883400  0.265600  1.0  -0.7539
  O  O212  1  0.171800  0.827800  0.353400  1.0  -0.6685
  O  O213  1  0.296300  0.739900  0.326900  1.0  -0.7636
  O  O214  1  0.684400  0.790800  0.177300  1.0  -0.8176
  O  O215  1  0.906800  0.818700  0.125600  1.0  -0.6088
  O  O216  1  0.768800  0.667000  0.213900  1.0  -0.7379
  O  O217  1  0.017200  0.661800  0.282900  1.0  -0.5857
  O  O218  1  0.368600  0.383400  0.265600  1.0  -0.7539
  O  O219  1  0.671800  0.327800  0.353400  1.0  -0.6685
  O  O220  1  0.796300  0.239900  0.326900  1.0  -0.7636
  O  O221  1  0.184400  0.290800  0.177300  1.0  -0.8176
  O  O222  1  0.406800  0.318700  0.125600  1.0  -0.6088
  O  O223  1  0.268800  0.167000  0.213900  1.0  -0.7379
  O  O224  1  0.517200  0.161800  0.282900  1.0  -0.5855
