# generated using pymatgen
data_ZnH11C18N2O5
_symmetry_space_group_name_H-M   'P 1'
_cell_length_a   11.44600000
_cell_length_b   19.90900000
_cell_length_c   11.82000000
_cell_angle_alpha   90.00000000
_cell_angle_beta   106.09800000
_cell_angle_gamma   90.00000000
_symmetry_Int_Tables_number   1
_chemical_formula_structural   ZnH11C18N2O5
_chemical_formula_sum   'Zn4 H44 C72 N8 O20'
_cell_volume   2587.90668088
_cell_formula_units_Z   4
loop_
 _symmetry_equiv_pos_site_id
 _symmetry_equiv_pos_as_xyz
  1  'x, y, z'
loop_
 _atom_site_type_symbol
 _atom_site_label
 _atom_site_symmetry_multiplicity
 _atom_site_fract_x
 _atom_site_fract_y
 _atom_site_fract_z
 _atom_site_occupancy
 _atom_site_charge
  Zn  Zn1  1  0.004600  0.081330  0.417170  1.0  0.9013
  Zn  Zn2  1  0.995400  0.581330  0.082830  1.0  0.9025
  Zn  Zn3  1  0.995400  0.918670  0.582830  1.0  0.9025
  Zn  Zn4  1  0.004600  0.418670  0.917170  1.0  0.901
  H  H5  1  0.026800  0.283700  0.518100  1.0  0.1156
  H  H6  1  0.036900  0.472800  0.405200  1.0  0.1309
  H  H7  1  0.037300  0.318300  0.187300  1.0  0.1231
  H  H8  1  0.177400  0.031700  0.270300  1.0  0.0785
  H  H9  1  0.370300  0.037700  0.261400  1.0  0.1317
  H  H10  1  0.458400  0.122400  0.575800  1.0  0.1406
  H  H11  1  0.261700  0.116200  0.572600  1.0  0.0813
  H  H12  1  0.637500  0.135500  0.562700  1.0  0.1405
  H  H13  1  0.551300  0.028700  0.269200  1.0  0.1311
  H  H14  1  0.748700  0.034800  0.266000  1.0  0.0923
  H  H15  1  0.835200  0.133300  0.557700  1.0  0.0837
  H  H16  1  0.973200  0.783700  0.981900  1.0  0.116
  H  H17  1  0.963100  0.972800  0.094800  1.0  0.1308
  H  H18  1  0.962700  0.818300  0.312700  1.0  0.1236
  H  H19  1  0.822600  0.531700  0.229700  1.0  0.079
  H  H20  1  0.629700  0.537700  0.238600  1.0  0.1325
  H  H21  1  0.541600  0.622400  0.924200  1.0  0.1412
  H  H22  1  0.738300  0.616200  0.927400  1.0  0.0819
  H  H23  1  0.362500  0.635500  0.937300  1.0  0.1406
  H  H24  1  0.448700  0.528700  0.230800  1.0  0.1311
  H  H25  1  0.251300  0.534800  0.234000  1.0  0.0923
  H  H26  1  0.164800  0.633300  0.942300  1.0  0.0841
  H  H27  1  0.973200  0.716300  0.481900  1.0  0.1146
  H  H28  1  0.963100  0.527200  0.594800  1.0  0.1311
  H  H29  1  0.962700  0.681700  0.812700  1.0  0.1234
  H  H30  1  0.822600  0.968300  0.729700  1.0  0.0779
  H  H31  1  0.629700  0.962300  0.738600  1.0  0.132
  H  H32  1  0.541600  0.877600  0.424200  1.0  0.1401
  H  H33  1  0.738300  0.883800  0.427400  1.0  0.0822
  H  H34  1  0.362500  0.864500  0.437300  1.0  0.1403
  H  H35  1  0.448700  0.971300  0.730800  1.0  0.1311
  H  H36  1  0.251300  0.965200  0.734000  1.0  0.0924
  H  H37  1  0.164800  0.866700  0.442300  1.0  0.0842
  H  H38  1  0.026800  0.216300  0.018100  1.0  0.1146
  H  H39  1  0.036900  0.027200  0.905200  1.0  0.1314
  H  H40  1  0.037300  0.181700  0.687300  1.0  0.1231
  H  H41  1  0.177400  0.468300  0.770300  1.0  0.078
  H  H42  1  0.370300  0.462300  0.761400  1.0  0.1317
  H  H43  1  0.458400  0.377600  0.075800  1.0  0.14
  H  H44  1  0.261700  0.383800  0.072600  1.0  0.0812
  H  H45  1  0.637500  0.364500  0.062700  1.0  0.1406
  H  H46  1  0.551300  0.471300  0.769200  1.0  0.1312
  H  H47  1  0.748700  0.465200  0.766000  1.0  0.0925
  H  H48  1  0.835200  0.366700  0.057700  1.0  0.0845
  C  C49  1  0.024200  0.214600  0.327200  1.0  0.7463
  C  C50  1  0.030700  0.289100  0.349100  1.0  -0.1532
  C  C51  1  0.030500  0.313500  0.458600  1.0  -0.0755
  C  C52  1  0.035700  0.381800  0.480400  1.0  0.2479
  C  C53  1  0.037700  0.426700  0.392100  1.0  -0.1139
  C  C54  1  0.040900  0.402000  0.283600  1.0  -0.1236
  C  C55  1  0.036500  0.334000  0.261200  1.0  -0.0167
  C  C56  1  0.039700  0.450200  0.186900  1.0  0.6844
  C  C57  1  0.233900  0.051700  0.333400  1.0  0.1826
  C  C58  1  0.351100  0.054000  0.327700  1.0  -0.2017
  C  C59  1  0.402700  0.103700  0.510700  1.0  -0.2279
  C  C60  1  0.282800  0.099900  0.507200  1.0  0.1896
  C  C61  1  0.658700  0.113200  0.502100  1.0  -0.198
  C  C62  1  0.440700  0.080200  0.418900  1.0  0.0997
  C  C63  1  0.574200  0.081700  0.417600  1.0  0.0193
  C  C64  1  0.608200  0.051100  0.328800  1.0  -0.2134
  C  C65  1  0.726800  0.054000  0.328900  1.0  0.2045
  C  C66  1  0.776800  0.112100  0.497800  1.0  0.1839
  C  C67  1  0.975800  0.714600  0.172800  1.0  0.747
  C  C68  1  0.969300  0.789100  0.150900  1.0  -0.1534
  C  C69  1  0.969500  0.813500  0.041400  1.0  -0.0753
  C  C70  1  0.964300  0.881800  0.019600  1.0  0.2504
  C  C71  1  0.962300  0.926700  0.107900  1.0  -0.1139
  C  C72  1  0.959100  0.902000  0.216400  1.0  -0.1249
  C  C73  1  0.963500  0.834000  0.238800  1.0  -0.0159
  C  C74  1  0.960300  0.950200  0.313100  1.0  0.684
  C  C75  1  0.766100  0.551700  0.166600  1.0  0.1831
  C  C76  1  0.648900  0.554000  0.172300  1.0  -0.2029
  C  C77  1  0.597300  0.603700  0.989300  1.0  -0.2281
  C  C78  1  0.717200  0.599900  0.992800  1.0  0.1892
  C  C79  1  0.341300  0.613200  0.997900  1.0  -0.1975
  C  C80  1  0.559300  0.580200  0.081100  1.0  0.0996
  C  C81  1  0.425800  0.581700  0.082400  1.0  0.0223
  C  C82  1  0.391800  0.551100  0.171200  1.0  -0.2151
  C  C83  1  0.273200  0.554000  0.171100  1.0  0.2036
  C  C84  1  0.223200  0.612100  0.002200  1.0  0.184
  C  C85  1  0.975800  0.785400  0.672800  1.0  0.748
  C  C86  1  0.969300  0.710900  0.650900  1.0  -0.1532
  C  C87  1  0.969500  0.686500  0.541400  1.0  -0.0757
  C  C88  1  0.964300  0.618200  0.519600  1.0  0.25
  C  C89  1  0.962300  0.573300  0.607900  1.0  -0.1149
  C  C90  1  0.959100  0.598000  0.716400  1.0  -0.125
  C  C91  1  0.963500  0.666000  0.738800  1.0  -0.0156
  C  C92  1  0.960300  0.549800  0.813100  1.0  0.6835
  C  C93  1  0.766100  0.948300  0.666667  1.0  0.1867
  C  C94  1  0.648900  0.946000  0.672300  1.0  -0.203
  C  C95  1  0.597300  0.896300  0.489300  1.0  -0.2193
  C  C96  1  0.717200  0.900100  0.492800  1.0  0.1883
  C  C97  1  0.341300  0.886800  0.497900  1.0  -0.1991
  C  C98  1  0.559300  0.919800  0.581100  1.0  0.0997
  C  C99  1  0.425800  0.918300  0.582400  1.0  0.0232
  C  C100  1  0.391800  0.948900  0.671200  1.0  -0.2143
  C  C101  1  0.273200  0.946000  0.671100  1.0  0.2031
  C  C102  1  0.223200  0.887900  0.502200  1.0  0.1842
  C  C103  1  0.024200  0.285400  0.827200  1.0  0.7475
  C  C104  1  0.030700  0.210900  0.849100  1.0  -0.1529
  C  C105  1  0.030500  0.186500  0.958600  1.0  -0.0759
  C  C106  1  0.035700  0.118200  0.980400  1.0  0.2475
  C  C107  1  0.037700  0.073300  0.892100  1.0  -0.114
  C  C108  1  0.040900  0.098000  0.783600  1.0  -0.1227
  C  C109  1  0.036500  0.166000  0.761200  1.0  -0.0165
  C  C110  1  0.039700  0.049800  0.686900  1.0  0.6837
  C  C111  1  0.233900  0.448300  0.833400  1.0  0.1824
  C  C112  1  0.351100  0.446000  0.827700  1.0  -0.2015
  C  C113  1  0.402700  0.396300  0.010700  1.0  -0.228
  C  C114  1  0.282800  0.400100  0.007200  1.0  0.1904
  C  C115  1  0.658700  0.386800  0.002100  1.0  -0.1993
  C  C116  1  0.440700  0.419800  0.918900  1.0  0.0992
  C  C117  1  0.574200  0.418300  0.917600  1.0  0.0203
  C  C118  1  0.608200  0.448900  0.828800  1.0  -0.2132
  C  C119  1  0.726800  0.446000  0.828900  1.0  0.2041
  C  C120  1  0.776800  0.387900  0.997800  1.0  0.1839
  N  N121  1  0.812300  0.082350  0.412800  1.0  -0.3108
  N  N122  1  0.192600  0.075190  0.420400  1.0  -0.2747
  N  N123  1  0.187700  0.582350  0.087200  1.0  -0.3113
  N  N124  1  0.807400  0.575190  0.079600  1.0  -0.2751
  N  N125  1  0.187700  0.917650  0.587200  1.0  -0.3123
  N  N126  1  0.807400  0.924810  0.579600  1.0  -0.2809
  N  N127  1  0.812300  0.417650  0.912800  1.0  -0.3117
  N  N128  1  0.192600  0.424810  0.920400  1.0  -0.2744
  O  O129  1  0.004600  0.178850  0.406800  1.0  -0.5943
  O  O130  1  0.036700  0.192760  0.235200  1.0  -0.5033
  O  O131  1  0.052000  0.428010  0.092100  1.0  -0.6169
  O  O132  1  0.028200  0.511910  0.207500  1.0  -0.5777
  O  O133  1  0.035900  0.406870  0.587500  1.0  -0.5103
  O  O134  1  0.995400  0.678850  0.093200  1.0  -0.5942
  O  O135  1  0.963300  0.692760  0.264800  1.0  -0.5011
  O  O136  1  0.948000  0.928010  0.407900  1.0  -0.6146
  O  O137  1  0.971800  0.011910  0.292500  1.0  -0.5779
  O  O138  1  0.964100  0.906870  0.912500  1.0  -0.5119
  O  O139  1  0.995400  0.821150  0.593200  1.0  -0.5941
  O  O140  1  0.963300  0.807240  0.764800  1.0  -0.5017
  O  O141  1  0.948000  0.571990  0.907900  1.0  -0.6148
  O  O142  1  0.971800  0.488090  0.792500  1.0  -0.5785
  O  O143  1  0.964100  0.593130  0.412500  1.0  -0.5139
  O  O144  1  0.004600  0.321150  0.906800  1.0  -0.5939
  O  O145  1  0.036700  0.307240  0.735200  1.0  -0.5038
  O  O146  1  0.052000  0.071990  0.592100  1.0  -0.616
  O  O147  1  0.028200  0.988090  0.707500  1.0  -0.5783
  O  O148  1  0.035900  0.093130  0.087500  1.0  -0.5117
