# generated using pymatgen
data_NdHC12N5O6
_symmetry_space_group_name_H-M   'P 1'
_cell_length_a   7.59990000
_cell_length_b   21.09200000
_cell_length_c   19.51500000
_cell_angle_alpha   90.00000000
_cell_angle_beta   98.30500000
_cell_angle_gamma   90.00000000
_symmetry_Int_Tables_number   1
_chemical_formula_structural   NdHC12N5O6
_chemical_formula_sum   'Nd8 H8 C96 N40 O48'
_cell_volume   3095.39290502
_cell_formula_units_Z   8
loop_
 _symmetry_equiv_pos_site_id
 _symmetry_equiv_pos_as_xyz
  1  'x, y, z'
loop_
 _atom_site_type_symbol
 _atom_site_label
 _atom_site_symmetry_multiplicity
 _atom_site_fract_x
 _atom_site_fract_y
 _atom_site_fract_z
 _atom_site_occupancy
 _atom_site_charge
  Nd  Nd1  1  0.988590  0.723590  0.755390  1.0  2.3113
  Nd  Nd2  1  0.488590  0.223590  0.755390  1.0  2.3116
  Nd  Nd3  1  0.011410  0.723590  0.244610  1.0  2.3115
  Nd  Nd4  1  0.511410  0.223590  0.244610  1.0  2.3118
  Nd  Nd5  1  0.011410  0.276410  0.244610  1.0  2.3105
  Nd  Nd6  1  0.511410  0.776410  0.244610  1.0  2.3107
  Nd  Nd7  1  0.988590  0.276410  0.755390  1.0  2.3103
  Nd  Nd8  1  0.488590  0.776410  0.755390  1.0  2.3105
  H  H9  1  0.599300  0.674300  0.894900  1.0  0.1142
  H  H10  1  0.099300  0.174300  0.894900  1.0  0.1142
  H  H11  1  0.400700  0.674300  0.105100  1.0  0.1144
  H  H12  1  0.900700  0.174300  0.105100  1.0  0.1144
  H  H13  1  0.400700  0.325700  0.105100  1.0  0.1155
  H  H14  1  0.900700  0.825700  0.105100  1.0  0.1155
  H  H15  1  0.599300  0.325700  0.894900  1.0  0.1137
  H  H16  1  0.099300  0.825700  0.894900  1.0  0.1136
  C  C17  1  0.717500  0.716100  0.632200  1.0  0.7148
  C  C18  1  0.602200  0.715800  0.564300  1.0  -0.0944
  C  C19  1  0.552100  0.658400  0.532200  1.0  0.1849
  C  C20  1  0.548800  0.772800  0.532400  1.0  0.3413
  C  C21  1  0.254300  0.690100  0.875800  1.0  0.7191
  C  C22  1  0.378100  0.678000  0.938900  1.0  -0.077
  C  C23  1  0.317300  0.674800  0.003300  1.0  0.2493
  C  C24  1  0.558900  0.675500  0.937700  1.0  -0.0914
  C  C25  1  0.113700  0.864600  0.751900  1.0  0.6912
  C  C26  1  0.121200  0.934900  0.750700  1.0  -0.0993
  C  C27  1  0.004400  0.967600  0.702500  1.0  0.2964
  C  C28  1  0.242500  0.966700  0.797400  1.0  0.1997
  C  C29  1  0.217500  0.216100  0.632200  1.0  0.7148
  C  C30  1  0.102200  0.215800  0.564300  1.0  -0.0944
  C  C31  1  0.052100  0.158400  0.532200  1.0  0.1849
  C  C32  1  0.048800  0.272800  0.532400  1.0  0.3413
  C  C33  1  0.754300  0.190100  0.875800  1.0  0.7191
  C  C34  1  0.878100  0.178000  0.938900  1.0  -0.077
  C  C35  1  0.817300  0.174800  0.003300  1.0  0.2493
  C  C36  1  0.058900  0.175500  0.937700  1.0  -0.0914
  C  C37  1  0.613700  0.364600  0.751900  1.0  0.6914
  C  C38  1  0.621200  0.434900  0.750700  1.0  -0.099
  C  C39  1  0.504400  0.467600  0.702500  1.0  0.2964
  C  C40  1  0.742500  0.466700  0.797400  1.0  0.1997
  C  C41  1  0.282500  0.716100  0.367800  1.0  0.7141
  C  C42  1  0.397800  0.715800  0.435700  1.0  -0.0961
  C  C43  1  0.447900  0.658400  0.467800  1.0  0.1836
  C  C44  1  0.451200  0.772800  0.467600  1.0  0.3454
  C  C45  1  0.745700  0.690100  0.124200  1.0  0.7203
  C  C46  1  0.621900  0.678000  0.061100  1.0  -0.0779
  C  C47  1  0.682700  0.674800  0.996700  1.0  0.2504
  C  C48  1  0.441100  0.675500  0.062300  1.0  -0.0928
  C  C49  1  0.886300  0.864600  0.248100  1.0  0.6914
  C  C50  1  0.878800  0.934900  0.249300  1.0  -0.0993
  C  C51  1  0.995600  0.967600  0.297500  1.0  0.2956
  C  C52  1  0.757500  0.966700  0.202600  1.0  0.1993
  C  C53  1  0.782500  0.216100  0.367800  1.0  0.7141
  C  C54  1  0.897800  0.215800  0.435700  1.0  -0.0961
  C  C55  1  0.947900  0.158400  0.467800  1.0  0.1836
  C  C56  1  0.951200  0.272800  0.467600  1.0  0.3454
  C  C57  1  0.245700  0.190100  0.124200  1.0  0.7203
  C  C58  1  0.121900  0.178000  0.061100  1.0  -0.0779
  C  C59  1  0.182700  0.174800  0.996700  1.0  0.2504
  C  C60  1  0.941100  0.175500  0.062300  1.0  -0.0928
  C  C61  1  0.386300  0.364600  0.248100  1.0  0.6915
  C  C62  1  0.378800  0.434900  0.249300  1.0  -0.099
  C  C63  1  0.495600  0.467600  0.297500  1.0  0.2956
  C  C64  1  0.257500  0.466700  0.202600  1.0  0.1993
  C  C65  1  0.282500  0.283900  0.367800  1.0  0.7143
  C  C66  1  0.397800  0.284200  0.435700  1.0  -0.0941
  C  C67  1  0.447900  0.341600  0.467800  1.0  0.1845
  C  C68  1  0.451200  0.227200  0.467600  1.0  0.3416
  C  C69  1  0.745700  0.309900  0.124200  1.0  0.7186
  C  C70  1  0.621900  0.322000  0.061100  1.0  -0.0776
  C  C71  1  0.682700  0.325200  0.996700  1.0  0.2506
  C  C72  1  0.441100  0.324500  0.062300  1.0  -0.0927
  C  C73  1  0.886300  0.135400  0.248100  1.0  0.6918
  C  C74  1  0.878800  0.065100  0.249300  1.0  -0.0987
  C  C75  1  0.995600  0.032400  0.297500  1.0  0.2962
  C  C76  1  0.757500  0.033300  0.202600  1.0  0.1965
  C  C77  1  0.782500  0.783900  0.367800  1.0  0.7143
  C  C78  1  0.897800  0.784200  0.435700  1.0  -0.0941
  C  C79  1  0.947900  0.841600  0.467800  1.0  0.1845
  C  C80  1  0.951200  0.727200  0.467600  1.0  0.3416
  C  C81  1  0.245700  0.809900  0.124200  1.0  0.7186
  C  C82  1  0.121900  0.822000  0.061100  1.0  -0.0776
  C  C83  1  0.182700  0.825200  0.996700  1.0  0.2506
  C  C84  1  0.941100  0.824500  0.062300  1.0  -0.0927
  C  C85  1  0.386300  0.635400  0.248100  1.0  0.6918
  C  C86  1  0.378800  0.565100  0.249300  1.0  -0.0984
  C  C87  1  0.495600  0.532400  0.297500  1.0  0.2962
  C  C88  1  0.257500  0.533300  0.202600  1.0  0.1965
  C  C89  1  0.717500  0.283900  0.632200  1.0  0.7147
  C  C90  1  0.602200  0.284200  0.564300  1.0  -0.0951
  C  C91  1  0.552100  0.341600  0.532200  1.0  0.1851
  C  C92  1  0.548800  0.227200  0.532400  1.0  0.3457
  C  C93  1  0.254300  0.309900  0.875800  1.0  0.718
  C  C94  1  0.378100  0.322000  0.938900  1.0  -0.0765
  C  C95  1  0.317300  0.325200  0.003300  1.0  0.2494
  C  C96  1  0.558900  0.324500  0.937700  1.0  -0.0908
  C  C97  1  0.113700  0.135400  0.751900  1.0  0.6917
  C  C98  1  0.121200  0.065100  0.750700  1.0  -0.0987
  C  C99  1  0.004400  0.032400  0.702500  1.0  0.297
  C  C100  1  0.242500  0.033300  0.797400  1.0  0.1965
  C  C101  1  0.217500  0.783900  0.632200  1.0  0.7147
  C  C102  1  0.102200  0.784200  0.564300  1.0  -0.0951
  C  C103  1  0.052100  0.841600  0.532200  1.0  0.1851
  C  C104  1  0.048800  0.727200  0.532400  1.0  0.3457
  C  C105  1  0.754300  0.809900  0.875800  1.0  0.718
  C  C106  1  0.878100  0.822000  0.938900  1.0  -0.0765
  C  C107  1  0.817300  0.825200  0.003300  1.0  0.2494
  C  C108  1  0.058900  0.824500  0.937700  1.0  -0.0908
  C  C109  1  0.613700  0.635400  0.751900  1.0  0.6919
  C  C110  1  0.621200  0.565100  0.750700  1.0  -0.0984
  C  C111  1  0.504400  0.532400  0.702500  1.0  0.297
  C  C112  1  0.742500  0.533300  0.797400  1.0  0.1965
  N  N113  1  0.599000  0.826400  0.554000  1.0  -0.3289
  N  N114  1  0.636000  0.599100  0.551900  1.0  -0.2321
  N  N115  1  0.363000  0.942700  0.849700  1.0  -0.256
  N  N116  1  0.877000  0.939700  0.660400  1.0  -0.2205
  N  N117  1  0.146700  0.660900  0.009500  1.0  -0.3876
  N  N118  1  0.099000  0.326400  0.554000  1.0  -0.3289
  N  N119  1  0.136000  0.099100  0.551900  1.0  -0.2321
  N  N120  1  0.863000  0.442700  0.849700  1.0  -0.2559
  N  N121  1  0.377000  0.439700  0.660400  1.0  -0.2205
  N  N122  1  0.646700  0.160900  0.009500  1.0  -0.3876
  N  N123  1  0.401000  0.826400  0.446000  1.0  -0.3274
  N  N124  1  0.364000  0.599100  0.448100  1.0  -0.2326
  N  N125  1  0.637000  0.942700  0.150300  1.0  -0.2566
  N  N126  1  0.123000  0.939700  0.339600  1.0  -0.2195
  N  N127  1  0.853300  0.660900  0.990500  1.0  -0.3871
  N  N128  1  0.901000  0.326400  0.446000  1.0  -0.3274
  N  N129  1  0.864000  0.099100  0.448100  1.0  -0.2326
  N  N130  1  0.137000  0.442700  0.150300  1.0  -0.2565
  N  N131  1  0.623000  0.439700  0.339600  1.0  -0.2195
  N  N132  1  0.353300  0.160900  0.990500  1.0  -0.3871
  N  N133  1  0.401000  0.173600  0.446000  1.0  -0.3252
  N  N134  1  0.364000  0.400900  0.448100  1.0  -0.2315
  N  N135  1  0.637000  0.057300  0.150300  1.0  -0.2561
  N  N136  1  0.123000  0.060300  0.339600  1.0  -0.2195
  N  N137  1  0.853300  0.339100  0.990500  1.0  -0.3907
  N  N138  1  0.901000  0.673600  0.446000  1.0  -0.3252
  N  N139  1  0.864000  0.900900  0.448100  1.0  -0.2315
  N  N140  1  0.137000  0.557300  0.150300  1.0  -0.256
  N  N141  1  0.623000  0.560300  0.339600  1.0  -0.2195
  N  N142  1  0.353300  0.839100  0.990500  1.0  -0.3907
  N  N143  1  0.599000  0.173600  0.554000  1.0  -0.3247
  N  N144  1  0.636000  0.400900  0.551900  1.0  -0.2315
  N  N145  1  0.363000  0.057300  0.849700  1.0  -0.2563
  N  N146  1  0.877000  0.060300  0.660400  1.0  -0.2206
  N  N147  1  0.146700  0.339100  0.009500  1.0  -0.3904
  N  N148  1  0.099000  0.673600  0.554000  1.0  -0.3247
  N  N149  1  0.136000  0.900900  0.551900  1.0  -0.2315
  N  N150  1  0.863000  0.557300  0.849700  1.0  -0.2562
  N  N151  1  0.377000  0.560300  0.660400  1.0  -0.2206
  N  N152  1  0.646700  0.839100  0.009500  1.0  -0.3904
  O  O153  1  0.829300  0.673800  0.647900  1.0  -0.5948
  O  O154  1  0.700200  0.760900  0.675000  1.0  -0.7681
  O  O155  1  0.314600  0.710500  0.822500  1.0  -0.752
  O  O156  1  0.090900  0.683000  0.873700  1.0  -0.6043
  O  O157  1  0.234500  0.833300  0.786000  1.0  -0.6901
  O  O158  1  0.982900  0.837400  0.717900  1.0  -0.6274
  O  O159  1  0.329300  0.173800  0.647900  1.0  -0.5948
  O  O160  1  0.200200  0.260900  0.675000  1.0  -0.7681
  O  O161  1  0.814600  0.210500  0.822500  1.0  -0.752
  O  O162  1  0.590900  0.183000  0.873700  1.0  -0.6043
  O  O163  1  0.734500  0.333333  0.786000  1.0  -0.69
  O  O164  1  0.482900  0.337400  0.717900  1.0  -0.6274
  O  O165  1  0.170700  0.673800  0.352100  1.0  -0.595
  O  O166  1  0.299800  0.760900  0.325000  1.0  -0.7667
  O  O167  1  0.685400  0.710500  0.177500  1.0  -0.7523
  O  O168  1  0.909100  0.683000  0.126300  1.0  -0.6039
  O  O169  1  0.765500  0.833300  0.214000  1.0  -0.6901
  O  O170  1  0.017100  0.837400  0.282100  1.0  -0.6271
  O  O171  1  0.670700  0.173800  0.352100  1.0  -0.595
  O  O172  1  0.799800  0.260900  0.325000  1.0  -0.7667
  O  O173  1  0.185400  0.210500  0.177500  1.0  -0.7523
  O  O174  1  0.409100  0.183000  0.126300  1.0  -0.6039
  O  O175  1  0.265500  0.333333  0.214000  1.0  -0.6901
  O  O176  1  0.517100  0.337400  0.282100  1.0  -0.6271
  O  O177  1  0.170700  0.326200  0.352100  1.0  -0.5945
  O  O178  1  0.299800  0.239100  0.325000  1.0  -0.769
  O  O179  1  0.685400  0.289500  0.177500  1.0  -0.7529
  O  O180  1  0.909100  0.317000  0.126300  1.0  -0.6043
  O  O181  1  0.765500  0.166700  0.214000  1.0  -0.6899
  O  O182  1  0.017100  0.162600  0.282100  1.0  -0.6268
  O  O183  1  0.670700  0.826200  0.352100  1.0  -0.5945
  O  O184  1  0.799800  0.739100  0.325000  1.0  -0.769
  O  O185  1  0.185400  0.789500  0.177500  1.0  -0.7529
  O  O186  1  0.409100  0.817000  0.126300  1.0  -0.6043
  O  O187  1  0.265500  0.666667  0.214000  1.0  -0.6899
  O  O188  1  0.517100  0.662600  0.282100  1.0  -0.6268
  O  O189  1  0.829300  0.326200  0.647900  1.0  -0.5946
  O  O190  1  0.700200  0.239100  0.675000  1.0  -0.7676
  O  O191  1  0.314600  0.289500  0.822500  1.0  -0.7519
  O  O192  1  0.090900  0.317000  0.873700  1.0  -0.6041
  O  O193  1  0.234500  0.166700  0.786000  1.0  -0.6895
  O  O194  1  0.982900  0.162600  0.717900  1.0  -0.6278
  O  O195  1  0.329300  0.826200  0.647900  1.0  -0.5946
  O  O196  1  0.200200  0.739100  0.675000  1.0  -0.7677
  O  O197  1  0.814600  0.789500  0.822500  1.0  -0.7519
  O  O198  1  0.590900  0.817000  0.873700  1.0  -0.6041
  O  O199  1  0.734500  0.666667  0.786000  1.0  -0.6895
  O  O200  1  0.482900  0.662600  0.717900  1.0  -0.6278
