# generated using pymatgen
data_CdH9C14BrN3O4
_symmetry_space_group_name_H-M   'P 1'
_cell_length_a   15.46600000
_cell_length_b   8.05570000
_cell_length_c   18.44500000
_cell_angle_alpha   90.00000000
_cell_angle_beta   123.60500000
_cell_angle_gamma   90.00000000
_symmetry_Int_Tables_number   1
_chemical_formula_structural   CdH9C14BrN3O4
_chemical_formula_sum   'Cd4 H36 C56 Br4 N12 O16'
_cell_volume   1913.98576981
_cell_formula_units_Z   4
loop_
 _symmetry_equiv_pos_site_id
 _symmetry_equiv_pos_as_xyz
  1  'x, y, z'
loop_
 _atom_site_type_symbol
 _atom_site_label
 _atom_site_symmetry_multiplicity
 _atom_site_fract_x
 _atom_site_fract_y
 _atom_site_fract_z
 _atom_site_occupancy
 _atom_site_charge
  Cd  Cd1  1  0.025710  0.610050  0.865840  1.0  0.9954
  Cd  Cd2  1  0.974290  0.110050  0.634160  1.0  0.9948
  Cd  Cd3  1  0.974290  0.389950  0.134160  1.0  0.995
  Cd  Cd4  1  0.025710  0.889950  0.365840  1.0  0.9952
  H  H5  1  0.959400  0.100700  0.891400  1.0  0.1061
  H  H6  1  0.715100  0.026700  0.907700  1.0  0.0995
  H  H7  1  0.631900  0.882200  0.778400  1.0  0.1125
  H  H8  1  0.846300  0.372500  0.695800  1.0  0.1028
  H  H9  1  0.811800  0.551000  0.872600  1.0  0.0805
  H  H10  1  0.607000  0.192800  0.648400  1.0  0.1273
  H  H11  1  0.675000  0.195700  0.609300  1.0  0.1208
  H  H12  1  0.465000  0.391800  0.596000  1.0  0.1114
  H  H13  1  0.645100  0.415600  0.505600  1.0  0.099
  H  H14  1  0.040600  0.600700  0.608600  1.0  0.106
  H  H15  1  0.284900  0.526700  0.592300  1.0  0.1
  H  H16  1  0.368100  0.382200  0.721600  1.0  0.112
  H  H17  1  0.153700  0.872500  0.804200  1.0  0.1027
  H  H18  1  0.188200  0.051000  0.627400  1.0  0.0794
  H  H19  1  0.393000  0.692800  0.851600  1.0  0.1263
  H  H20  1  0.325000  0.695700  0.890700  1.0  0.1216
  H  H21  1  0.535000  0.891800  0.904000  1.0  0.1111
  H  H22  1  0.354900  0.915600  0.994400  1.0  0.099
  H  H23  1  0.040600  0.899300  0.108600  1.0  0.1069
  H  H24  1  0.284900  0.973300  0.092300  1.0  0.1002
  H  H25  1  0.368100  0.117800  0.221600  1.0  0.1121
  H  H26  1  0.153700  0.627500  0.304200  1.0  0.1026
  H  H27  1  0.188200  0.449000  0.127400  1.0  0.0797
  H  H28  1  0.393000  0.807200  0.351600  1.0  0.1256
  H  H29  1  0.325000  0.804300  0.390700  1.0  0.1211
  H  H30  1  0.535000  0.608200  0.404000  1.0  0.1111
  H  H31  1  0.354900  0.584400  0.494400  1.0  0.0989
  H  H32  1  0.959400  0.399300  0.391400  1.0  0.1066
  H  H33  1  0.715100  0.473300  0.407700  1.0  0.0997
  H  H34  1  0.631900  0.617800  0.278400  1.0  0.1122
  H  H35  1  0.846300  0.127500  0.195800  1.0  0.1026
  H  H36  1  0.811800  0.949000  0.372600  1.0  0.0807
  H  H37  1  0.607000  0.307200  0.148400  1.0  0.1266
  H  H38  1  0.675000  0.304300  0.109300  1.0  0.1207
  H  H39  1  0.465000  0.108200  0.096000  1.0  0.1109
  H  H40  1  0.645100  0.084400  0.005600  1.0  0.099
  C  C41  1  0.844700  0.968700  0.790200  1.0  -0.0881
  C  C42  1  0.893300  0.057800  0.868200  1.0  -0.0493
  C  C43  1  0.844500  0.083300  0.911500  1.0  -0.1652
  C  C44  1  0.747200  0.013900  0.877800  1.0  -0.0142
  C  C45  1  0.697500  0.926700  0.800900  1.0  -0.0749
  C  C46  1  0.746400  0.905800  0.757200  1.0  -0.0168
  C  C47  1  0.900700  0.948800  0.744100  1.0  0.728
  C  C48  1  0.894600  0.188900  0.992400  1.0  0.6747
  C  C49  1  0.819600  0.399600  0.728700  1.0  0.1339
  C  C50  1  0.798900  0.495500  0.823300  1.0  0.2796
  C  C51  1  0.644000  0.264700  0.632100  1.0  -0.0963
  C  C52  1  0.568300  0.384900  0.562400  1.0  0.0517
  C  C53  1  0.479900  0.435500  0.557500  1.0  -0.0954
  C  C54  1  0.586700  0.449400  0.504100  1.0  -0.0746
  C  C55  1  0.155300  0.468700  0.709800  1.0  -0.0883
  C  C56  1  0.106700  0.557800  0.631800  1.0  -0.0492
  C  C57  1  0.155500  0.583300  0.588500  1.0  -0.1654
  C  C58  1  0.252800  0.513900  0.622200  1.0  -0.0178
  C  C59  1  0.302500  0.426700  0.699100  1.0  -0.077
  C  C60  1  0.253600  0.405800  0.742800  1.0  -0.0142
  C  C61  1  0.099300  0.448800  0.755900  1.0  0.7281
  C  C62  1  0.105400  0.688900  0.507600  1.0  0.6753
  C  C63  1  0.180400  0.899600  0.771300  1.0  0.1322
  C  C64  1  0.201100  0.995500  0.676700  1.0  0.28
  C  C65  1  0.356000  0.764700  0.867900  1.0  -0.0973
  C  C66  1  0.431700  0.884900  0.937600  1.0  0.0525
  C  C67  1  0.520100  0.935500  0.942500  1.0  -0.096
  C  C68  1  0.413300  0.949400  0.995900  1.0  -0.0719
  C  C69  1  0.155300  0.031300  0.209800  1.0  -0.0881
  C  C70  1  0.106700  0.942200  0.131800  1.0  -0.0489
  C  C71  1  0.155500  0.916700  0.088500  1.0  -0.1663
  C  C72  1  0.252800  0.986100  0.122200  1.0  -0.0182
  C  C73  1  0.302500  0.073300  0.199100  1.0  -0.0769
  C  C74  1  0.253600  0.094200  0.242800  1.0  -0.0149
  C  C75  1  0.099300  0.051200  0.255900  1.0  0.7279
  C  C76  1  0.105400  0.811100  0.007600  1.0  0.6745
  C  C77  1  0.180400  0.600400  0.271300  1.0  0.1322
  C  C78  1  0.201100  0.504500  0.176700  1.0  0.2802
  C  C79  1  0.356000  0.735300  0.367900  1.0  -0.0977
  C  C80  1  0.431700  0.615100  0.437600  1.0  0.0524
  C  C81  1  0.520100  0.564500  0.442500  1.0  -0.0921
  C  C82  1  0.413300  0.550600  0.495900  1.0  -0.0731
  C  C83  1  0.844700  0.531300  0.290200  1.0  -0.0874
  C  C84  1  0.893300  0.442200  0.368200  1.0  -0.0492
  C  C85  1  0.844500  0.416700  0.411500  1.0  -0.1648
  C  C86  1  0.747200  0.486100  0.377800  1.0  -0.0147
  C  C87  1  0.697500  0.573300  0.300900  1.0  -0.076
  C  C88  1  0.746400  0.594200  0.257200  1.0  -0.0169
  C  C89  1  0.900700  0.551200  0.244100  1.0  0.7285
  C  C90  1  0.894600  0.311100  0.492400  1.0  0.6755
  C  C91  1  0.819600  0.100400  0.228700  1.0  0.1337
  C  C92  1  0.798900  0.004500  0.323300  1.0  0.2805
  C  C93  1  0.644000  0.235300  0.132100  1.0  -0.0962
  C  C94  1  0.568300  0.115100  0.062400  1.0  0.0518
  C  C95  1  0.479900  0.064500  0.057500  1.0  -0.0913
  C  C96  1  0.586700  0.050600  0.004100  1.0  -0.0757
  Br  Br97  1  0.674010  0.793900  0.648210  1.0  -0.0834
  Br  Br98  1  0.325990  0.293900  0.851790  1.0  -0.0831
  Br  Br99  1  0.325990  0.206100  0.351790  1.0  -0.0832
  Br  Br100  1  0.674010  0.706100  0.148210  1.0  -0.0832
  N  N101  1  0.868400  0.489200  0.801500  1.0  -0.4182
  N  N102  1  0.711000  0.417300  0.769800  1.0  -0.3743
  N  N103  1  0.726700  0.355000  0.710100  1.0  0.1779
  N  N104  1  0.131600  0.989200  0.698500  1.0  -0.4179
  N  N105  1  0.289000  0.917300  0.730200  1.0  -0.3754
  N  N106  1  0.273300  0.855000  0.789900  1.0  0.1781
  N  N107  1  0.131600  0.510800  0.198500  1.0  -0.4185
  N  N108  1  0.289000  0.582700  0.230200  1.0  -0.3745
  N  N109  1  0.273300  0.645000  0.289900  1.0  0.179
  N  N110  1  0.868400  0.010800  0.301500  1.0  -0.4171
  N  N111  1  0.711000  0.082700  0.269800  1.0  -0.3747
  N  N112  1  0.726700  0.145000  0.210100  1.0  0.1786
  O  O113  1  0.962600  0.832500  0.763900  1.0  -0.6582
  O  O114  1  0.879400  0.058000  0.687800  1.0  -0.5938
  O  O115  1  0.976300  0.268100  0.016530  1.0  -0.5957
  O  O116  1  0.852700  0.193800  0.035300  1.0  -0.6029
  O  O117  1  0.037400  0.332500  0.736100  1.0  -0.6579
  O  O118  1  0.120600  0.558000  0.812200  1.0  -0.5939
  O  O119  1  0.023700  0.768100  0.483470  1.0  -0.5956
  O  O120  1  0.147300  0.693800  0.464700  1.0  -0.6007
  O  O121  1  0.037400  0.167500  0.236100  1.0  -0.6582
  O  O122  1  0.120600  0.942000  0.312200  1.0  -0.594
  O  O123  1  0.023700  0.731900  0.983470  1.0  -0.5963
  O  O124  1  0.147300  0.806200  0.964700  1.0  -0.6009
  O  O125  1  0.962600  0.667500  0.263900  1.0  -0.6579
  O  O126  1  0.879400  0.442000  0.187800  1.0  -0.5941
  O  O127  1  0.976300  0.231900  0.516530  1.0  -0.5959
  O  O128  1  0.852700  0.306200  0.535300  1.0  -0.6026
