# generated using pymatgen
data_Cd2H25C44S4(NO2)4
_symmetry_space_group_name_H-M   'P 1'
_cell_length_a   12.21900000
_cell_length_b   12.81500000
_cell_length_c   20.58500000
_cell_angle_alpha   95.18700000
_cell_angle_beta   92.18400000
_cell_angle_gamma   105.72400000
_symmetry_Int_Tables_number   1
_chemical_formula_structural   Cd2H25C44S4(NO2)4
_chemical_formula_sum   'Cd4 H50 C88 S8 N8 O16'
_cell_volume   3083.40720458
_cell_formula_units_Z   2
loop_
 _symmetry_equiv_pos_site_id
 _symmetry_equiv_pos_as_xyz
  1  'x, y, z'
loop_
 _atom_site_type_symbol
 _atom_site_label
 _atom_site_symmetry_multiplicity
 _atom_site_fract_x
 _atom_site_fract_y
 _atom_site_fract_z
 _atom_site_occupancy
 _atom_site_charge
  Cd  Cd1  1  0.291080  0.682310  0.236290  1.0  0.9648
  Cd  Cd2  1  0.776830  0.544270  0.289850  1.0  0.9186
  Cd  Cd3  1  0.708920  0.317690  0.763710  1.0  0.9641
  Cd  Cd4  1  0.223170  0.455730  0.710150  1.0  0.918
  H  H5  1  0.755700  0.314200  0.485400  1.0  0.1161
  H  H6  1  0.445300  0.255200  0.387700  1.0  0.1248
  H  H7  1  0.541400  0.379500  0.316200  1.0  0.0846
  H  H8  1  0.829300  0.438200  0.418300  1.0  0.0968
  H  H9  1  0.602300  0.963100  0.150200  1.0  0.1257
  H  H10  1  0.673700  0.087300  0.082600  1.0  0.0819
  H  H11  1  0.324100  0.838400  0.027400  1.0  0.1027
  H  H12  1  0.324600  0.556100  0.097200  1.0  0.0965
  H  H13  1  0.261000  0.393800  0.028600  1.0  0.1315
  H  H14  1  0.027200  0.291900  0.161300  1.0  0.1215
  H  H15  1  0.100000  0.450500  0.224700  1.0  0.0877
  H  H16  1  0.188900  0.904900  0.122800  1.0  0.088
  H  H17  1  0.140000  0.049600  0.078400  1.0  0.1067
  H  H18  1  0.839800  0.959100  0.149700  1.0  0.1057
  H  H19  1  0.524100  0.041400  0.385800  1.0  0.1217
  H  H20  1  0.484400  0.895200  0.304400  1.0  0.0862
  H  H21  1  0.199800  0.936100  0.436300  1.0  0.1124
  H  H22  1  0.010600  0.629200  0.107600  1.0  0.115
  H  H23  1  0.829900  0.928600  0.356600  1.0  0.1063
  H  H24  1  0.966100  0.784400  0.488000  1.0  0.0819
  H  H25  1  0.898900  0.832700  0.203000  1.0  0.08
  H  H26  1  0.171600  0.791300  0.350900  1.0  0.0713
  H  H27  1  0.699100  0.640800  0.494200  1.0  0.1209
  H  H28  1  0.256400  0.439200  0.412300  1.0  0.1084
  H  H29  1  0.586800  0.643300  0.403300  1.0  0.29
  H  H30  1  0.244300  0.685800  0.514600  1.0  0.1158
  H  H31  1  0.554700  0.744800  0.612300  1.0  0.1247
  H  H32  1  0.458600  0.620500  0.683800  1.0  0.0847
  H  H33  1  0.170700  0.561800  0.581700  1.0  0.0968
  H  H34  1  0.397700  0.036900  0.849800  1.0  0.1255
  H  H35  1  0.326300  0.912700  0.917400  1.0  0.0816
  H  H36  1  0.675900  0.161600  0.972600  1.0  0.1028
  H  H37  1  0.675400  0.443900  0.902800  1.0  0.0978
  H  H38  1  0.739000  0.606200  0.971400  1.0  0.1312
  H  H39  1  0.972800  0.708100  0.838700  1.0  0.1224
  H  H40  1  0.900000  0.549500  0.775300  1.0  0.0877
  H  H41  1  0.811100  0.095100  0.877200  1.0  0.088
  H  H42  1  0.860000  0.950400  0.921600  1.0  0.1057
  H  H43  1  0.160200  0.040900  0.850300  1.0  0.1053
  H  H44  1  0.475900  0.958600  0.614200  1.0  0.1219
  H  H45  1  0.515600  0.104800  0.695600  1.0  0.0868
  H  H46  1  0.800200  0.063900  0.563700  1.0  0.1124
  H  H47  1  0.989400  0.370800  0.892400  1.0  0.1155
  H  H48  1  0.170100  0.071400  0.643400  1.0  0.1073
  H  H49  1  0.033900  0.215600  0.512000  1.0  0.0825
  H  H50  1  0.101100  0.167300  0.797000  1.0  0.08
  H  H51  1  0.828400  0.208700  0.649100  1.0  0.0718
  H  H52  1  0.300900  0.359200  0.505800  1.0  0.1216
  H  H53  1  0.743600  0.560800  0.587700  1.0  0.1077
  H  H54  1  0.413200  0.356700  0.596700  1.0  0.2917
  C  C55  1  0.709900  0.326600  0.451500  1.0  -0.1156
  C  C56  1  0.594200  0.268800  0.443200  1.0  -0.0767
  C  C57  1  0.523300  0.288600  0.393300  1.0  -0.0885
  C  C58  1  0.584100  0.366200  0.351300  1.0  0.1833
  C  C59  1  0.753200  0.398500  0.411100  1.0  0.1327
  C  C60  1  0.394700  0.811400  0.145400  1.0  0.664
  C  C61  1  0.451400  0.892100  0.096200  1.0  -0.137
  C  C62  1  0.561400  0.964800  0.111500  1.0  -0.1149
  C  C63  1  0.605100  0.035700  0.069400  1.0  -0.0557
  C  C64  1  0.558400  0.039400  0.008800  1.0  -0.0415
  C  C65  1  0.394700  0.888800  0.037300  1.0  -0.0884
  C  C66  1  0.266000  0.500600  0.110300  1.0  0.1542
  C  C67  1  0.226500  0.404900  0.067200  1.0  -0.1342
  C  C68  1  0.132200  0.327900  0.086100  1.0  -0.0869
  C  C69  1  0.087400  0.345100  0.147500  1.0  -0.0756
  C  C70  1  0.133100  0.439100  0.185700  1.0  0.1551
  C  C71  1  0.118500  0.916800  0.130400  1.0  0.1305
  C  C72  1  0.087900  0.002800  0.101800  1.0  -0.0652
  C  C73  1  0.981700  0.016300  0.108800  1.0  0.0109
  C  C74  1  0.912900  0.952100  0.144700  1.0  -0.0871
  C  C75  1  0.365500  0.586200  0.335700  1.0  0.6432
  C  C76  1  0.451800  0.992800  0.378900  1.0  -0.1248
  C  C77  1  0.426000  0.903700  0.330200  1.0  0.1498
  C  C78  1  0.359500  0.003500  0.416800  1.0  -0.0754
  C  C79  1  0.258100  0.930900  0.409500  1.0  -0.1175
  C  C80  1  0.876600  0.485500  0.098600  1.0  -0.0901
  C  C81  1  0.978000  0.566200  0.079700  1.0  -0.0499
  C  C82  1  0.027700  0.548700  0.018400  1.0  -0.0742
  C  C83  1  0.122400  0.631200  0.999200  1.0  0.0435
  C  C84  1  0.835500  0.385300  0.059100  1.0  0.0832
  C  C85  1  0.832400  0.501800  0.164900  1.0  0.629
  C  C86  1  0.402400  0.543400  0.401900  1.0  -0.1991
  C  C87  1  0.864100  0.734300  0.373800  1.0  0.6786
  C  C88  1  0.902300  0.842100  0.416300  1.0  -0.1074
  C  C89  1  0.873600  0.935200  0.395500  1.0  -0.0434
  C  C90  1  0.959500  0.848300  0.472100  1.0  -0.0839
  C  C91  1  0.948500  0.873100  0.175500  1.0  0.1633
  C  C92  1  0.242600  0.842200  0.357200  1.0  0.1473
  C  C93  1  0.540100  0.536200  0.489600  1.0  0.0446
  C  C94  1  0.647900  0.584900  0.512200  1.0  -0.156
  C  C95  1  0.909800  0.034300  0.432300  1.0  0.0037
  C  C96  1  0.013700  0.953400  0.510500  1.0  -0.0006
  C  C97  1  0.330200  0.464400  0.431500  1.0  -0.053
  C  C98  1  0.530900  0.593900  0.423100  1.0  0.0248
  C  C99  1  0.290100  0.673400  0.548500  1.0  -0.1155
  C  C100  1  0.405800  0.731200  0.556800  1.0  -0.0782
  C  C101  1  0.476700  0.711400  0.606700  1.0  -0.0892
  C  C102  1  0.415900  0.633800  0.648700  1.0  0.1849
  C  C103  1  0.246800  0.601500  0.588900  1.0  0.1333
  C  C104  1  0.605300  0.188600  0.854600  1.0  0.6642
  C  C105  1  0.548600  0.107900  0.903800  1.0  -0.1363
  C  C106  1  0.438600  0.035200  0.888500  1.0  -0.1132
  C  C107  1  0.394900  0.964300  0.930600  1.0  -0.0555
  C  C108  1  0.441600  0.960600  0.991200  1.0  -0.0419
  C  C109  1  0.605300  0.111200  0.962700  1.0  -0.09
  C  C110  1  0.734000  0.499400  0.889700  1.0  0.1542
  C  C111  1  0.773500  0.595100  0.932800  1.0  -0.1366
  C  C112  1  0.867800  0.672100  0.913900  1.0  -0.0867
  C  C113  1  0.912600  0.654900  0.852500  1.0  -0.0745
  C  C114  1  0.866900  0.560900  0.814300  1.0  0.1554
  C  C115  1  0.881500  0.083200  0.869600  1.0  0.1287
  C  C116  1  0.912100  0.997200  0.898200  1.0  -0.0646
  C  C117  1  0.018300  0.983700  0.891200  1.0  0.0114
  C  C118  1  0.087100  0.047900  0.855300  1.0  -0.0869
  C  C119  1  0.634500  0.413800  0.664300  1.0  0.643
  C  C120  1  0.548200  0.007200  0.621100  1.0  -0.1263
  C  C121  1  0.574000  0.096300  0.669800  1.0  0.1508
  C  C122  1  0.640500  0.996500  0.583200  1.0  -0.0734
  C  C123  1  0.741900  0.069100  0.590500  1.0  -0.1173
  C  C124  1  0.123400  0.514500  0.901400  1.0  -0.0901
  C  C125  1  0.022000  0.433800  0.920300  1.0  -0.0513
  C  C126  1  0.972300  0.451300  0.981600  1.0  -0.0755
  C  C127  1  0.877600  0.368800  0.000800  1.0  0.0414
  C  C128  1  0.164500  0.614700  0.940900  1.0  0.083
  C  C129  1  0.167600  0.498200  0.835100  1.0  0.6276
  C  C130  1  0.597600  0.456600  0.598100  1.0  -0.1972
  C  C131  1  0.135900  0.265700  0.626200  1.0  0.6801
  C  C132  1  0.097700  0.157900  0.583700  1.0  -0.1075
  C  C133  1  0.126400  0.064800  0.604500  1.0  -0.042
  C  C134  1  0.040500  0.151700  0.527900  1.0  -0.0873
  C  C135  1  0.051500  0.126900  0.824500  1.0  0.1631
  C  C136  1  0.757400  0.157800  0.642800  1.0  0.1476
  C  C137  1  0.459900  0.463800  0.510400  1.0  0.0416
  C  C138  1  0.352100  0.415100  0.487800  1.0  -0.1565
  C  C139  1  0.090200  0.965700  0.567700  1.0  -0.0005
  C  C140  1  0.986300  0.046600  0.489500  1.0  0.0007
  C  C141  1  0.669800  0.535600  0.568500  1.0  -0.0519
  C  C142  1  0.469100  0.406100  0.576900  1.0  0.0244
  S  S143  1  0.543510  0.174460  0.501120  1.0  -0.0374
  S  S144  1  0.372100  0.114490  0.480350  1.0  -0.0234
  S  S145  1  0.933230  0.117140  0.070240  1.0  -0.0064
  S  S146  1  0.069720  0.209910  0.027960  1.0  -0.0118
  S  S147  1  0.456490  0.825540  0.498880  1.0  -0.0359
  S  S148  1  0.627900  0.885510  0.519650  1.0  -0.0227
  S  S149  1  0.066770  0.882860  0.929760  1.0  -0.0053
  S  S150  1  0.930280  0.790090  0.972040  1.0  -0.0123
  N  N151  1  0.689000  0.418400  0.356800  1.0  -0.2851
  N  N152  1  0.323300  0.829200  0.317800  1.0  -0.34
  N  N153  1  0.225200  0.518900  0.170400  1.0  -0.3632
  N  N154  1  0.047400  0.851600  0.168600  1.0  -0.396
  N  N155  1  0.311000  0.581600  0.643200  1.0  -0.2858
  N  N156  1  0.676700  0.170800  0.682200  1.0  -0.3388
  N  N157  1  0.774800  0.481100  0.829600  1.0  -0.3615
  N  N158  1  0.952600  0.148400  0.831400  1.0  -0.3976
  O  O159  1  0.461400  0.792500  0.191600  1.0  -0.6731
  O  O160  1  0.295300  0.770600  0.139980  1.0  -0.5625
  O  O161  1  0.259000  0.573600  0.332900  1.0  -0.651
  O  O162  1  0.432200  0.631600  0.299500  1.0  -0.5185
  O  O163  1  0.761900  0.423500  0.187120  1.0  -0.6339
  O  O164  1  0.868800  0.596900  0.198300  1.0  -0.5716
  O  O165  1  0.794700  0.729400  0.324800  1.0  -0.6403
  O  O166  1  0.885500  0.653700  0.387500  1.0  -0.6277
  O  O167  1  0.538600  0.207500  0.808400  1.0  -0.6743
  O  O168  1  0.704700  0.229400  0.860020  1.0  -0.5628
  O  O169  1  0.741000  0.426400  0.667100  1.0  -0.6484
  O  O170  1  0.567800  0.368400  0.700500  1.0  -0.5183
  O  O171  1  0.238100  0.576500  0.812880  1.0  -0.637
  O  O172  1  0.131200  0.403100  0.801700  1.0  -0.5727
  O  O173  1  0.205300  0.270600  0.675200  1.0  -0.6435
  O  O174  1  0.114500  0.346300  0.612500  1.0  -0.629
