# generated using pymatgen
data_CdH9C12BrN3O4
_symmetry_space_group_name_H-M   'P 1'
_cell_length_a   14.56490000
_cell_length_b   7.80010000
_cell_length_c   16.80420000
_cell_angle_alpha   90.00000000
_cell_angle_beta   105.71800000
_cell_angle_gamma   90.00000000
_symmetry_Int_Tables_number   1
_chemical_formula_structural   CdH9C12BrN3O4
_chemical_formula_sum   'Cd4 H36 C48 Br4 N12 O16'
_cell_volume   1837.69906309
_cell_formula_units_Z   4
loop_
 _symmetry_equiv_pos_site_id
 _symmetry_equiv_pos_as_xyz
  1  'x, y, z'
loop_
 _atom_site_type_symbol
 _atom_site_label
 _atom_site_symmetry_multiplicity
 _atom_site_fract_x
 _atom_site_fract_y
 _atom_site_fract_z
 _atom_site_occupancy
 _atom_site_charge
  Cd  Cd1  1  0.133300  0.349310  0.159800  1.0  1.0659
  Cd  Cd2  1  0.366700  0.849310  0.340200  1.0  1.064
  Cd  Cd3  1  0.866700  0.650690  0.840200  1.0  1.0639
  Cd  Cd4  1  0.633300  0.150690  0.659800  1.0  1.0655
  H  H5  1  0.886300  0.105400  0.924600  1.0  0.1019
  H  H6  1  0.686000  0.946600  0.087600  1.0  0.1139
  H  H7  1  0.835800  0.066600  0.148900  1.0  0.1035
  H  H8  1  0.333900  0.569800  0.160700  1.0  0.1074
  H  H9  1  0.155400  0.375500  0.964700  1.0  0.0727
  H  H10  1  0.439200  0.745800  0.086500  1.0  0.0987
  H  H11  1  0.407500  0.738000  0.987600  1.0  0.1097
  H  H12  1  0.564400  0.618700  0.051400  1.0  0.0876
  H  H13  1  0.512500  0.466300  0.085900  1.0  0.0859
  H  H14  1  0.613700  0.605400  0.575400  1.0  0.1019
  H  H15  1  0.814000  0.446600  0.412400  1.0  0.1137
  H  H16  1  0.664200  0.566600  0.351100  1.0  0.1031
  H  H17  1  0.166100  0.069800  0.339300  1.0  0.1076
  H  H18  1  0.344600  0.875500  0.535300  1.0  0.0734
  H  H19  1  0.060800  0.245800  0.413500  1.0  0.1001
  H  H20  1  0.092500  0.238000  0.512400  1.0  0.1098
  H  H21  1  0.935600  0.118700  0.448600  1.0  0.0871
  H  H22  1  0.987500  0.966300  0.414100  1.0  0.0857
  H  H23  1  0.113700  0.894600  0.075400  1.0  0.1018
  H  H24  1  0.314000  0.053400  0.912400  1.0  0.1136
  H  H25  1  0.164200  0.933400  0.851100  1.0  0.1028
  H  H26  1  0.666100  0.430200  0.839300  1.0  0.1079
  H  H27  1  0.844600  0.624500  0.035300  1.0  0.073
  H  H28  1  0.560800  0.254200  0.913500  1.0  0.0997
  H  H29  1  0.592500  0.262000  0.012400  1.0  0.1081
  H  H30  1  0.435600  0.381300  0.948600  1.0  0.0853
  H  H31  1  0.487500  0.533700  0.914100  1.0  0.0866
  H  H32  1  0.386300  0.394600  0.424600  1.0  0.1019
  H  H33  1  0.186000  0.553400  0.587600  1.0  0.1138
  H  H34  1  0.335800  0.433400  0.648900  1.0  0.1034
  H  H35  1  0.833900  0.930200  0.660700  1.0  0.1075
  H  H36  1  0.655400  0.124500  0.464700  1.0  0.0725
  H  H37  1  0.939200  0.754200  0.586500  1.0  0.0996
  H  H38  1  0.907500  0.762000  0.487600  1.0  0.1081
  H  H39  1  0.064400  0.881300  0.551400  1.0  0.0857
  H  H40  1  0.012500  0.033700  0.585900  1.0  0.0857
  C  C41  1  0.874700  0.099800  0.042500  1.0  -0.1463
  C  C42  1  0.845100  0.074600  0.957400  1.0  -0.0336
  C  C43  1  0.756300  0.005200  0.920070  1.0  -0.1103
  C  C44  1  0.697300  0.962600  0.969700  1.0  -0.0542
  C  C45  1  0.726300  0.981300  0.054500  1.0  -0.0835
  C  C46  1  0.815300  0.051500  0.090700  1.0  -0.0394
  C  C47  1  0.969100  0.183400  0.079600  1.0  0.6671
  C  C48  1  0.725600  0.994500  0.826900  1.0  0.741
  C  C49  1  0.303500  0.536400  0.105500  1.0  0.1466
  C  C50  1  0.208800  0.433500  0.999300  1.0  0.2338
  C  C51  1  0.421400  0.667300  0.038400  1.0  -0.0318
  C  C52  1  0.505300  0.549200  0.040000  1.0  -0.1096
  C  C53  1  0.625300  0.599800  0.457500  1.0  -0.1458
  C  C54  1  0.654900  0.574600  0.542600  1.0  -0.0354
  C  C55  1  0.743700  0.505200  0.579930  1.0  -0.1077
  C  C56  1  0.802700  0.462600  0.530300  1.0  -0.0521
  C  C57  1  0.773700  0.481300  0.445500  1.0  -0.0796
  C  C58  1  0.684700  0.551500  0.409300  1.0  -0.0374
  C  C59  1  0.530900  0.683400  0.420400  1.0  0.666
  C  C60  1  0.774400  0.494500  0.673100  1.0  0.7405
  C  C61  1  0.196500  0.036400  0.394500  1.0  0.1476
  C  C62  1  0.291200  0.933500  0.500700  1.0  0.2344
  C  C63  1  0.078600  0.167300  0.461600  1.0  -0.032
  C  C64  1  0.994700  0.049200  0.460000  1.0  -0.1077
  C  C65  1  0.125300  0.900200  0.957500  1.0  -0.146
  C  C66  1  0.154900  0.925400  0.042600  1.0  -0.0353
  C  C67  1  0.243700  0.994800  0.079930  1.0  -0.1078
  C  C68  1  0.302700  0.037400  0.030300  1.0  -0.0526
  C  C69  1  0.273700  0.018700  0.945500  1.0  -0.0798
  C  C70  1  0.184700  0.948500  0.909300  1.0  -0.0371
  C  C71  1  0.030900  0.816600  0.920400  1.0  0.6656
  C  C72  1  0.274400  0.005500  0.173100  1.0  0.7393
  C  C73  1  0.696500  0.463600  0.894500  1.0  0.1476
  C  C74  1  0.791200  0.566500  0.000700  1.0  0.2345
  C  C75  1  0.578600  0.332700  0.961600  1.0  -0.0315
  C  C76  1  0.494700  0.450800  0.960000  1.0  -0.1085
  C  C77  1  0.374700  0.400200  0.542500  1.0  -0.146
  C  C78  1  0.345100  0.425400  0.457400  1.0  -0.0336
  C  C79  1  0.256300  0.494800  0.420070  1.0  -0.1092
  C  C80  1  0.197300  0.537400  0.469700  1.0  -0.0541
  C  C81  1  0.226300  0.518700  0.554500  1.0  -0.0842
  C  C82  1  0.315300  0.448500  0.590700  1.0  -0.0394
  C  C83  1  0.469100  0.316600  0.579600  1.0  0.6666
  C  C84  1  0.225600  0.505500  0.326900  1.0  0.7406
  C  C85  1  0.803500  0.963600  0.605500  1.0  0.1465
  C  C86  1  0.708800  0.066500  0.499300  1.0  0.2337
  C  C87  1  0.921400  0.832700  0.538400  1.0  -0.0308
  C  C88  1  0.005300  0.950800  0.540000  1.0  -0.1106
  Br  Br89  1  0.574170  0.874340  0.919090  1.0  -0.0966
  Br  Br90  1  0.925830  0.374340  0.580910  1.0  -0.0959
  Br  Br91  1  0.425830  0.125660  0.080910  1.0  -0.0963
  Br  Br92  1  0.074170  0.625660  0.419090  1.0  -0.0967
  N  N93  1  0.223700  0.447500  0.082180  1.0  -0.4093
  N  N94  1  0.274700  0.507300  0.971100  1.0  -0.3718
  N  N95  1  0.334800  0.572300  0.040700  1.0  0.1793
  N  N96  1  0.276300  0.947500  0.417820  1.0  -0.4081
  N  N97  1  0.225300  0.007300  0.528900  1.0  -0.3731
  N  N98  1  0.165200  0.072300  0.459300  1.0  0.1799
  N  N99  1  0.776300  0.552500  0.917820  1.0  -0.4073
  N  N100  1  0.725300  0.492700  0.028900  1.0  -0.3731
  N  N101  1  0.665200  0.427700  0.959300  1.0  0.1798
  N  N102  1  0.723700  0.052500  0.582180  1.0  -0.41
  N  N103  1  0.774700  0.992700  0.471100  1.0  -0.3723
  N  N104  1  0.834800  0.927700  0.540700  1.0  0.1793
  O  O105  1  0.013380  0.252600  0.034680  1.0  -0.6166
  O  O106  1  0.002400  0.180600  0.158390  1.0  -0.5987
  O  O107  1  0.770100  0.897300  0.791540  1.0  -0.6214
  O  O108  1  0.661820  0.096600  0.791730  1.0  -0.594
  O  O109  1  0.486620  0.752600  0.465320  1.0  -0.6187
  O  O110  1  0.497600  0.680600  0.341610  1.0  -0.5979
  O  O111  1  0.729900  0.397300  0.708460  1.0  -0.62
  O  O112  1  0.838180  0.596600  0.708270  1.0  -0.5944
  O  O113  1  0.986620  0.747400  0.965320  1.0  -0.6198
  O  O114  1  0.997600  0.819400  0.841610  1.0  -0.5977
  O  O115  1  0.229900  0.102700  0.208460  1.0  -0.62
  O  O116  1  0.338180  0.903400  0.208270  1.0  -0.5946
  O  O117  1  0.513380  0.247400  0.534680  1.0  -0.6177
  O  O118  1  0.502400  0.319400  0.658390  1.0  -0.599
  O  O119  1  0.270100  0.602700  0.291540  1.0  -0.622
  O  O120  1  0.161820  0.403400  0.291730  1.0  -0.5938
