# generated using pymatgen
data_MnH30(C3N)12
_symmetry_space_group_name_H-M   'P 1'
_cell_length_a   8.31100000
_cell_length_b   21.67400000
_cell_length_c   13.50100000
_cell_angle_alpha   90.00000000
_cell_angle_beta   103.32300000
_cell_angle_gamma   90.00000000
_symmetry_Int_Tables_number   1
_chemical_formula_structural   MnH30(C3N)12
_chemical_formula_sum   'Mn2 H60 C72 N24'
_cell_volume   2366.51745553
_cell_formula_units_Z   2
loop_
 _symmetry_equiv_pos_site_id
 _symmetry_equiv_pos_as_xyz
  1  'x, y, z'
loop_
 _atom_site_type_symbol
 _atom_site_label
 _atom_site_symmetry_multiplicity
 _atom_site_fract_x
 _atom_site_fract_y
 _atom_site_fract_z
 _atom_site_occupancy
 _atom_site_charge
  Mn  Mn1  1  0.000000  0.000000  0.500000  1.0  0.7812
  Mn  Mn2  1  0.500000  0.500000  0.000000  1.0  0.7812
  H  H3  1  0.943700  0.132800  0.619000  1.0  0.0772
  H  H4  1  0.705700  0.979100  0.638600  1.0  0.0836
  H  H5  1  0.614700  0.054000  0.748900  1.0  0.1094
  H  H6  1  0.007300  0.194000  0.782100  1.0  0.0995
  H  H7  1  0.988100  0.283800  0.869000  1.0  0.0988
  H  H8  1  0.504200  0.254200  0.840700  1.0  0.1093
  H  H9  1  0.524300  0.165800  0.748400  1.0  0.0833
  H  H10  1  0.511100  0.365300  0.874300  1.0  0.0818
  H  H11  1  0.967100  0.333333  0.028400  1.0  0.1168
  H  H12  1  0.860600  0.424500  0.096800  1.0  0.0834
  H  H13  1  0.839400  0.975800  0.244900  1.0  0.0844
  H  H14  1  0.675300  0.098900  0.408200  1.0  0.0855
  H  H15  1  0.490500  0.099900  0.240000  1.0  0.1135
  H  H16  1  0.469100  0.098000  0.060000  1.0  0.1006
  H  H17  1  0.643600  0.926800  0.109500  1.0  0.1002
  H  H18  1  0.556300  0.632800  0.881000  1.0  0.0771
  H  H19  1  0.794300  0.479100  0.861400  1.0  0.0838
  H  H20  1  0.885300  0.554000  0.751100  1.0  0.11
  H  H21  1  0.492700  0.694000  0.717900  1.0  0.1009
  H  H22  1  0.511900  0.783800  0.631000  1.0  0.0988
  H  H23  1  0.995800  0.754200  0.659300  1.0  0.1091
  H  H24  1  0.975700  0.665800  0.751600  1.0  0.0835
  H  H25  1  0.988900  0.865300  0.625700  1.0  0.0824
  H  H26  1  0.532900  0.833300  0.471600  1.0  0.1174
  H  H27  1  0.639400  0.924500  0.403200  1.0  0.0831
  H  H28  1  0.660600  0.475800  0.255100  1.0  0.0847
  H  H29  1  0.824700  0.598900  0.091800  1.0  0.0858
  H  H30  1  0.009500  0.599900  0.260000  1.0  0.114
  H  H31  1  0.030900  0.598000  0.440000  1.0  0.101
  H  H32  1  0.856400  0.426800  0.390500  1.0  0.0997
  H  H33  1  0.056300  0.867200  0.381000  1.0  0.0776
  H  H34  1  0.294300  0.020900  0.361400  1.0  0.0837
  H  H35  1  0.385300  0.946000  0.251100  1.0  0.1097
  H  H36  1  0.992700  0.806000  0.217900  1.0  0.1011
  H  H37  1  0.011900  0.716200  0.131000  1.0  0.0986
  H  H38  1  0.495800  0.745800  0.159300  1.0  0.1092
  H  H39  1  0.475700  0.834200  0.251600  1.0  0.0835
  H  H40  1  0.488900  0.634700  0.125700  1.0  0.0822
  H  H41  1  0.032900  0.666667  0.971600  1.0  0.1165
  H  H42  1  0.139400  0.575500  0.903200  1.0  0.0834
  H  H43  1  0.160600  0.024200  0.755100  1.0  0.0846
  H  H44  1  0.324700  0.901100  0.591800  1.0  0.0859
  H  H45  1  0.509500  0.900100  0.760000  1.0  0.114
  H  H46  1  0.530900  0.902000  0.940000  1.0  0.1009
  H  H47  1  0.356400  0.073200  0.890500  1.0  0.1005
  H  H48  1  0.443700  0.367200  0.119000  1.0  0.0786
  H  H49  1  0.205700  0.520900  0.138600  1.0  0.0833
  H  H50  1  0.114700  0.446000  0.248900  1.0  0.1093
  H  H51  1  0.507300  0.306000  0.282100  1.0  0.0998
  H  H52  1  0.488100  0.216200  0.369000  1.0  0.0989
  H  H53  1  0.004200  0.245800  0.340700  1.0  0.1092
  H  H54  1  0.024300  0.334200  0.248400  1.0  0.0836
  H  H55  1  0.011100  0.134700  0.374300  1.0  0.0818
  H  H56  1  0.467100  0.166700  0.528400  1.0  0.1174
  H  H57  1  0.360600  0.075500  0.596800  1.0  0.0836
  H  H58  1  0.339400  0.524200  0.744900  1.0  0.0841
  H  H59  1  0.175300  0.401100  0.908200  1.0  0.0859
  H  H60  1  0.990500  0.400100  0.740000  1.0  0.1127
  H  H61  1  0.969100  0.402000  0.560000  1.0  0.1002
  H  H62  1  0.143600  0.573200  0.609500  1.0  0.1001
  C  C63  1  0.873800  0.103600  0.637500  1.0  0.1654
  C  C64  1  0.742200  0.019700  0.648500  1.0  0.0146
  C  C65  1  0.692000  0.060700  0.710000  1.0  -0.1538
  C  C66  1  0.768200  0.170700  0.758300  1.0  0.1128
  C  C67  1  0.906000  0.206100  0.793800  1.0  -0.128
  C  C68  1  0.895200  0.259200  0.846500  1.0  -0.2176
  C  C69  1  0.744700  0.276100  0.866100  1.0  0.1233
  C  C70  1  0.605600  0.242000  0.829200  1.0  -0.2065
  C  C71  1  0.618300  0.189200  0.774600  1.0  -0.1671
  C  C72  1  0.611500  0.369100  0.921500  1.0  0.1443
  C  C73  1  0.862800  0.350600  0.005500  1.0  -0.1576
  C  C74  1  0.802600  0.401000  0.042600  1.0  0.0182
  C  C75  1  0.774400  0.006000  0.265200  1.0  0.1228
  C  C76  1  0.684400  0.073500  0.354200  1.0  0.0075
  C  C77  1  0.582200  0.074500  0.261400  1.0  -0.1556
  C  C78  1  0.569100  0.014600  0.099500  1.0  0.121
  C  C79  1  0.482100  0.058600  0.035800  1.0  -0.1503
  C  C80  1  0.586300  0.956400  0.065300  1.0  -0.1843
  C  C81  1  0.626200  0.603600  0.862500  1.0  0.1664
  C  C82  1  0.757800  0.519700  0.851500  1.0  0.0153
  C  C83  1  0.808000  0.560700  0.790000  1.0  -0.1538
  C  C84  1  0.731800  0.670700  0.741700  1.0  0.1128
  C  C85  1  0.594000  0.706100  0.706200  1.0  -0.1295
  C  C86  1  0.604800  0.759200  0.653500  1.0  -0.2171
  C  C87  1  0.755300  0.776100  0.633900  1.0  0.1239
  C  C88  1  0.894400  0.742000  0.670800  1.0  -0.2071
  C  C89  1  0.881700  0.689200  0.725400  1.0  -0.1672
  C  C90  1  0.888500  0.869100  0.578500  1.0  0.145
  C  C91  1  0.637200  0.850600  0.494500  1.0  -0.1577
  C  C92  1  0.697400  0.901000  0.457400  1.0  0.0197
  C  C93  1  0.725600  0.506000  0.234800  1.0  0.1209
  C  C94  1  0.815600  0.573500  0.145800  1.0  0.0095
  C  C95  1  0.917800  0.574500  0.238600  1.0  -0.1553
  C  C96  1  0.930900  0.514600  0.400500  1.0  0.121
  C  C97  1  0.017900  0.558600  0.464200  1.0  -0.151
  C  C98  1  0.913700  0.456400  0.434700  1.0  -0.1839
  C  C99  1  0.126200  0.896400  0.362500  1.0  0.1677
  C  C100  1  0.257800  0.980300  0.351500  1.0  0.0162
  C  C101  1  0.308000  0.939300  0.290000  1.0  -0.1535
  C  C102  1  0.231800  0.829300  0.241700  1.0  0.1128
  C  C103  1  0.094000  0.793900  0.206200  1.0  -0.1302
  C  C104  1  0.104800  0.740800  0.153500  1.0  -0.2179
  C  C105  1  0.255300  0.723900  0.133900  1.0  0.1232
  C  C106  1  0.394400  0.758000  0.170800  1.0  -0.2069
  C  C107  1  0.381700  0.810800  0.225400  1.0  -0.1668
  C  C108  1  0.388500  0.630900  0.078500  1.0  0.1448
  C  C109  1  0.137200  0.649400  0.994500  1.0  -0.1573
  C  C110  1  0.197400  0.599000  0.957400  1.0  0.0176
  C  C111  1  0.225600  0.994000  0.734800  1.0  0.1213
  C  C112  1  0.315600  0.926500  0.645800  1.0  0.0097
  C  C113  1  0.417800  0.925500  0.738600  1.0  -0.1558
  C  C114  1  0.430900  0.985400  0.900500  1.0  0.1204
  C  C115  1  0.517900  0.941400  0.964200  1.0  -0.1518
  C  C116  1  0.413700  0.043600  0.934700  1.0  -0.1845
  C  C117  1  0.373800  0.396400  0.137500  1.0  0.1648
  C  C118  1  0.242200  0.480300  0.148500  1.0  0.0151
  C  C119  1  0.192000  0.439300  0.210000  1.0  -0.1541
  C  C120  1  0.268200  0.329300  0.258300  1.0  0.1128
  C  C121  1  0.406000  0.293900  0.293800  1.0  -0.1284
  C  C122  1  0.395200  0.240800  0.346500  1.0  -0.2178
  C  C123  1  0.244700  0.223900  0.366100  1.0  0.1244
  C  C124  1  0.105600  0.258000  0.329200  1.0  -0.2062
  C  C125  1  0.118300  0.310800  0.274600  1.0  -0.1661
  C  C126  1  0.111500  0.130900  0.421500  1.0  0.1448
  C  C127  1  0.362800  0.149400  0.505500  1.0  -0.157
  C  C128  1  0.302600  0.099000  0.542600  1.0  0.0182
  C  C129  1  0.274400  0.494000  0.765200  1.0  0.1233
  C  C130  1  0.184400  0.426500  0.854200  1.0  0.0082
  C  C131  1  0.082200  0.425500  0.761400  1.0  -0.1568
  C  C132  1  0.069100  0.485400  0.599500  1.0  0.1207
  C  C133  1  0.982100  0.441400  0.535800  1.0  -0.1513
  C  C134  1  0.086300  0.543600  0.565300  1.0  -0.1848
  N  N135  1  0.857500  0.047400  0.601900  1.0  -0.3978
  N  N136  1  0.778800  0.115000  0.703900  1.0  0.0148
  N  N137  1  0.739200  0.330100  0.927200  1.0  0.0301
  N  N138  1  0.644300  0.412900  0.989500  1.0  -0.4084
  N  N139  1  0.803500  0.029800  0.357900  1.0  -0.3948
  N  N140  1  0.639500  0.030800  0.204300  1.0  0.0261
  N  N141  1  0.642500  0.547400  0.898100  1.0  -0.3977
  N  N142  1  0.721200  0.615000  0.796100  1.0  0.0149
  N  N143  1  0.760800  0.830100  0.572800  1.0  0.03
  N  N144  1  0.855700  0.912900  0.510500  1.0  -0.4074
  N  N145  1  0.696500  0.529800  0.142100  1.0  -0.3951
  N  N146  1  0.860500  0.530800  0.295700  1.0  0.0247
  N  N147  1  0.142500  0.952600  0.398100  1.0  -0.3979
  N  N148  1  0.221200  0.885000  0.296100  1.0  0.0149
  N  N149  1  0.260800  0.669900  0.072800  1.0  0.0299
  N  N150  1  0.355700  0.587100  0.010500  1.0  -0.4073
  N  N151  1  0.196500  0.970200  0.642100  1.0  -0.395
  N  N152  1  0.360500  0.969200  0.795700  1.0  0.0249
  N  N153  1  0.357500  0.452600  0.101900  1.0  -0.398
  N  N154  1  0.278800  0.385000  0.203900  1.0  0.0152
  N  N155  1  0.239200  0.169900  0.427200  1.0  0.0303
  N  N156  1  0.144300  0.087100  0.489500  1.0  -0.4088
  N  N157  1  0.303500  0.470200  0.857900  1.0  -0.3945
  N  N158  1  0.139500  0.469200  0.704300  1.0  0.0259
