# generated using pymatgen
data_ZnH6C2N5F
_symmetry_space_group_name_H-M   'P 1'
_cell_length_a   9.84160000
_cell_length_b   11.21450000
_cell_length_c   11.21450000
_cell_angle_alpha   68.18300000
_cell_angle_beta   72.99080000
_cell_angle_gamma   107.00900000
_symmetry_Int_Tables_number   1
_chemical_formula_structural   ZnH6C2N5F
_chemical_formula_sum   'Zn6 H36 C12 N30 F6'
_cell_volume   980.18291382
_cell_formula_units_Z   6
loop_
 _symmetry_equiv_pos_site_id
 _symmetry_equiv_pos_as_xyz
  1  'x, y, z'
loop_
 _atom_site_type_symbol
 _atom_site_label
 _atom_site_symmetry_multiplicity
 _atom_site_fract_x
 _atom_site_fract_y
 _atom_site_fract_z
 _atom_site_occupancy
 _atom_site_charge
  Zn  Zn1  1  0.626630  0.376630  0.246740  1.0  0.8358
  Zn  Zn2  1  0.126630  0.753260  0.623370  1.0  0.8357
  Zn  Zn3  1  0.873370  0.246740  0.376630  1.0  0.8352
  Zn  Zn4  1  0.373380  0.623380  0.753250  1.0  0.8347
  Zn  Zn5  1  0.750000  0.623370  0.623370  1.0  0.8358
  Zn  Zn6  1  0.250000  0.376630  0.376630  1.0  0.8348
  H  H7  1  0.544200  0.082300  0.610900  1.0  0.1615
  H  H8  1  0.044200  0.389100  0.917700  1.0  0.1543
  H  H9  1  0.430300  0.594400  0.027700  1.0  0.178
  H  H10  1  0.038100  0.082300  0.306800  1.0  0.1605
  H  H11  1  0.335900  0.405600  0.622100  1.0  0.1782
  H  H12  1  0.495100  0.346700  0.930200  1.0  0.1803
  H  H13  1  0.851600  0.276900  0.653300  1.0  0.1772
  H  H14  1  0.074700  0.723100  0.930200  1.0  0.181
  H  H15  1  0.504900  0.653300  0.069800  1.0  0.1798
  H  H16  1  0.955800  0.610900  0.082300  1.0  0.1575
  H  H17  1  0.344900  0.306800  0.610900  1.0  0.1562
  H  H18  1  0.961900  0.917700  0.693200  1.0  0.1573
  H  H19  1  0.455800  0.917700  0.389100  1.0  0.1595
  H  H20  1  0.069700  0.027700  0.594400  1.0  0.1744
  H  H21  1  0.148400  0.723100  0.346700  1.0  0.1818
  H  H22  1  0.844900  0.389100  0.693200  1.0  0.1584
  H  H23  1  0.425300  0.930200  0.723100  1.0  0.1803
  H  H24  1  0.164100  0.622100  0.405600  1.0  0.1763
  H  H25  1  0.042000  0.377900  0.027700  1.0  0.1761
  H  H26  1  0.925300  0.276900  0.069800  1.0  0.1831
  H  H27  1  0.351600  0.346700  0.723100  1.0  0.1786
  H  H28  1  0.655100  0.693200  0.389100  1.0  0.1548
  H  H29  1  0.004900  0.930200  0.346700  1.0  0.1837
  H  H30  1  0.461900  0.306800  0.082300  1.0  0.1535
  H  H31  1  0.458000  0.027700  0.377900  1.0  0.1738
  H  H32  1  0.542000  0.972300  0.622100  1.0  0.1748
  H  H33  1  0.574700  0.069800  0.276900  1.0  0.1844
  H  H34  1  0.958000  0.622100  0.972300  1.0  0.1769
  H  H35  1  0.995100  0.069800  0.653300  1.0  0.181
  H  H36  1  0.930300  0.972300  0.405600  1.0  0.1736
  H  H37  1  0.648400  0.653300  0.276900  1.0  0.1771
  H  H38  1  0.835900  0.377900  0.594400  1.0  0.1779
  H  H39  1  0.569700  0.405600  0.972300  1.0  0.1785
  H  H40  1  0.538100  0.693200  0.917700  1.0  0.1567
  H  H41  1  0.664100  0.594400  0.377900  1.0  0.1795
  H  H42  1  0.155100  0.610900  0.306800  1.0  0.1587
  C  C43  1  0.703840  0.530180  0.411060  1.0  0.1229
  C  C44  1  0.296160  0.469820  0.588940  1.0  0.1168
  C  C45  1  0.114900  0.411060  0.058760  1.0  0.1168
  C  C46  1  0.885100  0.588940  0.941240  1.0  0.1159
  C  C47  1  0.673660  0.469820  0.941240  1.0  0.1217
  C  C48  1  0.173660  0.058760  0.530180  1.0  0.1264
  C  C49  1  0.796160  0.411060  0.530180  1.0  0.1159
  C  C50  1  0.203840  0.588940  0.469820  1.0  0.1158
  C  C51  1  0.385100  0.058760  0.411060  1.0  0.1229
  C  C52  1  0.614900  0.941240  0.588940  1.0  0.124
  C  C53  1  0.826340  0.941240  0.469820  1.0  0.1225
  C  C54  1  0.326340  0.530180  0.058760  1.0  0.118
  N  N55  1  0.280580  0.558750  0.636710  1.0  -0.3375
  N  N56  1  0.524500  0.360700  0.991000  1.0  -0.2828
  N  N57  1  0.836200  0.351700  0.639300  1.0  -0.2832
  N  N58  1  0.750000  0.515890  0.515890  1.0  -0.3474
  N  N59  1  0.278170  0.195460  0.441250  1.0  -0.3391
  N  N60  1  0.417290  0.195460  0.363290  1.0  -0.341
  N  N61  1  0.975500  0.991000  0.360700  1.0  -0.2837
  N  N62  1  0.663800  0.639300  0.351700  1.0  -0.2822
  N  N63  1  0.719420  0.441250  0.363290  1.0  -0.3357
  N  N64  1  0.082710  0.363290  0.195460  1.0  -0.3375
  N  N65  1  0.984500  0.648300  0.991000  1.0  -0.2856
  N  N66  1  0.015500  0.351700  0.009000  1.0  -0.2883
  N  N67  1  0.336200  0.360700  0.648300  1.0  -0.2822
  N  N68  1  0.917290  0.636710  0.804540  1.0  -0.3393
  N  N69  1  0.163800  0.648300  0.360700  1.0  -0.2891
  N  N70  1  0.778170  0.558750  0.804540  1.0  -0.3347
  N  N71  1  0.234110  0.968220  0.515890  1.0  -0.3456
  N  N72  1  0.734110  0.484110  0.031780  1.0  -0.3483
  N  N73  1  0.221830  0.441250  0.195460  1.0  -0.3379
  N  N74  1  0.265890  0.515890  0.968220  1.0  -0.3479
  N  N75  1  0.721830  0.804540  0.558750  1.0  -0.3394
  N  N76  1  0.582710  0.804540  0.636710  1.0  -0.3371
  N  N77  1  0.515500  0.991000  0.648300  1.0  -0.2818
  N  N78  1  0.484500  0.009000  0.351700  1.0  -0.2856
  N  N79  1  0.475500  0.639300  0.009000  1.0  -0.2827
  N  N80  1  0.024500  0.009000  0.639300  1.0  -0.2831
  N  N81  1  0.219420  0.636710  0.558750  1.0  -0.3394
  N  N82  1  0.250000  0.484110  0.484110  1.0  -0.3499
  N  N83  1  0.780580  0.363290  0.441250  1.0  -0.3386
  N  N84  1  0.765890  0.031780  0.484110  1.0  -0.3454
  F  F85  1  0.750000  0.254920  0.254920  1.0  -0.5125
  F  F86  1  0.995080  0.745080  0.509840  1.0  -0.5123
  F  F87  1  0.004920  0.254920  0.490160  1.0  -0.5112
  F  F88  1  0.504920  0.509840  0.745080  1.0  -0.5131
  F  F89  1  0.250000  0.745080  0.745080  1.0  -0.5112
  F  F90  1  0.495080  0.490160  0.254920  1.0  -0.5143
