# generated using pymatgen
data_Zn4H12C24O13
_symmetry_space_group_name_H-M   'P 1'
_cell_length_a   18.24860000
_cell_length_b   18.24860000
_cell_length_c   18.24860000
_cell_angle_alpha   60.00000000
_cell_angle_beta   60.00000000
_cell_angle_gamma   60.00000000
_symmetry_Int_Tables_number   1
_chemical_formula_structural   Zn4H12C24O13
_chemical_formula_sum   'Zn8 H24 C48 O26'
_cell_volume   4297.08216036
_cell_formula_units_Z   2
loop_
 _symmetry_equiv_pos_site_id
 _symmetry_equiv_pos_as_xyz
  1  'x, y, z'
loop_
 _atom_site_type_symbol
 _atom_site_label
 _atom_site_symmetry_multiplicity
 _atom_site_fract_x
 _atom_site_fract_y
 _atom_site_fract_z
 _atom_site_occupancy
 _atom_site_charge
  Zn  Zn1  1  0.119620  0.293460  0.293460  1.0  1.1045
  Zn  Zn2  1  0.706540  0.880380  0.706540  1.0  1.104
  Zn  Zn3  1  0.293460  0.293460  0.119620  1.0  1.1057
  Zn  Zn4  1  0.293460  0.293460  0.293460  1.0  1.1061
  Zn  Zn5  1  0.880380  0.706540  0.706540  1.0  1.1046
  Zn  Zn6  1  0.293460  0.119620  0.293460  1.0  1.1042
  Zn  Zn7  1  0.706540  0.706540  0.880380  1.0  1.1063
  Zn  Zn8  1  0.706540  0.706540  0.706540  1.0  1.1057
  H  H9  1  0.150600  0.456400  0.456400  1.0  0.1012
  H  H10  1  0.849400  0.543600  0.063400  1.0  0.1013
  H  H11  1  0.456400  0.936600  0.456400  1.0  0.102
  H  H12  1  0.543600  0.849400  0.063400  1.0  0.102
  H  H13  1  0.849400  0.543600  0.543600  1.0  0.1015
  H  H14  1  0.456400  0.150600  0.936600  1.0  0.1013
  H  H15  1  0.456400  0.936600  0.150600  1.0  0.1024
  H  H16  1  0.063400  0.543600  0.543600  1.0  0.1024
  H  H17  1  0.456400  0.150600  0.456400  1.0  0.1009
  H  H18  1  0.936600  0.456400  0.456400  1.0  0.1021
  H  H19  1  0.936600  0.150600  0.456400  1.0  0.1008
  H  H20  1  0.456400  0.456400  0.150600  1.0  0.1011
  H  H21  1  0.063400  0.849400  0.543600  1.0  0.1016
  H  H22  1  0.063400  0.543600  0.849400  1.0  0.1027
  H  H23  1  0.543600  0.063400  0.849400  1.0  0.1021
  H  H24  1  0.543600  0.849400  0.543600  1.0  0.1019
  H  H25  1  0.150600  0.936600  0.456400  1.0  0.1013
  H  H26  1  0.543600  0.063400  0.543600  1.0  0.1019
  H  H27  1  0.936600  0.456400  0.150600  1.0  0.1026
  H  H28  1  0.849400  0.063400  0.543600  1.0  0.1016
  H  H29  1  0.456400  0.456400  0.936600  1.0  0.102
  H  H30  1  0.543600  0.543600  0.063400  1.0  0.1013
  H  H31  1  0.150600  0.456400  0.936600  1.0  0.1014
  H  H32  1  0.543600  0.543600  0.849400  1.0  0.1021
  C  C33  1  0.890300  0.609700  0.609700  1.0  0.6512
  C  C34  1  0.553900  0.553900  0.946100  1.0  -0.0418
  C  C35  1  0.036500  0.911300  0.526100  1.0  -0.0588
  C  C36  1  0.473900  0.963500  0.088700  1.0  -0.0571
  C  C37  1  0.911300  0.526100  0.036500  1.0  -0.0568
  C  C38  1  0.473900  0.473900  0.088700  1.0  -0.0595
  C  C39  1  0.963500  0.088700  0.473900  1.0  -0.0618
  C  C40  1  0.390300  0.109700  0.390300  1.0  0.6498
  C  C41  1  0.446100  0.053900  0.446100  1.0  -0.0445
  C  C42  1  0.526100  0.526100  0.036500  1.0  -0.0639
  C  C43  1  0.526100  0.911300  0.036500  1.0  -0.0585
  C  C44  1  0.109700  0.109700  0.390300  1.0  0.6499
  C  C45  1  0.053900  0.446100  0.446100  1.0  -0.0442
  C  C46  1  0.553900  0.946100  0.553900  1.0  -0.0439
  C  C47  1  0.446100  0.053900  0.053900  1.0  -0.0443
  C  C48  1  0.946100  0.553900  0.553900  1.0  -0.0443
  C  C49  1  0.946100  0.553900  0.946100  1.0  -0.0445
  C  C50  1  0.390300  0.390300  0.109700  1.0  0.6494
  C  C51  1  0.036500  0.526100  0.526100  1.0  -0.0603
  C  C52  1  0.088700  0.473900  0.963500  1.0  -0.0615
  C  C53  1  0.473900  0.963500  0.473900  1.0  -0.0564
  C  C54  1  0.473900  0.473900  0.963500  1.0  -0.0583
  C  C55  1  0.609700  0.890300  0.609700  1.0  0.6511
  C  C56  1  0.946100  0.946100  0.553900  1.0  -0.0436
  C  C57  1  0.053900  0.053900  0.446100  1.0  -0.0418
  C  C58  1  0.390300  0.109700  0.109700  1.0  0.6512
  C  C59  1  0.036500  0.526100  0.911300  1.0  -0.0619
  C  C60  1  0.446100  0.446100  0.053900  1.0  -0.0436
  C  C61  1  0.109700  0.390300  0.390300  1.0  0.6494
  C  C62  1  0.890300  0.890300  0.609700  1.0  0.6494
  C  C63  1  0.609700  0.890300  0.890300  1.0  0.6494
  C  C64  1  0.963500  0.473900  0.473900  1.0  -0.0567
  C  C65  1  0.890300  0.609700  0.890300  1.0  0.6498
  C  C66  1  0.088700  0.473900  0.473900  1.0  -0.0575
  C  C67  1  0.911300  0.526100  0.526100  1.0  -0.058
  C  C68  1  0.473900  0.088700  0.473900  1.0  -0.0591
  C  C69  1  0.473900  0.088700  0.963500  1.0  -0.0574
  C  C70  1  0.088700  0.963500  0.473900  1.0  -0.058
  C  C71  1  0.109700  0.390300  0.109700  1.0  0.6511
  C  C72  1  0.963500  0.473900  0.088700  1.0  -0.0576
  C  C73  1  0.526100  0.526100  0.911300  1.0  -0.0573
  C  C74  1  0.609700  0.609700  0.890300  1.0  0.6499
  C  C75  1  0.526100  0.911300  0.526100  1.0  -0.0566
  C  C76  1  0.911300  0.036500  0.526100  1.0  -0.0565
  C  C77  1  0.526100  0.036500  0.911300  1.0  -0.0638
  C  C78  1  0.053900  0.446100  0.053900  1.0  -0.0439
  C  C79  1  0.553900  0.946100  0.946100  1.0  -0.0442
  C  C80  1  0.526100  0.036500  0.526100  1.0  -0.0612
  O  O81  1  0.633800  0.803000  0.929400  1.0  -0.6106
  O  O82  1  0.070600  0.197000  0.366200  1.0  -0.61
  O  O83  1  0.803000  0.633800  0.633800  1.0  -0.6079
  O  O84  1  0.803000  0.929400  0.633800  1.0  -0.607
  O  O85  1  0.366200  0.070600  0.197000  1.0  -0.6092
  O  O86  1  0.070600  0.366200  0.197000  1.0  -0.6088
  O  O87  1  0.633800  0.929400  0.633800  1.0  -0.6084
  O  O88  1  0.633800  0.803000  0.633800  1.0  -0.6105
  O  O89  1  0.366200  0.366200  0.197000  1.0  -0.6094
  O  O90  1  0.366200  0.070600  0.366200  1.0  -0.6085
  O  O91  1  0.750000  0.750000  0.750000  1.0  -1.2668
  O  O92  1  0.803000  0.633800  0.929400  1.0  -0.6083
  O  O93  1  0.929400  0.803000  0.633800  1.0  -0.6086
  O  O94  1  0.366200  0.197000  0.366200  1.0  -0.61
  O  O95  1  0.633800  0.633800  0.803000  1.0  -0.6105
  O  O96  1  0.197000  0.366200  0.070600  1.0  -0.6074
  O  O97  1  0.633800  0.633800  0.929400  1.0  -0.6104
  O  O98  1  0.366200  0.366200  0.070600  1.0  -0.6097
  O  O99  1  0.633800  0.929400  0.803000  1.0  -0.6079
  O  O100  1  0.197000  0.070600  0.366200  1.0  -0.6073
  O  O101  1  0.366200  0.197000  0.070600  1.0  -0.61
  O  O102  1  0.929400  0.633800  0.803000  1.0  -0.6076
  O  O103  1  0.250000  0.250000  0.250000  1.0  -1.2668
  O  O104  1  0.197000  0.366200  0.366200  1.0  -0.6079
  O  O105  1  0.929400  0.633800  0.633800  1.0  -0.6082
  O  O106  1  0.070600  0.366200  0.366200  1.0  -0.608
