# generated using pymatgen
data_ZnH8C12(IN2)2
_symmetry_space_group_name_H-M   'P 1'
_cell_length_a   13.69000000
_cell_length_b   27.59600000
_cell_length_c   45.41900000
_cell_angle_alpha   90.00000000
_cell_angle_beta   90.00000000
_cell_angle_gamma   90.00000000
_symmetry_Int_Tables_number   1
_chemical_formula_structural   ZnH8C12(IN2)2
_chemical_formula_sum   'Zn24 H192 C288 I48 N96'
_cell_volume   17158.80949156
_cell_formula_units_Z   24
loop_
 _symmetry_equiv_pos_site_id
 _symmetry_equiv_pos_as_xyz
  1  'x, y, z'
loop_
 _atom_site_type_symbol
 _atom_site_label
 _atom_site_symmetry_multiplicity
 _atom_site_fract_x
 _atom_site_fract_y
 _atom_site_fract_z
 _atom_site_occupancy
 _atom_site_charge
  Zn  Zn1  1  0.347390  0.549470  0.924500  1.0  0.847
  Zn  Zn2  1  0.637340  0.472380  0.409510  1.0  0.8428
  Zn  Zn3  1  0.843670  0.252390  0.314170  1.0  0.8736
  Zn  Zn4  1  0.156330  0.247610  0.814170  1.0  0.8737
  Zn  Zn5  1  0.656330  0.752390  0.685830  1.0  0.8745
  Zn  Zn6  1  0.862660  0.972380  0.590490  1.0  0.8434
  Zn  Zn7  1  0.362660  0.027620  0.909510  1.0  0.8421
  Zn  Zn8  1  0.152610  0.049470  0.075500  1.0  0.8489
  Zn  Zn9  1  0.137340  0.527620  0.090490  1.0  0.8424
  Zn  Zn10  1  0.847390  0.450530  0.575500  1.0  0.8468
  Zn  Zn11  1  0.343670  0.747610  0.185830  1.0  0.872
  Zn  Zn12  1  0.652610  0.950530  0.424500  1.0  0.8485
  Zn  Zn13  1  0.347390  0.049470  0.575500  1.0  0.848
  Zn  Zn14  1  0.343670  0.247610  0.314170  1.0  0.8723
  Zn  Zn15  1  0.656330  0.252390  0.814170  1.0  0.8749
  Zn  Zn16  1  0.847390  0.950530  0.924500  1.0  0.8467
  Zn  Zn17  1  0.156330  0.747610  0.685830  1.0  0.8734
  Zn  Zn18  1  0.652610  0.450530  0.075500  1.0  0.8489
  Zn  Zn19  1  0.862660  0.472380  0.909510  1.0  0.8433
  Zn  Zn20  1  0.152610  0.549470  0.424500  1.0  0.8477
  Zn  Zn21  1  0.362660  0.527620  0.590490  1.0  0.8422
  Zn  Zn22  1  0.843670  0.752390  0.185830  1.0  0.8732
  Zn  Zn23  1  0.137340  0.027620  0.409510  1.0  0.8423
  Zn  Zn24  1  0.637340  0.972380  0.090490  1.0  0.843
  H  H25  1  0.585700  0.832700  0.724000  1.0  0.0947
  H  H26  1  0.888200  0.384300  0.473900  1.0  0.122
  H  H27  1  0.647300  0.080700  0.970800  1.0  0.1097
  H  H28  1  0.517800  0.801300  0.276800  1.0  0.1196
  H  H29  1  0.924900  0.419800  0.634400  1.0  0.0913
  H  H30  1  0.857700  0.194400  0.869600  1.0  0.1164
  H  H31  1  0.085700  0.167300  0.776000  1.0  0.0943
  H  H32  1  0.598700  0.652300  0.405800  1.0  0.1156
  H  H33  1  0.447300  0.768300  0.667900  1.0  0.0885
  H  H34  1  0.313600  0.400600  0.384200  1.0  0.1163
  H  H35  1  0.694500  0.811200  0.632600  1.0  0.0849
  H  H36  1  0.452300  0.649800  0.838200  1.0  0.1218
  H  H37  1  0.541800  0.691500  0.728900  1.0  0.0903
  H  H38  1  0.968900  0.569000  0.123600  1.0  0.0917
  H  H39  1  0.388200  0.615700  0.026100  1.0  0.1224
  H  H40  1  0.625500  0.771000  0.409400  1.0  0.115
  H  H41  1  0.901300  0.152300  0.594200  1.0  0.1163
  H  H42  1  0.947300  0.231700  0.832100  1.0  0.0891
  H  H43  1  0.153200  0.156700  0.065500  1.0  0.0928
  H  H44  1  0.686400  0.099400  0.884200  1.0  0.1161
  H  H45  1  0.186400  0.900600  0.615800  1.0  0.1162
  H  H46  1  0.531100  0.069000  0.876400  1.0  0.0921
  H  H47  1  0.558500  0.588200  0.327100  1.0  0.1202
  H  H48  1  0.357700  0.805600  0.630400  1.0  0.1164
  H  H49  1  0.122800  0.423400  0.073500  1.0  0.0776
  H  H50  1  0.441500  0.911800  0.827100  1.0  0.1204
  H  H51  1  0.147300  0.919300  0.529200  1.0  0.1093
  H  H52  1  0.846800  0.343300  0.565500  1.0  0.0931
  H  H53  1  0.507600  0.448100  0.461600  1.0  0.0999
  H  H54  1  0.193400  0.091500  0.015700  1.0  0.0905
  H  H55  1  0.475500  0.655900  0.271100  1.0  0.121
  H  H56  1  0.352700  0.419300  0.470800  1.0  0.1099
  H  H57  1  0.992400  0.948100  0.538400  1.0  0.0989
  H  H58  1  0.346800  0.656700  0.934500  1.0  0.093
  H  H59  1  0.877200  0.076600  0.573500  1.0  0.077
  H  H60  1  0.952300  0.350200  0.661800  1.0  0.1221
  H  H61  1  0.613200  0.848300  0.593800  1.0  0.1224
  H  H62  1  0.007600  0.551900  0.038400  1.0  0.0996
  H  H63  1  0.482200  0.698700  0.776800  1.0  0.1196
  H  H64  1  0.864300  0.060500  0.008100  1.0  0.1129
  H  H65  1  0.582900  0.513500  0.350100  1.0  0.0915
  H  H66  1  0.806600  0.408500  0.515700  1.0  0.09
  H  H67  1  0.113200  0.151700  0.906200  1.0  0.1224
  H  H68  1  0.941500  0.088200  0.672900  1.0  0.12
  H  H69  1  0.377200  0.923400  0.926500  1.0  0.0797
  H  H70  1  0.975500  0.344100  0.228900  1.0  0.1214
  H  H71  1  0.805500  0.311200  0.367400  1.0  0.085
  H  H72  1  0.024500  0.155900  0.728900  1.0  0.1212
  H  H73  1  0.414300  0.667300  0.224000  1.0  0.0943
  H  H74  1  0.874500  0.271000  0.590600  1.0  0.1154
  H  H75  1  0.075100  0.080200  0.134400  1.0  0.0929
  H  H76  1  0.082900  0.486500  0.149900  1.0  0.0925
  H  H77  1  0.047700  0.149800  0.161800  1.0  0.1222
  H  H78  1  0.852700  0.580700  0.029200  1.0  0.1096
  H  H79  1  0.914300  0.332700  0.276000  1.0  0.0947
  H  H80  1  0.458200  0.808500  0.228900  1.0  0.0909
  H  H81  1  0.041800  0.308500  0.771100  1.0  0.0905
  H  H82  1  0.424900  0.580200  0.865600  1.0  0.0926
  H  H83  1  0.111800  0.115700  0.973900  1.0  0.1222
  H  H84  1  0.305500  0.688800  0.132600  1.0  0.0845
  H  H85  1  0.401300  0.847700  0.905800  1.0  0.116
  H  H86  1  0.031100  0.931000  0.623600  1.0  0.0937
  H  H87  1  0.451500  0.963700  0.451200  1.0  0.081
  H  H88  1  0.492400  0.051900  0.961600  1.0  0.0997
  H  H89  1  0.611800  0.884300  0.526100  1.0  0.1219
  H  H90  1  0.386800  0.651700  0.093800  1.0  0.1223
  H  H91  1  0.642300  0.694400  0.130400  1.0  0.1151
  H  H92  1  0.306600  0.591500  0.984300  1.0  0.0899
  H  H93  1  0.693400  0.908500  0.484300  1.0  0.0903
  H  H94  1  0.958200  0.191500  0.271100  1.0  0.0909
  H  H95  1  0.635700  0.560500  0.991900  1.0  0.1128
  H  H96  1  0.017800  0.198700  0.223200  1.0  0.1197
  H  H97  1  0.982200  0.301300  0.723200  1.0  0.1199
  H  H98  1  0.653200  0.843300  0.434500  1.0  0.0928
  H  H99  1  0.917100  0.013500  0.649900  1.0  0.0927
  H  H100  1  0.886800  0.348300  0.406200  1.0  0.1224
  H  H101  1  0.058500  0.411800  0.172900  1.0  0.1199
  H  H102  1  0.575100  0.919800  0.365600  1.0  0.0915
  H  H103  1  0.417100  0.986500  0.850100  1.0  0.0915
  H  H104  1  0.468900  0.431000  0.376400  1.0  0.0925
  H  H105  1  0.524500  0.844100  0.771100  1.0  0.1208
  H  H106  1  0.548500  0.536300  0.951200  1.0  0.081
  H  H107  1  0.374500  0.729000  0.909400  1.0  0.1153
  H  H108  1  0.135700  0.439500  0.508100  1.0  0.1132
  H  H109  1  0.622800  0.576600  0.426500  1.0  0.0789
  H  H110  1  0.813600  0.599400  0.115800  1.0  0.1164
  H  H111  1  0.048500  0.463700  0.548800  1.0  0.081
  H  H112  1  0.951500  0.036300  0.048800  1.0  0.0812
  H  H113  1  0.547700  0.850200  0.338200  1.0  0.1222
  H  H114  1  0.052700  0.268300  0.332100  1.0  0.0885
  H  H115  1  0.142300  0.305600  0.369600  1.0  0.1152
  H  H116  1  0.364300  0.939500  0.491900  1.0  0.1128
  H  H117  1  0.194500  0.188800  0.867400  1.0  0.0851
  H  H118  1  0.125500  0.229000  0.090600  1.0  0.1154
  H  H119  1  0.552700  0.731700  0.167900  1.0  0.0884
  H  H120  1  0.098700  0.347700  0.094200  1.0  0.1157
  H  H121  1  0.877200  0.576600  0.926500  1.0  0.0797
  H  H122  1  0.992400  0.448100  0.961600  1.0  0.0996
  H  H123  1  0.041800  0.808500  0.728900  1.0  0.0894
  H  H124  1  0.048500  0.963700  0.951200  1.0  0.0812
  H  H125  1  0.805500  0.811200  0.132600  1.0  0.0848
  H  H126  1  0.968900  0.069000  0.376400  1.0  0.0915
  H  H127  1  0.386800  0.151700  0.406200  1.0  0.1226
  H  H128  1  0.548500  0.036300  0.548800  1.0  0.0811
  H  H129  1  0.142300  0.805600  0.130400  1.0  0.1151
  H  H130  1  0.582900  0.013500  0.149900  1.0  0.0928
  H  H131  1  0.153200  0.656700  0.434500  1.0  0.0927
  H  H132  1  0.864300  0.560500  0.491900  1.0  0.113
  H  H133  1  0.901300  0.652300  0.905800  1.0  0.1159
  H  H134  1  0.547700  0.350200  0.161800  1.0  0.1221
  H  H135  1  0.541800  0.191500  0.771100  1.0  0.0918
  H  H136  1  0.951500  0.536300  0.451200  1.0  0.081
  H  H137  1  0.507600  0.948100  0.038400  1.0  0.0994
  H  H138  1  0.874500  0.771000  0.909400  1.0  0.1154
  H  H139  1  0.653200  0.343300  0.065500  1.0  0.093
  H  H140  1  0.531100  0.569000  0.623600  1.0  0.0928
  H  H141  1  0.147300  0.419300  0.970800  1.0  0.1101
  H  H142  1  0.441500  0.411800  0.672900  1.0  0.12
  H  H143  1  0.524500  0.344100  0.728900  1.0  0.1213
  H  H144  1  0.113200  0.651700  0.593800  1.0  0.1224
  H  H145  1  0.357700  0.305600  0.869600  1.0  0.1164
  H  H146  1  0.575100  0.419800  0.134400  1.0  0.0918
  H  H147  1  0.007600  0.051900  0.461600  1.0  0.1
  H  H148  1  0.852700  0.080700  0.470800  1.0  0.1097
  H  H149  1  0.613200  0.348300  0.906200  1.0  0.1222
  H  H150  1  0.075100  0.580200  0.365600  1.0  0.0926
  H  H151  1  0.952300  0.850200  0.838200  1.0  0.1221
  H  H152  1  0.694500  0.311200  0.867400  1.0  0.0852
  H  H153  1  0.374500  0.229000  0.590600  1.0  0.1155
  H  H154  1  0.458200  0.308500  0.271100  1.0  0.0901
  H  H155  1  0.806600  0.908500  0.984300  1.0  0.0901
  H  H156  1  0.024500  0.655900  0.771100  1.0  0.1208
  H  H157  1  0.122800  0.923400  0.426500  1.0  0.0795
  H  H158  1  0.982200  0.801300  0.776800  1.0  0.1196
  H  H159  1  0.958200  0.691500  0.228900  1.0  0.0904
  H  H160  1  0.452300  0.149800  0.661800  1.0  0.1221
  H  H161  1  0.031100  0.431000  0.876400  1.0  0.0924
  H  H162  1  0.517800  0.301300  0.223200  1.0  0.1199
  H  H163  1  0.917100  0.513500  0.850100  1.0  0.0915
  H  H164  1  0.085700  0.667300  0.724000  1.0  0.0942
  H  H165  1  0.941500  0.588200  0.827100  1.0  0.1204
  H  H166  1  0.186400  0.400600  0.884200  1.0  0.1162
  H  H167  1  0.947300  0.731700  0.667900  1.0  0.0881
  H  H168  1  0.686400  0.599400  0.615800  1.0  0.1161
  H  H169  1  0.475500  0.155900  0.228900  1.0  0.1211
  H  H170  1  0.813600  0.099400  0.384200  1.0  0.1164
  H  H171  1  0.424900  0.080200  0.634400  1.0  0.0924
  H  H172  1  0.313600  0.900600  0.115800  1.0  0.1163
  H  H173  1  0.111800  0.615700  0.526100  1.0  0.1219
  H  H174  1  0.414300  0.167300  0.276000  1.0  0.0944
  H  H175  1  0.647300  0.580700  0.529200  1.0  0.1096
  H  H176  1  0.492400  0.551900  0.538400  1.0  0.0992
  H  H177  1  0.975500  0.844100  0.271100  1.0  0.121
  H  H178  1  0.468900  0.931000  0.123600  1.0  0.0928
  H  H179  1  0.846800  0.843300  0.934500  1.0  0.0931
  H  H180  1  0.417100  0.486500  0.649900  1.0  0.0927
  H  H181  1  0.558500  0.088200  0.172900  1.0  0.1198
  H  H182  1  0.611800  0.384300  0.973900  1.0  0.1219
  H  H183  1  0.364300  0.439500  0.008100  1.0  0.1127
  H  H184  1  0.194500  0.688800  0.632600  1.0  0.0848
  H  H185  1  0.305500  0.188800  0.367400  1.0  0.0848
  H  H186  1  0.622800  0.076600  0.073500  1.0  0.0775
  H  H187  1  0.125500  0.729000  0.409400  1.0  0.1152
  H  H188  1  0.552700  0.231700  0.332100  1.0  0.0889
  H  H189  1  0.635700  0.060500  0.508100  1.0  0.1132
  H  H190  1  0.098700  0.847700  0.405800  1.0  0.1158
  H  H191  1  0.857700  0.694400  0.630400  1.0  0.1163
  H  H192  1  0.306600  0.091500  0.515700  1.0  0.0899
  H  H193  1  0.388200  0.115700  0.473900  1.0  0.1221
  H  H194  1  0.914300  0.832700  0.224000  1.0  0.0948
  H  H195  1  0.451500  0.463700  0.048800  1.0  0.0815
  H  H196  1  0.047700  0.649800  0.338200  1.0  0.1218
  H  H197  1  0.058500  0.911800  0.327100  1.0  0.1203
  H  H198  1  0.888200  0.884300  0.026100  1.0  0.1226
  H  H199  1  0.135700  0.939500  0.991900  1.0  0.1128
  H  H200  1  0.585700  0.332700  0.776000  1.0  0.0945
  H  H201  1  0.598700  0.152300  0.094200  1.0  0.1161
  H  H202  1  0.352700  0.919300  0.029200  1.0  0.1093
  H  H203  1  0.052700  0.768300  0.167900  1.0  0.0882
  H  H204  1  0.886800  0.848300  0.093800  1.0  0.1225
  H  H205  1  0.924900  0.919800  0.865600  1.0  0.0915
  H  H206  1  0.447300  0.268300  0.832100  1.0  0.0888
  H  H207  1  0.082900  0.986500  0.350100  1.0  0.0915
  H  H208  1  0.693400  0.408500  0.015700  1.0  0.09
  H  H209  1  0.625500  0.271000  0.090600  1.0  0.1153
  H  H210  1  0.482200  0.198700  0.723200  1.0  0.1195
  H  H211  1  0.193400  0.591500  0.484300  1.0  0.0906
  H  H212  1  0.346800  0.156700  0.565500  1.0  0.0929
  H  H213  1  0.377200  0.423400  0.573500  1.0  0.077
  H  H214  1  0.642300  0.194400  0.369600  1.0  0.1153
  H  H215  1  0.401300  0.347700  0.594200  1.0  0.1161
  H  H216  1  0.017800  0.698700  0.276800  1.0  0.1197
  C  C217  1  0.115200  0.198840  0.100130  1.0  -0.1451
  C  C218  1  0.625400  0.914800  0.485790  1.0  0.1362
  C  C219  1  0.577400  0.832150  0.608780  1.0  -0.1375
  C  C220  1  0.976300  0.169480  0.892150  1.0  -0.1317
  C  C221  1  0.852400  0.589500  0.099540  1.0  -0.1254
  C  C222  1  0.923100  0.144980  0.916380  1.0  0.374
  C  C223  1  0.912900  0.042300  0.638460  1.0  0.1414
  C  C224  1  0.072200  0.413220  0.152410  1.0  -0.1474
  C  C225  1  0.125400  0.085200  0.014210  1.0  0.1397
  C  C226  1  0.817000  0.592890  0.071450  1.0  -0.0554
  C  C227  1  0.996200  0.226520  0.233630  1.0  -0.143
  C  C228  1  0.568000  0.567620  0.990660  1.0  -0.1283
  C  C229  1  0.625200  0.809890  0.631940  1.0  0.1378
  C  C230  1  0.577200  0.899900  0.510630  1.0  -0.1533
  C  C231  1  0.647600  0.089500  0.900460  1.0  -0.1254
  C  C232  1  0.935800  0.176490  0.649850  1.0  0.3996
  C  C233  1  0.072900  0.306830  0.369690  1.0  -0.1301
  C  C234  1  0.927100  0.193170  0.869690  1.0  -0.1326
  C  C235  1  0.922800  0.399900  0.489370  1.0  -0.1531
  C  C236  1  0.922200  0.128420  0.635960  1.0  -0.1038
  C  C237  1  0.935100  0.305330  0.264930  1.0  0.1337
  C  C238  1  0.499800  0.727600  0.279370  1.0  -0.107
  C  C239  1  0.422600  0.667850  0.108780  1.0  -0.139
  C  C240  1  0.503800  0.726520  0.766370  1.0  -0.1427
  C  C241  1  0.404000  0.875850  0.893730  1.0  -0.131
  C  C242  1  0.596000  0.624150  0.393730  1.0  -0.1317
  C  C243  1  0.519200  0.715000  0.152640  1.0  0.1383
  C  C244  1  0.999800  0.272400  0.220630  1.0  -0.1072
  C  C245  1  0.567700  0.757960  0.353840  1.0  0.4253
  C  C246  1  0.496200  0.773480  0.266370  1.0  -0.1457
  C  C247  1  0.586200  0.889120  0.374500  1.0  0.1287
  C  C248  1  0.624400  0.078600  0.951070  1.0  -0.0867
  C  C249  1  0.539700  0.722590  0.737880  1.0  0.132
  C  C250  1  0.932000  0.067620  0.009340  1.0  -0.1305
  C  C251  1  0.430800  0.652170  0.858010  1.0  -0.1228
  C  C252  1  0.476300  0.830520  0.607850  1.0  -0.1314
  C  C253  1  0.030900  0.277520  0.189330  1.0  0.3918
  C  C254  1  0.214300  0.389920  0.433660  1.0  0.4071
  C  C255  1  0.029200  0.187560  0.736890  1.0  -0.1442
  C  C256  1  0.183000  0.907110  0.571450  1.0  -0.0544
  C  C257  1  0.432300  0.742040  0.853840  1.0  0.4249
  C  C258  1  0.923400  0.108570  0.960300  1.0  0.3812
  C  C259  1  0.427800  0.913220  0.847590  1.0  -0.1453
  C  C260  1  0.467500  0.438700  0.445530  1.0  0.1188
  C  C261  1  0.374600  0.585200  0.985790  1.0  0.1398
  C  C262  1  0.904000  0.124150  0.606270  1.0  -0.1301
  C  C263  1  0.683000  0.092890  0.928550  1.0  -0.0543
  C  C264  1  0.069200  0.152170  0.141990  1.0  -0.1231
  C  C265  1  0.427100  0.806830  0.630310  1.0  -0.1325
  C  C266  1  0.927800  0.086780  0.652410  1.0  -0.1473
  C  C267  1  0.076900  0.355020  0.416380  1.0  0.3733
  C  C268  1  0.039700  0.277410  0.762120  1.0  0.1325
  C  C269  1  0.913800  0.389120  0.625500  1.0  0.1296
  C  C270  1  0.555100  0.071500  0.896000  1.0  0.1352
  C  C271  1  0.084000  0.197100  0.129080  1.0  -0.1148
  C  C272  1  0.874600  0.414800  0.514210  1.0  0.136
  C  C273  1  0.922600  0.332150  0.391220  1.0  -0.1397
  C  C274  1  0.930800  0.347830  0.641990  1.0  -0.123
  C  C275  1  0.413800  0.610880  0.874500  1.0  0.1293
  C  C276  1  0.875600  0.578600  0.048930  1.0  -0.0867
  C  C277  1  0.087100  0.457700  0.138460  1.0  0.1424
  C  C278  1  0.889800  0.078870  0.594030  1.0  0.1251
  C  C279  1  0.000200  0.227600  0.720630  1.0  -0.1077
  C  C280  1  0.368700  0.655590  0.914700  1.0  0.1324
  C  C281  1  0.374800  0.690110  0.131940  1.0  0.1372
  C  C282  1  0.960300  0.222590  0.262120  1.0  0.1339
  C  C283  1  0.019200  0.285000  0.347360  1.0  0.1355
  C  C284  1  0.460300  0.777410  0.237880  1.0  0.133
  C  C285  1  0.576600  0.608570  0.039700  1.0  0.3808
  C  C286  1  0.470800  0.687560  0.263110  1.0  -0.144
  C  C287  1  0.584000  0.802900  0.370920  1.0  -0.1145
  C  C288  1  0.980800  0.215000  0.847360  1.0  0.1346
  C  C289  1  0.023100  0.407710  0.486940  1.0  -0.0778
  C  C290  1  0.587100  0.542300  0.361540  1.0  0.1439
  C  C291  1  0.023700  0.330520  0.392150  1.0  -0.1325
  C  C292  1  0.423100  0.855020  0.583620  1.0  0.374
  C  C293  1  0.569200  0.847830  0.358010  1.0  -0.1223
  C  C294  1  0.384800  0.698840  0.899870  1.0  -0.1437
  C  C295  1  0.970800  0.312440  0.236890  1.0  -0.1441
  C  C296  1  0.064200  0.323510  0.149850  1.0  0.3997
  C  C297  1  0.577800  0.628420  0.364040  1.0  -0.1052
  C  C298  1  0.967500  0.561300  0.054470  1.0  0.1192
  C  C299  1  0.874800  0.309890  0.368060  1.0  0.138
  C  C300  1  0.969100  0.222480  0.689330  1.0  0.3919
  C  C301  1  0.055100  0.928500  0.604000  1.0  0.1339
  C  C302  1  0.077400  0.167850  0.891220  1.0  -0.1376
  C  C303  1  0.469100  0.777520  0.810670  1.0  0.3916
  C  C304  1  0.432000  0.932380  0.490660  1.0  -0.1305
  C  C305  1  0.523100  0.592290  0.013060  1.0  -0.0765
  C  C306  1  0.916000  0.302900  0.629080  1.0  -0.1142
  C  C307  1  0.532500  0.061300  0.945530  1.0  0.1198
  C  C308  1  0.096000  0.375850  0.106270  1.0  -0.1325
  C  C309  1  0.416000  0.697100  0.870920  1.0  -0.1143
  C  C310  1  0.631300  0.844410  0.414700  1.0  0.1274
  C  C311  1  0.422200  0.871580  0.864040  1.0  -0.1049
  C  C312  1  0.868700  0.344410  0.585300  1.0  0.1303
  C  C313  1  0.944900  0.571500  0.104000  1.0  0.1346
  C  C314  1  0.610200  0.578870  0.405970  1.0  0.124
  C  C315  1  0.572900  0.693170  0.130310  1.0  -0.13
  C  C316  1  0.484500  0.946790  0.466450  1.0  0.1251
  C  C317  1  0.435800  0.823510  0.850150  1.0  0.3994
  C  C318  1  0.375600  0.421400  0.451070  1.0  -0.0874
  C  C319  1  0.064900  0.194670  0.764930  1.0  0.1342
  C  C320  1  0.444900  0.428500  0.396000  1.0  0.1345
  C  C321  1  0.317000  0.407110  0.428550  1.0  -0.0565
  C  C322  1  0.785700  0.110080  0.933660  1.0  0.407
  C  C323  1  0.984500  0.053210  0.033550  1.0  0.1213
  C  C324  1  0.352400  0.410500  0.400460  1.0  -0.124
  C  C325  1  0.086200  0.110880  0.125500  1.0  0.1305
  C  C326  1  0.564900  0.805330  0.735070  1.0  0.1353
  C  C327  1  0.476900  0.907710  0.513060  1.0  -0.0777
  C  C328  1  0.389800  0.921130  0.905970  1.0  0.1235
  C  C329  1  0.932300  0.257960  0.646160  1.0  0.425
  C  C330  1  0.529200  0.812440  0.763110  1.0  -0.1442
  C  C331  1  0.131300  0.155590  0.085300  1.0  0.1277
  C  C332  1  0.976900  0.092290  0.986940  1.0  -0.0774
  C  C333  1  0.523700  0.669480  0.107850  1.0  -0.1318
  C  C334  1  0.285700  0.889920  0.566340  1.0  0.4067
  C  C335  1  0.564200  0.676490  0.350150  1.0  0.3997
  C  C336  1  0.435100  0.694670  0.235070  1.0  0.1339
  C  C337  1  0.032500  0.938700  0.554470  1.0  0.1212
  C  C338  1  0.884800  0.301160  0.600130  1.0  -0.144
  C  C339  1  0.423400  0.891430  0.539700  1.0  0.381
  C  C340  1  0.076600  0.391430  0.460300  1.0  0.3808
  C  C341  1  0.515500  0.553210  0.966450  1.0  0.121
  C  C342  1  0.480800  0.785000  0.652640  1.0  0.1384
  C  C343  1  0.500200  0.772400  0.779370  1.0  -0.1073
  C  C344  1  0.125200  0.190110  0.868060  1.0  0.1385
  C  C345  1  0.124400  0.921400  0.548930  1.0  -0.0861
  C  C346  1  0.714300  0.610080  0.066340  1.0  0.4076
  C  C347  1  0.015500  0.446790  0.533550  1.0  0.1213
  C  C348  1  0.147600  0.910500  0.599540  1.0  -0.1238
  C  C349  1  0.003800  0.273480  0.733630  1.0  -0.143
  C  C350  1  0.530900  0.722480  0.310670  1.0  0.3916
  C  C351  1  0.068000  0.432380  0.509340  1.0  -0.1283
  C  C352  1  0.067700  0.242040  0.146160  1.0  0.4246
  C  C353  1  0.077800  0.371580  0.135960  1.0  -0.105
  C  C354  1  0.412900  0.957700  0.861540  1.0  0.1426
  C  C355  1  0.110200  0.421130  0.094030  1.0  0.129
  C  C356  1  0.572200  0.586780  0.347590  1.0  -0.1451
  C  C357  1  0.615200  0.801160  0.399870  1.0  -0.1426
  C  C358  1  0.077200  0.100100  0.989370  1.0  -0.1521
  C  C359  1  0.576900  0.644980  0.083620  1.0  0.3739
  C  C360  1  0.422800  0.600100  0.010630  1.0  -0.1535
  C  C361  1  0.032500  0.438700  0.945530  1.0  0.1197
  C  C362  1  0.317000  0.907110  0.071450  1.0  -0.0564
  C  C363  1  0.785700  0.610080  0.566340  1.0  0.4074
  C  C364  1  0.967500  0.061300  0.445530  1.0  0.1194
  C  C365  1  0.932000  0.567620  0.490660  1.0  -0.131
  C  C366  1  0.714300  0.110080  0.433660  1.0  0.4073
  C  C367  1  0.874600  0.914800  0.985790  1.0  0.1368
  C  C368  1  0.484500  0.446790  0.033550  1.0  0.1206
  C  C369  1  0.039700  0.777410  0.737880  1.0  0.1319
  C  C370  1  0.577200  0.399900  0.989370  1.0  -0.153
  C  C371  1  0.460300  0.277410  0.262120  1.0  0.1322
  C  C372  1  0.077400  0.667850  0.608780  1.0  -0.1376
  C  C373  1  0.976900  0.592290  0.513060  1.0  -0.0766
  C  C374  1  0.055100  0.428500  0.896000  1.0  0.1351
  C  C375  1  0.077200  0.600100  0.510630  1.0  -0.1529
  C  C376  1  0.023100  0.907710  0.013060  1.0  -0.0779
  C  C377  1  0.125400  0.585200  0.485790  1.0  0.1364
  C  C378  1  0.904000  0.624150  0.893730  1.0  -0.133
  C  C379  1  0.930800  0.847830  0.858010  1.0  -0.1228
  C  C380  1  0.868700  0.844410  0.914700  1.0  0.1274
  C  C381  1  0.647600  0.589500  0.599540  1.0  -0.1239
  C  C382  1  0.422800  0.100100  0.489370  1.0  -0.1531
  C  C383  1  0.884800  0.801160  0.899870  1.0  -0.1437
  C  C384  1  0.923100  0.644980  0.583620  1.0  0.3743
  C  C385  1  0.927100  0.693170  0.630310  1.0  -0.1326
  C  C386  1  0.003800  0.773480  0.766370  1.0  -0.1437
  C  C387  1  0.532500  0.561300  0.554470  1.0  0.1205
  C  C388  1  0.030900  0.777520  0.310670  1.0  0.3916
  C  C389  1  0.480800  0.285000  0.847360  1.0  0.1357
  C  C390  1  0.076600  0.891430  0.039700  1.0  0.3807
  C  C391  1  0.969100  0.722480  0.810670  1.0  0.3916
  C  C392  1  0.624400  0.578600  0.548930  1.0  -0.0845
  C  C393  1  0.422200  0.371580  0.635960  1.0  -0.1039
  C  C394  1  0.586200  0.389120  0.125500  1.0  0.1293
  C  C395  1  0.587100  0.042300  0.138460  1.0  0.142
  C  C396  1  0.368700  0.155590  0.585300  1.0  0.1271
  C  C397  1  0.467500  0.938700  0.054470  1.0  0.1192
  C  C398  1  0.110200  0.921130  0.405970  1.0  0.129
  C  C399  1  0.539700  0.222590  0.762120  1.0  0.1326
  C  C400  1  0.996200  0.726520  0.266370  1.0  -0.1435
  C  C401  1  0.384800  0.198840  0.600130  1.0  -0.1449
  C  C402  1  0.076900  0.855020  0.083620  1.0  0.3736
  C  C403  1  0.567700  0.257960  0.146160  1.0  0.425
  C  C404  1  0.932300  0.757960  0.853840  1.0  0.4252
  C  C405  1  0.069200  0.652170  0.358010  1.0  -0.1223
  C  C406  1  0.029200  0.687560  0.763110  1.0  -0.1446
  C  C407  1  0.555100  0.571500  0.604000  1.0  0.1335
  C  C408  1  0.374800  0.190110  0.368060  1.0  0.1407
  C  C409  1  0.935100  0.805330  0.235070  1.0  0.1345
  C  C410  1  0.072200  0.913220  0.347590  1.0  -0.1456
  C  C411  1  0.087100  0.957700  0.361540  1.0  0.1428
  C  C412  1  0.469100  0.277520  0.689330  1.0  0.3919
  C  C413  1  0.413800  0.110880  0.625500  1.0  0.1337
  C  C414  1  0.423400  0.391430  0.960300  1.0  0.3811
  C  C415  1  0.596000  0.124150  0.106270  1.0  -0.132
  C  C416  1  0.577800  0.128420  0.135960  1.0  -0.1046
  C  C417  1  0.375600  0.921400  0.048930  1.0  -0.0876
  C  C418  1  0.500200  0.272400  0.720630  1.0  -0.1077
  C  C419  1  0.922200  0.628420  0.864040  1.0  -0.1047
  C  C420  1  0.131300  0.655590  0.414700  1.0  0.1272
  C  C421  1  0.019200  0.785000  0.152640  1.0  0.1367
  C  C422  1  0.852400  0.089500  0.400460  1.0  -0.1249
  C  C423  1  0.352400  0.910500  0.099540  1.0  -0.1247
  C  C424  1  0.064900  0.694670  0.735070  1.0  0.1343
  C  C425  1  0.889800  0.578870  0.905970  1.0  0.1234
  C  C426  1  0.000200  0.727600  0.779370  1.0  -0.1073
  C  C427  1  0.912900  0.542300  0.861540  1.0  0.1466
  C  C428  1  0.631300  0.344410  0.085300  1.0  0.1281
  C  C429  1  0.572200  0.086780  0.152410  1.0  -0.1491
  C  C430  1  0.576600  0.108570  0.460300  1.0  0.3809
  C  C431  1  0.427800  0.413220  0.652410  1.0  -0.1472
  C  C432  1  0.068000  0.932380  0.990660  1.0  -0.1276
  C  C433  1  0.125200  0.690110  0.631940  1.0  0.1379
  C  C434  1  0.432300  0.242040  0.646160  1.0  0.4245
  C  C435  1  0.432000  0.432380  0.009340  1.0  -0.13
  C  C436  1  0.435100  0.194670  0.264930  1.0  0.134
  C  C437  1  0.584000  0.302900  0.129080  1.0  -0.1143
  C  C438  1  0.064200  0.823510  0.350150  1.0  0.3997
  C  C439  1  0.999800  0.772400  0.279370  1.0  -0.1069
  C  C440  1  0.568000  0.067620  0.509340  1.0  -0.1285
  C  C441  1  0.476300  0.330520  0.892150  1.0  -0.1319
  C  C442  1  0.067700  0.742040  0.353840  1.0  0.425
  C  C443  1  0.529200  0.312440  0.736890  1.0  -0.1448
  C  C444  1  0.572900  0.193170  0.369690  1.0  -0.1299
  C  C445  1  0.576900  0.144980  0.416380  1.0  0.3735
  C  C446  1  0.499800  0.227600  0.220630  1.0  -0.1073
  C  C447  1  0.817000  0.092890  0.428550  1.0  -0.0556
  C  C448  1  0.916000  0.802900  0.870920  1.0  -0.1144
  C  C449  1  0.072900  0.806830  0.130310  1.0  -0.1299
  C  C450  1  0.523700  0.169480  0.392150  1.0  -0.1324
  C  C451  1  0.923400  0.608570  0.539700  1.0  0.3811
  C  C452  1  0.214300  0.889920  0.066340  1.0  0.4075
  C  C453  1  0.577400  0.332150  0.891220  1.0  -0.1376
  C  C454  1  0.430800  0.152170  0.641990  1.0  -0.1227
  C  C455  1  0.523100  0.092290  0.486940  1.0  -0.0769
  C  C456  1  0.183000  0.407110  0.928550  1.0  -0.0546
  C  C457  1  0.423100  0.355020  0.916380  1.0  0.3737
  C  C458  1  0.625200  0.309890  0.868060  1.0  0.1384
  C  C459  1  0.960300  0.722590  0.237880  1.0  0.1333
  C  C460  1  0.922600  0.832150  0.108780  1.0  -0.1383
  C  C461  1  0.147600  0.410500  0.900460  1.0  -0.1245
  C  C462  1  0.519200  0.215000  0.347360  1.0  0.1363
  C  C463  1  0.435800  0.323510  0.649850  1.0  0.3995
  C  C464  1  0.374600  0.085200  0.514210  1.0  0.137
  C  C465  1  0.976300  0.669480  0.607850  1.0  -0.1314
  C  C466  1  0.096000  0.875850  0.393730  1.0  -0.132
  C  C467  1  0.530900  0.222480  0.189330  1.0  0.3918
  C  C468  1  0.124400  0.421400  0.951070  1.0  -0.0865
  C  C469  1  0.875600  0.078600  0.451070  1.0  -0.0887
  C  C470  1  0.404000  0.375850  0.606270  1.0  -0.131
  C  C471  1  0.444900  0.928500  0.104000  1.0  0.1349
  C  C472  1  0.569200  0.347830  0.141990  1.0  -0.1237
  C  C473  1  0.610200  0.078870  0.094030  1.0  0.1242
  C  C474  1  0.023700  0.830520  0.107850  1.0  -0.1318
  C  C475  1  0.564900  0.305330  0.764930  1.0  0.1336
  C  C476  1  0.422600  0.167850  0.391220  1.0  -0.1415
  C  C477  1  0.984500  0.553210  0.466450  1.0  0.1219
  C  C478  1  0.115200  0.698840  0.399870  1.0  -0.1426
  C  C479  1  0.927800  0.586780  0.847590  1.0  -0.1448
  C  C480  1  0.980800  0.715000  0.652640  1.0  0.1365
  C  C481  1  0.683000  0.592890  0.571450  1.0  -0.054
  C  C482  1  0.515500  0.053210  0.533550  1.0  0.1213
  C  C483  1  0.625400  0.414800  0.014210  1.0  0.1365
  C  C484  1  0.412900  0.457700  0.638460  1.0  0.141
  C  C485  1  0.615200  0.301160  0.100130  1.0  -0.1447
  C  C486  1  0.874800  0.809890  0.131940  1.0  0.141
  C  C487  1  0.015500  0.946790  0.966450  1.0  0.1209
  C  C488  1  0.913800  0.889120  0.874500  1.0  0.1285
  C  C489  1  0.086200  0.610880  0.374500  1.0  0.1294
  C  C490  1  0.935800  0.676490  0.850150  1.0  0.3995
  C  C491  1  0.084000  0.697100  0.370920  1.0  -0.1145
  C  C492  1  0.564200  0.176490  0.149850  1.0  0.3998
  C  C493  1  0.389800  0.421130  0.594030  1.0  0.1246
  C  C494  1  0.285700  0.389920  0.933660  1.0  0.4064
  C  C495  1  0.944900  0.071500  0.396000  1.0  0.1343
  C  C496  1  0.476900  0.407710  0.986940  1.0  -0.078
  C  C497  1  0.427100  0.306830  0.869690  1.0  -0.1317
  C  C498  1  0.496200  0.273480  0.233630  1.0  -0.143
  C  C499  1  0.922800  0.899900  0.010630  1.0  -0.1536
  C  C500  1  0.503800  0.226520  0.733630  1.0  -0.1423
  C  C501  1  0.970800  0.812440  0.263110  1.0  -0.144
  C  C502  1  0.470800  0.187560  0.236890  1.0  -0.1438
  C  C503  1  0.077800  0.871580  0.364040  1.0  -0.105
  C  C504  1  0.416000  0.197100  0.629080  1.0  -0.1146
  I  I505  1  0.220090  0.512150  0.041010  1.0  -0.4204
  I  I506  1  0.783920  0.921480  0.630760  1.0  -0.3261
  I  I507  1  0.716080  0.421480  0.369230  1.0  -0.328
  I  I508  1  0.431590  0.481650  0.896440  1.0  -0.3753
  I  I509  1  0.931590  0.518350  0.603560  1.0  -0.3749
  I  I510  1  0.068410  0.981650  0.103560  1.0  -0.3744
  I  I511  1  0.216080  0.578520  0.130770  1.0  -0.3267
  I  I512  1  0.163560  0.555020  0.932590  1.0  -0.4039
  I  I513  1  0.808760  0.803630  0.695550  1.0  -0.3721
  I  I514  1  0.568410  0.018350  0.396440  1.0  -0.3747
  I  I515  1  0.720090  0.487850  0.458990  1.0  -0.4198
  I  I516  1  0.663560  0.444980  0.567410  1.0  -0.4037
  I  I517  1  0.308760  0.196370  0.804450  1.0  -0.3708
  I  I518  1  0.836440  0.944980  0.432590  1.0  -0.4051
  I  I519  1  0.327210  0.837670  0.174470  1.0  -0.3299
  I  I520  1  0.191240  0.696370  0.195550  1.0  -0.3704
  I  I521  1  0.827210  0.162330  0.325530  1.0  -0.3287
  I  I522  1  0.336440  0.055020  0.067410  1.0  -0.4048
  I  I523  1  0.172790  0.337670  0.825530  1.0  -0.3288
  I  I524  1  0.672790  0.662330  0.674470  1.0  -0.3294
  I  I525  1  0.779910  0.987850  0.541010  1.0  -0.4205
  I  I526  1  0.691240  0.303630  0.304450  1.0  -0.3722
  I  I527  1  0.279910  0.012150  0.958990  1.0  -0.4203
  I  I528  1  0.283920  0.078520  0.869240  1.0  -0.3276
  I  I529  1  0.163560  0.055020  0.567410  1.0  -0.4036
  I  I530  1  0.663560  0.944980  0.932590  1.0  -0.4038
  I  I531  1  0.431590  0.981650  0.603560  1.0  -0.3745
  I  I532  1  0.827210  0.662330  0.174470  1.0  -0.3296
  I  I533  1  0.283920  0.578520  0.630760  1.0  -0.3269
  I  I534  1  0.216080  0.078520  0.369230  1.0  -0.3271
  I  I535  1  0.836440  0.444980  0.067410  1.0  -0.4049
  I  I536  1  0.327210  0.337670  0.325530  1.0  -0.329
  I  I537  1  0.672790  0.162330  0.825530  1.0  -0.3285
  I  I538  1  0.783920  0.421480  0.869240  1.0  -0.3282
  I  I539  1  0.691240  0.803630  0.195550  1.0  -0.3723
  I  I540  1  0.779910  0.487850  0.958990  1.0  -0.4201
  I  I541  1  0.931590  0.018350  0.896440  1.0  -0.3748
  I  I542  1  0.336440  0.555020  0.432590  1.0  -0.4051
  I  I543  1  0.191240  0.196370  0.304450  1.0  -0.3704
  I  I544  1  0.808760  0.303630  0.804450  1.0  -0.372
  I  I545  1  0.172790  0.837670  0.674470  1.0  -0.3297
  I  I546  1  0.568410  0.518350  0.103560  1.0  -0.3749
  I  I547  1  0.220090  0.012150  0.458990  1.0  -0.4199
  I  I548  1  0.720090  0.987850  0.041010  1.0  -0.4203
  I  I549  1  0.308760  0.696370  0.695550  1.0  -0.3708
  I  I550  1  0.279910  0.512150  0.541010  1.0  -0.4208
  I  I551  1  0.716080  0.921480  0.130770  1.0  -0.3277
  I  I552  1  0.068410  0.481650  0.396440  1.0  -0.3751
  N  N553  1  0.974000  0.132210  0.940180  1.0  -0.3381
  N  N554  1  0.921200  0.286860  0.346790  1.0  -0.294
  N  N555  1  0.571300  0.760840  0.722650  1.0  -0.327
  N  N556  1  0.607000  0.538510  0.390280  1.0  -0.3029
  N  N557  1  0.928700  0.260840  0.277350  1.0  -0.3272
  N  N558  1  0.171300  0.403270  0.458800  1.0  -0.4762
  N  N559  1  0.117100  0.112120  0.097990  1.0  -0.2924
  N  N560  1  0.328700  0.903270  0.541200  1.0  -0.4735
  N  N561  1  0.002100  0.557450  0.081750  1.0  -0.2939
  N  N562  1  0.327500  0.865100  0.588160  1.0  -0.4392
  N  N563  1  0.526000  0.632210  0.059820  1.0  -0.3374
  N  N564  1  0.040800  0.322010  0.178420  1.0  -0.468
  N  N565  1  0.921300  0.215240  0.632650  1.0  -0.5574
  N  N566  1  0.043900  0.236420  0.174350  1.0  -0.4876
  N  N567  1  0.882900  0.387880  0.597990  1.0  -0.2925
  N  N568  1  0.578700  0.715240  0.367350  1.0  -0.5648
  N  N569  1  0.421300  0.784760  0.867350  1.0  -0.5636
  N  N570  1  0.026000  0.367790  0.440180  1.0  -0.3381
  N  N571  1  0.543900  0.763580  0.325650  1.0  -0.4958
  N  N572  1  0.672500  0.634900  0.088160  1.0  -0.4398
  N  N573  1  0.393000  0.961490  0.890280  1.0  -0.3041
  N  N574  1  0.382900  0.612120  0.902010  1.0  -0.2916
  N  N575  1  0.959200  0.177990  0.678420  1.0  -0.4691
  N  N576  1  0.497900  0.057450  0.918250  1.0  -0.294
  N  N577  1  0.474000  0.867790  0.559820  1.0  -0.3381
  N  N578  1  0.581200  0.937980  0.463380  1.0  -0.3072
  N  N579  1  0.456100  0.736420  0.825650  1.0  -0.4961
  N  N580  1  0.997900  0.942550  0.581750  1.0  -0.2925
  N  N581  1  0.172500  0.365100  0.411840  1.0  -0.4425
  N  N582  1  0.617100  0.887880  0.402010  1.0  -0.2932
  N  N583  1  0.502100  0.442550  0.418250  1.0  -0.2926
  N  N584  1  0.421200  0.713140  0.153210  1.0  -0.2935
  N  N585  1  0.893000  0.038510  0.609720  1.0  -0.3021
  N  N586  1  0.078700  0.284760  0.132650  1.0  -0.5582
  N  N587  1  0.827500  0.134900  0.911840  1.0  -0.4393
  N  N588  1  0.459200  0.822010  0.821580  1.0  -0.4671
  N  N589  1  0.671300  0.596730  0.041200  1.0  -0.4795
  N  N590  1  0.428700  0.739160  0.222650  1.0  -0.3268
  N  N591  1  0.081200  0.062020  0.036620  1.0  -0.3102
  N  N592  1  0.107000  0.461490  0.109720  1.0  -0.3047
  N  N593  1  0.078800  0.213140  0.846790  1.0  -0.2948
  N  N594  1  0.071300  0.239160  0.777350  1.0  -0.3276
  N  N595  1  0.418800  0.562020  0.963380  1.0  -0.3111
  N  N596  1  0.578800  0.786860  0.653210  1.0  -0.2937
  N  N597  1  0.956100  0.263580  0.674350  1.0  -0.4871
  N  N598  1  0.828700  0.096730  0.958800  1.0  -0.4811
  N  N599  1  0.918800  0.437980  0.536620  1.0  -0.3102
  N  N600  1  0.540800  0.677990  0.321580  1.0  -0.4656
  N  N601  1  0.578700  0.215240  0.132650  1.0  -0.5645
  N  N602  1  0.617100  0.387880  0.097990  1.0  -0.2934
  N  N603  1  0.328700  0.403270  0.958800  1.0  -0.4815
  N  N604  1  0.526000  0.132210  0.440180  1.0  -0.3378
  N  N605  1  0.959200  0.677990  0.821580  1.0  -0.4674
  N  N606  1  0.581200  0.437980  0.036620  1.0  -0.3096
  N  N607  1  0.172500  0.865100  0.088160  1.0  -0.4383
  N  N608  1  0.040800  0.822010  0.321580  1.0  -0.4745
  N  N609  1  0.921200  0.786860  0.153210  1.0  -0.2928
  N  N610  1  0.540800  0.177990  0.178420  1.0  -0.4652
  N  N611  1  0.117100  0.612120  0.402010  1.0  -0.2922
  N  N612  1  0.393000  0.461490  0.609720  1.0  -0.3027
  N  N613  1  0.081200  0.562020  0.463380  1.0  -0.3093
  N  N614  1  0.421200  0.213140  0.346790  1.0  -0.2944
  N  N615  1  0.607000  0.038510  0.109720  1.0  -0.3023
  N  N616  1  0.428700  0.239160  0.277350  1.0  -0.3275
  N  N617  1  0.327500  0.365100  0.911840  1.0  -0.4403
  N  N618  1  0.171300  0.903270  0.041200  1.0  -0.4722
  N  N619  1  0.827500  0.634900  0.588160  1.0  -0.4428
  N  N620  1  0.078700  0.784760  0.367350  1.0  -0.5654
  N  N621  1  0.974000  0.632210  0.559820  1.0  -0.3379
  N  N622  1  0.107000  0.961490  0.390280  1.0  -0.3047
  N  N623  1  0.543900  0.263580  0.174350  1.0  -0.4959
  N  N624  1  0.918800  0.937980  0.963380  1.0  -0.3083
  N  N625  1  0.578800  0.286860  0.846790  1.0  -0.2959
  N  N626  1  0.078800  0.713140  0.653210  1.0  -0.2935
  N  N627  1  0.928700  0.760840  0.222650  1.0  -0.3266
  N  N628  1  0.418800  0.062020  0.536620  1.0  -0.3102
  N  N629  1  0.421300  0.284760  0.632650  1.0  -0.5631
  N  N630  1  0.502100  0.942550  0.081750  1.0  -0.2928
  N  N631  1  0.497900  0.557450  0.581750  1.0  -0.294
  N  N632  1  0.043900  0.736420  0.325650  1.0  -0.497
  N  N633  1  0.026000  0.867790  0.059820  1.0  -0.3382
  N  N634  1  0.456100  0.236420  0.674350  1.0  -0.4956
  N  N635  1  0.882900  0.887880  0.902010  1.0  -0.294
  N  N636  1  0.921300  0.715240  0.867350  1.0  -0.5636
  N  N637  1  0.671300  0.096730  0.458800  1.0  -0.4802
  N  N638  1  0.382900  0.112120  0.597990  1.0  -0.2923
  N  N639  1  0.997900  0.442550  0.918250  1.0  -0.2918
  N  N640  1  0.474000  0.367790  0.940180  1.0  -0.3385
  N  N641  1  0.459200  0.322010  0.678420  1.0  -0.468
  N  N642  1  0.571300  0.260840  0.777350  1.0  -0.3273
  N  N643  1  0.893000  0.538510  0.890280  1.0  -0.3036
  N  N644  1  0.956100  0.763580  0.825650  1.0  -0.4955
  N  N645  1  0.002100  0.057450  0.418250  1.0  -0.2924
  N  N646  1  0.071300  0.739160  0.722650  1.0  -0.3271
  N  N647  1  0.828700  0.596730  0.541200  1.0  -0.4766
  N  N648  1  0.672500  0.134900  0.411840  1.0  -0.4414
