# generated using pymatgen
data_Mn3Mo2(CN)14
_symmetry_space_group_name_H-M   'P 1'
_cell_length_a   12.88900000
_cell_length_b   13.16000000
_cell_length_c   14.60830000
_cell_angle_alpha   116.77100000
_cell_angle_beta   113.32000000
_cell_angle_gamma   90.00000000
_symmetry_Int_Tables_number   1
_chemical_formula_structural   Mn3Mo2(CN)14
_chemical_formula_sum   'Mn6 Mo4 C28 N28'
_cell_volume   1982.90878553
_cell_formula_units_Z   2
loop_
 _symmetry_equiv_pos_site_id
 _symmetry_equiv_pos_as_xyz
  1  'x, y, z'
loop_
 _atom_site_type_symbol
 _atom_site_label
 _atom_site_symmetry_multiplicity
 _atom_site_fract_x
 _atom_site_fract_y
 _atom_site_fract_z
 _atom_site_occupancy
 _atom_site_charge
  Mn  Mn1  1  0.217910  0.656080  0.423720  1.0  1.1055
  Mn  Mn2  1  0.717220  0.675080  0.426900  1.0  1.1071
  Mn  Mn3  1  0.282780  0.248180  0.573100  1.0  1.1057
  Mn  Mn4  1  0.500000  0.980920  0.000000  1.0  0.875
  Mn  Mn5  1  0.000000  0.928820  0.000000  1.0  1.0057
  Mn  Mn6  1  0.782090  0.232360  0.576280  1.0  1.1057
  Mo  Mo7  1  0.101880  0.011280  0.717800  1.0  0.381
  Mo  Mo8  1  0.898120  0.293480  0.282200  1.0  0.3803
  Mo  Mo9  1  0.599950  0.612920  0.718120  1.0  0.3745
  Mo  Mo10  1  0.400050  0.894800  0.281880  1.0  0.3737
  C  C11  1  0.270300  0.014500  0.832600  1.0  0.1906
  C  C12  1  0.443800  0.931100  0.172400  1.0  0.1715
  C  C13  1  0.646000  0.626500  0.596800  1.0  0.157
  C  C14  1  0.769400  0.728800  0.837200  1.0  0.186
  C  C15  1  0.863700  0.336200  0.145400  1.0  0.1161
  C  C16  1  0.043100  0.258800  0.388000  1.0  0.1345
  C  C17  1  0.148700  0.874900  0.601800  1.0  0.1691
  C  C18  1  0.941400  0.150100  0.169400  1.0  0.1199
  C  C19  1  0.956900  0.870800  0.612000  1.0  0.1346
  C  C20  1  0.542900  0.037700  0.390400  1.0  0.1236
  C  C21  1  0.230600  0.891600  0.162800  1.0  0.1865
  C  C22  1  0.621500  0.576300  0.854400  1.0  0.1533
  C  C23  1  0.462500  0.463800  0.630600  1.0  0.1557
  C  C24  1  0.186600  0.106700  0.669600  1.0  0.1864
  C  C25  1  0.689000  0.470800  0.674000  1.0  0.175
  C  C26  1  0.136300  0.190800  0.854600  1.0  0.1085
  C  C27  1  0.729700  0.181900  0.167400  1.0  0.1898
  C  C28  1  0.813400  0.437100  0.330400  1.0  0.1843
  C  C29  1  0.311000  0.796800  0.326000  1.0  0.1767
  C  C30  1  0.851300  0.273100  0.398200  1.0  0.1697
  C  C31  1  0.354000  0.029700  0.403200  1.0  0.1564
  C  C32  1  0.457100  0.647300  0.609600  1.0  0.1245
  C  C33  1  0.556200  0.758700  0.827600  1.0  0.168
  C  C34  1  0.537500  0.833200  0.369400  1.0  0.1561
  C  C35  1  0.037900  0.437300  0.361600  1.0  0.1842
  C  C36  1  0.962100  0.075700  0.638400  1.0  0.1856
  C  C37  1  0.058600  0.980700  0.830600  1.0  0.1237
  C  C38  1  0.378500  0.721900  0.145600  1.0  0.1501
  N  N39  1  0.265800  0.745700  0.350600  1.0  -0.4394
  N  N40  1  0.877400  0.797400  0.554000  1.0  -0.4412
  N  N41  1  0.226200  0.161300  0.643400  1.0  -0.4544
  N  N42  1  0.151500  0.282000  0.921600  1.0  -0.374
  N  N43  1  0.606500  0.791600  0.409400  1.0  -0.4615
  N  N44  1  0.773800  0.517900  0.356600  1.0  -0.4512
  N  N45  1  0.144800  0.891400  0.098800  1.0  -0.4447
  N  N46  1  0.122600  0.243400  0.446000  1.0  -0.4408
  N  N47  1  0.376800  0.663000  0.547800  1.0  -0.466
  N  N48  1  0.108700  0.517500  0.400600  1.0  -0.4856
  N  N49  1  0.855200  0.792600  0.901200  1.0  -0.4471
  N  N50  1  0.734200  0.395100  0.649400  1.0  -0.4387
  N  N51  1  0.669400  0.634900  0.533400  1.0  -0.4453
  N  N52  1  0.891300  0.116900  0.599400  1.0  -0.484
  N  N53  1  0.848500  0.360400  0.078400  1.0  -0.3745
  N  N54  1  0.366100  0.624900  0.076600  1.0  -0.4001
  N  N55  1  0.825200  0.262900  0.462000  1.0  -0.4588
  N  N56  1  0.039100  0.963100  0.893800  1.0  -0.34
  N  N57  1  0.633900  0.548300  0.923400  1.0  -0.3994
  N  N58  1  0.393500  0.382200  0.590600  1.0  -0.4607
  N  N59  1  0.174800  0.800900  0.538000  1.0  -0.4572
  N  N60  1  0.330600  0.101500  0.466600  1.0  -0.4463
  N  N61  1  0.362100  0.018100  0.897000  1.0  -0.4422
  N  N62  1  0.960900  0.069300  0.106200  1.0  -0.3417
  N  N63  1  0.623200  0.115200  0.452200  1.0  -0.4662
  N  N64  1  0.637900  0.121100  0.103000  1.0  -0.443
  N  N65  1  0.539200  0.839200  0.890000  1.0  -0.4743
  N  N66  1  0.460800  0.949200  0.110000  1.0  -0.4736
