# generated using pymatgen
data_Mn3Mo2(CN)14
_symmetry_space_group_name_H-M   'P 1'
_cell_length_a   12.91000000
_cell_length_b   13.18000000
_cell_length_c   14.59050000
_cell_angle_alpha   116.85000000
_cell_angle_beta   113.54600000
_cell_angle_gamma   90.00000000
_symmetry_Int_Tables_number   1
_chemical_formula_structural   Mn3Mo2(CN)14
_chemical_formula_sum   'Mn6 Mo4 C28 N28'
_cell_volume   1980.53768234
_cell_formula_units_Z   2
loop_
 _symmetry_equiv_pos_site_id
 _symmetry_equiv_pos_as_xyz
  1  'x, y, z'
loop_
 _atom_site_type_symbol
 _atom_site_label
 _atom_site_symmetry_multiplicity
 _atom_site_fract_x
 _atom_site_fract_y
 _atom_site_fract_z
 _atom_site_occupancy
 _atom_site_charge
  Mn  Mn1  1  0.750000  0.973700  0.000000  1.0  0.8828
  Mn  Mn2  1  0.534900  0.280960  0.577320  1.0  1.104
  Mn  Mn3  1  0.034900  0.296360  0.577320  1.0  1.1032
  Mn  Mn4  1  0.965100  0.703640  0.422680  1.0  1.1034
  Mn  Mn5  1  0.250000  0.026300  0.000000  1.0  0.8825
  Mn  Mn6  1  0.465100  0.719040  0.422680  1.0  1.1049
  Mo  Mo7  1  0.650340  0.339740  0.283160  1.0  0.3585
  Mo  Mo8  1  0.849660  0.056580  0.716840  1.0  0.3595
  Mo  Mo9  1  0.349660  0.660260  0.716840  1.0  0.3604
  Mo  Mo10  1  0.150340  0.943420  0.283160  1.0  0.3581
  C  C11  1  0.122000  0.766300  0.146600  1.0  0.1419
  C  C12  1  0.893000  0.922600  0.594600  1.0  0.1931
  C  C13  1  0.393000  0.672000  0.594600  1.0  0.1918
  C  C14  1  0.789000  0.487100  0.368200  1.0  0.17
  C  C15  1  0.980600  0.939700  0.166400  1.0  0.2103
  C  C16  1  0.019400  0.060300  0.833600  1.0  0.2138
  C  C17  1  0.063600  0.845700  0.328400  1.0  0.1699
  C  C18  1  0.192000  0.974500  0.170200  1.0  0.1786
  C  C19  1  0.378000  0.619700  0.853400  1.0  0.1506
  C  C20  1  0.211000  0.512900  0.631800  1.0  0.1751
  C  C21  1  0.107000  0.077400  0.405400  1.0  0.192
  C  C22  1  0.563600  0.482700  0.328400  1.0  0.1673
  C  C23  1  0.705000  0.914200  0.610400  1.0  0.1181
  C  C24  1  0.711000  0.118900  0.631800  1.0  0.1755
  C  C25  1  0.205000  0.696200  0.610400  1.0  0.1178
  C  C26  1  0.308000  0.804300  0.829800  1.0  0.1758
  C  C27  1  0.692000  0.195700  0.170200  1.0  0.1775
  C  C28  1  0.436400  0.517300  0.671600  1.0  0.1676
  C  C29  1  0.808000  0.025500  0.829800  1.0  0.1787
  C  C30  1  0.519400  0.773300  0.833600  1.0  0.213
  C  C31  1  0.607000  0.328000  0.405400  1.0  0.1902
  C  C32  1  0.622000  0.380300  0.146600  1.0  0.1509
  C  C33  1  0.878000  0.233700  0.853400  1.0  0.1409
  C  C34  1  0.289000  0.881100  0.368200  1.0  0.1724
  C  C35  1  0.480600  0.226700  0.166400  1.0  0.2135
  C  C36  1  0.936400  0.154300  0.671600  1.0  0.1685
  C  C37  1  0.795000  0.303800  0.389600  1.0  0.1176
  C  C38  1  0.295000  0.085800  0.389600  1.0  0.1177
  N  N39  1  0.710000  0.114400  0.106800  1.0  -0.4138
  N  N40  1  0.609200  0.834700  0.897200  1.0  -0.4676
  N  N41  1  0.891000  0.328200  0.920400  1.0  -0.4008
  N  N42  1  0.390800  0.165300  0.102800  1.0  -0.4673
  N  N43  1  0.210000  0.992400  0.106800  1.0  -0.4139
  N  N44  1  0.978600  0.207400  0.646800  1.0  -0.445
  N  N45  1  0.890800  0.937500  0.102800  1.0  -0.4664
  N  N46  1  0.625000  0.839600  0.551400  1.0  -0.4475
  N  N47  1  0.417000  0.680000  0.530000  1.0  -0.4476
  N  N48  1  0.583000  0.320000  0.470000  1.0  -0.4438
  N  N49  1  0.290000  0.885600  0.893200  1.0  -0.4138
  N  N50  1  0.109000  0.671800  0.079600  1.0  -0.399
  N  N51  1  0.790000  0.007600  0.893200  1.0  -0.412
  N  N52  1  0.478600  0.439400  0.646800  1.0  -0.4422
  N  N53  1  0.641500  0.160600  0.592200  1.0  -0.4738
  N  N54  1  0.109200  0.062500  0.897200  1.0  -0.4677
  N  N55  1  0.917000  0.850000  0.530000  1.0  -0.4436
  N  N56  1  0.875000  0.288200  0.448600  1.0  -0.447
  N  N57  1  0.521400  0.560600  0.353200  1.0  -0.4428
  N  N58  1  0.021400  0.792600  0.353200  1.0  -0.4415
  N  N59  1  0.391000  0.592200  0.920400  1.0  -0.401
  N  N60  1  0.858500  0.568400  0.407800  1.0  -0.4753
  N  N61  1  0.125000  0.711800  0.551400  1.0  -0.4473
  N  N62  1  0.083000  0.150000  0.470000  1.0  -0.4461
  N  N63  1  0.358500  0.839400  0.407800  1.0  -0.4784
  N  N64  1  0.609000  0.407800  0.079600  1.0  -0.4001
  N  N65  1  0.141500  0.431600  0.592200  1.0  -0.4744
  N  N66  1  0.375000  0.160400  0.448600  1.0  -0.4476
