# generated using pymatgen
data_Zn3B25H26C10O11
_symmetry_space_group_name_H-M   'P 1'
_cell_length_a   14.51540000
_cell_length_b   39.35600000
_cell_length_c   21.62900000
_cell_angle_alpha   90.00000000
_cell_angle_beta   90.00000000
_cell_angle_gamma   90.00000000
_symmetry_Int_Tables_number   1
_chemical_formula_structural   Zn3B25H26C10O11
_chemical_formula_sum   'Zn24 B200 H208 C80 O88'
_cell_volume   12355.95735423
_cell_formula_units_Z   8
loop_
 _symmetry_equiv_pos_site_id
 _symmetry_equiv_pos_as_xyz
  1  'x, y, z'
loop_
 _atom_site_type_symbol
 _atom_site_label
 _atom_site_symmetry_multiplicity
 _atom_site_fract_x
 _atom_site_fract_y
 _atom_site_fract_z
 _atom_site_occupancy
 _atom_site_charge
  Zn  Zn1  1  0.101650  0.110530  0.581760  1.0  0.9908
  Zn  Zn2  1  0.266390  0.150790  0.670290  1.0  1.0414
  Zn  Zn3  1  0.190790  0.626910  0.473290  1.0  0.9486
  Zn  Zn4  1  0.690790  0.873090  0.473290  1.0  0.9477
  Zn  Zn5  1  0.601650  0.610530  0.918240  1.0  0.9905
  Zn  Zn6  1  0.766390  0.349210  0.670290  1.0  1.0431
  Zn  Zn7  1  0.809210  0.373090  0.526710  1.0  0.9494
  Zn  Zn8  1  0.766390  0.650790  0.829710  1.0  1.0398
  Zn  Zn9  1  0.733610  0.150790  0.170290  1.0  1.0375
  Zn  Zn10  1  0.398350  0.610530  0.418240  1.0  0.9901
  Zn  Zn11  1  0.898350  0.889470  0.418240  1.0  0.9941
  Zn  Zn12  1  0.398350  0.389470  0.081760  1.0  0.9942
  Zn  Zn13  1  0.190790  0.373090  0.026710  1.0  0.9493
  Zn  Zn14  1  0.690790  0.126910  0.026710  1.0  0.9501
  Zn  Zn15  1  0.809210  0.626910  0.973290  1.0  0.9487
  Zn  Zn16  1  0.233610  0.349210  0.170290  1.0  1.0386
  Zn  Zn17  1  0.266390  0.849210  0.829710  1.0  1.0399
  Zn  Zn18  1  0.733610  0.849210  0.329710  1.0  1.0389
  Zn  Zn19  1  0.233610  0.650790  0.329710  1.0  1.0393
  Zn  Zn20  1  0.309210  0.126910  0.526710  1.0  0.9504
  Zn  Zn21  1  0.601650  0.389470  0.581760  1.0  0.9931
  Zn  Zn22  1  0.101650  0.889470  0.918240  1.0  0.9929
  Zn  Zn23  1  0.309210  0.873090  0.973290  1.0  0.9478
  Zn  Zn24  1  0.898350  0.110530  0.081760  1.0  0.9902
  B  B25  1  0.499100  0.273900  0.020600  1.0  -0.0356
  B  B26  1  0.461000  0.020670  0.063300  1.0  0.1738
  B  B27  1  0.526500  0.659350  0.671100  1.0  -0.0322
  B  B28  1  0.961000  0.520670  0.436700  1.0  0.175
  B  B29  1  0.066700  0.881930  0.659700  1.0  0.0044
  B  B30  1  0.073100  0.842430  0.218700  1.0  -0.0312
  B  B31  1  0.414700  0.337540  0.861700  1.0  -0.0322
  B  B32  1  0.118100  0.092300  0.334600  1.0  -0.0246
  B  B33  1  0.539000  0.020670  0.563300  1.0  0.1748
  B  B34  1  0.395000  0.250410  0.028700  1.0  0.1657
  B  B35  1  0.573100  0.342430  0.281300  1.0  -0.0321
  B  B36  1  0.874500  0.743620  0.390800  1.0  -0.0173
  B  B37  1  0.034500  0.719340  0.860700  1.0  -0.0304
  B  B38  1  0.454300  0.039040  0.987900  1.0  -0.0143
  B  B39  1  0.625500  0.243620  0.609200  1.0  -0.0192
  B  B40  1  0.000600  0.729610  0.990900  1.0  -0.0381
  B  B41  1  0.910000  0.250830  0.550100  1.0  -0.0429
  B  B42  1  0.973500  0.840650  0.171100  1.0  -0.0299
  B  B43  1  0.454300  0.960960  0.512100  1.0  -0.0129
  B  B44  1  0.426900  0.342430  0.781300  1.0  -0.0297
  B  B45  1  0.999100  0.226100  0.020600  1.0  -0.0358
  B  B46  1  0.060400  0.493790  0.434100  1.0  0.0561
  B  B47  1  0.500600  0.229610  0.509100  1.0  -0.0396
  B  B48  1  0.405000  0.386790  0.764000  1.0  -0.0296
  B  B49  1  0.539000  0.979330  0.936700  1.0  0.1748
  B  B50  1  0.431500  0.757290  0.868800  1.0  -0.0303
  B  B51  1  0.992000  0.089460  0.800200  1.0  -0.0154
  B  B52  1  0.926900  0.157570  0.781300  1.0  -0.0312
  B  B53  1  0.115200  0.503550  0.992900  1.0  0.0044
  B  B54  1  0.957700  0.781870  0.903700  1.0  -0.0356
  B  B55  1  0.585300  0.337540  0.361700  1.0  -0.0324
  B  B56  1  0.518500  0.594700  0.119200  1.0  0.0176
  B  B57  1  0.615200  0.996450  0.992900  1.0  0.0046
  B  B58  1  0.077600  0.710920  0.936900  1.0  0.0364
  B  B59  1  0.950600  0.524120  0.055500  1.0  -0.0131
  B  B60  1  0.000900  0.773900  0.979400  1.0  -0.0335
  B  B61  1  0.874500  0.256380  0.109200  1.0  -0.019
  B  B62  1  0.008000  0.910540  0.199800  1.0  -0.0104
  B  B63  1  0.118100  0.907700  0.165400  1.0  -0.024
  B  B64  1  0.508000  0.589460  0.199800  1.0  -0.0126
  B  B65  1  0.481500  0.594700  0.619200  1.0  0.0183
  B  B66  1  0.085300  0.162460  0.361700  1.0  -0.033
  B  B67  1  0.090000  0.250830  0.050100  1.0  -0.0437
  B  B68  1  0.002500  0.861860  0.601000  1.0  -0.0038
  B  B69  1  0.039000  0.479330  0.563300  1.0  0.1759
  B  B70  1  0.568500  0.757290  0.368800  1.0  -0.0306
  B  B71  1  0.981500  0.905300  0.619200  1.0  0.0161
  B  B72  1  0.159100  0.865890  0.177900  1.0  0.1407
  B  B73  1  0.659100  0.365890  0.322100  1.0  0.1405
  B  B74  1  0.884800  0.496450  0.007100  1.0  0.0074
  B  B75  1  0.500900  0.273900  0.520600  1.0  -0.0341
  B  B76  1  0.939600  0.493790  0.934100  1.0  0.0598
  B  B77  1  0.034800  0.236460  0.650060  1.0  -0.0305
  B  B78  1  0.997500  0.861860  0.101000  1.0  -0.0042
  B  B79  1  0.018500  0.905300  0.119200  1.0  0.0165
  B  B80  1  0.066700  0.118070  0.840300  1.0  0.0054
  B  B81  1  0.950600  0.475880  0.444500  1.0  -0.0132
  B  B82  1  0.497500  0.638140  0.101000  1.0  -0.0046
  B  B83  1  0.090000  0.749170  0.449900  1.0  -0.0414
  B  B84  1  0.426900  0.657570  0.718700  1.0  -0.0333
  B  B85  1  0.026500  0.159350  0.828900  1.0  -0.0316
  B  B86  1  0.914700  0.837540  0.638300  1.0  -0.0319
  B  B87  1  0.499400  0.770390  0.490900  1.0  -0.0391
  B  B88  1  0.590000  0.750830  0.449900  1.0  -0.0417
  B  B89  1  0.999100  0.773900  0.479400  1.0  -0.0334
  B  B90  1  0.518500  0.405300  0.380800  1.0  0.0145
  B  B91  1  0.159100  0.134110  0.322100  1.0  0.1413
  B  B92  1  0.502500  0.361860  0.899000  1.0  -0.0032
  B  B93  1  0.605000  0.749590  0.971300  1.0  0.1623
  B  B94  1  0.095000  0.886790  0.236000  1.0  -0.0323
  B  B95  1  0.931500  0.742710  0.868800  1.0  -0.0313
  B  B96  1  0.049400  0.524120  0.555500  1.0  -0.012
  B  B97  1  0.939600  0.506210  0.565900  1.0  0.0583
  B  B98  1  0.585300  0.662460  0.138300  1.0  -0.0321
  B  B99  1  0.933300  0.118070  0.340300  1.0  0.0044
  B  B100  1  0.997500  0.138140  0.399000  1.0  -0.0049
  B  B101  1  0.473500  0.340650  0.328900  1.0  -0.0296
  B  B102  1  0.931500  0.257290  0.631200  1.0  -0.0286
  B  B103  1  0.465500  0.219340  0.139300  1.0  -0.0279
  B  B104  1  0.910000  0.749170  0.949900  1.0  -0.0422
  B  B105  1  0.502500  0.638140  0.601000  1.0  -0.004
  B  B106  1  0.340900  0.634110  0.677900  1.0  0.1459
  B  B107  1  0.840900  0.134110  0.822100  1.0  0.1473
  B  B108  1  0.026500  0.840650  0.671100  1.0  -0.0325
  B  B109  1  0.534800  0.263540  0.650060  1.0  -0.0311
  B  B110  1  0.895000  0.750410  0.471300  1.0  0.1648
  B  B111  1  0.492000  0.410540  0.800200  1.0  -0.0116
  B  B112  1  0.034500  0.280660  0.639300  1.0  -0.0321
  B  B113  1  0.384800  0.003550  0.007100  1.0  0.0057
  B  B114  1  0.577600  0.789080  0.936900  1.0  0.0345
  B  B115  1  0.042300  0.218130  0.096300  1.0  -0.0358
  B  B116  1  0.999400  0.729610  0.490900  1.0  -0.0366
  B  B117  1  0.566700  0.618070  0.659700  1.0  0.0041
  B  B118  1  0.914700  0.162460  0.861700  1.0  -0.0326
  B  B119  1  0.545700  0.039040  0.487900  1.0  -0.0162
  B  B120  1  0.433300  0.618070  0.159700  1.0  0.004
  B  B121  1  0.465200  0.263540  0.150060  1.0  -0.0317
  B  B122  1  0.060400  0.506210  0.065900  1.0  0.0562
  B  B123  1  0.954300  0.460960  0.987900  1.0  -0.0133
  B  B124  1  0.045700  0.539040  0.012100  1.0  -0.0156
  B  B125  1  0.000600  0.270390  0.509100  1.0  -0.0393
  B  B126  1  0.549400  0.975880  0.555500  1.0  -0.0124
  B  B127  1  0.595000  0.613210  0.236000  1.0  -0.0314
  B  B128  1  0.410000  0.750830  0.949900  1.0  -0.0419
  B  B129  1  0.457700  0.718130  0.903700  1.0  -0.0366
  B  B130  1  0.618100  0.407700  0.334600  1.0  -0.0243
  B  B131  1  0.008000  0.089460  0.300200  1.0  -0.0148
  B  B132  1  0.077600  0.289080  0.563100  1.0  0.0345
  B  B133  1  0.905000  0.886790  0.736000  1.0  -0.0321
  B  B134  1  0.457700  0.281870  0.596300  1.0  -0.035
  B  B135  1  0.381900  0.592300  0.665400  1.0  -0.0218
  B  B136  1  0.105000  0.750410  0.971300  1.0  0.1632
  B  B137  1  0.034800  0.763540  0.849940  1.0  -0.0313
  B  B138  1  0.115200  0.496450  0.507100  1.0  0.0052
  B  B139  1  0.884800  0.503550  0.492900  1.0  0.0057
  B  B140  1  0.095000  0.113210  0.264000  1.0  -0.0316
  B  B141  1  0.000900  0.226100  0.520600  1.0  -0.0349
  B  B142  1  0.422400  0.789080  0.436900  1.0  0.0351
  B  B143  1  0.105000  0.249590  0.528700  1.0  0.1634
  B  B144  1  0.450600  0.975880  0.055500  1.0  -0.0123
  B  B145  1  0.933300  0.881930  0.159700  1.0  0.0035
  B  B146  1  0.981500  0.094700  0.880800  1.0  0.0175
  B  B147  1  0.039000  0.520670  0.936700  1.0  0.1745
  B  B148  1  0.560400  0.006210  0.434100  1.0  0.057
  B  B149  1  0.961000  0.479330  0.063300  1.0  0.1759
  B  B150  1  0.492000  0.589460  0.699800  1.0  -0.013
  B  B151  1  0.384800  0.996450  0.492900  1.0  0.0063
  B  B152  1  0.881900  0.907700  0.665400  1.0  -0.0221
  B  B153  1  0.068500  0.257290  0.131200  1.0  -0.0284
  B  B154  1  0.618100  0.592300  0.165400  1.0  -0.0242
  B  B155  1  0.590000  0.249170  0.050100  1.0  -0.0427
  B  B156  1  0.381900  0.407700  0.834600  1.0  -0.0224
  B  B157  1  0.840900  0.865890  0.677900  1.0  0.1471
  B  B158  1  0.049400  0.475880  0.944500  1.0  -0.015
  B  B159  1  0.926900  0.842430  0.718700  1.0  -0.0304
  B  B160  1  0.605000  0.250410  0.528700  1.0  0.1637
  B  B161  1  0.905000  0.113210  0.764000  1.0  -0.0297
  B  B162  1  0.499100  0.726100  0.479400  1.0  -0.0332
  B  B163  1  0.439600  0.006210  0.934100  1.0  0.0609
  B  B164  1  0.573100  0.657570  0.218700  1.0  -0.0335
  B  B165  1  0.577600  0.210920  0.563100  1.0  0.0355
  B  B166  1  0.085300  0.837540  0.138300  1.0  -0.0319
  B  B167  1  0.659100  0.634110  0.177900  1.0  0.1406
  B  B168  1  0.500900  0.726100  0.979400  1.0  -0.033
  B  B169  1  0.965500  0.719340  0.360700  1.0  -0.0297
  B  B170  1  0.410000  0.249170  0.550100  1.0  -0.0423
  B  B171  1  0.954300  0.539040  0.512100  1.0  -0.0141
  B  B172  1  0.881900  0.092300  0.834600  1.0  -0.0219
  B  B173  1  0.895000  0.249590  0.028700  1.0  0.1658
  B  B174  1  0.465200  0.736460  0.349940  1.0  -0.0302
  B  B175  1  0.497500  0.361860  0.399000  1.0  -0.0042
  B  B176  1  0.499400  0.229610  0.009100  1.0  -0.0396
  B  B177  1  0.395000  0.749590  0.471300  1.0  0.1642
  B  B178  1  0.405000  0.613210  0.736000  1.0  -0.0306
  B  B179  1  0.922400  0.289080  0.063100  1.0  0.0357
  B  B180  1  0.045700  0.460960  0.487900  1.0  -0.015
  B  B181  1  0.595000  0.386790  0.264000  1.0  -0.0305
  B  B182  1  0.340900  0.365890  0.822100  1.0  0.1471
  B  B183  1  0.042300  0.781870  0.403700  1.0  -0.035
  B  B184  1  0.073100  0.157570  0.281300  1.0  -0.0345
  B  B185  1  0.068500  0.742710  0.368800  1.0  -0.0317
  B  B186  1  0.018500  0.094700  0.380800  1.0  0.0174
  B  B187  1  0.473500  0.659350  0.171100  1.0  -0.03
  B  B188  1  0.125500  0.743620  0.890800  1.0  -0.0206
  B  B189  1  0.568500  0.242710  0.131200  1.0  -0.0292
  B  B190  1  0.542300  0.281870  0.096300  1.0  -0.0341
  B  B191  1  0.526500  0.340650  0.828900  1.0  -0.0319
  B  B192  1  0.002500  0.138140  0.899000  1.0  -0.0039
  B  B193  1  0.374500  0.756380  0.390800  1.0  -0.0177
  B  B194  1  0.973500  0.159350  0.328900  1.0  -0.0297
  B  B195  1  0.999400  0.270390  0.009100  1.0  -0.0389
  B  B196  1  0.965200  0.236460  0.150060  1.0  -0.0312
  B  B197  1  0.549400  0.024120  0.944500  1.0  -0.0122
  B  B198  1  0.481500  0.405300  0.880800  1.0  0.0138
  B  B199  1  0.542300  0.718130  0.403700  1.0  -0.0366
  B  B200  1  0.500600  0.770390  0.990900  1.0  -0.0412
  B  B201  1  0.431500  0.242710  0.631200  1.0  -0.0294
  B  B202  1  0.545700  0.960960  0.012100  1.0  -0.0143
  B  B203  1  0.992000  0.910540  0.699800  1.0  -0.0105
  B  B204  1  0.922400  0.710920  0.436900  1.0  0.0369
  B  B205  1  0.625500  0.756380  0.890800  1.0  -0.02
  B  B206  1  0.534500  0.219340  0.639300  1.0  -0.0282
  B  B207  1  0.534500  0.780660  0.860700  1.0  -0.0316
  B  B208  1  0.433300  0.381930  0.340300  1.0  0.0023
  B  B209  1  0.965200  0.763540  0.349940  1.0  -0.0306
  B  B210  1  0.534800  0.736460  0.849940  1.0  -0.0309
  B  B211  1  0.450600  0.024120  0.444500  1.0  -0.011
  B  B212  1  0.508000  0.410540  0.300200  1.0  -0.011
  B  B213  1  0.374500  0.243620  0.109200  1.0  -0.0175
  B  B214  1  0.965500  0.280660  0.139300  1.0  -0.032
  B  B215  1  0.566700  0.381930  0.840300  1.0  0.0043
  B  B216  1  0.461000  0.979330  0.436700  1.0  0.1752
  B  B217  1  0.422400  0.210920  0.063100  1.0  0.0358
  B  B218  1  0.465500  0.780660  0.360700  1.0  -0.03
  B  B219  1  0.125500  0.256380  0.609200  1.0  -0.0196
  B  B220  1  0.615200  0.003550  0.507100  1.0  0.0046
  B  B221  1  0.414700  0.662460  0.638300  1.0  -0.0317
  B  B222  1  0.560400  0.993790  0.065900  1.0  0.0581
  B  B223  1  0.957700  0.218130  0.596300  1.0  -0.0356
  B  B224  1  0.439600  0.993790  0.565900  1.0  0.0611
  H  H225  1  0.020000  0.152900  0.940000  1.0  0.1193
  H  H226  1  0.127000  0.262900  0.159000  1.0  0.0347
  H  H227  1  0.925000  0.180100  0.319000  1.0  -0.0301
  H  H228  1  0.575000  0.319900  0.819000  1.0  -0.029
  H  H229  1  0.189000  0.252500  0.631100  1.0  0.0514
  H  H230  1  0.520000  0.652900  0.560000  1.0  0.119
  H  H231  1  0.339000  0.573300  0.659000  1.0  0.0994
  H  H232  1  0.481000  0.216200  0.470000  1.0  0.091
  H  H233  1  0.995000  0.794100  0.012000  1.0  0.1111
  H  H234  1  0.935000  0.463500  0.107000  1.0  -0.0943
  H  H235  1  0.077000  0.803600  0.397000  1.0  0.2432
  H  H236  1  0.311000  0.247500  0.131100  1.0  0.0513
  H  H237  1  0.431000  0.937400  0.516000  1.0  0.212
  H  H238  1  0.260000  0.361900  0.824000  1.0  -0.0517
  H  H239  1  0.950000  0.774800  0.312000  1.0  0.1989
  H  H240  1  0.811000  0.252500  0.131100  1.0  0.0515
  H  H241  1  0.519000  0.216200  0.970000  1.0  0.0914
  H  H242  1  0.520000  0.347100  0.940000  1.0  0.1188
  H  H243  1  0.839000  0.073300  0.841000  1.0  0.0991
  H  H244  1  0.597000  0.812700  0.956000  1.0  0.0339
  H  H245  1  0.065000  0.463500  0.607000  1.0  -0.0951
  H  H246  1  0.740000  0.638100  0.176000  1.0  -0.0506
  H  H247  1  0.870000  0.117400  0.346000  1.0  0.1676
  H  H248  1  0.005000  0.205900  0.988000  1.0  0.1118
  H  H249  1  0.495000  0.705900  0.012000  1.0  0.1121
  H  H250  1  0.898000  0.816500  0.612000  1.0  0.1096
  H  H251  1  0.602000  0.683500  0.112000  1.0  0.1096
  H  H252  1  0.527000  0.576000  0.094000  1.0  0.0952
  H  H253  1  0.005000  0.794100  0.512000  1.0  0.1113
  H  H254  1  0.630000  0.382600  0.846000  1.0  0.161
  H  H255  1  0.889000  0.104300  0.723000  1.0  0.1089
  H  H256  1  0.462000  0.798900  0.327000  1.0  0.1118
  H  H257  1  0.903000  0.312700  0.044000  1.0  0.0345
  H  H258  1  0.102000  0.183500  0.388000  1.0  0.1088
  H  H259  1  0.111000  0.104300  0.223000  1.0  0.1105
  H  H260  1  0.923000  0.803600  0.897000  1.0  0.244
  H  H261  1  0.370000  0.617400  0.154000  1.0  0.167
  H  H262  1  0.740000  0.361900  0.324000  1.0  -0.0511
  H  H263  1  0.373000  0.762900  0.841000  1.0  0.0352
  H  H264  1  0.538000  0.798900  0.827000  1.0  0.113
  H  H265  1  0.584000  0.040100  0.915000  1.0  0.1038
  H  H266  1  0.627000  0.237100  0.159000  1.0  0.035
  H  H267  1  0.335000  0.743400  0.506000  1.0  -0.0631
  H  H268  1  0.389000  0.395700  0.723000  1.0  0.1092
  H  H269  1  0.246000  0.589000  0.394000  1.0  0.2126
  H  H270  1  0.903000  0.687300  0.456000  1.0  0.034
  H  H271  1  0.577000  0.303600  0.103000  1.0  0.2427
  H  H272  1  0.102000  0.816500  0.112000  1.0  0.11
  H  H273  1  0.505000  0.294100  0.988000  1.0  0.112
  H  H274  1  0.189000  0.747500  0.868900  1.0  0.0516
  H  H275  1  0.565000  0.963500  0.893000  1.0  -0.0932
  H  H276  1  0.760000  0.138100  0.824000  1.0  -0.0519
  H  H277  1  0.097000  0.312700  0.544000  1.0  0.0352
  H  H278  1  0.981000  0.283800  0.470000  1.0  0.0918
  H  H279  1  0.416000  0.959900  0.085000  1.0  0.1049
  H  H280  1  0.481000  0.783800  0.030000  1.0  0.0926
  H  H281  1  0.550000  0.274800  0.688000  1.0  0.1991
  H  H282  1  0.889000  0.895700  0.777000  1.0  0.1082
  H  H283  1  0.611000  0.395700  0.223000  1.0  0.1104
  H  H284  1  0.022000  0.931400  0.713000  1.0  0.1976
  H  H285  1  0.084000  0.459900  0.915000  1.0  0.1032
  H  H286  1  0.907000  0.826800  0.752000  1.0  0.2364
  H  H287  1  0.916000  0.459900  0.415000  1.0  0.1031
  H  H288  1  0.873000  0.262900  0.659000  1.0  0.0345
  H  H289  1  0.601000  0.995600  0.111000  1.0  -0.0354
  H  H290  1  0.075000  0.819900  0.681000  1.0  -0.0293
  H  H291  1  0.577000  0.696400  0.397000  1.0  0.2455
  H  H292  1  0.161000  0.926700  0.159000  1.0  0.0987
  H  H293  1  0.995000  0.205900  0.488000  1.0  0.1115
  H  H294  1  0.661000  0.246300  0.034800  1.0  -0.0034
  H  H295  1  0.839000  0.926700  0.659000  1.0  0.0989
  H  H296  1  0.431000  0.062600  0.984000  1.0  0.2119
  H  H297  1  0.473000  0.424000  0.906000  1.0  0.0936
  H  H298  1  0.962000  0.298900  0.173000  1.0  0.1112
  H  H299  1  0.240000  0.138100  0.324000  1.0  -0.0499
  H  H300  1  0.978000  0.931400  0.213000  1.0  0.1978
  H  H301  1  0.746000  0.911000  0.394000  1.0  0.2103
  H  H302  1  0.161000  0.253700  0.034800  1.0  -0.0033
  H  H303  1  0.597000  0.187300  0.544000  1.0  0.0346
  H  H304  1  0.050000  0.225200  0.688000  1.0  0.1991
  H  H305  1  0.602000  0.316500  0.388000  1.0  0.1096
  H  H306  1  0.403000  0.187300  0.044000  1.0  0.0334
  H  H307  1  0.873000  0.737100  0.841000  1.0  0.0353
  H  H308  1  0.407000  0.673200  0.752000  1.0  0.2355
  H  H309  1  0.254000  0.911000  0.894000  1.0  0.2103
  H  H310  1  0.627000  0.762900  0.341000  1.0  0.0363
  H  H311  1  0.399000  0.004400  0.889000  1.0  -0.036
  H  H312  1  0.962000  0.701100  0.327000  1.0  0.1098
  H  H313  1  0.661000  0.753700  0.465200  1.0  -0.003
  H  H314  1  0.907000  0.173200  0.748000  1.0  0.2365
  H  H315  1  0.593000  0.673200  0.252000  1.0  0.2342
  H  H316  1  0.161000  0.746300  0.465200  1.0  -0.0033
  H  H317  1  0.130000  0.882600  0.654000  1.0  0.1609
  H  H318  1  0.339000  0.246300  0.534800  1.0  -0.0025
  H  H319  1  0.478000  0.431400  0.287000  1.0  0.1974
  H  H320  1  0.870000  0.882600  0.154000  1.0  0.167
  H  H321  1  0.519000  0.783800  0.530000  1.0  0.0931
  H  H322  1  0.569000  0.937400  0.016000  1.0  0.2126
  H  H323  1  0.462000  0.201100  0.173000  1.0  0.1108
  H  H324  1  0.527000  0.424000  0.406000  1.0  0.0944
  H  H325  1  0.312000  0.997800  0.494900  1.0  0.0323
  H  H326  1  0.161000  0.073300  0.341000  1.0  0.1005
  H  H327  1  0.505000  0.705900  0.512000  1.0  0.1117
  H  H328  1  0.950000  0.225200  0.188000  1.0  0.1988
  H  H329  1  0.093000  0.826800  0.252000  1.0  0.2352
  H  H330  1  0.188000  0.497800  0.505100  1.0  0.0361
  H  H331  1  0.569000  0.062600  0.484000  1.0  0.2117
  H  H332  1  0.019000  0.283800  0.970000  1.0  0.092
  H  H333  1  0.339000  0.753700  0.965200  1.0  -0.0019
  H  H334  1  0.931000  0.437400  0.984000  1.0  0.211
  H  H335  1  0.093000  0.173200  0.248000  1.0  0.2357
  H  H336  1  0.839000  0.253700  0.534800  1.0  -0.0025
  H  H337  1  0.389000  0.604300  0.777000  1.0  0.1085
  H  H338  1  0.584000  0.959900  0.585000  1.0  0.1052
  H  H339  1  0.593000  0.326800  0.248000  1.0  0.2359
  H  H340  1  0.399000  0.995600  0.611000  1.0  -0.0342
  H  H341  1  0.312000  0.002200  0.005100  1.0  0.0321
  H  H342  1  0.398000  0.316500  0.888000  1.0  0.1092
  H  H343  1  0.973000  0.076000  0.906000  1.0  0.0958
  H  H344  1  0.373000  0.237100  0.659000  1.0  0.0348
  H  H345  1  0.097000  0.687300  0.956000  1.0  0.0347
  H  H346  1  0.065000  0.536500  0.893000  1.0  -0.0936
  H  H347  1  0.916000  0.540100  0.085000  1.0  0.1048
  H  H348  1  0.754000  0.411000  0.606000  1.0  0.2096
  H  H349  1  0.435000  0.036500  0.107000  1.0  -0.096
  H  H350  1  0.069000  0.437400  0.484000  1.0  0.2121
  H  H351  1  0.925000  0.819900  0.181000  1.0  -0.03
  H  H352  1  0.077000  0.196400  0.103000  1.0  0.2451
  H  H353  1  0.038000  0.701100  0.827000  1.0  0.1109
  H  H354  1  0.980000  0.152900  0.440000  1.0  0.1202
  H  H355  1  0.050000  0.774800  0.812000  1.0  0.1995
  H  H356  1  0.689000  0.247500  0.631100  1.0  0.0513
  H  H357  1  0.812000  0.502200  0.494900  1.0  0.0317
  H  H358  1  0.416000  0.040100  0.415000  1.0  0.1039
  H  H359  1  0.027000  0.076000  0.406000  1.0  0.0969
  H  H360  1  0.835000  0.756600  0.506000  1.0  -0.0631
  H  H361  1  0.027000  0.924000  0.094000  1.0  0.0958
  H  H362  1  0.630000  0.617400  0.654000  1.0  0.1604
  H  H363  1  0.665000  0.743400  0.006000  1.0  -0.0632
  H  H364  1  0.130000  0.117400  0.846000  1.0  0.1605
  H  H365  1  0.450000  0.274800  0.188000  1.0  0.1985
  H  H366  1  0.435000  0.963500  0.393000  1.0  -0.0965
  H  H367  1  0.980000  0.847100  0.060000  1.0  0.1189
  H  H368  1  0.760000  0.861900  0.676000  1.0  -0.0514
  H  H369  1  0.339000  0.426700  0.841000  1.0  0.0989
  H  H370  1  0.565000  0.036500  0.607000  1.0  -0.0965
  H  H371  1  0.260000  0.638100  0.676000  1.0  -0.0522
  H  H372  1  0.423000  0.303600  0.603000  1.0  0.2435
  H  H373  1  0.688000  0.997800  0.994900  1.0  0.0362
  H  H374  1  0.981000  0.716200  0.030000  1.0  0.093
  H  H375  1  0.473000  0.576000  0.594000  1.0  0.0949
  H  H376  1  0.665000  0.256600  0.494000  1.0  -0.0628
  H  H377  1  0.480000  0.347100  0.440000  1.0  0.12
  H  H378  1  0.898000  0.183500  0.888000  1.0  0.1081
  H  H379  1  0.101000  0.504400  0.111000  1.0  -0.0359
  H  H380  1  0.165000  0.243400  0.494000  1.0  -0.0622
  H  H381  1  0.240000  0.861900  0.176000  1.0  -0.0511
  H  H382  1  0.127000  0.737100  0.341000  1.0  0.0364
  H  H383  1  0.495000  0.294100  0.488000  1.0  0.1118
  H  H384  1  0.480000  0.652900  0.060000  1.0  0.1195
  H  H385  1  0.425000  0.680100  0.181000  1.0  -0.0298
  H  H386  1  0.370000  0.382600  0.346000  1.0  0.1672
  H  H387  1  0.812000  0.497800  0.005100  1.0  0.0327
  H  H388  1  0.311000  0.752500  0.368900  1.0  0.0513
  H  H389  1  0.019000  0.716200  0.530000  1.0  0.0937
  H  H390  1  0.611000  0.604300  0.277000  1.0  0.1085
  H  H391  1  0.522000  0.431400  0.787000  1.0  0.1977
  H  H392  1  0.973000  0.924000  0.594000  1.0  0.0955
  H  H393  1  0.069000  0.562600  0.016000  1.0  0.2113
  H  H394  1  0.022000  0.068600  0.787000  1.0  0.1975
  H  H395  1  0.101000  0.495600  0.389000  1.0  -0.0345
  H  H396  1  0.661000  0.426700  0.341000  1.0  0.0991
  H  H397  1  0.398000  0.683500  0.612000  1.0  0.1093
  H  H398  1  0.188000  0.502200  0.994900  1.0  0.0359
  H  H399  1  0.111000  0.895700  0.277000  1.0  0.1081
  H  H400  1  0.425000  0.319900  0.319000  1.0  -0.0301
  H  H401  1  0.835000  0.243400  0.994000  1.0  -0.0634
  H  H402  1  0.020000  0.847100  0.560000  1.0  0.1183
  H  H403  1  0.522000  0.568600  0.713000  1.0  0.1982
  H  H404  1  0.538000  0.201100  0.673000  1.0  0.1115
  H  H405  1  0.935000  0.536500  0.393000  1.0  -0.0965
  H  H406  1  0.084000  0.540100  0.585000  1.0  0.1047
  H  H407  1  0.899000  0.504400  0.611000  1.0  -0.0353
  H  H408  1  0.335000  0.256600  0.994000  1.0  -0.0631
  H  H409  1  0.661000  0.573300  0.159000  1.0  0.1007
  H  H410  1  0.899000  0.495600  0.889000  1.0  -0.0352
  H  H411  1  0.254000  0.089000  0.606000  1.0  0.2106
  H  H412  1  0.839000  0.746300  0.965200  1.0  -0.0022
  H  H413  1  0.931000  0.562600  0.516000  1.0  0.212
  H  H414  1  0.038000  0.298900  0.673000  1.0  0.1124
  H  H415  1  0.811000  0.747500  0.368900  1.0  0.0511
  H  H416  1  0.403000  0.812700  0.456000  1.0  0.0342
  H  H417  1  0.165000  0.756600  0.006000  1.0  -0.0639
  H  H418  1  0.450000  0.725200  0.312000  1.0  0.1991
  H  H419  1  0.601000  0.004400  0.389000  1.0  -0.0348
  H  H420  1  0.923000  0.196400  0.603000  1.0  0.2453
  H  H421  1  0.688000  0.002200  0.505100  1.0  0.0357
  H  H422  1  0.423000  0.696400  0.897000  1.0  0.2455
  H  H423  1  0.407000  0.326800  0.748000  1.0  0.2364
  H  H424  1  0.075000  0.180100  0.819000  1.0  -0.0301
  H  H425  1  0.478000  0.568600  0.213000  1.0  0.1978
  H  H426  1  0.575000  0.680100  0.681000  1.0  -0.0297
  H  H427  1  0.978000  0.068600  0.287000  1.0  0.1969
  H  H428  1  0.246000  0.411000  0.106000  1.0  0.21
  H  H429  1  0.754000  0.589000  0.894000  1.0  0.2126
  H  H430  1  0.550000  0.725200  0.812000  1.0  0.1996
  H  H431  1  0.746000  0.089000  0.106000  1.0  0.2111
  H  H432  1  0.689000  0.752500  0.868900  1.0  0.0515
  C  C433  1  0.558600  0.969540  0.477140  1.0  -0.1533
  C  C434  1  0.461700  0.212950  0.577360  1.0  -0.1406
  C  C435  1  0.985500  0.129120  0.272850  1.0  -0.1409
  C  C436  1  0.106600  0.122760  0.389280  1.0  -0.1425
  C  C437  1  0.514500  0.370880  0.772850  1.0  -0.1417
  C  C438  1  0.883300  0.560580  0.953780  1.0  0.5903
  C  C439  1  0.606600  0.622760  0.110720  1.0  -0.1428
  C  C440  1  0.893400  0.122760  0.889280  1.0  -0.1426
  C  C441  1  0.461700  0.787050  0.922640  1.0  -0.1426
  C  C442  1  0.870800  0.813170  0.412960  1.0  0.5906
  C  C443  1  0.383300  0.060580  0.546220  1.0  0.5877
  C  C444  1  0.129200  0.813170  0.912960  1.0  0.59
  C  C445  1  0.558600  0.030460  0.022860  1.0  -0.1538
  C  C446  1  0.907300  0.679740  0.922100  1.0  0.6313
  C  C447  1  0.573900  0.279820  0.582110  1.0  -0.1571
  C  C448  1  0.664800  0.618600  0.052030  1.0  0.633
  C  C449  1  0.038300  0.287050  0.077360  1.0  -0.1431
  C  C450  1  0.092700  0.679740  0.422100  1.0  0.6314
  C  C451  1  0.577300  0.630860  0.784140  1.0  0.6517
  C  C452  1  0.616700  0.060580  0.046220  1.0  0.5862
  C  C453  1  0.664800  0.381400  0.447970  1.0  0.6358
  C  C454  1  0.038300  0.712950  0.422640  1.0  -0.1403
  C  C455  1  0.335200  0.381400  0.947970  1.0  0.6348
  C  C456  1  0.629200  0.686830  0.912960  1.0  0.5905
  C  C457  1  0.922700  0.130860  0.215860  1.0  0.6508
  C  C458  1  0.926100  0.220180  0.082110  1.0  -0.1575
  C  C459  1  0.538300  0.212950  0.077360  1.0  -0.1402
  C  C460  1  0.335200  0.618600  0.552030  1.0  0.6341
  C  C461  1  0.383300  0.939420  0.953780  1.0  0.591
  C  C462  1  0.606600  0.377240  0.389280  1.0  -0.1427
  C  C463  1  0.835200  0.881400  0.552030  1.0  0.6351
  C  C464  1  0.922700  0.869140  0.284140  1.0  0.6505
  C  C465  1  0.370800  0.313170  0.087040  1.0  0.5905
  C  C466  1  0.092700  0.320260  0.077900  1.0  0.6306
  C  C467  1  0.073900  0.779820  0.917890  1.0  -0.1569
  C  C468  1  0.407300  0.179740  0.577900  1.0  0.6314
  C  C469  1  0.407300  0.820260  0.922100  1.0  0.6298
  C  C470  1  0.014500  0.129120  0.772850  1.0  -0.1412
  C  C471  1  0.393400  0.377240  0.889280  1.0  -0.1424
  C  C472  1  0.573900  0.720180  0.917890  1.0  -0.1568
  C  C473  1  0.485500  0.370880  0.272850  1.0  -0.1409
  C  C474  1  0.926100  0.779820  0.417890  1.0  -0.1575
  C  C475  1  0.629200  0.313170  0.587040  1.0  0.59
  C  C476  1  0.985500  0.870880  0.227150  1.0  -0.1396
  C  C477  1  0.870800  0.186830  0.087040  1.0  0.5912
  C  C478  1  0.058600  0.530460  0.477140  1.0  -0.1523
  C  C479  1  0.893400  0.877240  0.610720  1.0  -0.1426
  C  C480  1  0.073900  0.220180  0.582110  1.0  -0.1569
  C  C481  1  0.577300  0.369140  0.715860  1.0  0.6476
  C  C482  1  0.592700  0.179740  0.077900  1.0  0.6316
  C  C483  1  0.835200  0.118600  0.947970  1.0  0.6346
  C  C484  1  0.485500  0.629120  0.227150  1.0  -0.1396
  C  C485  1  0.941400  0.469540  0.522860  1.0  -0.1539
  C  C486  1  0.129200  0.186830  0.587040  1.0  0.5905
  C  C487  1  0.116700  0.560580  0.453780  1.0  0.5878
  C  C488  1  0.014500  0.870880  0.727150  1.0  -0.1405
  C  C489  1  0.077300  0.130860  0.715860  1.0  0.6485
  C  C490  1  0.907300  0.320260  0.577900  1.0  0.6301
  C  C491  1  0.422700  0.369140  0.215860  1.0  0.6507
  C  C492  1  0.441400  0.030460  0.522860  1.0  -0.1537
  C  C493  1  0.426100  0.279820  0.082110  1.0  -0.1576
  C  C494  1  0.426100  0.720180  0.417890  1.0  -0.1575
  C  C495  1  0.164800  0.118600  0.447970  1.0  0.636
  C  C496  1  0.370800  0.686830  0.412960  1.0  0.5913
  C  C497  1  0.077300  0.869140  0.784140  1.0  0.6519
  C  C498  1  0.616700  0.939420  0.453780  1.0  0.5884
  C  C499  1  0.941400  0.530460  0.977140  1.0  -0.1523
  C  C500  1  0.106600  0.877240  0.110720  1.0  -0.1427
  C  C501  1  0.164800  0.881400  0.052030  1.0  0.6334
  C  C502  1  0.961700  0.712950  0.922640  1.0  -0.1407
  C  C503  1  0.883300  0.439420  0.546220  1.0  0.5908
  C  C504  1  0.422700  0.630860  0.284140  1.0  0.6502
  C  C505  1  0.116700  0.439420  0.046220  1.0  0.589
  C  C506  1  0.441400  0.969540  0.977140  1.0  -0.1538
  C  C507  1  0.393400  0.622760  0.610720  1.0  -0.143
  C  C508  1  0.058600  0.469540  0.022860  1.0  -0.1538
  C  C509  1  0.514500  0.629120  0.727150  1.0  -0.1399
  C  C510  1  0.538300  0.787050  0.422640  1.0  -0.1431
  C  C511  1  0.592700  0.820260  0.422100  1.0  0.6303
  C  C512  1  0.961700  0.287050  0.577360  1.0  -0.1426
  O  O513  1  0.612660  0.086800  0.011650  1.0  -0.6828
  O  O514  1  0.893080  0.333840  0.628580  1.0  -0.7168
  O  O515  1  0.887340  0.413200  0.511650  1.0  -0.6836
  O  O516  1  0.047300  0.118320  0.668500  1.0  -0.7228
  O  O517  1  0.106920  0.666160  0.371420  1.0  -0.7215
  O  O518  1  0.634200  0.599220  0.011530  1.0  -0.7122
  O  O519  1  0.261860  0.364780  0.950420  1.0  -0.6694
  O  O520  1  0.800700  0.188080  0.118500  1.0  -0.6623
  O  O521  1  0.134200  0.099220  0.488470  1.0  -0.7148
  O  O522  1  0.848400  0.855650  0.276600  1.0  -0.7077
  O  O523  1  0.095200  0.161760  0.559920  1.0  -0.6872
  O  O524  1  0.651600  0.644350  0.776600  1.0  -0.7074
  O  O525  1  0.199300  0.811920  0.881500  1.0  -0.6629
  O  O526  1  0.239700  0.884130  0.897800  1.0  -0.9209
  O  O527  1  0.547300  0.618320  0.831500  1.0  -0.7252
  O  O528  1  0.761860  0.135220  0.950420  1.0  -0.6688
  O  O529  1  0.300700  0.688080  0.381500  1.0  -0.6626
  O  O530  1  0.452700  0.381680  0.168500  1.0  -0.7241
  O  O531  1  0.095200  0.838240  0.940080  1.0  -0.6877
  O  O532  1  0.365800  0.599220  0.511530  1.0  -0.7114
  O  O533  1  0.887340  0.586800  0.988350  1.0  -0.6805
  O  O534  1  0.739700  0.384130  0.602200  1.0  -0.9194
  O  O535  1  0.800700  0.811920  0.381500  1.0  -0.6626
  O  O536  1  0.381940  0.830920  0.974230  1.0  -0.682
  O  O537  1  0.606920  0.166160  0.128580  1.0  -0.7212
  O  O538  1  0.160500  0.556930  0.406680  1.0  -0.6191
  O  O539  1  0.595200  0.338240  0.559920  1.0  -0.6872
  O  O540  1  0.118060  0.669080  0.474230  1.0  -0.6825
  O  O541  1  0.952700  0.118320  0.168500  1.0  -0.7222
  O  O542  1  0.112660  0.586800  0.488350  1.0  -0.6809
  O  O543  1  0.365800  0.400780  0.988470  1.0  -0.7104
  O  O544  1  0.865800  0.099220  0.988470  1.0  -0.7133
  O  O545  1  0.839500  0.443070  0.593320  1.0  -0.617
  O  O546  1  0.848400  0.144350  0.223400  1.0  -0.7077
  O  O547  1  0.300700  0.311920  0.118500  1.0  -0.6629
  O  O548  1  0.238140  0.864780  0.049580  1.0  -0.6664
  O  O549  1  0.199300  0.188080  0.618500  1.0  -0.6622
  O  O550  1  0.112660  0.413200  0.011650  1.0  -0.6834
  O  O551  1  0.387340  0.913200  0.988350  1.0  -0.6811
  O  O552  1  0.348400  0.355650  0.223400  1.0  -0.7074
  O  O553  1  0.047300  0.881680  0.831500  1.0  -0.7233
  O  O554  1  0.260300  0.384130  0.102200  1.0  -0.919
  O  O555  1  0.738140  0.364780  0.450420  1.0  -0.6668
  O  O556  1  0.881940  0.330920  0.525770  1.0  -0.6825
  O  O557  1  0.134200  0.900780  0.011530  1.0  -0.7109
  O  O558  1  0.261860  0.635220  0.549580  1.0  -0.6681
  O  O559  1  0.893080  0.666160  0.871420  1.0  -0.7211
  O  O560  1  0.839500  0.556930  0.906680  1.0  -0.6177
  O  O561  1  0.595200  0.661760  0.940080  1.0  -0.6874
  O  O562  1  0.660500  0.943070  0.406680  1.0  -0.6194
  O  O563  1  0.238140  0.135220  0.450420  1.0  -0.6669
  O  O564  1  0.904800  0.838240  0.440080  1.0  -0.6875
  O  O565  1  0.381940  0.169080  0.525770  1.0  -0.6818
  O  O566  1  0.952700  0.881680  0.331500  1.0  -0.7225
  O  O567  1  0.118060  0.330920  0.025770  1.0  -0.6837
  O  O568  1  0.404800  0.338240  0.059920  1.0  -0.687
  O  O569  1  0.239700  0.115870  0.602200  1.0  -0.9185
  O  O570  1  0.393080  0.166160  0.628580  1.0  -0.72
  O  O571  1  0.761860  0.864780  0.549580  1.0  -0.669
  O  O572  1  0.612660  0.913200  0.488350  1.0  -0.681
  O  O573  1  0.618060  0.169080  0.025770  1.0  -0.6826
  O  O574  1  0.387340  0.086800  0.511650  1.0  -0.6828
  O  O575  1  0.699300  0.688080  0.881500  1.0  -0.6626
  O  O576  1  0.904800  0.161760  0.059920  1.0  -0.6866
  O  O577  1  0.348400  0.644350  0.276600  1.0  -0.7081
  O  O578  1  0.452700  0.618320  0.331500  1.0  -0.7238
  O  O579  1  0.651600  0.355650  0.723400  1.0  -0.7066
  O  O580  1  0.699300  0.311920  0.618500  1.0  -0.663
  O  O581  1  0.606920  0.833840  0.371420  1.0  -0.723
  O  O582  1  0.339500  0.943070  0.906680  1.0  -0.6181
  O  O583  1  0.738140  0.635220  0.049580  1.0  -0.6666
  O  O584  1  0.547300  0.381680  0.668500  1.0  -0.7248
  O  O585  1  0.160500  0.443070  0.093320  1.0  -0.6167
  O  O586  1  0.760300  0.115870  0.102200  1.0  -0.918
  O  O587  1  0.106920  0.333840  0.128580  1.0  -0.718
  O  O588  1  0.151600  0.144350  0.723400  1.0  -0.7068
  O  O589  1  0.151600  0.855650  0.776600  1.0  -0.7068
  O  O590  1  0.739700  0.615870  0.897800  1.0  -0.9208
  O  O591  1  0.618060  0.830920  0.474230  1.0  -0.6831
  O  O592  1  0.404800  0.661760  0.440080  1.0  -0.687
  O  O593  1  0.660500  0.056930  0.093320  1.0  -0.6162
  O  O594  1  0.339500  0.056930  0.593320  1.0  -0.6164
  O  O595  1  0.260300  0.615870  0.397800  1.0  -0.9198
  O  O596  1  0.634200  0.400780  0.488470  1.0  -0.7116
  O  O597  1  0.881940  0.669080  0.974230  1.0  -0.6817
  O  O598  1  0.760300  0.884130  0.397800  1.0  -0.9193
  O  O599  1  0.865800  0.900780  0.511530  1.0  -0.7108
  O  O600  1  0.393080  0.833840  0.871420  1.0  -0.7231
