# generated using pymatgen
data_Cu4H8C24ClO16
_symmetry_space_group_name_H-M   'P 1'
_cell_length_a   15.39440000
_cell_length_b   15.39440000
_cell_length_c   15.39440000
_cell_angle_alpha   90.00000000
_cell_angle_beta   90.00000000
_cell_angle_gamma   90.00000000
_symmetry_Int_Tables_number   1
_chemical_formula_structural   Cu4H8C24ClO16
_chemical_formula_sum   'Cu12 H24 C72 Cl3 O48'
_cell_volume   3648.28116066
_cell_formula_units_Z   3
loop_
 _symmetry_equiv_pos_site_id
 _symmetry_equiv_pos_as_xyz
  1  'x, y, z'
loop_
 _atom_site_type_symbol
 _atom_site_label
 _atom_site_symmetry_multiplicity
 _atom_site_fract_x
 _atom_site_fract_y
 _atom_site_fract_z
 _atom_site_occupancy
 _atom_site_charge
  Cu  Cu1  1  0.335140  0.500000  0.000000  1.0  0.94
  Cu  Cu2  1  0.000000  0.335140  0.500000  1.0  0.941
  Cu  Cu3  1  0.000000  0.500000  0.335140  1.0  0.9405
  Cu  Cu4  1  0.500000  0.664860  0.000000  1.0  0.9409
  Cu  Cu5  1  0.500000  0.335140  0.000000  1.0  0.941
  Cu  Cu6  1  0.000000  0.500000  0.664860  1.0  0.9414
  Cu  Cu7  1  0.664860  0.000000  0.500000  1.0  0.9406
  Cu  Cu8  1  0.664860  0.500000  0.000000  1.0  0.9406
  Cu  Cu9  1  0.500000  0.000000  0.664860  1.0  0.9414
  Cu  Cu10  1  0.000000  0.664860  0.500000  1.0  0.9409
  Cu  Cu11  1  0.500000  0.000000  0.335140  1.0  0.9405
  Cu  Cu12  1  0.335140  0.000000  0.500000  1.0  0.94
  H  H13  1  0.390200  0.794500  0.794500  1.0  0.1128
  H  H14  1  0.205500  0.609800  0.794500  1.0  0.112
  H  H15  1  0.794500  0.390200  0.794500  1.0  0.1124
  H  H16  1  0.390200  0.205500  0.794500  1.0  0.1133
  H  H17  1  0.609800  0.794500  0.794500  1.0  0.1128
  H  H18  1  0.205500  0.390200  0.205500  1.0  0.1117
  H  H19  1  0.205500  0.205500  0.609800  1.0  0.1127
  H  H20  1  0.390200  0.794500  0.205500  1.0  0.1126
  H  H21  1  0.205500  0.390200  0.794500  1.0  0.1121
  H  H22  1  0.205500  0.609800  0.205500  1.0  0.1115
  H  H23  1  0.794500  0.794500  0.609800  1.0  0.1126
  H  H24  1  0.794500  0.205500  0.609800  1.0  0.1129
  H  H25  1  0.205500  0.794500  0.390200  1.0  0.1123
  H  H26  1  0.609800  0.205500  0.794500  1.0  0.1133
  H  H27  1  0.390200  0.205500  0.205500  1.0  0.1128
  H  H28  1  0.794500  0.794500  0.390200  1.0  0.1126
  H  H29  1  0.794500  0.609800  0.794500  1.0  0.1121
  H  H30  1  0.794500  0.205500  0.390200  1.0  0.113
  H  H31  1  0.205500  0.794500  0.609800  1.0  0.1122
  H  H32  1  0.794500  0.609800  0.205500  1.0  0.1117
  H  H33  1  0.794500  0.390200  0.205500  1.0  0.1122
  H  H34  1  0.205500  0.205500  0.390200  1.0  0.113
  H  H35  1  0.609800  0.794500  0.205500  1.0  0.1125
  H  H36  1  0.609800  0.205500  0.205500  1.0  0.1127
  C  C37  1  0.340850  0.769830  0.769830  1.0  0.0309
  C  C38  1  0.696110  0.696110  0.806610  1.0  -0.1675
  C  C39  1  0.303890  0.806610  0.696110  1.0  -0.1646
  C  C40  1  0.303890  0.696110  0.806610  1.0  -0.1673
  C  C41  1  0.303890  0.193390  0.303890  1.0  -0.1647
  C  C42  1  0.883140  0.346770  0.346770  1.0  0.7594
  C  C43  1  0.303890  0.806610  0.303890  1.0  -0.1646
  C  C44  1  0.769830  0.230170  0.340850  1.0  0.0312
  C  C45  1  0.806610  0.696110  0.696110  1.0  -0.1647
  C  C46  1  0.303890  0.193390  0.696110  1.0  -0.1649
  C  C47  1  0.659150  0.230170  0.769830  1.0  0.0315
  C  C48  1  0.340850  0.769830  0.230170  1.0  0.0308
  C  C49  1  0.346770  0.653230  0.883140  1.0  0.7599
  C  C50  1  0.193390  0.696110  0.303890  1.0  -0.1649
  C  C51  1  0.346770  0.653230  0.116860  1.0  0.7599
  C  C52  1  0.193390  0.303890  0.303890  1.0  -0.1647
  C  C53  1  0.806610  0.696110  0.303890  1.0  -0.1646
  C  C54  1  0.230170  0.769830  0.659150  1.0  0.0315
  C  C55  1  0.303890  0.696110  0.193390  1.0  -0.1659
  C  C56  1  0.230170  0.769830  0.340850  1.0  0.0314
  C  C57  1  0.346770  0.346770  0.116860  1.0  0.7606
  C  C58  1  0.769830  0.769830  0.659150  1.0  0.0304
  C  C59  1  0.696110  0.696110  0.193390  1.0  -0.1663
  C  C60  1  0.340850  0.230170  0.769830  1.0  0.0315
  C  C61  1  0.193390  0.696110  0.696110  1.0  -0.1651
  C  C62  1  0.769830  0.659150  0.769830  1.0  0.0308
  C  C63  1  0.653230  0.116860  0.346770  1.0  0.7595
  C  C64  1  0.883140  0.653230  0.653230  1.0  0.759
  C  C65  1  0.653230  0.346770  0.883140  1.0  0.7608
  C  C66  1  0.230170  0.659150  0.230170  1.0  0.0313
  C  C67  1  0.346770  0.346770  0.883140  1.0  0.7604
  C  C68  1  0.696110  0.806610  0.303890  1.0  -0.165
  C  C69  1  0.230170  0.230170  0.659150  1.0  0.0314
  C  C70  1  0.653230  0.653230  0.883140  1.0  0.7603
  C  C71  1  0.116860  0.653230  0.653230  1.0  0.7598
  C  C72  1  0.193390  0.303890  0.696110  1.0  -0.1649
  C  C73  1  0.303890  0.303890  0.806610  1.0  -0.1671
  C  C74  1  0.653230  0.653230  0.116860  1.0  0.7605
  C  C75  1  0.346770  0.116860  0.653230  1.0  0.759
  C  C76  1  0.659150  0.230170  0.230170  1.0  0.0306
  C  C77  1  0.696110  0.303890  0.806610  1.0  -0.1673
  C  C78  1  0.659150  0.769830  0.769830  1.0  0.0308
  C  C79  1  0.116860  0.346770  0.653230  1.0  0.7604
  C  C80  1  0.653230  0.346770  0.116860  1.0  0.7611
  C  C81  1  0.116860  0.653230  0.346770  1.0  0.7598
  C  C82  1  0.116860  0.346770  0.346770  1.0  0.7603
  C  C83  1  0.769830  0.340850  0.769830  1.0  0.0298
  C  C84  1  0.653230  0.883140  0.653230  1.0  0.7598
  C  C85  1  0.230170  0.340850  0.769830  1.0  0.0309
  C  C86  1  0.696110  0.193390  0.696110  1.0  -0.1653
  C  C87  1  0.696110  0.806610  0.696110  1.0  -0.165
  C  C88  1  0.230170  0.230170  0.340850  1.0  0.0319
  C  C89  1  0.883140  0.346770  0.653230  1.0  0.7594
  C  C90  1  0.659150  0.769830  0.230170  1.0  0.0305
  C  C91  1  0.696110  0.303890  0.193390  1.0  -0.1661
  C  C92  1  0.346770  0.883140  0.653230  1.0  0.7594
  C  C93  1  0.769830  0.340850  0.230170  1.0  0.0297
  C  C94  1  0.883140  0.653230  0.346770  1.0  0.7591
  C  C95  1  0.769830  0.230170  0.659150  1.0  0.0305
  C  C96  1  0.230170  0.659150  0.769830  1.0  0.0315
  C  C97  1  0.346770  0.883140  0.346770  1.0  0.7592
  C  C98  1  0.653230  0.116860  0.653230  1.0  0.7594
  C  C99  1  0.303890  0.303890  0.193390  1.0  -0.1657
  C  C100  1  0.340850  0.230170  0.230170  1.0  0.0307
  C  C101  1  0.769830  0.769830  0.340850  1.0  0.0306
  C  C102  1  0.806610  0.303890  0.303890  1.0  -0.1645
  C  C103  1  0.653230  0.883140  0.346770  1.0  0.7596
  C  C104  1  0.696110  0.193390  0.303890  1.0  -0.1651
  C  C105  1  0.769830  0.659150  0.230170  1.0  0.0306
  C  C106  1  0.230170  0.340850  0.230170  1.0  0.0308
  C  C107  1  0.806610  0.303890  0.696110  1.0  -0.1647
  C  C108  1  0.346770  0.116860  0.346770  1.0  0.7591
  Cl  Cl109  1  0.500000  0.000000  0.500000  1.0  -0.1759
  Cl  Cl110  1  0.500000  0.500000  0.000000  1.0  -0.1759
  Cl  Cl111  1  0.000000  0.500000  0.500000  1.0  -0.1759
  O  O112  1  0.585200  0.687960  0.910400  1.0  -0.5938
  O  O113  1  0.910400  0.312040  0.585200  1.0  -0.5901
  O  O114  1  0.910400  0.687960  0.414800  1.0  -0.594
  O  O115  1  0.687960  0.910400  0.585200  1.0  -0.5912
  O  O116  1  0.089600  0.414800  0.312040  1.0  -0.594
  O  O117  1  0.312040  0.089600  0.585200  1.0  -0.5914
  O  O118  1  0.687960  0.414800  0.089600  1.0  -0.5951
  O  O119  1  0.089600  0.687960  0.414800  1.0  -0.5941
  O  O120  1  0.414800  0.687960  0.910400  1.0  -0.5941
  O  O121  1  0.312040  0.585200  0.910400  1.0  -0.595
  O  O122  1  0.089600  0.585200  0.312040  1.0  -0.5926
  O  O123  1  0.585200  0.089600  0.312040  1.0  -0.5912
  O  O124  1  0.414800  0.910400  0.312040  1.0  -0.5919
  O  O125  1  0.414800  0.089600  0.312040  1.0  -0.5922
  O  O126  1  0.312040  0.089600  0.414800  1.0  -0.5931
  O  O127  1  0.585200  0.312040  0.910400  1.0  -0.5929
  O  O128  1  0.585200  0.312040  0.089600  1.0  -0.5932
  O  O129  1  0.312040  0.414800  0.910400  1.0  -0.5958
  O  O130  1  0.585200  0.089600  0.687960  1.0  -0.5919
  O  O131  1  0.687960  0.585200  0.910400  1.0  -0.594
  O  O132  1  0.414800  0.089600  0.687960  1.0  -0.5926
  O  O133  1  0.089600  0.414800  0.687960  1.0  -0.5946
  O  O134  1  0.089600  0.312040  0.585200  1.0  -0.5912
  O  O135  1  0.687960  0.089600  0.585200  1.0  -0.591
  O  O136  1  0.585200  0.910400  0.687960  1.0  -0.5922
  O  O137  1  0.910400  0.312040  0.414800  1.0  -0.5918
  O  O138  1  0.414800  0.910400  0.687960  1.0  -0.5925
  O  O139  1  0.910400  0.585200  0.312040  1.0  -0.5924
  O  O140  1  0.089600  0.687960  0.585200  1.0  -0.5922
  O  O141  1  0.687960  0.910400  0.414800  1.0  -0.5927
  O  O142  1  0.414800  0.687960  0.089600  1.0  -0.5938
  O  O143  1  0.687960  0.585200  0.089600  1.0  -0.5939
  O  O144  1  0.910400  0.414800  0.312040  1.0  -0.5937
  O  O145  1  0.585200  0.687960  0.089600  1.0  -0.5939
  O  O146  1  0.312040  0.910400  0.414800  1.0  -0.5934
  O  O147  1  0.585200  0.910400  0.312040  1.0  -0.592
  O  O148  1  0.312040  0.585200  0.089600  1.0  -0.5951
  O  O149  1  0.414800  0.312040  0.089600  1.0  -0.593
  O  O150  1  0.312040  0.414800  0.089600  1.0  -0.5961
  O  O151  1  0.910400  0.414800  0.687960  1.0  -0.5943
  O  O152  1  0.910400  0.585200  0.687960  1.0  -0.5932
  O  O153  1  0.089600  0.312040  0.414800  1.0  -0.593
  O  O154  1  0.687960  0.089600  0.414800  1.0  -0.5924
  O  O155  1  0.910400  0.687960  0.585200  1.0  -0.5923
  O  O156  1  0.089600  0.585200  0.687960  1.0  -0.5936
  O  O157  1  0.414800  0.312040  0.910400  1.0  -0.5924
  O  O158  1  0.687960  0.414800  0.910400  1.0  -0.5951
  O  O159  1  0.312040  0.910400  0.585200  1.0  -0.5915
