# generated using pymatgen
data_ZnH12C19NO5
_symmetry_space_group_name_H-M   'P 1'
_cell_length_a   11.02600000
_cell_length_b   16.83800000
_cell_length_c   22.41000000
_cell_angle_alpha   90.00000000
_cell_angle_beta   90.00000000
_cell_angle_gamma   90.00000000
_symmetry_Int_Tables_number   1
_chemical_formula_structural   ZnH12C19NO5
_chemical_formula_sum   'Zn8 H96 C152 N8 O40'
_cell_volume   4160.54620908
_cell_formula_units_Z   8
loop_
 _symmetry_equiv_pos_site_id
 _symmetry_equiv_pos_as_xyz
  1  'x, y, z'
loop_
 _atom_site_type_symbol
 _atom_site_label
 _atom_site_symmetry_multiplicity
 _atom_site_fract_x
 _atom_site_fract_y
 _atom_site_fract_z
 _atom_site_occupancy
 _atom_site_charge
  Zn  Zn1  1  0.094240  0.558540  0.491110  1.0  0.9169
  Zn  Zn2  1  0.094240  0.941460  0.991110  1.0  0.9169
  Zn  Zn3  1  0.905760  0.941460  0.491110  1.0  0.9157
  Zn  Zn4  1  0.094240  0.441460  0.008890  1.0  0.9173
  Zn  Zn5  1  0.094240  0.058540  0.508890  1.0  0.9173
  Zn  Zn6  1  0.905760  0.558540  0.991110  1.0  0.9156
  Zn  Zn7  1  0.905760  0.441460  0.508890  1.0  0.9161
  Zn  Zn8  1  0.905760  0.058540  0.008890  1.0  0.9161
  H  H9  1  0.100400  0.240500  0.426600  1.0  0.0921
  H  H10  1  0.474200  0.871500  0.508600  1.0  0.134
  H  H11  1  0.576800  0.071800  0.720000  1.0  0.1286
  H  H12  1  0.410800  0.671100  0.194100  1.0  0.1161
  H  H13  1  0.350700  0.553400  0.513200  1.0  0.0807
  H  H14  1  0.686800  0.584100  0.631500  1.0  0.1032
  H  H15  1  0.576800  0.428200  0.220000  1.0  0.1284
  H  H16  1  0.899600  0.740500  0.073400  1.0  0.0916
  H  H17  1  0.161900  0.220600  0.558200  1.0  0.0781
  H  H18  1  0.686800  0.915900  0.131500  1.0  0.1036
  H  H19  1  0.055800  0.323400  0.662400  1.0  0.1002
  H  H20  1  0.161900  0.720600  0.441800  1.0  0.0779
  H  H21  1  0.525800  0.371500  0.991400  1.0  0.1343
  H  H22  1  0.196300  0.346600  0.863900  1.0  0.1341
  H  H23  1  0.313200  0.584100  0.131500  1.0  0.1033
  H  H24  1  0.944200  0.823400  0.837600  1.0  0.0994
  H  H25  1  0.327300  0.197200  0.060900  1.0  0.1119
  H  H26  1  0.196300  0.153400  0.363900  1.0  0.1347
  H  H27  1  0.327300  0.802800  0.439100  1.0  0.1112
  H  H28  1  0.350700  0.946600  0.013200  1.0  0.0801
  H  H29  1  0.317200  0.484600  0.642800  1.0  0.0996
  H  H30  1  0.944200  0.323400  0.162400  1.0  0.1005
  H  H31  1  0.838100  0.720600  0.941800  1.0  0.0783
  H  H32  1  0.844200  0.269600  0.242800  1.0  0.1212
  H  H33  1  0.474200  0.371500  0.491400  1.0  0.1342
  H  H34  1  0.474200  0.128500  0.991400  1.0  0.1342
  H  H35  1  0.576800  0.928200  0.780000  1.0  0.1286
  H  H36  1  0.682800  0.984600  0.857200  1.0  0.0996
  H  H37  1  0.155800  0.769600  0.257200  1.0  0.1205
  H  H38  1  0.672700  0.697200  0.439100  1.0  0.1114
  H  H39  1  0.317200  0.515400  0.857200  1.0  0.0996
  H  H40  1  0.155800  0.269600  0.742800  1.0  0.1208
  H  H41  1  0.589200  0.171100  0.305900  1.0  0.1153
  H  H42  1  0.576800  0.571800  0.280000  1.0  0.1288
  H  H43  1  0.803700  0.346600  0.363900  1.0  0.1339
  H  H44  1  0.327300  0.302800  0.560900  1.0  0.1112
  H  H45  1  0.410800  0.828900  0.694100  1.0  0.1156
  H  H46  1  0.423200  0.571800  0.780000  1.0  0.1296
  H  H47  1  0.649300  0.053400  0.986800  1.0  0.0806
  H  H48  1  0.155800  0.230400  0.242800  1.0  0.1211
  H  H49  1  0.055800  0.176600  0.162400  1.0  0.0999
  H  H50  1  0.100400  0.259500  0.926600  1.0  0.0919
  H  H51  1  0.682800  0.484600  0.142800  1.0  0.0996
  H  H52  1  0.100400  0.740500  0.573400  1.0  0.0918
  H  H53  1  0.313200  0.084100  0.868500  1.0  0.1029
  H  H54  1  0.944200  0.676600  0.337600  1.0  0.0994
  H  H55  1  0.899600  0.240500  0.926600  1.0  0.0922
  H  H56  1  0.803700  0.153400  0.863900  1.0  0.1345
  H  H57  1  0.423200  0.928200  0.280000  1.0  0.1294
  H  H58  1  0.589200  0.671100  0.694100  1.0  0.1156
  H  H59  1  0.525800  0.628500  0.508600  1.0  0.1345
  H  H60  1  0.672700  0.302800  0.060900  1.0  0.1111
  H  H61  1  0.682800  0.015400  0.642800  1.0  0.0994
  H  H62  1  0.672700  0.197200  0.560900  1.0  0.1117
  H  H63  1  0.649300  0.946600  0.513200  1.0  0.0802
  H  H64  1  0.317200  0.015400  0.142800  1.0  0.0994
  H  H65  1  0.844200  0.230400  0.742800  1.0  0.1213
  H  H66  1  0.474200  0.628500  0.008600  1.0  0.1343
  H  H67  1  0.838100  0.279400  0.558200  1.0  0.0784
  H  H68  1  0.313200  0.415900  0.368500  1.0  0.1033
  H  H69  1  0.844200  0.730400  0.257200  1.0  0.1212
  H  H70  1  0.649300  0.446600  0.486800  1.0  0.0798
  H  H71  1  0.899600  0.759500  0.573400  1.0  0.0914
  H  H72  1  0.410800  0.328900  0.305900  1.0  0.1156
  H  H73  1  0.844200  0.769600  0.757200  1.0  0.1201
  H  H74  1  0.327300  0.697200  0.939100  1.0  0.1116
  H  H75  1  0.682800  0.515400  0.357200  1.0  0.0995
  H  H76  1  0.525800  0.128500  0.491400  1.0  0.1343
  H  H77  1  0.649300  0.553400  0.013200  1.0  0.0802
  H  H78  1  0.423200  0.428200  0.720000  1.0  0.1292
  H  H79  1  0.055800  0.823400  0.337600  1.0  0.0992
  H  H80  1  0.100400  0.759500  0.073400  1.0  0.0918
  H  H81  1  0.589200  0.328900  0.805900  1.0  0.1156
  H  H82  1  0.899600  0.259500  0.426600  1.0  0.092
  H  H83  1  0.196300  0.846600  0.136100  1.0  0.134
  H  H84  1  0.525800  0.871500  0.008600  1.0  0.1343
  H  H85  1  0.350700  0.053400  0.486800  1.0  0.0806
  H  H86  1  0.838100  0.220600  0.058200  1.0  0.0783
  H  H87  1  0.410800  0.171100  0.805900  1.0  0.1156
  H  H88  1  0.423200  0.071800  0.220000  1.0  0.1294
  H  H89  1  0.838100  0.779400  0.441800  1.0  0.0782
  H  H90  1  0.161900  0.279400  0.058200  1.0  0.0777
  H  H91  1  0.317200  0.984600  0.357200  1.0  0.0996
  H  H92  1  0.196300  0.653400  0.636100  1.0  0.1347
  H  H93  1  0.161900  0.779400  0.941800  1.0  0.078
  H  H94  1  0.672700  0.802800  0.939100  1.0  0.1108
  H  H95  1  0.803700  0.846600  0.636100  1.0  0.1339
  H  H96  1  0.803700  0.653400  0.136100  1.0  0.1346
  H  H97  1  0.686800  0.415900  0.868500  1.0  0.1033
  H  H98  1  0.313200  0.915900  0.631500  1.0  0.1036
  H  H99  1  0.155800  0.730400  0.757200  1.0  0.1209
  H  H100  1  0.686800  0.084100  0.368500  1.0  0.1029
  H  H101  1  0.350700  0.446600  0.986800  1.0  0.0802
  H  H102  1  0.944200  0.176600  0.662400  1.0  0.1001
  H  H103  1  0.589200  0.828900  0.194100  1.0  0.1156
  H  H104  1  0.055800  0.676600  0.837600  1.0  0.0992
  C  C105  1  0.128500  0.154300  0.175000  1.0  -0.0084
  C  C106  1  0.235500  0.702100  0.456600  1.0  0.1806
  C  C107  1  0.764500  0.797900  0.456600  1.0  0.1812
  C  C108  1  0.128500  0.654300  0.825000  1.0  -0.0084
  C  C109  1  0.346300  0.188500  0.829300  1.0  -0.2568
  C  C110  1  0.297700  0.345800  0.740700  1.0  0.2863
  C  C111  1  0.811700  0.187000  0.722800  1.0  -0.1944
  C  C112  1  0.711700  0.636800  0.632800  1.0  -0.0216
  C  C113  1  0.443800  0.774800  0.971100  1.0  0.1301
  C  C114  1  0.335600  0.748700  0.953500  1.0  -0.178
  C  C115  1  0.556200  0.225200  0.028900  1.0  0.1296
  C  C116  1  0.556200  0.774800  0.471100  1.0  0.1302
  C  C117  1  0.235500  0.797900  0.956600  1.0  0.1806
  C  C118  1  0.103900  0.554300  0.905700  1.0  0.6953
  C  C119  1  0.715100  0.941200  0.837000  1.0  -0.0134
  C  C120  1  0.347400  0.408400  0.709400  1.0  -0.2601
  C  C121  1  0.556200  0.274800  0.528900  1.0  0.1298
  C  C122  1  0.284900  0.441200  0.663000  1.0  -0.0137
  C  C123  1  0.235500  0.202100  0.543400  1.0  0.1799
  C  C124  1  0.193000  0.338800  0.403900  1.0  -0.1157
  C  C125  1  0.652600  0.908400  0.790600  1.0  -0.2562
  C  C126  1  0.838300  0.741000  0.598300  1.0  -0.0466
  C  C127  1  0.547600  0.148800  0.005000  1.0  -0.2031
  C  C128  1  0.547600  0.648800  0.995000  1.0  -0.2037
  C  C129  1  0.173800  0.410600  0.645400  1.0  -0.1791
  C  C130  1  0.284900  0.058800  0.163000  1.0  -0.0138
  C  C131  1  0.547600  0.851200  0.495000  1.0  -0.2036
  C  C132  1  0.125200  0.396600  0.439600  1.0  0.6896
  C  C133  1  0.288300  0.136800  0.867200  1.0  -0.0235
  C  C134  1  0.807000  0.338800  0.903900  1.0  -0.1162
  C  C135  1  0.346300  0.311500  0.329300  1.0  -0.2547
  C  C136  1  0.297700  0.154200  0.240700  1.0  0.2774
  C  C137  1  0.308200  0.266100  0.826300  1.0  0.2795
  C  C138  1  0.807000  0.161200  0.403900  1.0  -0.1166
  C  C139  1  0.653700  0.688500  0.670700  1.0  -0.2563
  C  C140  1  0.811700  0.687000  0.277200  1.0  -0.194
  C  C141  1  0.826200  0.589400  0.354600  1.0  -0.179
  C  C142  1  0.781800  0.293300  0.364100  1.0  -0.228
  C  C143  1  0.297700  0.654200  0.759300  1.0  0.2864
  C  C144  1  0.547600  0.351200  0.505000  1.0  -0.2033
  C  C145  1  0.103900  0.945700  0.405700  1.0  0.6959
  C  C146  1  0.188300  0.313000  0.722800  1.0  -0.1965
  C  C147  1  0.653800  0.895500  0.497600  1.0  0.1723
  C  C148  1  0.218200  0.793300  0.135900  1.0  -0.2262
  C  C149  1  0.346200  0.395500  0.002400  1.0  0.1721
  C  C150  1  0.653700  0.188500  0.329300  1.0  -0.2575
  C  C151  1  0.764500  0.702100  0.956600  1.0  0.1813
  C  C152  1  0.711700  0.863200  0.132800  1.0  -0.022
  C  C153  1  0.193000  0.661200  0.096100  1.0  -0.1168
  C  C154  1  0.128500  0.345700  0.675000  1.0  -0.008
  C  C155  1  0.125200  0.603400  0.060400  1.0  0.6893
  C  C156  1  0.811700  0.313000  0.222800  1.0  -0.195
  C  C157  1  0.652600  0.591600  0.290600  1.0  -0.2478
  C  C158  1  0.128500  0.845700  0.325000  1.0  -0.0078
  C  C159  1  0.125200  0.896600  0.560400  1.0  0.6893
  C  C160  1  0.161700  0.741000  0.098300  1.0  -0.0454
  C  C161  1  0.702300  0.154200  0.740700  1.0  0.2868
  C  C162  1  0.653700  0.811500  0.170700  1.0  -0.2584
  C  C163  1  0.691800  0.733900  0.173700  1.0  0.2804
  C  C164  1  0.871500  0.345700  0.175000  1.0  -0.0089
  C  C165  1  0.297700  0.845800  0.259300  1.0  0.2791
  C  C166  1  0.218200  0.706700  0.635900  1.0  -0.2254
  C  C167  1  0.702300  0.845800  0.759300  1.0  0.2869
  C  C168  1  0.896100  0.554300  0.405700  1.0  0.6944
  C  C169  1  0.218200  0.293300  0.864100  1.0  -0.227
  C  C170  1  0.715100  0.558800  0.337000  1.0  -0.0134
  C  C171  1  0.874800  0.603400  0.560400  1.0  0.6882
  C  C172  1  0.691800  0.766100  0.673700  1.0  0.2805
  C  C173  1  0.235500  0.297900  0.043400  1.0  0.1797
  C  C174  1  0.711700  0.363200  0.867200  1.0  -0.0223
  C  C175  1  0.871500  0.654300  0.325000  1.0  -0.0091
  C  C176  1  0.781800  0.206700  0.864100  1.0  -0.2273
  C  C177  1  0.807000  0.838800  0.096100  1.0  -0.1176
  C  C178  1  0.653800  0.104500  0.002400  1.0  0.1726
  C  C179  1  0.871500  0.154300  0.675000  1.0  -0.0093
  C  C180  1  0.896100  0.054300  0.594300  1.0  0.6945
  C  C181  1  0.173800  0.089400  0.145400  1.0  -0.18
  C  C182  1  0.653700  0.311500  0.829300  1.0  -0.2589
  C  C183  1  0.652600  0.091600  0.709400  1.0  -0.2578
  C  C184  1  0.173800  0.589400  0.854600  1.0  -0.1796
  C  C185  1  0.288300  0.636800  0.132800  1.0  -0.022
  C  C186  1  0.161700  0.241000  0.901700  1.0  -0.0458
  C  C187  1  0.874800  0.896600  0.060400  1.0  0.6883
  C  C188  1  0.871500  0.845700  0.825000  1.0  -0.0085
  C  C189  1  0.452400  0.148800  0.505000  1.0  -0.2026
  C  C190  1  0.781800  0.793300  0.635900  1.0  -0.2267
  C  C191  1  0.664400  0.751300  0.953500  1.0  -0.1767
  C  C192  1  0.664400  0.748700  0.453500  1.0  -0.1771
  C  C193  1  0.443800  0.725200  0.471100  1.0  0.13
  C  C194  1  0.308200  0.766100  0.173700  1.0  0.2798
  C  C195  1  0.702300  0.654200  0.259300  1.0  0.2869
  C  C196  1  0.653800  0.604500  0.997600  1.0  0.1724
  C  C197  1  0.652600  0.408400  0.209400  1.0  -0.2574
  C  C198  1  0.715100  0.441200  0.163000  1.0  -0.013
  C  C199  1  0.161700  0.759000  0.598300  1.0  -0.0456
  C  C200  1  0.691800  0.266100  0.326300  1.0  0.2801
  C  C201  1  0.308200  0.733900  0.673700  1.0  0.2796
  C  C202  1  0.556200  0.725200  0.971100  1.0  0.1301
  C  C203  1  0.452400  0.351200  0.005000  1.0  -0.2024
  C  C204  1  0.218200  0.206700  0.364100  1.0  -0.2264
  C  C205  1  0.781800  0.706700  0.135900  1.0  -0.2267
  C  C206  1  0.443800  0.274800  0.028900  1.0  0.1301
  C  C207  1  0.284900  0.941200  0.337000  1.0  -0.0141
  C  C208  1  0.874800  0.103400  0.439600  1.0  0.6887
  C  C209  1  0.193000  0.161200  0.903900  1.0  -0.1161
  C  C210  1  0.188300  0.187000  0.222800  1.0  -0.1957
  C  C211  1  0.161700  0.259000  0.401700  1.0  -0.0459
  C  C212  1  0.838300  0.759000  0.098300  1.0  -0.0465
  C  C213  1  0.452400  0.851200  0.995000  1.0  -0.2026
  C  C214  1  0.826200  0.910600  0.854600  1.0  -0.1797
  C  C215  1  0.173800  0.910600  0.354600  1.0  -0.1791
  C  C216  1  0.811700  0.813000  0.777200  1.0  -0.1948
  C  C217  1  0.188300  0.687000  0.777200  1.0  -0.1952
  C  C218  1  0.346300  0.811500  0.670700  1.0  -0.2536
  C  C219  1  0.664400  0.248700  0.546500  1.0  -0.1786
  C  C220  1  0.346200  0.895500  0.997600  1.0  0.1731
  C  C221  1  0.711700  0.136800  0.367200  1.0  -0.0227
  C  C222  1  0.288300  0.363200  0.367200  1.0  -0.0221
  C  C223  1  0.346200  0.604500  0.497600  1.0  0.1715
  C  C224  1  0.691800  0.233900  0.826300  1.0  0.28
  C  C225  1  0.346200  0.104500  0.502400  1.0  0.172
  C  C226  1  0.764500  0.297900  0.543400  1.0  0.1809
  C  C227  1  0.443800  0.225200  0.528900  1.0  0.1301
  C  C228  1  0.896100  0.445700  0.094300  1.0  0.6952
  C  C229  1  0.702300  0.345800  0.240700  1.0  0.2867
  C  C230  1  0.874800  0.396600  0.939600  1.0  0.6888
  C  C231  1  0.335600  0.751300  0.453500  1.0  -0.1768
  C  C232  1  0.452400  0.648800  0.495000  1.0  -0.2025
  C  C233  1  0.335600  0.251300  0.546500  1.0  -0.1774
  C  C234  1  0.346300  0.688500  0.170700  1.0  -0.2522
  C  C235  1  0.284900  0.558800  0.837000  1.0  -0.0138
  C  C236  1  0.807000  0.661200  0.596100  1.0  -0.1175
  C  C237  1  0.103900  0.445700  0.594300  1.0  0.6955
  C  C238  1  0.838300  0.241000  0.401700  1.0  -0.0472
  C  C239  1  0.653800  0.395500  0.502400  1.0  0.1728
  C  C240  1  0.193000  0.838800  0.596100  1.0  -0.1169
  C  C241  1  0.347400  0.591600  0.790600  1.0  -0.2592
  C  C242  1  0.826200  0.089400  0.645400  1.0  -0.1786
  C  C243  1  0.715100  0.058800  0.663000  1.0  -0.0135
  C  C244  1  0.826200  0.410600  0.145400  1.0  -0.1791
  C  C245  1  0.764500  0.202100  0.043400  1.0  0.1811
  C  C246  1  0.838300  0.259000  0.901700  1.0  -0.047
  C  C247  1  0.896100  0.945700  0.905700  1.0  0.6953
  C  C248  1  0.103900  0.054300  0.094300  1.0  0.6954
  C  C249  1  0.664400  0.251300  0.046500  1.0  -0.1773
  C  C250  1  0.288300  0.863200  0.632800  1.0  -0.0216
  C  C251  1  0.125200  0.103400  0.939600  1.0  0.6896
  C  C252  1  0.188300  0.813000  0.277200  1.0  -0.1962
  C  C253  1  0.347400  0.908400  0.290600  1.0  -0.2602
  C  C254  1  0.347400  0.091600  0.209400  1.0  -0.2603
  C  C255  1  0.335600  0.248700  0.046500  1.0  -0.1788
  C  C256  1  0.308200  0.233900  0.326300  1.0  0.2793
  N  N257  1  0.239900  0.130100  0.520500  1.0  -0.315
  N  N258  1  0.239900  0.869900  0.979500  1.0  -0.3155
  N  N259  1  0.760100  0.630100  0.979500  1.0  -0.3163
  N  N260  1  0.760100  0.869900  0.479500  1.0  -0.3155
  N  N261  1  0.760100  0.369900  0.520500  1.0  -0.3144
  N  N262  1  0.239900  0.369900  0.020500  1.0  -0.3145
  N  N263  1  0.239900  0.630100  0.479500  1.0  -0.3167
  N  N264  1  0.760100  0.130100  0.020500  1.0  -0.3154
  O  O265  1  0.635100  0.316900  0.287700  1.0  -0.2628
  O  O266  1  0.851300  0.494900  0.431700  1.0  -0.6067
  O  O267  1  0.635100  0.816900  0.712300  1.0  -0.2626
  O  O268  1  0.168200  0.534900  0.053500  1.0  -0.5952
  O  O269  1  0.851300  0.505100  0.068300  1.0  -0.6068
  O  O270  1  0.004500  0.085100  0.081700  1.0  -0.5908
  O  O271  1  0.148700  0.494900  0.931700  1.0  -0.6063
  O  O272  1  0.851300  0.994900  0.568300  1.0  -0.6066
  O  O273  1  0.995500  0.914900  0.918300  1.0  -0.5908
  O  O274  1  0.024800  0.374300  0.461900  1.0  -0.574
  O  O275  1  0.364900  0.316900  0.787700  1.0  -0.262
  O  O276  1  0.168200  0.034900  0.946500  1.0  -0.5946
  O  O277  1  0.004500  0.585100  0.918300  1.0  -0.5908
  O  O278  1  0.831800  0.465100  0.946500  1.0  -0.5944
  O  O279  1  0.364900  0.816900  0.212300  1.0  -0.2606
  O  O280  1  0.168200  0.465100  0.446500  1.0  -0.595
  O  O281  1  0.975200  0.625700  0.538100  1.0  -0.5742
  O  O282  1  0.148700  0.994900  0.068300  1.0  -0.6064
  O  O283  1  0.995500  0.085100  0.581700  1.0  -0.5911
  O  O284  1  0.975200  0.874300  0.038100  1.0  -0.5742
  O  O285  1  0.831800  0.034900  0.446500  1.0  -0.5944
  O  O286  1  0.831800  0.534900  0.553500  1.0  -0.5945
  O  O287  1  0.975200  0.374300  0.961900  1.0  -0.5737
  O  O288  1  0.004500  0.914900  0.418300  1.0  -0.5906
  O  O289  1  0.975200  0.125700  0.461900  1.0  -0.5738
  O  O290  1  0.364900  0.683100  0.712300  1.0  -0.2611
  O  O291  1  0.168200  0.965100  0.553500  1.0  -0.5953
  O  O292  1  0.364900  0.183100  0.287700  1.0  -0.2623
  O  O293  1  0.995500  0.585100  0.418300  1.0  -0.5915
  O  O294  1  0.024800  0.874300  0.538100  1.0  -0.5745
  O  O295  1  0.148700  0.005100  0.431700  1.0  -0.6062
  O  O296  1  0.148700  0.505100  0.568300  1.0  -0.6065
  O  O297  1  0.635100  0.183100  0.787700  1.0  -0.2635
  O  O298  1  0.024800  0.125700  0.961900  1.0  -0.5739
  O  O299  1  0.635100  0.683100  0.212300  1.0  -0.2631
  O  O300  1  0.831800  0.965100  0.053500  1.0  -0.5947
  O  O301  1  0.995500  0.414900  0.081700  1.0  -0.5909
  O  O302  1  0.004500  0.414900  0.581700  1.0  -0.5907
  O  O303  1  0.851300  0.005100  0.931700  1.0  -0.6067
  O  O304  1  0.024800  0.625700  0.038100  1.0  -0.5742
