# generated using pymatgen
data_CoH5C11NO5
_symmetry_space_group_name_H-M   'P 1'
_cell_length_a   29.91540000
_cell_length_b   29.91540000
_cell_length_c   29.91540000
_cell_angle_alpha   60.00000000
_cell_angle_beta   60.00000000
_cell_angle_gamma   60.00000000
_symmetry_Int_Tables_number   1
_chemical_formula_structural   CoH5C11NO5
_chemical_formula_sum   'Co24 H120 C264 N24 O120'
_cell_volume   18930.82081180
_cell_formula_units_Z   24
loop_
 _symmetry_equiv_pos_site_id
 _symmetry_equiv_pos_as_xyz
  1  'x, y, z'
loop_
 _atom_site_type_symbol
 _atom_site_label
 _atom_site_symmetry_multiplicity
 _atom_site_fract_x
 _atom_site_fract_y
 _atom_site_fract_z
 _atom_site_occupancy
 _atom_site_charge
  Co  Co1  1  0.265190  0.011490  0.734810  1.0  1.0273
  Co  Co2  1  0.638290  0.361710  0.012750  1.0  1.0379
  Co  Co3  1  0.012750  0.361710  0.987250  1.0  1.0372
  Co  Co4  1  0.012750  0.987250  0.638290  1.0  1.0347
  Co  Co5  1  0.012750  0.638290  0.361710  1.0  1.0349
  Co  Co6  1  0.011490  0.734810  0.265190  1.0  1.0245
  Co  Co7  1  0.987250  0.361710  0.638290  1.0  1.0358
  Co  Co8  1  0.361710  0.987250  0.012750  1.0  1.0403
  Co  Co9  1  0.011490  0.265190  0.988510  1.0  1.0283
  Co  Co10  1  0.987250  0.012750  0.361710  1.0  1.034
  Co  Co11  1  0.734810  0.011490  0.988510  1.0  1.0317
  Co  Co12  1  0.734810  0.988510  0.265190  1.0  1.0305
  Co  Co13  1  0.734810  0.265190  0.011490  1.0  1.0266
  Co  Co14  1  0.638290  0.012750  0.987250  1.0  1.0379
  Co  Co15  1  0.988510  0.265190  0.734810  1.0  1.029
  Co  Co16  1  0.265190  0.734810  0.988510  1.0  1.0249
  Co  Co17  1  0.361710  0.638290  0.987250  1.0  1.0374
  Co  Co18  1  0.638290  0.987250  0.361710  1.0  1.0369
  Co  Co19  1  0.988510  0.734810  0.011490  1.0  1.0261
  Co  Co20  1  0.988510  0.011490  0.265190  1.0  1.0272
  Co  Co21  1  0.011490  0.988510  0.734810  1.0  1.0259
  Co  Co22  1  0.987250  0.638290  0.012750  1.0  1.0357
  Co  Co23  1  0.361710  0.012750  0.638290  1.0  1.0398
  Co  Co24  1  0.265190  0.988510  0.011490  1.0  1.0278
  H  H25  1  0.984900  0.159500  0.677100  1.0  0.1214
  H  H26  1  0.300700  0.184500  0.550300  1.0  0.1253
  H  H27  1  0.837200  0.015800  0.688400  1.0  0.1265
  H  H28  1  0.242900  0.979700  0.309700  1.0  0.2924
  H  H29  1  0.162800  0.541400  0.984200  1.0  0.1263
  H  H30  1  0.677100  0.984900  0.159500  1.0  0.1212
  H  H31  1  0.263300  0.948100  0.383500  1.0  0.1004
  H  H32  1  0.964500  0.550300  0.184500  1.0  0.1258
  H  H33  1  0.757100  0.690300  0.532300  1.0  0.2927
  H  H34  1  0.035500  0.699300  0.449700  1.0  0.1236
  H  H35  1  0.699300  0.815500  0.449700  1.0  0.1248
  H  H36  1  0.699300  0.035500  0.815500  1.0  0.125
  H  H37  1  0.840500  0.322900  0.015100  1.0  0.1219
  H  H38  1  0.300700  0.964500  0.184500  1.0  0.1257
  H  H39  1  0.311600  0.162800  0.984200  1.0  0.1257
  H  H40  1  0.815500  0.035500  0.449700  1.0  0.1263
  H  H41  1  0.690300  0.532300  0.757100  1.0  0.2931
  H  H42  1  0.690300  0.757100  0.020300  1.0  0.292
  H  H43  1  0.309700  0.242900  0.979700  1.0  0.2919
  H  H44  1  0.458600  0.688400  0.015800  1.0  0.1266
  H  H45  1  0.051900  0.594900  0.616500  1.0  0.0982
  H  H46  1  0.677100  0.159500  0.178500  1.0  0.1205
  H  H47  1  0.162800  0.984200  0.311600  1.0  0.1261
  H  H48  1  0.616500  0.594900  0.736700  1.0  0.0979
  H  H49  1  0.405100  0.383500  0.948100  1.0  0.0996
  H  H50  1  0.242900  0.309700  0.467700  1.0  0.2924
  H  H51  1  0.984900  0.178500  0.159500  1.0  0.121
  H  H52  1  0.736700  0.594900  0.051900  1.0  0.0981
  H  H53  1  0.757100  0.020300  0.690300  1.0  0.2909
  H  H54  1  0.840500  0.015100  0.821500  1.0  0.1216
  H  H55  1  0.159500  0.178500  0.677100  1.0  0.1207
  H  H56  1  0.979700  0.242900  0.467700  1.0  0.2927
  H  H57  1  0.020300  0.757100  0.532300  1.0  0.2913
  H  H58  1  0.015100  0.821500  0.840500  1.0  0.1215
  H  H59  1  0.015800  0.688400  0.837200  1.0  0.1268
  H  H60  1  0.964500  0.184500  0.300700  1.0  0.1263
  H  H61  1  0.550300  0.300700  0.184500  1.0  0.1242
  H  H62  1  0.690300  0.020300  0.532300  1.0  0.2903
  H  H63  1  0.178500  0.677100  0.159500  1.0  0.1216
  H  H64  1  0.699300  0.449700  0.035500  1.0  0.1239
  H  H65  1  0.300700  0.550300  0.964500  1.0  0.1245
  H  H66  1  0.184500  0.964500  0.550300  1.0  0.1249
  H  H67  1  0.984200  0.541400  0.311600  1.0  0.1259
  H  H68  1  0.184500  0.300700  0.964500  1.0  0.124
  H  H69  1  0.821500  0.840500  0.015100  1.0  0.1209
  H  H70  1  0.964500  0.300700  0.550300  1.0  0.1238
  H  H71  1  0.405100  0.263300  0.383500  1.0  0.0996
  H  H72  1  0.035500  0.449700  0.815500  1.0  0.124
  H  H73  1  0.051900  0.616500  0.736700  1.0  0.099
  H  H74  1  0.322900  0.015100  0.840500  1.0  0.1216
  H  H75  1  0.688400  0.015800  0.458600  1.0  0.1265
  H  H76  1  0.467700  0.979700  0.242900  1.0  0.2925
  H  H77  1  0.688400  0.458600  0.837200  1.0  0.1262
  H  H78  1  0.979700  0.467700  0.309700  1.0  0.2925
  H  H79  1  0.616500  0.736700  0.051900  1.0  0.0985
  H  H80  1  0.309700  0.467700  0.242900  1.0  0.2937
  H  H81  1  0.263300  0.383500  0.405100  1.0  0.099
  H  H82  1  0.015800  0.837200  0.458600  1.0  0.1259
  H  H83  1  0.688400  0.837200  0.015800  1.0  0.1255
  H  H84  1  0.616500  0.051900  0.594900  1.0  0.0992
  H  H85  1  0.677100  0.178500  0.984900  1.0  0.1207
  H  H86  1  0.594900  0.051900  0.736700  1.0  0.0993
  H  H87  1  0.757100  0.532300  0.020300  1.0  0.2946
  H  H88  1  0.178500  0.159500  0.984900  1.0  0.1205
  H  H89  1  0.159500  0.677100  0.984900  1.0  0.1218
  H  H90  1  0.594900  0.736700  0.616500  1.0  0.0987
  H  H91  1  0.383500  0.948100  0.405100  1.0  0.098
  H  H92  1  0.815500  0.449700  0.699300  1.0  0.1247
  H  H93  1  0.532300  0.690300  0.020300  1.0  0.2927
  H  H94  1  0.948100  0.405100  0.383500  1.0  0.1
  H  H95  1  0.948100  0.383500  0.263300  1.0  0.0987
  H  H96  1  0.449700  0.035500  0.699300  1.0  0.1242
  H  H97  1  0.815500  0.699300  0.035500  1.0  0.1242
  H  H98  1  0.405100  0.948100  0.263300  1.0  0.0983
  H  H99  1  0.984900  0.677100  0.178500  1.0  0.1227
  H  H100  1  0.015800  0.458600  0.688400  1.0  0.1257
  H  H101  1  0.383500  0.263300  0.948100  1.0  0.0982
  H  H102  1  0.541400  0.162800  0.311600  1.0  0.126
  H  H103  1  0.263300  0.405100  0.948100  1.0  0.0995
  H  H104  1  0.159500  0.984900  0.178500  1.0  0.1214
  H  H105  1  0.736700  0.616500  0.594900  1.0  0.0976
  H  H106  1  0.322900  0.840500  0.821500  1.0  0.1208
  H  H107  1  0.948100  0.263300  0.405100  1.0  0.0989
  H  H108  1  0.550300  0.964500  0.300700  1.0  0.126
  H  H109  1  0.532300  0.020300  0.757100  1.0  0.2933
  H  H110  1  0.594900  0.616500  0.051900  1.0  0.0978
  H  H111  1  0.020300  0.690300  0.757100  1.0  0.2917
  H  H112  1  0.736700  0.051900  0.616500  1.0  0.0991
  H  H113  1  0.458600  0.015800  0.837200  1.0  0.126
  H  H114  1  0.015100  0.322900  0.821500  1.0  0.1227
  H  H115  1  0.467700  0.242900  0.309700  1.0  0.2931
  H  H116  1  0.984200  0.162800  0.541400  1.0  0.1269
  H  H117  1  0.311600  0.541400  0.162800  1.0  0.1255
  H  H118  1  0.449700  0.699300  0.815500  1.0  0.1246
  H  H119  1  0.242900  0.467700  0.979700  1.0  0.2943
  H  H120  1  0.821500  0.015100  0.322900  1.0  0.1212
  H  H121  1  0.322900  0.821500  0.015100  1.0  0.1208
  H  H122  1  0.984200  0.311600  0.162800  1.0  0.1254
  H  H123  1  0.311600  0.984200  0.541400  1.0  0.127
  H  H124  1  0.467700  0.309700  0.979700  1.0  0.2929
  H  H125  1  0.184500  0.550300  0.300700  1.0  0.1243
  H  H126  1  0.550300  0.184500  0.964500  1.0  0.1256
  H  H127  1  0.541400  0.984200  0.162800  1.0  0.1264
  H  H128  1  0.821500  0.322900  0.840500  1.0  0.1219
  H  H129  1  0.541400  0.311600  0.984200  1.0  0.127
  H  H130  1  0.458600  0.837200  0.688400  1.0  0.1252
  H  H131  1  0.015100  0.840500  0.322900  1.0  0.1215
  H  H132  1  0.979700  0.309700  0.242900  1.0  0.2931
  H  H133  1  0.449700  0.815500  0.035500  1.0  0.1251
  H  H134  1  0.035500  0.815500  0.699300  1.0  0.1256
  H  H135  1  0.020300  0.532300  0.690300  1.0  0.2939
  H  H136  1  0.178500  0.984900  0.677100  1.0  0.1214
  H  H137  1  0.840500  0.821500  0.322900  1.0  0.1209
  H  H138  1  0.532300  0.757100  0.690300  1.0  0.2919
  H  H139  1  0.837200  0.458600  0.015800  1.0  0.1263
  H  H140  1  0.837200  0.688400  0.458600  1.0  0.1265
  H  H141  1  0.162800  0.311600  0.541400  1.0  0.1255
  H  H142  1  0.383500  0.405100  0.263300  1.0  0.0994
  H  H143  1  0.309700  0.979700  0.467700  1.0  0.2908
  H  H144  1  0.051900  0.736700  0.594900  1.0  0.098
  C  C145  1  0.234730  0.974830  0.172270  1.0  -0.1563
  C  C146  1  0.821300  0.357700  0.018100  1.0  0.0357
  C  C147  1  0.381830  0.025170  0.765270  1.0  -0.1561
  C  C148  1  0.561600  0.277000  0.980600  1.0  -0.1094
  C  C149  1  0.090890  0.995290  0.276710  1.0  0.7198
  C  C150  1  0.030700  0.433700  0.799100  1.0  -0.0807
  C  C151  1  0.018100  0.802900  0.821300  1.0  0.0338
  C  C152  1  0.630400  0.702000  0.049400  1.0  -0.1022
  C  C153  1  0.030700  0.736500  0.433700  1.0  -0.0799
  C  C154  1  0.736500  0.433700  0.030700  1.0  -0.0825
  C  C155  1  0.298000  0.950600  0.369600  1.0  -0.0991
  C  C156  1  0.051300  0.540900  0.724900  1.0  0.3843
  C  C157  1  0.386350  0.015350  0.848250  1.0  -0.1624
  C  C158  1  0.362890  0.723290  0.004710  1.0  0.7229
  C  C159  1  0.004710  0.723290  0.909110  1.0  0.7216
  C  C160  1  0.369600  0.298000  0.950600  1.0  -0.1008
  C  C161  1  0.025170  0.381830  0.827730  1.0  -0.1549
  C  C162  1  0.984650  0.613650  0.249950  1.0  -0.1623
  C  C163  1  0.618170  0.172270  0.974830  1.0  -0.1542
  C  C164  1  0.948700  0.459100  0.275100  1.0  0.3832
  C  C165  1  0.765270  0.827730  0.381830  1.0  -0.1541
  C  C166  1  0.750050  0.386350  0.848250  1.0  -0.1617
  C  C167  1  0.236700  0.539500  0.971100  1.0  0.1671
  C  C168  1  0.004710  0.362890  0.723290  1.0  0.7228
  C  C169  1  0.460500  0.028900  0.763300  1.0  0.1668
  C  C170  1  0.952300  0.402500  0.315100  1.0  -0.017
  C  C171  1  0.684900  0.597500  0.669900  1.0  -0.0163
  C  C172  1  0.197100  0.642300  0.178700  1.0  0.0348
  C  C173  1  0.028900  0.763300  0.460500  1.0  0.1663
  C  C174  1  0.827730  0.025170  0.381830  1.0  -0.1547
  C  C175  1  0.765270  0.381830  0.025170  1.0  -0.1553
  C  C176  1  0.049400  0.702000  0.618200  1.0  -0.1009
  C  C177  1  0.330100  0.315100  0.402500  1.0  -0.016
  C  C178  1  0.275100  0.317100  0.948700  1.0  0.3755
  C  C179  1  0.618200  0.630400  0.049400  1.0  -0.1011
  C  C180  1  0.172270  0.234730  0.974830  1.0  -0.1552
  C  C181  1  0.277000  0.180800  0.980600  1.0  -0.1075
  C  C182  1  0.252700  0.236700  0.971100  1.0  0.1667
  C  C183  1  0.995290  0.637110  0.276710  1.0  0.7232
  C  C184  1  0.459100  0.317100  0.275100  1.0  0.3765
  C  C185  1  0.049400  0.618200  0.630400  1.0  -0.0974
  C  C186  1  0.090890  0.276710  0.637110  1.0  0.719
  C  C187  1  0.249950  0.613650  0.151750  1.0  -0.1617
  C  C188  1  0.723290  0.362890  0.909110  1.0  0.722
  C  C189  1  0.969300  0.566300  0.200900  1.0  -0.0819
  C  C190  1  0.974830  0.172270  0.234730  1.0  -0.1546
  C  C191  1  0.566300  0.969300  0.263500  1.0  -0.0812
  C  C192  1  0.682900  0.724900  0.540900  1.0  0.381
  C  C193  1  0.736300  0.025100  0.886100  1.0  0.7133
  C  C194  1  0.381800  0.369600  0.950600  1.0  -0.1022
  C  C195  1  0.047700  0.669900  0.597500  1.0  -0.0168
  C  C196  1  0.561600  0.980600  0.180800  1.0  -0.1069
  C  C197  1  0.763300  0.028900  0.747300  1.0  0.1669
  C  C198  1  0.200900  0.969300  0.566300  1.0  -0.0823
  C  C199  1  0.025100  0.736300  0.352500  1.0  0.7124
  C  C200  1  0.019400  0.723000  0.819200  1.0  -0.1073
  C  C201  1  0.263700  0.113900  0.647500  1.0  0.7107
  C  C202  1  0.647500  0.263700  0.113900  1.0  0.7109
  C  C203  1  0.018100  0.821300  0.357700  1.0  0.0339
  C  C204  1  0.630400  0.049400  0.618200  1.0  -0.098
  C  C205  1  0.642300  0.178700  0.197100  1.0  0.0347
  C  C206  1  0.974830  0.234730  0.618170  1.0  -0.1573
  C  C207  1  0.090890  0.637110  0.995290  1.0  0.7211
  C  C208  1  0.736500  0.030700  0.799100  1.0  -0.0809
  C  C209  1  0.747300  0.460500  0.763300  1.0  0.1669
  C  C210  1  0.980600  0.277000  0.180800  1.0  -0.1079
  C  C211  1  0.950600  0.381800  0.369600  1.0  -0.0981
  C  C212  1  0.948700  0.317100  0.459100  1.0  0.378
  C  C213  1  0.386350  0.750050  0.015350  1.0  -0.1625
  C  C214  1  0.200900  0.566300  0.263500  1.0  -0.0822
  C  C215  1  0.317100  0.275100  0.459100  1.0  0.3802
  C  C216  1  0.948700  0.275100  0.317100  1.0  0.3784
  C  C217  1  0.909110  0.723290  0.362890  1.0  0.7183
  C  C218  1  0.180800  0.980600  0.277000  1.0  -0.1097
  C  C219  1  0.352500  0.025100  0.736300  1.0  0.7148
  C  C220  1  0.352500  0.886100  0.025100  1.0  0.7131
  C  C221  1  0.540900  0.724900  0.051300  1.0  0.3807
  C  C222  1  0.723000  0.438400  0.819200  1.0  -0.1086
  C  C223  1  0.647500  0.113900  0.974900  1.0  0.7135
  C  C224  1  0.433700  0.030700  0.736500  1.0  -0.0802
  C  C225  1  0.252700  0.539500  0.236700  1.0  0.1668
  C  C226  1  0.197100  0.178700  0.981900  1.0  0.0336
  C  C227  1  0.684900  0.669900  0.047700  1.0  -0.0167
  C  C228  1  0.886100  0.352500  0.736300  1.0  0.7115
  C  C229  1  0.357700  0.802900  0.018100  1.0  0.0345
  C  C230  1  0.315100  0.952300  0.402500  1.0  -0.0173
  C  C231  1  0.723000  0.019400  0.438400  1.0  -0.1097
  C  C232  1  0.019400  0.819200  0.438400  1.0  -0.1051
  C  C233  1  0.618200  0.702000  0.630400  1.0  -0.1007
  C  C234  1  0.561600  0.180800  0.277000  1.0  -0.1091
  C  C235  1  0.702000  0.618200  0.049400  1.0  -0.1021
  C  C236  1  0.263700  0.647500  0.974900  1.0  0.7124
  C  C237  1  0.047700  0.597500  0.684900  1.0  -0.0156
  C  C238  1  0.025100  0.352500  0.886100  1.0  0.7138
  C  C239  1  0.637110  0.995290  0.090890  1.0  0.721
  C  C240  1  0.950600  0.369600  0.298000  1.0  -0.099
  C  C241  1  0.015350  0.848250  0.386350  1.0  -0.1609
  C  C242  1  0.736300  0.886100  0.352500  1.0  0.7136
  C  C243  1  0.974900  0.113900  0.263700  1.0  0.7143
  C  C244  1  0.909110  0.362890  0.004710  1.0  0.7201
  C  C245  1  0.750050  0.848250  0.015350  1.0  -0.1606
  C  C246  1  0.276710  0.995290  0.637110  1.0  0.7227
  C  C247  1  0.357700  0.018100  0.821300  1.0  0.0318
  C  C248  1  0.984650  0.249950  0.151750  1.0  -0.1621
  C  C249  1  0.821300  0.802900  0.357700  1.0  0.0341
  C  C250  1  0.381830  0.765270  0.827730  1.0  -0.1553
  C  C251  1  0.178700  0.197100  0.642300  1.0  0.0343
  C  C252  1  0.974900  0.263700  0.647500  1.0  0.7141
  C  C253  1  0.630400  0.618200  0.702000  1.0  -0.1005
  C  C254  1  0.724900  0.051300  0.540900  1.0  0.3791
  C  C255  1  0.381800  0.950600  0.298000  1.0  -0.0988
  C  C256  1  0.642300  0.981900  0.178700  1.0  0.0339
  C  C257  1  0.819200  0.723000  0.438400  1.0  -0.1066
  C  C258  1  0.981900  0.197100  0.178700  1.0  0.0342
  C  C259  1  0.236700  0.971100  0.252700  1.0  0.1667
  C  C260  1  0.848250  0.386350  0.015350  1.0  -0.1614
  C  C261  1  0.613650  0.984650  0.151750  1.0  -0.1619
  C  C262  1  0.974900  0.647500  0.113900  1.0  0.7128
  C  C263  1  0.459100  0.948700  0.317100  1.0  0.3805
  C  C264  1  0.736500  0.799100  0.433700  1.0  -0.0817
  C  C265  1  0.909110  0.004710  0.723290  1.0  0.7188
  C  C266  1  0.995290  0.090890  0.637110  1.0  0.7218
  C  C267  1  0.249950  0.984650  0.613650  1.0  -0.1624
  C  C268  1  0.030700  0.799100  0.736500  1.0  -0.0813
  C  C269  1  0.249950  0.151750  0.984650  1.0  -0.1604
  C  C270  1  0.669900  0.684900  0.597500  1.0  -0.0173
  C  C271  1  0.971100  0.252700  0.236700  1.0  0.166
  C  C272  1  0.566300  0.263500  0.200900  1.0  -0.0792
  C  C273  1  0.723000  0.819200  0.019400  1.0  -0.1065
  C  C274  1  0.004710  0.909110  0.362890  1.0  0.7213
  C  C275  1  0.015350  0.750050  0.848250  1.0  -0.1621
  C  C276  1  0.702000  0.049400  0.630400  1.0  -0.0992
  C  C277  1  0.736300  0.352500  0.025100  1.0  0.7116
  C  C278  1  0.015350  0.386350  0.750050  1.0  -0.1625
  C  C279  1  0.438400  0.819200  0.723000  1.0  -0.1082
  C  C280  1  0.952300  0.330100  0.402500  1.0  -0.0171
  C  C281  1  0.971100  0.539500  0.252700  1.0  0.167
  C  C282  1  0.763300  0.460500  0.028900  1.0  0.1665
  C  C283  1  0.051300  0.724900  0.682900  1.0  0.3793
  C  C284  1  0.180800  0.277000  0.561600  1.0  -0.1069
  C  C285  1  0.178700  0.981900  0.197100  1.0  0.0338
  C  C286  1  0.647500  0.974900  0.263700  1.0  0.7139
  C  C287  1  0.747300  0.763300  0.028900  1.0  0.1667
  C  C288  1  0.236700  0.252700  0.539500  1.0  0.1669
  C  C289  1  0.113900  0.974900  0.647500  1.0  0.7128
  C  C290  1  0.402500  0.952300  0.330100  1.0  -0.0169
  C  C291  1  0.317100  0.459100  0.948700  1.0  0.3795
  C  C292  1  0.819200  0.019400  0.723000  1.0  -0.1106
  C  C293  1  0.540900  0.051300  0.682900  1.0  0.3804
  C  C294  1  0.298000  0.381800  0.950600  1.0  -0.0991
  C  C295  1  0.827730  0.765270  0.025170  1.0  -0.1549
  C  C296  1  0.025100  0.886100  0.736300  1.0  0.713
  C  C297  1  0.540900  0.682900  0.724900  1.0  0.3786
  C  C298  1  0.723290  0.909110  0.004710  1.0  0.7222
  C  C299  1  0.151750  0.249950  0.613650  1.0  -0.1617
  C  C300  1  0.362890  0.004710  0.909110  1.0  0.7228
  C  C301  1  0.263500  0.200900  0.566300  1.0  -0.0791
  C  C302  1  0.028900  0.460500  0.747300  1.0  0.1664
  C  C303  1  0.298000  0.369600  0.381800  1.0  -0.0991
  C  C304  1  0.151750  0.613650  0.984650  1.0  -0.1616
  C  C305  1  0.018100  0.357700  0.802900  1.0  0.0353
  C  C306  1  0.827730  0.381830  0.765270  1.0  -0.1545
  C  C307  1  0.438400  0.723000  0.019400  1.0  -0.1071
  C  C308  1  0.969300  0.263500  0.566300  1.0  -0.0784
  C  C309  1  0.178700  0.642300  0.981900  1.0  0.035
  C  C310  1  0.618200  0.049400  0.702000  1.0  -0.0983
  C  C311  1  0.597500  0.669900  0.684900  1.0  -0.0168
  C  C312  1  0.369600  0.950600  0.381800  1.0  -0.0992
  C  C313  1  0.234730  0.618170  0.974830  1.0  -0.1546
  C  C314  1  0.539500  0.971100  0.236700  1.0  0.1673
  C  C315  1  0.802900  0.018100  0.357700  1.0  0.0337
  C  C316  1  0.886100  0.025100  0.352500  1.0  0.7119
  C  C317  1  0.402500  0.330100  0.315100  1.0  -0.016
  C  C318  1  0.799100  0.736500  0.030700  1.0  -0.0785
  C  C319  1  0.539500  0.236700  0.252700  1.0  0.1666
  C  C320  1  0.315100  0.330100  0.952300  1.0  -0.0169
  C  C321  1  0.172270  0.618170  0.234730  1.0  -0.1547
  C  C322  1  0.597500  0.684900  0.047700  1.0  -0.0172
  C  C323  1  0.113900  0.647500  0.263700  1.0  0.7111
  C  C324  1  0.047700  0.684900  0.669900  1.0  -0.0174
  C  C325  1  0.277000  0.561600  0.180800  1.0  -0.1087
  C  C326  1  0.763300  0.747300  0.460500  1.0  0.1669
  C  C327  1  0.618170  0.234730  0.172270  1.0  -0.1548
  C  C328  1  0.886100  0.736300  0.025100  1.0  0.7115
  C  C329  1  0.317100  0.948700  0.275100  1.0  0.3809
  C  C330  1  0.802900  0.821300  0.018100  1.0  0.0344
  C  C331  1  0.386350  0.848250  0.750050  1.0  -0.1604
  C  C332  1  0.952300  0.315100  0.330100  1.0  -0.0171
  C  C333  1  0.352500  0.736300  0.886100  1.0  0.7129
  C  C334  1  0.460500  0.763300  0.747300  1.0  0.1665
  C  C335  1  0.539500  0.252700  0.971100  1.0  0.1668
  C  C336  1  0.151750  0.984650  0.249950  1.0  -0.1613
  C  C337  1  0.025170  0.827730  0.765270  1.0  -0.155
  C  C338  1  0.819200  0.438400  0.019400  1.0  -0.1108
  C  C339  1  0.747300  0.028900  0.460500  1.0  0.1669
  C  C340  1  0.637110  0.276710  0.995290  1.0  0.7207
  C  C341  1  0.682900  0.540900  0.051300  1.0  0.379
  C  C342  1  0.642300  0.197100  0.981900  1.0  0.0352
  C  C343  1  0.981900  0.178700  0.642300  1.0  0.034
  C  C344  1  0.848250  0.750050  0.386350  1.0  -0.1612
  C  C345  1  0.381800  0.298000  0.369600  1.0  -0.1018
  C  C346  1  0.799100  0.030700  0.433700  1.0  -0.0804
  C  C347  1  0.980600  0.561600  0.277000  1.0  -0.1057
  C  C348  1  0.263700  0.974900  0.113900  1.0  0.7143
  C  C349  1  0.460500  0.747300  0.028900  1.0  0.1669
  C  C350  1  0.618170  0.974830  0.234730  1.0  -0.156
  C  C351  1  0.357700  0.821300  0.802900  1.0  0.0346
  C  C352  1  0.765270  0.025170  0.827730  1.0  -0.1569
  C  C353  1  0.669900  0.047700  0.684900  1.0  -0.0184
  C  C354  1  0.019400  0.438400  0.723000  1.0  -0.1051
  C  C355  1  0.438400  0.019400  0.819200  1.0  -0.1074
  C  C356  1  0.025170  0.765270  0.381830  1.0  -0.1565
  C  C357  1  0.802900  0.357700  0.821300  1.0  0.036
  C  C358  1  0.637110  0.090890  0.276710  1.0  0.7206
  C  C359  1  0.969300  0.200900  0.263500  1.0  -0.082
  C  C360  1  0.276710  0.090890  0.995290  1.0  0.7205
  C  C361  1  0.981900  0.642300  0.197100  1.0  0.0354
  C  C362  1  0.381830  0.827730  0.025170  1.0  -0.1547
  C  C363  1  0.459100  0.275100  0.948700  1.0  0.38
  C  C364  1  0.433700  0.736500  0.799100  1.0  -0.0788
  C  C365  1  0.330100  0.952300  0.315100  1.0  -0.0164
  C  C366  1  0.113900  0.263700  0.974900  1.0  0.7123
  C  C367  1  0.974830  0.618170  0.172270  1.0  -0.155
  C  C368  1  0.950600  0.298000  0.381800  1.0  -0.1001
  C  C369  1  0.180800  0.561600  0.980600  1.0  -0.1086
  C  C370  1  0.263500  0.969300  0.200900  1.0  -0.0785
  C  C371  1  0.724900  0.540900  0.682900  1.0  0.3814
  C  C372  1  0.597500  0.047700  0.669900  1.0  -0.0169
  C  C373  1  0.051300  0.682900  0.540900  1.0  0.3788
  C  C374  1  0.848250  0.015350  0.750050  1.0  -0.1617
  C  C375  1  0.750050  0.015350  0.386350  1.0  -0.1623
  C  C376  1  0.995290  0.276710  0.090890  1.0  0.7214
  C  C377  1  0.799100  0.433700  0.736500  1.0  -0.0817
  C  C378  1  0.275100  0.459100  0.317100  1.0  0.3772
  C  C379  1  0.200900  0.263500  0.969300  1.0  -0.0793
  C  C380  1  0.702000  0.630400  0.618200  1.0  -0.0999
  C  C381  1  0.330100  0.402500  0.952300  1.0  -0.0158
  C  C382  1  0.402500  0.315100  0.952300  1.0  -0.0175
  C  C383  1  0.984650  0.151750  0.613650  1.0  -0.1608
  C  C384  1  0.971100  0.236700  0.539500  1.0  0.1668
  C  C385  1  0.724900  0.682900  0.051300  1.0  0.378
  C  C386  1  0.362890  0.909110  0.723290  1.0  0.721
  C  C387  1  0.252700  0.971100  0.539500  1.0  0.1669
  C  C388  1  0.172270  0.974830  0.618170  1.0  -0.1549
  C  C389  1  0.433700  0.799100  0.030700  1.0  -0.0805
  C  C390  1  0.263500  0.566300  0.969300  1.0  -0.0789
  C  C391  1  0.197100  0.981900  0.642300  1.0  0.0328
  C  C392  1  0.684900  0.047700  0.597500  1.0  -0.0174
  C  C393  1  0.369600  0.381800  0.298000  1.0  -0.0998
  C  C394  1  0.821300  0.018100  0.802900  1.0  0.0345
  C  C395  1  0.566300  0.200900  0.969300  1.0  -0.0823
  C  C396  1  0.669900  0.597500  0.047700  1.0  -0.0155
  C  C397  1  0.723290  0.004710  0.362890  1.0  0.7211
  C  C398  1  0.613650  0.151750  0.249950  1.0  -0.1604
  C  C399  1  0.234730  0.172270  0.618170  1.0  -0.154
  C  C400  1  0.049400  0.630400  0.702000  1.0  -0.0993
  C  C401  1  0.276710  0.637110  0.090890  1.0  0.7211
  C  C402  1  0.980600  0.180800  0.561600  1.0  -0.1065
  C  C403  1  0.028900  0.747300  0.763300  1.0  0.1666
  C  C404  1  0.277000  0.980600  0.561600  1.0  -0.1068
  C  C405  1  0.613650  0.249950  0.984650  1.0  -0.1617
  C  C406  1  0.682900  0.051300  0.724900  1.0  0.3805
  C  C407  1  0.315100  0.402500  0.330100  1.0  -0.0166
  C  C408  1  0.275100  0.948700  0.459100  1.0  0.3772
  N  N409  1  0.282500  0.967700  0.485700  1.0  -0.395
  N  N410  1  0.485700  0.264100  0.282500  1.0  -0.3962
  N  N411  1  0.282500  0.485700  0.264100  1.0  -0.395
  N  N412  1  0.717500  0.032300  0.514300  1.0  -0.3953
  N  N413  1  0.264100  0.967700  0.282500  1.0  -0.3955
  N  N414  1  0.735900  0.514300  0.032300  1.0  -0.3959
  N  N415  1  0.264100  0.485700  0.967700  1.0  -0.3973
  N  N416  1  0.735900  0.032300  0.717500  1.0  -0.3957
  N  N417  1  0.282500  0.264100  0.967700  1.0  -0.396
  N  N418  1  0.514300  0.717500  0.032300  1.0  -0.3939
  N  N419  1  0.032300  0.514300  0.717500  1.0  -0.3956
  N  N420  1  0.967700  0.282500  0.264100  1.0  -0.3946
  N  N421  1  0.967700  0.264100  0.485700  1.0  -0.3943
  N  N422  1  0.514300  0.735900  0.717500  1.0  -0.3953
  N  N423  1  0.967700  0.485700  0.282500  1.0  -0.3944
  N  N424  1  0.717500  0.514300  0.735900  1.0  -0.3959
  N  N425  1  0.485700  0.967700  0.264100  1.0  -0.3949
  N  N426  1  0.717500  0.735900  0.032300  1.0  -0.3962
  N  N427  1  0.735900  0.717500  0.514300  1.0  -0.3945
  N  N428  1  0.514300  0.032300  0.735900  1.0  -0.3954
  N  N429  1  0.032300  0.717500  0.735900  1.0  -0.3948
  N  N430  1  0.032300  0.735900  0.514300  1.0  -0.396
  N  N431  1  0.264100  0.282500  0.485700  1.0  -0.3934
  N  N432  1  0.485700  0.282500  0.967700  1.0  -0.3943
  O  O433  1  0.931800  0.239000  0.350000  1.0  -0.3978
  O  O434  1  0.390370  0.677210  0.001590  1.0  -0.5649
  O  O435  1  0.750670  0.931950  0.001690  1.0  -0.618
  O  O436  1  0.930830  0.390370  0.001590  1.0  -0.5645
  O  O437  1  0.677210  0.001590  0.390370  1.0  -0.5652
  O  O438  1  0.322790  0.998410  0.609630  1.0  -0.5651
  O  O439  1  0.908180  0.687920  0.025080  1.0  -0.6265
  O  O440  1  0.068200  0.650000  0.520800  1.0  -0.3991
  O  O441  1  0.479200  0.931800  0.350000  1.0  -0.4005
  O  O442  1  0.304740  0.907400  0.023960  1.0  -0.5878
  O  O443  1  0.249330  0.068050  0.998310  1.0  -0.6172
  O  O444  1  0.998410  0.069170  0.609630  1.0  -0.563
  O  O445  1  0.621180  0.091820  0.974920  1.0  -0.6251
  O  O446  1  0.479200  0.350000  0.239000  1.0  -0.3987
  O  O447  1  0.695260  0.092600  0.976040  1.0  -0.5868
  O  O448  1  0.974920  0.091820  0.312080  1.0  -0.6257
  O  O449  1  0.239000  0.931800  0.479200  1.0  -0.397
  O  O450  1  0.378820  0.687920  0.908180  1.0  -0.6264
  O  O451  1  0.931950  0.315690  0.001690  1.0  -0.6187
  O  O452  1  0.763900  0.907400  0.304740  1.0  -0.5873
  O  O453  1  0.091820  0.621180  0.312080  1.0  -0.6235
  O  O454  1  0.931950  0.750670  0.315690  1.0  -0.6176
  O  O455  1  0.908180  0.025080  0.378820  1.0  -0.624
  O  O456  1  0.378820  0.025080  0.687920  1.0  -0.6249
  O  O457  1  0.390370  0.001590  0.930830  1.0  -0.5653
  O  O458  1  0.930830  0.001590  0.677210  1.0  -0.5633
  O  O459  1  0.687920  0.908180  0.378820  1.0  -0.6257
  O  O460  1  0.908180  0.378820  0.687920  1.0  -0.6254
  O  O461  1  0.236100  0.092600  0.695260  1.0  -0.5874
  O  O462  1  0.907400  0.023960  0.304740  1.0  -0.5861
  O  O463  1  0.974920  0.621180  0.091820  1.0  -0.6247
  O  O464  1  0.350000  0.479200  0.931800  1.0  -0.3946
  O  O465  1  0.976040  0.236100  0.695260  1.0  -0.5883
  O  O466  1  0.315690  0.931950  0.750670  1.0  -0.6174
  O  O467  1  0.001590  0.677210  0.930830  1.0  -0.5651
  O  O468  1  0.249330  0.998310  0.684310  1.0  -0.617
  O  O469  1  0.239000  0.350000  0.931800  1.0  -0.3975
  O  O470  1  0.684310  0.249330  0.998310  1.0  -0.6196
  O  O471  1  0.236100  0.976040  0.092600  1.0  -0.5867
  O  O472  1  0.001590  0.930830  0.390370  1.0  -0.5634
  O  O473  1  0.974920  0.312080  0.621180  1.0  -0.6242
  O  O474  1  0.695260  0.976040  0.236100  1.0  -0.5867
  O  O475  1  0.763900  0.304740  0.023960  1.0  -0.5873
  O  O476  1  0.315690  0.001690  0.931950  1.0  -0.6186
  O  O477  1  0.092600  0.976040  0.695260  1.0  -0.5859
  O  O478  1  0.763900  0.023960  0.907400  1.0  -0.5864
  O  O479  1  0.677210  0.930830  0.001590  1.0  -0.5656
  O  O480  1  0.069170  0.609630  0.998410  1.0  -0.5653
  O  O481  1  0.091820  0.974920  0.621180  1.0  -0.6246
  O  O482  1  0.750670  0.315690  0.931950  1.0  -0.6193
  O  O483  1  0.068050  0.249330  0.684310  1.0  -0.6179
  O  O484  1  0.068050  0.684310  0.998310  1.0  -0.6189
  O  O485  1  0.687920  0.025080  0.908180  1.0  -0.6254
  O  O486  1  0.621180  0.974920  0.312080  1.0  -0.6247
  O  O487  1  0.312080  0.091820  0.621180  1.0  -0.6254
  O  O488  1  0.312080  0.974920  0.091820  1.0  -0.6266
  O  O489  1  0.390370  0.930830  0.677210  1.0  -0.5641
  O  O490  1  0.520800  0.650000  0.761000  1.0  -0.3983
  O  O491  1  0.695260  0.236100  0.092600  1.0  -0.5884
  O  O492  1  0.023960  0.907400  0.763900  1.0  -0.5865
  O  O493  1  0.520800  0.761000  0.068200  1.0  -0.3986
  O  O494  1  0.350000  0.931800  0.239000  1.0  -0.399
  O  O495  1  0.907400  0.763900  0.023960  1.0  -0.5874
  O  O496  1  0.520800  0.068200  0.650000  1.0  -0.3965
  O  O497  1  0.609630  0.322790  0.998410  1.0  -0.5652
  O  O498  1  0.068200  0.761000  0.650000  1.0  -0.3979
  O  O499  1  0.761000  0.068200  0.520800  1.0  -0.3976
  O  O500  1  0.650000  0.761000  0.520800  1.0  -0.3979
  O  O501  1  0.378820  0.908180  0.025080  1.0  -0.6245
  O  O502  1  0.025080  0.908180  0.687920  1.0  -0.6253
  O  O503  1  0.609630  0.069170  0.322790  1.0  -0.5657
  O  O504  1  0.001690  0.931950  0.315690  1.0  -0.6178
  O  O505  1  0.092600  0.236100  0.976040  1.0  -0.587
  O  O506  1  0.069170  0.998410  0.322790  1.0  -0.5638
  O  O507  1  0.684310  0.068050  0.249330  1.0  -0.618
  O  O508  1  0.001690  0.315690  0.750670  1.0  -0.6181
  O  O509  1  0.621180  0.312080  0.091820  1.0  -0.6266
  O  O510  1  0.322790  0.609630  0.069170  1.0  -0.5656
  O  O511  1  0.907400  0.304740  0.763900  1.0  -0.5871
  O  O512  1  0.236100  0.695260  0.976040  1.0  -0.5878
  O  O513  1  0.001690  0.750670  0.931950  1.0  -0.6175
  O  O514  1  0.239000  0.479200  0.350000  1.0  -0.399
  O  O515  1  0.304740  0.763900  0.907400  1.0  -0.5888
  O  O516  1  0.609630  0.998410  0.069170  1.0  -0.5653
  O  O517  1  0.025080  0.687920  0.378820  1.0  -0.6243
  O  O518  1  0.931950  0.001690  0.750670  1.0  -0.6184
  O  O519  1  0.761000  0.520800  0.650000  1.0  -0.3973
  O  O520  1  0.930830  0.677210  0.390370  1.0  -0.5653
  O  O521  1  0.068050  0.998310  0.249330  1.0  -0.6185
  O  O522  1  0.312080  0.621180  0.974920  1.0  -0.6271
  O  O523  1  0.650000  0.520800  0.068200  1.0  -0.3964
  O  O524  1  0.092600  0.695260  0.236100  1.0  -0.5878
  O  O525  1  0.650000  0.068200  0.761000  1.0  -0.3982
  O  O526  1  0.931800  0.479200  0.239000  1.0  -0.3951
  O  O527  1  0.023960  0.304740  0.907400  1.0  -0.5851
  O  O528  1  0.304740  0.023960  0.763900  1.0  -0.5873
  O  O529  1  0.998310  0.684310  0.249330  1.0  -0.6172
  O  O530  1  0.677210  0.390370  0.930830  1.0  -0.5656
  O  O531  1  0.998310  0.068050  0.684310  1.0  -0.6182
  O  O532  1  0.068200  0.520800  0.761000  1.0  -0.3999
  O  O533  1  0.998410  0.609630  0.322790  1.0  -0.5663
  O  O534  1  0.998410  0.322790  0.069170  1.0  -0.5637
  O  O535  1  0.761000  0.650000  0.068200  1.0  -0.4007
  O  O536  1  0.322790  0.069170  0.998410  1.0  -0.5648
  O  O537  1  0.069170  0.322790  0.609630  1.0  -0.5637
  O  O538  1  0.025080  0.378820  0.908180  1.0  -0.6251
  O  O539  1  0.249330  0.684310  0.068050  1.0  -0.6187
  O  O540  1  0.976040  0.695260  0.092600  1.0  -0.5856
  O  O541  1  0.315690  0.750670  0.001690  1.0  -0.6196
  O  O542  1  0.479200  0.239000  0.931800  1.0  -0.3971
  O  O543  1  0.091820  0.312080  0.974920  1.0  -0.6258
  O  O544  1  0.684310  0.998310  0.068050  1.0  -0.6185
  O  O545  1  0.350000  0.239000  0.479200  1.0  -0.4002
  O  O546  1  0.976040  0.092600  0.236100  1.0  -0.5857
  O  O547  1  0.931800  0.350000  0.479200  1.0  -0.3979
  O  O548  1  0.998310  0.249330  0.068050  1.0  -0.6189
  O  O549  1  0.001590  0.390370  0.677210  1.0  -0.5647
  O  O550  1  0.750670  0.001690  0.315690  1.0  -0.6177
  O  O551  1  0.687920  0.378820  0.025080  1.0  -0.6254
  O  O552  1  0.023960  0.763900  0.304740  1.0  -0.588
