# generated using pymatgen
data_FeHC4O5
_symmetry_space_group_name_H-M   'P 1'
_cell_length_a   6.96660000
_cell_length_b   14.91450000
_cell_length_c   14.91450000
_cell_angle_alpha   62.37800000
_cell_angle_beta   81.04260000
_cell_angle_gamma   98.95740000
_symmetry_Int_Tables_number   1
_chemical_formula_structural   FeHC4O5
_chemical_formula_sum   'Fe6 H6 C24 O30'
_cell_volume   1309.51592554
_cell_formula_units_Z   6
loop_
 _symmetry_equiv_pos_site_id
 _symmetry_equiv_pos_as_xyz
  1  'x, y, z'
loop_
 _atom_site_type_symbol
 _atom_site_label
 _atom_site_symmetry_multiplicity
 _atom_site_fract_x
 _atom_site_fract_y
 _atom_site_fract_z
 _atom_site_occupancy
 _atom_site_charge
  Fe  Fe1  1  0.795080  0.258650  0.316510  1.0  1.1316
  Fe  Fe2  1  0.204920  0.741350  0.683490  1.0  1.1321
  Fe  Fe3  1  0.888410  0.683490  0.575160  1.0  1.1339
  Fe  Fe4  1  0.111590  0.316510  0.424840  1.0  1.131
  Fe  Fe5  1  0.536430  0.424840  0.258650  1.0  1.1289
  Fe  Fe6  1  0.463570  0.575160  0.741350  1.0  1.1299
  H  H7  1  0.815900  0.466900  0.545700  1.0  0.2321
  H  H8  1  0.638400  0.454300  0.012600  1.0  0.2309
  H  H9  1  0.349000  0.987400  0.466900  1.0  0.2311
  H  H10  1  0.361600  0.545700  0.987400  1.0  0.2303
  H  H11  1  0.184100  0.533100  0.454300  1.0  0.2314
  H  H12  1  0.651000  0.012600  0.533100  1.0  0.2308
  C  C13  1  0.157500  0.086600  0.448100  1.0  -0.0318
  C  C14  1  0.861500  0.433200  0.100400  1.0  0.3978
  C  C15  1  0.070900  0.465300  0.086600  1.0  -0.032
  C  C16  1  0.208300  0.531800  0.990000  1.0  0.01
  C  C17  1  0.676500  0.478200  0.531800  1.0  0.0114
  C  C18  1  0.961900  0.100400  0.466400  1.0  0.3975
  C  C19  1  0.344400  0.178900  0.388900  1.0  0.7912
  C  C20  1  0.038100  0.899600  0.533600  1.0  0.3969
  C  C21  1  0.266700  0.611100  0.567800  1.0  0.7927
  C  C22  1  0.801700  0.010000  0.521800  1.0  0.0096
  C  C23  1  0.733300  0.388900  0.432200  1.0  0.7922
  C  C24  1  0.842500  0.913400  0.551900  1.0  -0.0316
  C  C25  1  0.834500  0.567800  0.821100  1.0  0.7926
  C  C26  1  0.571700  0.533600  0.566800  1.0  0.4018
  C  C27  1  0.394400  0.551900  0.534700  1.0  -0.0325
  C  C28  1  0.791700  0.468200  0.010000  1.0  0.0087
  C  C29  1  0.323500  0.521800  0.468200  1.0  0.0103
  C  C30  1  0.929100  0.534700  0.913400  1.0  -0.0333
  C  C31  1  0.655600  0.821100  0.611100  1.0  0.7922
  C  C32  1  0.198300  0.990000  0.478200  1.0  0.0091
  C  C33  1  0.428300  0.466400  0.433200  1.0  0.4016
  C  C34  1  0.165500  0.432200  0.178900  1.0  0.7916
  C  C35  1  0.605600  0.448100  0.465300  1.0  -0.0334
  C  C36  1  0.138500  0.566800  0.899600  1.0  0.3986
  O  O37  1  0.642400  0.538600  0.843200  1.0  -0.495
  O  O38  1  0.514400  0.156800  0.381800  1.0  -0.4928
  O  O39  1  0.763400  0.551700  0.229000  1.0  -0.4655
  O  O40  1  0.788300  0.780700  0.448300  1.0  -0.4633
  O  O41  1  0.896200  0.381800  0.461400  1.0  -0.4924
  O  O42  1  0.836200  0.155300  0.260200  1.0  -0.4371
  O  O43  1  0.274900  0.630300  0.802900  1.0  -0.6006
  O  O44  1  0.668200  0.341300  0.386700  1.0  -0.5501
  O  O45  1  0.319100  0.415500  0.844700  1.0  -0.4142
  O  O46  1  0.485600  0.843200  0.618200  1.0  -0.4939
  O  O47  1  0.163800  0.844700  0.739800  1.0  -0.436
  O  O48  1  0.355400  0.433200  0.369700  1.0  -0.602
  O  O49  1  0.096400  0.260200  0.584500  1.0  -0.4152
  O  O50  1  0.992400  0.229000  0.219300  1.0  -0.462
  O  O51  1  0.903600  0.739800  0.415500  1.0  -0.4151
  O  O52  1  0.725100  0.369700  0.197100  1.0  -0.6011
  O  O53  1  0.673100  0.728000  0.658700  1.0  -0.5514
  O  O54  1  0.054900  0.386700  0.272000  1.0  -0.5521
  O  O55  1  0.945100  0.613300  0.728000  1.0  -0.5507
  O  O56  1  0.680900  0.584500  0.155300  1.0  -0.416
  O  O57  1  0.236600  0.448300  0.771000  1.0  -0.4638
  O  O58  1  0.644600  0.566800  0.630300  1.0  -0.6018
  O  O59  1  0.357600  0.461400  0.156800  1.0  -0.4934
  O  O60  1  0.331800  0.658700  0.613300  1.0  -0.5503
  O  O61  1  0.007600  0.771000  0.780700  1.0  -0.4633
  O  O62  1  0.211700  0.219300  0.551700  1.0  -0.4635
  O  O63  1  0.326900  0.272000  0.341300  1.0  -0.5503
  O  O64  1  0.077800  0.802900  0.566800  1.0  -0.6002
  O  O65  1  0.103800  0.618200  0.538600  1.0  -0.4925
  O  O66  1  0.922200  0.197100  0.433200  1.0  -0.5999
