# generated using pymatgen
data_FeHC4O3
_symmetry_space_group_name_H-M   'P 1'
_cell_length_a   6.84230000
_cell_length_b   15.27630000
_cell_length_c   15.27630000
_cell_angle_alpha   62.18850000
_cell_angle_beta   81.41360000
_cell_angle_gamma   98.58640000
_symmetry_Int_Tables_number   1
_chemical_formula_structural   FeHC4O3
_chemical_formula_sum   'Fe6 H6 C24 O18'
_cell_volume   1352.00654937
_cell_formula_units_Z   6
loop_
 _symmetry_equiv_pos_site_id
 _symmetry_equiv_pos_as_xyz
  1  'x, y, z'
loop_
 _atom_site_type_symbol
 _atom_site_label
 _atom_site_symmetry_multiplicity
 _atom_site_fract_x
 _atom_site_fract_y
 _atom_site_fract_z
 _atom_site_occupancy
 _atom_site_charge
  Fe  Fe1  1  0.521900  0.413600  0.266700  1.0  0.9864
  Fe  Fe2  1  0.788600  0.266700  0.319700  1.0  0.9876
  Fe  Fe3  1  0.211400  0.733300  0.680300  1.0  0.9878
  Fe  Fe4  1  0.478100  0.586400  0.733300  1.0  0.9853
  Fe  Fe5  1  0.108300  0.319700  0.413600  1.0  0.9887
  Fe  Fe6  1  0.891700  0.680300  0.586400  1.0  0.9882
  H  H7  1  0.643300  0.447600  0.019700  1.0  0.157
  H  H8  1  0.195700  0.532700  0.447600  1.0  0.1605
  H  H9  1  0.337000  0.980300  0.467300  1.0  0.1576
  H  H10  1  0.804300  0.467300  0.552400  1.0  0.1591
  H  H11  1  0.663000  0.019700  0.532700  1.0  0.1591
  H  H12  1  0.356700  0.552400  0.980300  1.0  0.1572
  C  C13  1  0.793800  0.008600  0.524600  1.0  -0.0479
  C  C14  1  0.785200  0.466800  0.008600  1.0  -0.0491
  C  C15  1  0.255300  0.609800  0.562600  1.0  0.6523
  C  C16  1  0.132900  0.565600  0.898400  1.0  0.2223
  C  C17  1  0.968700  0.101600  0.464000  1.0  0.2204
  C  C18  1  0.088100  0.464000  0.081100  1.0  -0.1194
  C  C19  1  0.744700  0.390200  0.437400  1.0  0.6531
  C  C20  1  0.432700  0.464000  0.434400  1.0  0.2232
  C  C21  1  0.645500  0.827600  0.609800  1.0  0.6527
  C  C22  1  0.681600  0.475400  0.533200  1.0  -0.0487
  C  C23  1  0.567300  0.536000  0.565600  1.0  0.2225
  C  C24  1  0.911900  0.536000  0.918900  1.0  -0.119
  C  C25  1  0.318400  0.524600  0.466800  1.0  -0.0503
  C  C26  1  0.169200  0.081100  0.454900  1.0  -0.1194
  C  C27  1  0.817900  0.562600  0.827600  1.0  0.656
  C  C28  1  0.624100  0.454900  0.464000  1.0  -0.1194
  C  C29  1  0.830800  0.918900  0.545100  1.0  -0.1188
  C  C30  1  0.182100  0.437400  0.172400  1.0  0.6568
  C  C31  1  0.206200  0.991400  0.475400  1.0  -0.049
  C  C32  1  0.375900  0.545100  0.536000  1.0  -0.1178
  C  C33  1  0.354500  0.172400  0.390200  1.0  0.6532
  C  C34  1  0.214800  0.533200  0.991400  1.0  -0.0481
  C  C35  1  0.867100  0.434400  0.101600  1.0  0.2225
  C  C36  1  0.031300  0.898400  0.536000  1.0  0.2209
  O  O37  1  0.270600  0.631400  0.807300  1.0  -0.633
  O  O38  1  0.360800  0.438700  0.368600  1.0  -0.6319
  O  O39  1  0.479800  0.858100  0.624400  1.0  -0.6029
  O  O40  1  0.621700  0.517500  0.858100  1.0  -0.5991
  O  O41  1  0.331300  0.262300  0.360100  1.0  -0.6198
  O  O42  1  0.077900  0.807300  0.561300  1.0  -0.6321
  O  O43  1  0.104200  0.624400  0.517500  1.0  -0.6041
  O  O44  1  0.069000  0.377600  0.262300  1.0  -0.6213
  O  O45  1  0.668700  0.737700  0.639900  1.0  -0.6203
  O  O46  1  0.308600  0.639900  0.622400  1.0  -0.6203
  O  O47  1  0.639200  0.561300  0.631400  1.0  -0.6333
  O  O48  1  0.895800  0.375600  0.482500  1.0  -0.6026
  O  O49  1  0.691400  0.360100  0.377600  1.0  -0.6196
  O  O50  1  0.729400  0.368600  0.192700  1.0  -0.632
  O  O51  1  0.922100  0.192700  0.438700  1.0  -0.6323
  O  O52  1  0.378300  0.482500  0.141900  1.0  -0.5976
  O  O53  1  0.931000  0.622400  0.737700  1.0  -0.6195
  O  O54  1  0.520200  0.141900  0.375600  1.0  -0.6016
