# generated using pymatgen
data_CuH9C14NO5
_symmetry_space_group_name_H-M   'P 1'
_cell_length_a   15.69980000
_cell_length_b   15.69980000
_cell_length_c   15.69980000
_cell_angle_alpha   71.99930000
_cell_angle_beta   71.99930000
_cell_angle_gamma   71.99930000
_symmetry_Int_Tables_number   1
_chemical_formula_structural   CuH9C14NO5
_chemical_formula_sum   'Cu6 H54 C84 N6 O30'
_cell_volume   3401.25632153
_cell_formula_units_Z   6
loop_
 _symmetry_equiv_pos_site_id
 _symmetry_equiv_pos_as_xyz
  1  'x, y, z'
loop_
 _atom_site_type_symbol
 _atom_site_label
 _atom_site_symmetry_multiplicity
 _atom_site_fract_x
 _atom_site_fract_y
 _atom_site_fract_z
 _atom_site_occupancy
 _atom_site_charge
  Cu  Cu1  1  0.945950  0.516650  0.944450  1.0  0.8701
  Cu  Cu2  1  0.516650  0.944450  0.945950  1.0  0.8696
  Cu  Cu3  1  0.054050  0.483350  0.055550  1.0  0.8678
  Cu  Cu4  1  0.944450  0.945950  0.516650  1.0  0.8687
  Cu  Cu5  1  0.055550  0.054050  0.483350  1.0  0.8682
  Cu  Cu6  1  0.483350  0.055550  0.054050  1.0  0.8699
  H  H7  1  0.344800  0.124600  0.228200  1.0  0.0856
  H  H8  1  0.198900  0.593900  0.330800  1.0  0.1048
  H  H9  1  0.228200  0.344800  0.124600  1.0  0.0861
  H  H10  1  0.878700  0.247500  0.654500  1.0  0.1159
  H  H11  1  0.760600  0.123400  0.337400  1.0  0.1016
  H  H12  1  0.261300  0.968600  0.250700  1.0  0.1116
  H  H13  1  0.337400  0.760600  0.123400  1.0  0.103
  H  H14  1  0.662600  0.239400  0.876600  1.0  0.1027
  H  H15  1  0.352900  0.718900  0.885300  1.0  0.0933
  H  H16  1  0.669200  0.801100  0.406100  1.0  0.1015
  H  H17  1  0.738700  0.031400  0.749300  1.0  0.1121
  H  H18  1  0.655200  0.875400  0.771800  1.0  0.0858
  H  H19  1  0.239400  0.876600  0.662600  1.0  0.1025
  H  H20  1  0.247500  0.654500  0.878700  1.0  0.1141
  H  H21  1  0.114700  0.647100  0.281100  1.0  0.0883
  H  H22  1  0.876600  0.662600  0.239400  1.0  0.1038
  H  H23  1  0.330800  0.198900  0.593900  1.0  0.1017
  H  H24  1  0.343800  0.183700  0.348600  1.0  0.0994
  H  H25  1  0.816200  0.916300  0.421100  1.0  0.1034
  H  H26  1  0.123400  0.337400  0.760600  1.0  0.1038
  H  H27  1  0.647100  0.281100  0.114700  1.0  0.0935
  H  H28  1  0.654500  0.878700  0.247500  1.0  0.1154
  H  H29  1  0.749300  0.738700  0.031400  1.0  0.1123
  H  H30  1  0.651400  0.656200  0.816300  1.0  0.0989
  H  H31  1  0.529300  0.750900  0.676600  1.0  0.0941
  H  H32  1  0.124600  0.228200  0.344800  1.0  0.0867
  H  H33  1  0.406100  0.669200  0.801100  1.0  0.101
  H  H34  1  0.281100  0.114700  0.647100  1.0  0.0915
  H  H35  1  0.593900  0.330800  0.198900  1.0  0.1039
  H  H36  1  0.421100  0.816200  0.916300  1.0  0.1011
  H  H37  1  0.676600  0.529300  0.750900  1.0  0.0931
  H  H38  1  0.470700  0.249100  0.323400  1.0  0.0942
  H  H39  1  0.083700  0.578900  0.183800  1.0  0.1033
  H  H40  1  0.250700  0.261300  0.968600  1.0  0.1125
  H  H41  1  0.875400  0.771800  0.655200  1.0  0.0861
  H  H42  1  0.121300  0.752500  0.345500  1.0  0.1157
  H  H43  1  0.885300  0.352900  0.718900  1.0  0.0902
  H  H44  1  0.031400  0.749300  0.738700  1.0  0.1116
  H  H45  1  0.968600  0.250700  0.261300  1.0  0.1121
  H  H46  1  0.771800  0.655200  0.875400  1.0  0.0863
  H  H47  1  0.345500  0.121300  0.752500  1.0  0.1153
  H  H48  1  0.752500  0.345500  0.121300  1.0  0.115
  H  H49  1  0.348600  0.343800  0.183700  1.0  0.0994
  H  H50  1  0.323400  0.470700  0.249100  1.0  0.0936
  H  H51  1  0.718900  0.885300  0.352900  1.0  0.091
  H  H52  1  0.750900  0.676600  0.529300  1.0  0.0925
  H  H53  1  0.183800  0.083700  0.578900  1.0  0.1032
  H  H54  1  0.816300  0.651400  0.656200  1.0  0.0988
  H  H55  1  0.656200  0.816300  0.651400  1.0  0.097
  H  H56  1  0.249100  0.323400  0.470700  1.0  0.093
  H  H57  1  0.578900  0.183800  0.083700  1.0  0.1016
  H  H58  1  0.916300  0.421100  0.816200  1.0  0.1011
  H  H59  1  0.183700  0.348600  0.343800  1.0  0.0993
  H  H60  1  0.801100  0.406100  0.669200  1.0  0.1044
  C  C61  1  0.391400  0.185600  0.293700  1.0  -0.1022
  C  C62  1  0.608600  0.814400  0.706300  1.0  -0.1024
  C  C63  1  0.379600  0.921300  0.112200  1.0  0.7036
  C  C64  1  0.310800  0.871100  0.173900  1.0  -0.1521
  C  C65  1  0.173900  0.310800  0.871100  1.0  -0.1523
  C  C66  1  0.723200  0.532900  0.775700  1.0  -0.0648
  C  C67  1  0.210500  0.828900  0.702300  1.0  -0.0987
  C  C68  1  0.385600  0.728700  0.819400  1.0  -0.0087
  C  C69  1  0.533600  0.228200  0.199800  1.0  0.0409
  C  C70  1  0.823900  0.126800  0.692000  1.0  -0.1303
  C  C71  1  0.128900  0.826100  0.689200  1.0  -0.1526
  C  C72  1  0.775700  0.723200  0.532900  1.0  -0.0634
  C  C73  1  0.076100  0.622100  0.886600  1.0  0.7026
  C  C74  1  0.886600  0.076100  0.622100  1.0  0.7043
  C  C75  1  0.692000  0.823900  0.126800  1.0  -0.1301
  C  C76  1  0.113400  0.923900  0.377900  1.0  0.7042
  C  C77  1  0.826100  0.689200  0.128900  1.0  -0.1528
  C  C78  1  0.746700  0.233500  0.230400  1.0  0.1431
  C  C79  1  0.078700  0.887800  0.620400  1.0  0.7044
  C  C80  1  0.150400  0.220600  0.394700  1.0  0.1654
  C  C81  1  0.112200  0.379600  0.921300  1.0  0.7032
  C  C82  1  0.779400  0.605300  0.849600  1.0  0.1656
  C  C83  1  0.085900  0.755600  0.747800  1.0  -0.0023
  C  C84  1  0.394700  0.150400  0.220600  1.0  0.1665
  C  C85  1  0.706300  0.608600  0.814400  1.0  -0.1046
  C  C86  1  0.769600  0.253300  0.766500  1.0  0.1424
  C  C87  1  0.467100  0.224300  0.276800  1.0  -0.0587
  C  C88  1  0.921300  0.112200  0.379600  1.0  0.7032
  C  C89  1  0.828900  0.702300  0.210500  1.0  -0.0979
  C  C90  1  0.771800  0.800200  0.466400  1.0  0.0436
  C  C91  1  0.887800  0.620400  0.078700  1.0  0.7034
  C  C92  1  0.176100  0.873200  0.308000  1.0  -0.1304
  C  C93  1  0.789500  0.171100  0.297700  1.0  -0.0963
  C  C94  1  0.814400  0.706300  0.608600  1.0  -0.1021
  C  C95  1  0.863600  0.471200  0.813400  1.0  0.0939
  C  C96  1  0.832800  0.217400  0.696600  1.0  -0.082
  C  C97  1  0.471200  0.813400  0.863600  1.0  0.094
  C  C98  1  0.755600  0.747800  0.085900  1.0  -0.007
  C  C99  1  0.696600  0.832800  0.217400  1.0  -0.0841
  C  C100  1  0.252200  0.914100  0.244400  1.0  -0.0053
  C  C101  1  0.308000  0.176100  0.873200  1.0  -0.1301
  C  C102  1  0.605300  0.849600  0.779400  1.0  0.1668
  C  C103  1  0.923900  0.377900  0.113400  1.0  0.7047
  C  C104  1  0.185600  0.293700  0.391400  1.0  -0.1018
  C  C105  1  0.217400  0.696600  0.832800  1.0  -0.0831
  C  C106  1  0.199800  0.533600  0.228200  1.0  0.0427
  C  C107  1  0.293700  0.391400  0.185600  1.0  -0.1047
  C  C108  1  0.914100  0.244400  0.252200  1.0  -0.0079
  C  C109  1  0.303400  0.167200  0.782600  1.0  -0.0821
  C  C110  1  0.620400  0.078700  0.887800  1.0  0.7034
  C  C111  1  0.782600  0.303400  0.167200  1.0  -0.0836
  C  C112  1  0.614400  0.271300  0.180600  1.0  -0.0086
  C  C113  1  0.167200  0.782600  0.303400  1.0  -0.0821
  C  C114  1  0.849600  0.779400  0.605300  1.0  0.1669
  C  C115  1  0.233500  0.230400  0.746700  1.0  0.1419
  C  C116  1  0.528800  0.186600  0.136400  1.0  0.0956
  C  C117  1  0.873200  0.308000  0.176100  1.0  -0.1298
  C  C118  1  0.180600  0.614400  0.271300  1.0  -0.0065
  C  C119  1  0.532900  0.775700  0.723200  1.0  -0.059
  C  C120  1  0.186600  0.136400  0.528800  1.0  0.0902
  C  C121  1  0.689200  0.128900  0.826100  1.0  -0.1521
  C  C122  1  0.622100  0.886600  0.076100  1.0  0.7034
  C  C123  1  0.126800  0.692000  0.823900  1.0  -0.1277
  C  C124  1  0.747800  0.085900  0.755600  1.0  -0.0073
  C  C125  1  0.297700  0.789500  0.171100  1.0  -0.0988
  C  C126  1  0.800200  0.466400  0.771800  1.0  0.0436
  C  C127  1  0.728700  0.819400  0.385600  1.0  -0.009
  C  C128  1  0.766500  0.769600  0.253300  1.0  0.1423
  C  C129  1  0.244400  0.252200  0.914100  1.0  -0.0083
  C  C130  1  0.220600  0.394700  0.150400  1.0  0.166
  C  C131  1  0.819400  0.385600  0.728700  1.0  -0.0057
  C  C132  1  0.271300  0.180600  0.614400  1.0  -0.0082
  C  C133  1  0.136400  0.528800  0.186600  1.0  0.095
  C  C134  1  0.230400  0.746700  0.233500  1.0  0.1405
  C  C135  1  0.228200  0.199800  0.533600  1.0  0.0434
  C  C136  1  0.871100  0.173900  0.310800  1.0  -0.1521
  C  C137  1  0.813400  0.863600  0.471200  1.0  0.097
  C  C138  1  0.466400  0.771800  0.800200  1.0  0.0416
  C  C139  1  0.702300  0.210500  0.828900  1.0  -0.0984
  C  C140  1  0.253300  0.766500  0.769600  1.0  0.1424
  C  C141  1  0.171100  0.297700  0.789500  1.0  -0.0975
  C  C142  1  0.276800  0.467100  0.224300  1.0  -0.0594
  C  C143  1  0.224300  0.276800  0.467100  1.0  -0.0643
  C  C144  1  0.377900  0.113400  0.923900  1.0  0.703
  N  N145  1  0.458400  0.148500  0.142000  1.0  -0.3781
  N  N146  1  0.148500  0.142000  0.458400  1.0  -0.3742
  N  N147  1  0.851500  0.858000  0.541600  1.0  -0.3745
  N  N148  1  0.541600  0.851500  0.858000  1.0  -0.3794
  N  N149  1  0.142000  0.458400  0.148500  1.0  -0.3754
  N  N150  1  0.858000  0.541600  0.851500  1.0  -0.3757
  O  O151  1  0.986800  0.389500  0.133700  1.0  -0.5188
  O  O152  1  0.865300  0.603000  0.019000  1.0  -0.556
  O  O153  1  0.866300  0.013200  0.610500  1.0  -0.5209
  O  O154  1  0.610500  0.866300  0.013200  1.0  -0.5206
  O  O155  1  0.110700  0.580300  0.957700  1.0  -0.5982
  O  O156  1  0.421800  0.888800  0.038900  1.0  -0.5941
  O  O157  1  0.957700  0.110700  0.580300  1.0  -0.5958
  O  O158  1  0.961100  0.578200  0.111200  1.0  -0.5931
  O  O159  1  0.889300  0.419700  0.042300  1.0  -0.5979
  O  O160  1  0.792900  0.766000  0.332200  1.0  -0.3413
  O  O161  1  0.578200  0.111200  0.961100  1.0  -0.5955
  O  O162  1  0.019000  0.865300  0.603000  1.0  -0.5562
  O  O163  1  0.397000  0.981000  0.134700  1.0  -0.5579
  O  O164  1  0.332200  0.792900  0.766000  1.0  -0.3417
  O  O165  1  0.888800  0.038900  0.421800  1.0  -0.5937
  O  O166  1  0.133700  0.986800  0.389500  1.0  -0.5212
  O  O167  1  0.042300  0.889300  0.419700  1.0  -0.595
  O  O168  1  0.419700  0.042300  0.889300  1.0  -0.5978
  O  O169  1  0.234000  0.667800  0.207100  1.0  -0.3427
  O  O170  1  0.134700  0.397000  0.981000  1.0  -0.5547
  O  O171  1  0.603000  0.019000  0.865300  1.0  -0.5582
  O  O172  1  0.580300  0.957700  0.110700  1.0  -0.5968
  O  O173  1  0.013200  0.610500  0.866300  1.0  -0.5188
  O  O174  1  0.389500  0.133700  0.986800  1.0  -0.5209
  O  O175  1  0.981000  0.134700  0.397000  1.0  -0.5566
  O  O176  1  0.766000  0.332200  0.792900  1.0  -0.3426
  O  O177  1  0.667800  0.207100  0.234000  1.0  -0.3388
  O  O178  1  0.038900  0.421800  0.888800  1.0  -0.593
  O  O179  1  0.207100  0.234000  0.667800  1.0  -0.3406
  O  O180  1  0.111200  0.961100  0.578200  1.0  -0.592
