# generated using pymatgen
data_MnCr2(CO2)12
_symmetry_space_group_name_H-M   'P 1'
_cell_length_a   16.03390000
_cell_length_b   19.41100000
_cell_length_c   19.41100000
_cell_angle_alpha   120.00000000
_cell_angle_beta   90.00000000
_cell_angle_gamma   90.00000000
_symmetry_Int_Tables_number   1
_chemical_formula_structural   MnCr2(CO2)12
_chemical_formula_sum   'Mn6 Cr12 C72 O144'
_cell_volume   5231.97453523
_cell_formula_units_Z   6
loop_
 _symmetry_equiv_pos_site_id
 _symmetry_equiv_pos_as_xyz
  1  'x, y, z'
loop_
 _atom_site_type_symbol
 _atom_site_label
 _atom_site_symmetry_multiplicity
 _atom_site_fract_x
 _atom_site_fract_y
 _atom_site_fract_z
 _atom_site_occupancy
 _atom_site_charge
  Mn  Mn1  1  0.750000  0.485210  0.514790  1.0  1.0102
  Mn  Mn2  1  0.250000  0.514790  0.485210  1.0  1.0103
  Mn  Mn3  1  0.916670  0.514790  0.029580  1.0  1.0101
  Mn  Mn4  1  0.583330  0.970420  0.485210  1.0  1.0099
  Mn  Mn5  1  0.083330  0.029580  0.514790  1.0  1.0098
  Mn  Mn6  1  0.416670  0.485210  0.970420  1.0  1.0104
  Cr  Cr7  1  0.325150  0.640000  0.808930  1.0  1.4757
  Cr  Cr8  1  0.341510  0.360000  0.168930  1.0  1.4751
  Cr  Cr9  1  0.841510  0.640000  0.831070  1.0  1.4757
  Cr  Cr10  1  0.825150  0.360000  0.191070  1.0  1.4743
  Cr  Cr11  1  0.508180  0.168930  0.808930  1.0  1.4748
  Cr  Cr12  1  0.674850  0.808930  0.640000  1.0  1.4754
  Cr  Cr13  1  0.174850  0.191070  0.360000  1.0  1.4748
  Cr  Cr14  1  0.658490  0.168930  0.360000  1.0  1.4729
  Cr  Cr15  1  0.158490  0.831070  0.640000  1.0  1.4751
  Cr  Cr16  1  0.008180  0.831070  0.191070  1.0  1.474
  Cr  Cr17  1  0.991820  0.191070  0.831070  1.0  1.4743
  Cr  Cr18  1  0.491820  0.808930  0.168930  1.0  1.4749
  C  C19  1  0.991200  0.936600  0.136500  1.0  0.6011
  C  C20  1  0.502300  0.862100  0.329100  1.0  0.6421
  C  C21  1  0.131570  0.860800  0.792900  1.0  0.6342
  C  C22  1  0.002300  0.137900  0.670900  1.0  0.645
  C  C23  1  0.497700  0.329100  0.862100  1.0  0.6417
  C  C24  1  0.535100  0.139200  0.932100  1.0  0.6351
  C  C25  1  0.567200  0.079200  0.408200  1.0  0.6293
  C  C26  1  0.912000  0.696600  0.120800  1.0  0.6667
  C  C27  1  0.847700  0.552300  0.906800  1.0  0.6669
  C  C28  1  0.831030  0.533000  0.670900  1.0  0.6467
  C  C29  1  0.835630  0.467000  0.137900  1.0  0.6447
  C  C30  1  0.318970  0.552300  0.645500  1.0  0.6668
  C  C31  1  0.400530  0.671000  0.079200  1.0  0.6293
  C  C32  1  0.657870  0.863500  0.800100  1.0  0.6038
  C  C33  1  0.432800  0.408200  0.079200  1.0  0.6239
  C  C34  1  0.331030  0.467000  0.329100  1.0  0.6407
  C  C35  1  0.900530  0.329000  0.920800  1.0  0.6211
  C  C36  1  0.964900  0.067900  0.860800  1.0  0.6345
  C  C37  1  0.266130  0.329000  0.408200  1.0  0.621
  C  C38  1  0.324530  0.199900  0.063400  1.0  0.6002
  C  C39  1  0.681030  0.645500  0.552300  1.0  0.6679
  C  C40  1  0.035100  0.860800  0.067900  1.0  0.6351
  C  C41  1  0.168970  0.670900  0.533000  1.0  0.645
  C  C42  1  0.412000  0.303400  0.879200  1.0  0.6655
  C  C43  1  0.766130  0.671000  0.591800  1.0  0.6211
  C  C44  1  0.067200  0.920800  0.591800  1.0  0.6217
  C  C45  1  0.164370  0.137900  0.467000  1.0  0.6405
  C  C46  1  0.675470  0.063400  0.199900  1.0  0.6035
  C  C47  1  0.152300  0.906800  0.552300  1.0  0.6672
  C  C48  1  0.868430  0.792900  0.860800  1.0  0.6353
  C  C49  1  0.508800  0.863500  0.063400  1.0  0.6038
  C  C50  1  0.818970  0.447700  0.354500  1.0  0.6576
  C  C51  1  0.921330  0.424200  0.120800  1.0  0.6669
  C  C52  1  0.078670  0.120800  0.424200  1.0  0.6664
  C  C53  1  0.175470  0.936600  0.800100  1.0  0.6009
  C  C54  1  0.368430  0.207100  0.139200  1.0  0.6344
  C  C55  1  0.745330  0.575800  0.696600  1.0  0.6661
  C  C56  1  0.599470  0.079200  0.671000  1.0  0.6236
  C  C57  1  0.733870  0.408200  0.329000  1.0  0.6232
  C  C58  1  0.842130  0.199900  0.136500  1.0  0.6014
  C  C59  1  0.181030  0.354500  0.447700  1.0  0.6586
  C  C60  1  0.985630  0.354500  0.906800  1.0  0.6606
  C  C61  1  0.701770  0.932100  0.792900  1.0  0.6333
  C  C62  1  0.464900  0.932100  0.139200  1.0  0.6337
  C  C63  1  0.652300  0.093200  0.447700  1.0  0.6617
  C  C64  1  0.157870  0.136500  0.199900  1.0  0.6037
  C  C65  1  0.008800  0.136500  0.936600  1.0  0.6044
  C  C66  1  0.754670  0.303400  0.424200  1.0  0.6674
  C  C67  1  0.932800  0.591800  0.920800  1.0  0.6208
  C  C68  1  0.014370  0.906800  0.354500  1.0  0.6678
  C  C69  1  0.588000  0.879200  0.303400  1.0  0.669
  C  C70  1  0.233870  0.591800  0.671000  1.0  0.6298
  C  C71  1  0.088000  0.120800  0.696600  1.0  0.6675
  C  C72  1  0.824530  0.800100  0.936600  1.0  0.5995
  C  C73  1  0.298230  0.792900  0.932100  1.0  0.6329
  C  C74  1  0.485630  0.645500  0.093200  1.0  0.66
  C  C75  1  0.254670  0.696600  0.575800  1.0  0.667
  C  C76  1  0.342130  0.800100  0.863500  1.0  0.6012
  C  C77  1  0.421330  0.575800  0.879200  1.0  0.6659
  C  C78  1  0.245330  0.424200  0.303400  1.0  0.6647
  C  C79  1  0.664370  0.862100  0.533000  1.0  0.6454
  C  C80  1  0.335630  0.533000  0.862100  1.0  0.6414
  C  C81  1  0.631570  0.139200  0.207100  1.0  0.6354
  C  C82  1  0.578670  0.879200  0.575800  1.0  0.665
  C  C83  1  0.099470  0.920800  0.329000  1.0  0.6234
  C  C84  1  0.997700  0.670900  0.137900  1.0  0.6436
  C  C85  1  0.491200  0.063400  0.863500  1.0  0.6026
  C  C86  1  0.347700  0.447700  0.093200  1.0  0.666
  C  C87  1  0.668970  0.329100  0.467000  1.0  0.6402
  C  C88  1  0.201770  0.067900  0.207100  1.0  0.6354
  C  C89  1  0.514370  0.093200  0.645500  1.0  0.6687
  C  C90  1  0.798230  0.207100  0.067900  1.0  0.6344
  O  O91  1  0.797100  0.564600  0.863180  1.0  -0.5094
  O  O92  1  0.510400  0.400280  0.884980  1.0  -0.4599
  O  O93  1  0.822930  0.515300  0.115020  1.0  -0.4619
  O  O94  1  0.117070  0.727700  0.552300  1.0  -0.4922
  O  O95  1  0.617070  0.272300  0.447700  1.0  -0.4936
  O  O96  1  0.322930  0.484700  0.884980  1.0  -0.4608
  O  O97  1  0.156270  0.599720  0.484700  1.0  -0.4614
  O  O98  1  0.450400  0.824600  0.272300  1.0  -0.4938
  O  O99  1  0.989600  0.115020  0.599720  1.0  -0.461
  O  O100  1  0.219070  0.087500  0.279100  1.0  -0.5064
  O  O101  1  0.516000  0.037900  0.416700  1.0  -0.5155
  O  O102  1  0.846630  0.134400  0.131300  1.0  -0.4089
  O  O103  1  0.153370  0.131300  0.134400  1.0  -0.4011
  O  O104  1  0.869570  0.435400  0.298580  1.0  -0.5094
  O  O105  1  0.382930  0.447700  0.272300  1.0  -0.4938
  O  O106  1  0.947600  0.087500  0.808400  1.0  -0.5072
  O  O107  1  0.284830  0.851000  0.995900  1.0  -0.4019
  O  O108  1  0.716270  0.824600  0.552300  1.0  -0.4947
  O  O109  1  0.679970  0.003100  0.134400  1.0  -0.4063
  O  O110  1  0.405300  0.230220  0.857260  1.0  -0.5005
  O  O111  1  0.365230  0.733500  0.804630  1.0  -0.5085
  O  O112  1  0.523570  0.911290  0.556400  1.0  -0.5251
  O  O113  1  0.177070  0.115020  0.515300  1.0  -0.459
  O  O114  1  0.036230  0.298580  0.863180  1.0  -0.5081
  O  O115  1  0.202900  0.863180  0.564600  1.0  -0.5093
  O  O116  1  0.048500  0.855100  0.004100  1.0  -0.3908
  O  O117  1  0.484000  0.416700  0.037900  1.0  -0.5168
  O  O118  1  0.320030  0.134400  0.003100  1.0  -0.4067
  O  O119  1  0.190230  0.443600  0.354890  1.0  -0.528
  O  O120  1  0.056400  0.885970  0.634300  1.0  -0.4972
  O  O121  1  0.668600  0.062650  0.489100  1.0  -0.4937
  O  O122  1  0.998070  0.937350  0.426450  1.0  -0.4925
  O  O123  1  0.498070  0.062650  0.573550  1.0  -0.4913
  O  O124  1  0.501930  0.573550  0.062650  1.0  -0.4944
  O  O125  1  0.179970  0.996900  0.865600  1.0  -0.4067
  O  O126  1  0.552400  0.191600  0.912500  1.0  -0.5066
  O  O127  1  0.118170  0.855100  0.851000  1.0  -0.3997
  O  O128  1  0.719070  0.912500  0.720900  1.0  -0.5071
  O  O129  1  0.443600  0.365700  0.114030  1.0  -0.4985
  O  O130  1  0.001930  0.426450  0.937350  1.0  -0.4936
  O  O131  1  0.168600  0.937350  0.510900  1.0  -0.4939
  O  O132  1  0.856900  0.645110  0.088710  1.0  -0.5274
  O  O133  1  0.451500  0.995900  0.144900  1.0  -0.3981
  O  O134  1  0.690230  0.556400  0.645110  1.0  -0.5264
  O  O135  1  0.489600  0.884980  0.400280  1.0  -0.4588
  O  O136  1  0.664730  0.573550  0.510900  1.0  -0.4918
  O  O137  1  0.134770  0.195370  0.266500  1.0  -0.5076
  O  O138  1  0.698570  0.071130  0.266500  1.0  -0.5071
  O  O139  1  0.905300  0.769780  0.142740  1.0  -0.5018
  O  O140  1  0.963770  0.863180  0.298580  1.0  -0.51
  O  O141  1  0.182670  0.583300  0.621200  1.0  -0.5166
  O  O142  1  0.738630  0.627040  0.769780  1.0  -0.4992
  O  O143  1  0.261370  0.769780  0.627040  1.0  -0.5007
  O  O144  1  0.835270  0.489100  0.426450  1.0  -0.493
  O  O145  1  0.052400  0.808400  0.087500  1.0  -0.5074
  O  O146  1  0.309770  0.645110  0.556400  1.0  -0.5263
  O  O147  1  0.150670  0.962100  0.378800  1.0  -0.5166
  O  O148  1  0.215170  0.004100  0.149000  1.0  -0.3995
  O  O149  1  0.723070  0.365700  0.251670  1.0  -0.4982
  O  O150  1  0.843730  0.484700  0.599720  1.0  -0.4607
  O  O151  1  0.049600  0.727700  0.175400  1.0  -0.4928
  O  O152  1  0.986700  0.996900  0.131300  1.0  -0.404
  O  O153  1  0.094700  0.142740  0.769780  1.0  -0.4994
  O  O154  1  0.130430  0.298580  0.435400  1.0  -0.5092
  O  O155  1  0.831400  0.510900  0.937350  1.0  -0.4906
  O  O156  1  0.643100  0.911290  0.354890  1.0  -0.5266
  O  O157  1  0.468100  0.071130  0.804630  1.0  -0.5072
  O  O158  1  0.882930  0.552300  0.727700  1.0  -0.4929
  O  O159  1  0.536230  0.701420  0.136820  1.0  -0.5061
  O  O160  1  0.297100  0.435400  0.136820  1.0  -0.5091
  O  O161  1  0.463770  0.136820  0.701420  1.0  -0.5078
  O  O162  1  0.849330  0.378800  0.962100  1.0  -0.517
  O  O163  1  0.776930  0.748330  0.634300  1.0  -0.4981
  O  O164  1  0.610270  0.114030  0.748330  1.0  -0.4977
  O  O165  1  0.614270  0.191600  0.279100  1.0  -0.5075
  O  O166  1  0.984000  0.583300  0.962100  1.0  -0.5179
  O  O167  1  0.385730  0.279100  0.191600  1.0  -0.5061
  O  O168  1  0.677070  0.884980  0.484700  1.0  -0.4599
  O  O169  1  0.023570  0.088710  0.443600  1.0  -0.5275
  O  O170  1  0.114270  0.808400  0.720900  1.0  -0.507
  O  O171  1  0.349330  0.621200  0.037900  1.0  -0.5162
  O  O172  1  0.016000  0.962100  0.583300  1.0  -0.515
  O  O173  1  0.571970  0.857260  0.627040  1.0  -0.4974
  O  O174  1  0.476430  0.556400  0.911290  1.0  -0.5273
  O  O175  1  0.549600  0.272300  0.824600  1.0  -0.4934
  O  O176  1  0.276930  0.251670  0.365700  1.0  -0.4991
  O  O177  1  0.143100  0.088710  0.645110  1.0  -0.5242
  O  O178  1  0.164730  0.426450  0.489100  1.0  -0.496
  O  O179  1  0.531900  0.804630  0.071130  1.0  -0.5072
  O  O180  1  0.223070  0.634300  0.748330  1.0  -0.4971
  O  O181  1  0.809770  0.354890  0.443600  1.0  -0.5267
  O  O182  1  0.556400  0.114030  0.365700  1.0  -0.4979
  O  O183  1  0.820030  0.865600  0.996900  1.0  -0.4064
  O  O184  1  0.780930  0.279100  0.087500  1.0  -0.5063
  O  O185  1  0.702900  0.136820  0.435400  1.0  -0.507
  O  O186  1  0.283730  0.552300  0.824600  1.0  -0.4925
  O  O187  1  0.486700  0.003100  0.868700  1.0  -0.4068
  O  O188  1  0.715170  0.995900  0.851000  1.0  -0.3986
  O  O189  1  0.331400  0.489100  0.062650  1.0  -0.492
  O  O190  1  0.343730  0.515300  0.400280  1.0  -0.4606
  O  O191  1  0.031900  0.195370  0.928870  1.0  -0.5097
  O  O192  1  0.110270  0.885970  0.251670  1.0  -0.4994
  O  O193  1  0.013300  0.131300  0.996900  1.0  -0.4033
  O  O194  1  0.301430  0.266500  0.071130  1.0  -0.5073
  O  O195  1  0.428030  0.627040  0.857260  1.0  -0.4994
  O  O196  1  0.198570  0.928870  0.733500  1.0  -0.5096
  O  O197  1  0.784830  0.149000  0.004100  1.0  -0.4006
  O  O198  1  0.801430  0.733500  0.928870  1.0  -0.5088
  O  O199  1  0.513300  0.868700  0.003100  1.0  -0.3998
  O  O200  1  0.650670  0.037900  0.621200  1.0  -0.5151
  O  O201  1  0.346630  0.865600  0.868700  1.0  -0.4035
  O  O202  1  0.656270  0.400280  0.515300  1.0  -0.462
  O  O203  1  0.951500  0.004100  0.855100  1.0  -0.3995
  O  O204  1  0.881830  0.851000  0.855100  1.0  -0.3979
  O  O205  1  0.389730  0.748330  0.114030  1.0  -0.4981
  O  O206  1  0.885730  0.720900  0.808400  1.0  -0.5056
  O  O207  1  0.950400  0.175400  0.727700  1.0  -0.4935
  O  O208  1  0.381830  0.149000  0.144900  1.0  -0.402
  O  O209  1  0.618170  0.144900  0.149000  1.0  -0.3921
  O  O210  1  0.976430  0.443600  0.088710  1.0  -0.5261
  O  O211  1  0.356900  0.354890  0.911290  1.0  -0.527
  O  O212  1  0.865230  0.266500  0.195370  1.0  -0.5072
  O  O213  1  0.634770  0.804630  0.733500  1.0  -0.5096
  O  O214  1  0.783730  0.447700  0.175400  1.0  -0.493
  O  O215  1  0.548500  0.144900  0.995900  1.0  -0.3988
  O  O216  1  0.369570  0.564600  0.701420  1.0  -0.5077
  O  O217  1  0.280930  0.720900  0.912500  1.0  -0.5069
  O  O218  1  0.761370  0.230220  0.372960  1.0  -0.5
  O  O219  1  0.216270  0.175400  0.447700  1.0  -0.4939
  O  O220  1  0.943600  0.634300  0.885970  1.0  -0.4986
  O  O221  1  0.889730  0.251670  0.885970  1.0  -0.4987
  O  O222  1  0.010400  0.599720  0.115020  1.0  -0.4632
  O  O223  1  0.238630  0.372960  0.230220  1.0  -0.4995
  O  O224  1  0.928030  0.372960  0.142740  1.0  -0.4994
  O  O225  1  0.447600  0.912500  0.191600  1.0  -0.5085
  O  O226  1  0.594700  0.857260  0.230220  1.0  -0.4993
  O  O227  1  0.335270  0.510900  0.573550  1.0  -0.4907
  O  O228  1  0.817330  0.621200  0.583300  1.0  -0.517
  O  O229  1  0.630430  0.701420  0.564600  1.0  -0.5067
  O  O230  1  0.653370  0.868700  0.865600  1.0  -0.4035
  O  O231  1  0.968100  0.928870  0.195370  1.0  -0.5095
  O  O232  1  0.317330  0.378800  0.416700  1.0  -0.517
  O  O233  1  0.071970  0.142740  0.372960  1.0  -0.4995
  O  O234  1  0.682670  0.416700  0.378800  1.0  -0.5169
