# generated using pymatgen
data_CuH13C20N3O5
_symmetry_space_group_name_H-M   'P 1'
_cell_length_a   18.50000000
_cell_length_b   18.50000000
_cell_length_c   19.40420000
_cell_angle_alpha   61.52990000
_cell_angle_beta   61.52990000
_cell_angle_gamma   60.00000000
_symmetry_Int_Tables_number   1
_chemical_formula_structural   CuH13C20N3O5
_chemical_formula_sum   'Cu6 H78 C120 N18 O30'
_cell_volume   4801.63496910
_cell_formula_units_Z   6
loop_
 _symmetry_equiv_pos_site_id
 _symmetry_equiv_pos_as_xyz
  1  'x, y, z'
loop_
 _atom_site_type_symbol
 _atom_site_label
 _atom_site_symmetry_multiplicity
 _atom_site_fract_x
 _atom_site_fract_y
 _atom_site_fract_z
 _atom_site_occupancy
 _atom_site_charge
  Cu  Cu1  1  0.511690  0.955940  0.574310  1.0  0.9211
  Cu  Cu2  1  0.488310  0.044060  0.425690  1.0  0.9206
  Cu  Cu3  1  0.958060  0.511690  0.574310  1.0  0.9188
  Cu  Cu4  1  0.041940  0.488310  0.425690  1.0  0.9192
  Cu  Cu5  1  0.955940  0.958060  0.574310  1.0  0.9195
  Cu  Cu6  1  0.044060  0.041940  0.425690  1.0  0.9195
  H  H7  1  0.991690  0.260970  0.483830  1.0  0.1313
  H  H8  1  0.144000  0.986600  0.271030  1.0  0.1243
  H  H9  1  0.372090  0.090400  0.336940  1.0  0.1107
  H  H10  1  0.344560  0.391740  0.178420  1.0  0.1239
  H  H11  1  0.799430  0.627910  0.663060  1.0  0.1163
  H  H12  1  0.710350  0.753610  0.990900  1.0  0.1176
  H  H13  1  0.413720  0.562940  0.005570  1.0  0.124
  H  H14  1  0.289650  0.246390  0.009100  1.0  0.1173
  H  H15  1  0.666820  0.785830  0.778830  1.0  0.1076
  H  H16  1  0.454860  0.289650  0.009100  1.0  0.1119
  H  H17  1  0.914720  0.655440  0.821580  1.0  0.123
  H  H18  1  0.909600  0.799430  0.663060  1.0  0.115
  H  H19  1  0.551600  0.279370  0.163840  1.0  0.1191
  H  H20  1  0.699680  0.402300  0.868970  1.0  0.1214
  H  H21  1  0.796420  0.385510  0.667160  1.0  0.1244
  H  H22  1  0.431520  0.744890  0.115970  1.0  0.1189
  H  H23  1  0.970950  0.300320  0.131030  1.0  0.1224
  H  H24  1  0.214170  0.231480  0.221170  1.0  0.1061
  H  H25  1  0.562940  0.017770  0.005570  1.0  0.1238
  H  H26  1  0.609290  0.219240  0.335600  1.0  0.1271
  H  H27  1  0.598370  0.144000  0.271030  1.0  0.127
  H  H28  1  0.013400  0.401630  0.728970  1.0  0.1259
  H  H29  1  0.655440  0.608260  0.821580  1.0  0.124
  H  H30  1  0.279370  0.005190  0.163840  1.0  0.1195
  H  H31  1  0.753610  0.545140  0.990900  1.0  0.1127
  H  H32  1  0.448400  0.720630  0.836160  1.0  0.1186
  H  H33  1  0.164130  0.390710  0.664400  1.0  0.1258
  H  H34  1  0.614490  0.849090  0.332840  1.0  0.1266
  H  H35  1  0.263510  0.991690  0.483830  1.0  0.128
  H  H36  1  0.437060  0.982230  0.994430  1.0  0.1231
  H  H37  1  0.385510  0.150910  0.667160  1.0  0.1271
  H  H38  1  0.150910  0.796420  0.667160  1.0  0.1261
  H  H39  1  0.568480  0.255110  0.884030  1.0  0.1184
  H  H40  1  0.597700  0.970950  0.131030  1.0  0.1195
  H  H41  1  0.720630  0.994810  0.836160  1.0  0.1202
  H  H42  1  0.008310  0.739030  0.516170  1.0  0.1304
  H  H43  1  0.402300  0.029050  0.868970  1.0  0.1188
  H  H44  1  0.390710  0.780760  0.664400  1.0  0.1272
  H  H45  1  0.029050  0.699680  0.868970  1.0  0.122
  H  H46  1  0.005190  0.551600  0.163840  1.0  0.1194
  H  H47  1  0.351680  0.351420  0.106930  1.0  0.1236
  H  H48  1  0.292380  0.568480  0.884030  1.0  0.1221
  H  H49  1  0.648580  0.810030  0.893070  1.0  0.1331
  H  H50  1  0.401630  0.856000  0.728970  1.0  0.1262
  H  H51  1  0.739030  0.736490  0.516170  1.0  0.1305
  H  H52  1  0.203580  0.614490  0.332840  1.0  0.1246
  H  H53  1  0.780760  0.164130  0.664400  1.0  0.1262
  H  H54  1  0.608260  0.914720  0.821580  1.0  0.1255
  H  H55  1  0.351420  0.189970  0.106930  1.0  0.1334
  H  H56  1  0.810030  0.648320  0.893070  1.0  0.1208
  H  H57  1  0.219240  0.835870  0.335600  1.0  0.1256
  H  H58  1  0.333180  0.214170  0.221170  1.0  0.1068
  H  H59  1  0.744890  0.707620  0.115970  1.0  0.1228
  H  H60  1  0.986600  0.598370  0.271030  1.0  0.1266
  H  H61  1  0.994810  0.448400  0.836160  1.0  0.1185
  H  H62  1  0.835870  0.609290  0.335600  1.0  0.1264
  H  H63  1  0.085280  0.344560  0.178420  1.0  0.121
  H  H64  1  0.736490  0.008310  0.516170  1.0  0.1286
  H  H65  1  0.189970  0.351680  0.106930  1.0  0.12
  H  H66  1  0.300320  0.597700  0.131030  1.0  0.1203
  H  H67  1  0.391740  0.085280  0.178420  1.0  0.1237
  H  H68  1  0.586280  0.437060  0.994430  1.0  0.1242
  H  H69  1  0.255110  0.292380  0.884030  1.0  0.1231
  H  H70  1  0.627910  0.909600  0.663060  1.0  0.111
  H  H71  1  0.785830  0.768520  0.778830  1.0  0.1066
  H  H72  1  0.260970  0.263510  0.483830  1.0  0.1314
  H  H73  1  0.200570  0.372090  0.336940  1.0  0.1166
  H  H74  1  0.090400  0.200570  0.336940  1.0  0.1149
  H  H75  1  0.017770  0.413720  0.005570  1.0  0.1231
  H  H76  1  0.545140  0.710350  0.990900  1.0  0.1099
  H  H77  1  0.231480  0.333180  0.221170  1.0  0.1108
  H  H78  1  0.768520  0.666820  0.778830  1.0  0.1101
  H  H79  1  0.648320  0.648580  0.893070  1.0  0.1235
  H  H80  1  0.849090  0.203580  0.332840  1.0  0.1268
  H  H81  1  0.707620  0.431520  0.115970  1.0  0.1217
  H  H82  1  0.856000  0.013400  0.728970  1.0  0.1249
  H  H83  1  0.246390  0.454860  0.009100  1.0  0.1124
  H  H84  1  0.982230  0.586280  0.994430  1.0  0.123
  C  C85  1  0.224680  0.572650  0.908240  1.0  -0.0916
  C  C86  1  0.163460  0.641530  0.868400  1.0  0.1324
  C  C87  1  0.427350  0.705570  0.091760  1.0  -0.0944
  C  C88  1  0.801910  0.492130  0.020600  1.0  -0.1123
  C  C89  1  0.055790  0.613670  0.453590  1.0  0.7007
  C  C90  1  0.581780  0.397940  0.970280  1.0  -0.1142
  C  C91  1  0.602060  0.950000  0.029720  1.0  -0.1191
  C  C92  1  0.160400  0.413720  0.296560  1.0  0.1425
  C  C93  1  0.602330  0.067380  0.463220  1.0  0.6802
  C  C94  1  0.336340  0.889090  0.567470  1.0  -0.0693
  C  C95  1  0.812660  0.211400  0.637340  1.0  -0.1079
  C  C96  1  0.511900  0.367810  0.010000  1.0  0.2498
  C  C97  1  0.110910  0.792900  0.432530  1.0  -0.0704
  C  C98  1  0.207100  0.336340  0.567470  1.0  -0.0689
  C  C99  1  0.326610  0.163460  0.868400  1.0  0.1336
  C  C100  1  0.076340  0.646290  0.899990  1.0  -0.1197
  C  C101  1  0.160480  0.039870  0.260920  1.0  0.1445
  C  C102  1  0.039870  0.538730  0.260920  1.0  0.1371
  C  C103  1  0.219380  0.725770  0.325010  1.0  0.0961
  C  C104  1  0.100980  0.671960  0.426410  1.0  -0.0771
  C  C105  1  0.176660  0.389380  0.232000  1.0  -0.0945
  C  C106  1  0.870680  0.839600  0.703440  1.0  0.1418
  C  C107  1  0.051290  0.513010  0.198580  1.0  -0.1173
  C  C108  1  0.201960  0.176660  0.232000  1.0  -0.0939
  C  C109  1  0.839520  0.960130  0.739080  1.0  0.1441
  C  C110  1  0.798040  0.823340  0.768000  1.0  -0.0949
  C  C111  1  0.889710  0.488100  0.990000  1.0  0.2485
  C  C112  1  0.461270  0.839520  0.739080  1.0  0.1414
  C  C113  1  0.733670  0.732760  0.464780  1.0  -0.0595
  C  C114  1  0.565780  0.739270  0.813360  1.0  0.0407
  C  C115  1  0.486990  0.762880  0.801420  1.0  -0.1104
  C  C116  1  0.121590  0.390580  0.136090  1.0  -0.1111
  C  C117  1  0.762880  0.948710  0.801420  1.0  -0.1198
  C  C118  1  0.358470  0.673390  0.131600  1.0  0.1313
  C  C119  1  0.377380  0.076340  0.899990  1.0  -0.1138
  C  C120  1  0.434220  0.260730  0.186640  1.0  0.0398
  C  C121  1  0.725770  0.729840  0.325010  1.0  0.0951
  C  C122  1  0.199350  0.899020  0.573590  1.0  -0.0759
  C  C123  1  0.187340  0.788600  0.362660  1.0  -0.1085
  C  C124  1  0.671960  0.800650  0.426410  1.0  -0.0743
  C  C125  1  0.867070  0.602330  0.463220  1.0  0.6814
  C  C126  1  0.123050  0.944210  0.546410  1.0  0.7022
  C  C127  1  0.685360  0.801910  0.020600  1.0  -0.1158
  C  C128  1  0.839600  0.586280  0.703440  1.0  0.1418
  C  C129  1  0.390580  0.351740  0.136090  1.0  -0.1119
  C  C130  1  0.267240  0.931210  0.535220  1.0  -0.0613
  C  C131  1  0.274230  0.270160  0.674990  1.0  0.0962
  C  C132  1  0.294430  0.224680  0.908240  1.0  -0.0953
  C  C133  1  0.673390  0.836540  0.131600  1.0  0.1311
  C  C134  1  0.648260  0.878410  0.863910  1.0  -0.1104
  C  C135  1  0.923660  0.353710  0.100010  1.0  -0.1203
  C  C136  1  0.788600  0.661400  0.362660  1.0  -0.1107
  C  C137  1  0.418220  0.602060  0.029720  1.0  -0.1145
  C  C138  1  0.609420  0.648260  0.863910  1.0  -0.1144
  C  C139  1  0.488100  0.632190  0.990000  1.0  0.2491
  C  C140  1  0.800650  0.100980  0.426410  1.0  -0.0764
  C  C141  1  0.586280  0.870680  0.703440  1.0  0.136
  C  C142  1  0.110290  0.511900  0.010000  1.0  0.2499
  C  C143  1  0.328040  0.199350  0.573590  1.0  -0.0743
  C  C144  1  0.050000  0.581780  0.970280  1.0  -0.116
  C  C145  1  0.960130  0.461270  0.739080  1.0  0.1375
  C  C146  1  0.797070  0.177600  0.359780  1.0  -0.0675
  C  C147  1  0.507870  0.314640  0.979400  1.0  -0.1109
  C  C148  1  0.260730  0.118410  0.186640  1.0  0.0402
  C  C149  1  0.266330  0.267240  0.535220  1.0  -0.0574
  C  C150  1  0.732760  0.068790  0.464780  1.0  -0.0618
  C  C151  1  0.944210  0.386330  0.546410  1.0  0.6997
  C  C152  1  0.353710  0.622620  0.100010  1.0  -0.1153
  C  C153  1  0.367810  0.110290  0.010000  1.0  0.2507
  C  C154  1  0.334450  0.202930  0.640220  1.0  -0.0696
  C  C155  1  0.351740  0.121590  0.136090  1.0  -0.1117
  C  C156  1  0.270160  0.780620  0.674990  1.0  0.1028
  C  C157  1  0.948710  0.486990  0.801420  1.0  -0.1189
  C  C158  1  0.836540  0.358470  0.131600  1.0  0.1307
  C  C159  1  0.822400  0.334450  0.640220  1.0  -0.0673
  C  C160  1  0.729840  0.219380  0.325010  1.0  0.1026
  C  C161  1  0.067380  0.867070  0.463220  1.0  0.6819
  C  C162  1  0.663660  0.110910  0.432530  1.0  -0.0695
  C  C163  1  0.889090  0.207100  0.567470  1.0  -0.0692
  C  C164  1  0.397940  0.050000  0.970280  1.0  -0.1163
  C  C165  1  0.661400  0.187340  0.362660  1.0  -0.1094
  C  C166  1  0.386330  0.123050  0.546410  1.0  0.6999
  C  C167  1  0.338600  0.812660  0.637340  1.0  -0.1109
  C  C168  1  0.641530  0.326610  0.868400  1.0  0.1307
  C  C169  1  0.413720  0.129320  0.296560  1.0  0.1405
  C  C170  1  0.876950  0.055790  0.453590  1.0  0.7006
  C  C171  1  0.950000  0.418220  0.029720  1.0  -0.116
  C  C172  1  0.899020  0.328040  0.573590  1.0  -0.0772
  C  C173  1  0.932620  0.132930  0.536780  1.0  0.6821
  C  C174  1  0.389380  0.201960  0.232000  1.0  -0.0939
  C  C175  1  0.237120  0.051290  0.198580  1.0  -0.1182
  C  C176  1  0.513010  0.237120  0.198580  1.0  -0.1079
  C  C177  1  0.665550  0.797070  0.359780  1.0  -0.0705
  C  C178  1  0.572650  0.294430  0.908240  1.0  -0.0937
  C  C179  1  0.397670  0.932620  0.536780  1.0  0.6814
  C  C180  1  0.705570  0.775320  0.091760  1.0  -0.0958
  C  C181  1  0.792900  0.663660  0.432530  1.0  -0.069
  C  C182  1  0.492130  0.685360  0.020600  1.0  -0.109
  C  C183  1  0.198090  0.507870  0.979400  1.0  -0.1113
  C  C184  1  0.610620  0.798040  0.768000  1.0  -0.0939
  C  C185  1  0.177600  0.665550  0.359780  1.0  -0.0671
  C  C186  1  0.823340  0.610620  0.768000  1.0  -0.0959
  C  C187  1  0.613670  0.876950  0.453590  1.0  0.701
  C  C188  1  0.878410  0.609420  0.863910  1.0  -0.1097
  C  C189  1  0.739270  0.881590  0.813360  1.0  0.0399
  C  C190  1  0.132930  0.397670  0.536780  1.0  0.6828
  C  C191  1  0.632190  0.889710  0.990000  1.0  0.2504
  C  C192  1  0.202930  0.822400  0.640220  1.0  -0.0686
  C  C193  1  0.646290  0.377380  0.899990  1.0  -0.1149
  C  C194  1  0.118410  0.434220  0.186640  1.0  0.0402
  C  C195  1  0.780620  0.274230  0.674990  1.0  0.1007
  C  C196  1  0.538730  0.160480  0.260920  1.0  0.1429
  C  C197  1  0.881590  0.565780  0.813360  1.0  0.0396
  C  C198  1  0.931210  0.266330  0.535220  1.0  -0.0612
  C  C199  1  0.068790  0.733670  0.464780  1.0  -0.0626
  C  C200  1  0.775320  0.427350  0.091760  1.0  -0.0911
  C  C201  1  0.622620  0.923660  0.100010  1.0  -0.1162
  C  C202  1  0.314640  0.198090  0.979400  1.0  -0.1161
  C  C203  1  0.129320  0.160400  0.296560  1.0  0.138
  C  C204  1  0.211400  0.338600  0.637340  1.0  -0.1093
  N  N205  1  0.711780  0.273450  0.752270  1.0  -0.3021
  N  N206  1  0.515670  0.886790  0.686700  1.0  -0.2878
  N  N207  1  0.910840  0.515670  0.686700  1.0  -0.2901
  N  N208  1  0.706330  0.314020  0.793130  1.0  -0.293
  N  N209  1  0.813480  0.293670  0.206870  1.0  -0.2925
  N  N210  1  0.089160  0.484330  0.313300  1.0  -0.2897
  N  N211  1  0.314020  0.186520  0.793130  1.0  -0.2925
  N  N212  1  0.288220  0.726550  0.247730  1.0  -0.3042
  N  N213  1  0.273450  0.262500  0.752270  1.0  -0.3062
  N  N214  1  0.685980  0.813480  0.206870  1.0  -0.2925
  N  N215  1  0.262500  0.711780  0.752270  1.0  -0.3067
  N  N216  1  0.726550  0.737500  0.247730  1.0  -0.3053
  N  N217  1  0.886790  0.910840  0.686700  1.0  -0.288
  N  N218  1  0.186520  0.706330  0.793130  1.0  -0.2941
  N  N219  1  0.113210  0.089160  0.313300  1.0  -0.2891
  N  N220  1  0.484330  0.113210  0.313300  1.0  -0.2889
  N  N221  1  0.293670  0.685980  0.206870  1.0  -0.2942
  N  N222  1  0.737500  0.288220  0.247730  1.0  -0.3064
  O  O223  1  0.987990  0.135720  0.465350  1.0  -0.5899
  O  O224  1  0.872520  0.003190  0.526040  1.0  -0.5788
  O  O225  1  0.391630  0.080840  0.077170  1.0  -0.2588
  O  O226  1  0.054540  0.925890  0.595520  1.0  -0.6009
  O  O227  1  0.925890  0.424050  0.595520  1.0  -0.5979
  O  O228  1  0.127480  0.996810  0.473960  1.0  -0.5781
  O  O229  1  0.450360  0.391630  0.077170  1.0  -0.2605
  O  O230  1  0.589060  0.012010  0.534650  1.0  -0.589
  O  O231  1  0.074110  0.575950  0.404480  1.0  -0.5984
  O  O232  1  0.915820  0.064350  0.585290  1.0  -0.6235
  O  O233  1  0.080840  0.450360  0.077170  1.0  -0.2612
  O  O234  1  0.434540  0.915820  0.585290  1.0  -0.6225
  O  O235  1  0.598250  0.872520  0.526040  1.0  -0.5805
  O  O236  1  0.565460  0.084180  0.414710  1.0  -0.6213
  O  O237  1  0.919160  0.549640  0.922830  1.0  -0.2593
  O  O238  1  0.401750  0.127480  0.473960  1.0  -0.5808
  O  O239  1  0.608370  0.919160  0.922830  1.0  -0.2606
  O  O240  1  0.935650  0.565460  0.414710  1.0  -0.6218
  O  O241  1  0.945460  0.074110  0.404480  1.0  -0.599
  O  O242  1  0.864280  0.589060  0.534650  1.0  -0.588
  O  O243  1  0.410940  0.987990  0.465350  1.0  -0.5896
  O  O244  1  0.996810  0.401750  0.473960  1.0  -0.5798
  O  O245  1  0.549640  0.608370  0.922830  1.0  -0.2604
  O  O246  1  0.424050  0.054540  0.595520  1.0  -0.5997
  O  O247  1  0.084180  0.935650  0.414710  1.0  -0.6223
  O  O248  1  0.135720  0.410940  0.465350  1.0  -0.5892
  O  O249  1  0.064350  0.434540  0.585290  1.0  -0.6239
  O  O250  1  0.012010  0.864280  0.534650  1.0  -0.5889
  O  O251  1  0.575950  0.945460  0.404480  1.0  -0.5984
  O  O252  1  0.003190  0.598250  0.526040  1.0  -0.5794
