# generated using pymatgen
data_Cd2Ni2H67C60(NO3)4
_symmetry_space_group_name_H-M   'P 1'
_cell_length_a   14.43000000
_cell_length_b   21.69020000
_cell_length_c   30.64500000
_cell_angle_alpha   86.03560000
_cell_angle_beta   78.00400000
_cell_angle_gamma   70.57100000
_symmetry_Int_Tables_number   1
_chemical_formula_structural   Cd2Ni2H67C60(NO3)4
_chemical_formula_sum   'Cd8 Ni8 H268 C240 N16 O48'
_cell_volume   8847.83680348
_cell_formula_units_Z   4
loop_
 _symmetry_equiv_pos_site_id
 _symmetry_equiv_pos_as_xyz
  1  'x, y, z'
loop_
 _atom_site_type_symbol
 _atom_site_label
 _atom_site_symmetry_multiplicity
 _atom_site_fract_x
 _atom_site_fract_y
 _atom_site_fract_z
 _atom_site_occupancy
 _atom_site_charge
  Cd  Cd1  1  0.661010  0.677980  0.500000  1.0  1.1478
  Cd  Cd2  1  0.476650  0.557920  0.506520  1.0  1.1103
  Cd  Cd3  1  0.952780  0.094440  0.000000  1.0  1.0174
  Cd  Cd4  1  0.746520  0.506960  0.500000  1.0  1.0677
  Cd  Cd5  1  0.965430  0.557920  0.493480  1.0  1.1128
  Cd  Cd6  1  0.038020  0.923960  0.000000  1.0  0.9336
  Cd  Cd7  1  0.221910  0.045780  0.994940  1.0  1.0882
  Cd  Cd8  1  0.732310  0.045780  0.005060  1.0  1.0824
  Ni  Ni9  1  0.472760  0.707680  0.773230  1.0  0.5729
  Ni  Ni10  1  0.880440  0.894920  0.271120  1.0  0.5444
  Ni  Ni11  1  0.699570  0.392260  0.778630  1.0  0.4549
  Ni  Ni12  1  0.908170  0.392260  0.221370  1.0  0.453
  Ni  Ni13  1  0.996860  0.212480  0.721150  1.0  0.5137
  Ni  Ni14  1  0.790660  0.212480  0.278850  1.0  0.5191
  Ni  Ni15  1  0.819560  0.707680  0.226770  1.0  0.5728
  Ni  Ni16  1  0.224640  0.894920  0.728880  1.0  0.5465
  H  H17  1  0.438300  0.739200  0.245200  1.0  0.1075
  H  H18  1  0.305900  0.667800  0.672100  1.0  0.0953
  H  H19  1  0.026300  0.667800  0.327900  1.0  0.0962
  H  H20  1  0.701000  0.830400  0.340500  1.0  0.1798
  H  H21  1  0.181100  0.785000  0.353600  1.0  0.1164
  H  H22  1  0.433000  0.301000  0.962200  1.0  0.1092
  H  H23  1  0.857100  0.131600  0.732600  1.0  0.1145
  H  H24  1  0.319300  0.258600  0.737600  1.0  0.1192
  H  H25  1  0.412200  0.114800  0.793600  1.0  0.1214
  H  H26  1  0.180900  0.436000  0.096900  1.0  0.1268
  H  H27  1  0.901000  0.237200  0.109100  1.0  0.1217
  H  H28  1  0.745200  0.995000  0.808800  1.0  0.1208
  H  H29  1  0.066100  0.944200  0.381700  1.0  0.1117
  H  H30  1  0.181500  0.355000  0.241400  1.0  0.1112
  H  H31  1  0.303800  0.457600  0.260700  1.0  0.117
  H  H32  1  0.095400  0.981000  0.886800  1.0  0.1189
  H  H33  1  0.608400  0.773400  0.953900  1.0  0.1163
  H  H34  1  0.229600  0.348400  0.283600  1.0  0.1059
  H  H35  1  0.138700  0.717000  0.174300  1.0  0.1001
  H  H36  1  0.643900  0.990000  0.189900  1.0  0.0902
  H  H37  1  0.238600  0.457600  0.739300  1.0  0.115
  H  H38  1  0.168400  0.246000  0.229100  1.0  0.0855
  H  H39  1  0.184900  0.115400  0.251500  1.0  0.0993
  H  H40  1  0.259800  0.995000  0.191200  1.0  0.1214
  H  H41  1  0.194600  0.970800  0.133600  1.0  0.1279
  H  H42  1  0.793600  0.757600  0.707900  1.0  0.129
  H  H43  1  0.472100  0.421400  0.928400  1.0  0.1222
  H  H44  1  0.030900  0.853200  0.458900  1.0  0.1109
  H  H45  1  0.954900  0.953600  0.722700  1.0  0.1115
  H  H46  1  0.360000  0.968200  0.738800  1.0  0.1043
  H  H47  1  0.684100  0.489400  0.622800  1.0  0.1226
  H  H48  1  0.731100  0.636000  0.781500  1.0  0.1167
  H  H49  1  0.400900  0.251200  0.446100  1.0  0.1018
  H  H50  1  0.273300  0.842000  0.241500  1.0  0.1152
  H  H51  1  0.426300  0.460400  0.793400  1.0  0.1118
  H  H52  1  0.605900  0.575000  0.240000  1.0  0.1249
  H  H53  1  0.819100  0.575000  0.760000  1.0  0.1225
  H  H54  1  0.822500  0.739200  0.754800  1.0  0.1067
  H  H55  1  0.593200  0.677800  0.922300  1.0  0.1187
  H  H56  1  0.165600  0.842200  0.239300  1.0  0.1162
  H  H57  1  0.983200  0.786400  0.159000  1.0  0.0979
  H  H58  1  0.273100  0.267000  0.139100  1.0  0.1425
  H  H59  1  0.019800  0.466400  0.776800  1.0  0.0827
  H  H60  1  0.954300  0.748000  0.278400  1.0  0.0976
  H  H61  1  0.366100  0.990000  0.810100  1.0  0.0908
  H  H62  1  0.457000  0.651000  0.666200  1.0  0.1182
  H  H63  1  0.439400  0.254000  0.924300  1.0  0.1242
  H  H64  1  0.775200  0.747600  0.394700  1.0  0.1237
  H  H65  1  0.199300  0.953800  0.278900  1.0  0.1187
  H  H66  1  0.473000  0.114800  0.206400  1.0  0.1207
  H  H67  1  0.007900  0.758800  0.442700  1.0  0.1198
  H  H68  1  0.713400  0.222400  0.686300  1.0  0.1016
  H  H69  1  0.099400  0.106800  0.196900  1.0  0.086
  H  H70  1  0.513800  0.466400  0.223200  1.0  0.0864
  H  H71  1  0.792700  0.297400  0.662800  1.0  0.0984
  H  H72  1  0.232900  0.960800  0.833400  1.0  0.1153
  H  H73  1  0.214900  0.206000  0.268500  1.0  0.0933
  H  H74  1  0.989800  0.934000  0.355600  1.0  0.1207
  H  H75  1  0.861000  0.011400  0.744300  1.0  0.1204
  H  H76  1  0.464100  0.892800  0.267600  1.0  0.0963
  H  H77  1  0.738700  0.762000  0.841900  1.0  0.1211
  H  H78  1  0.560600  0.838400  0.694400  1.0  0.1033
  H  H79  1  0.992200  0.842200  0.760700  1.0  0.1154
  H  H80  1  0.422100  0.258600  0.262400  1.0  0.1182
  H  H81  1  0.632900  0.636000  0.218500  1.0  0.117
  H  H82  1  0.914400  0.483800  0.706800  1.0  0.0788
  H  H83  1  0.221500  0.465000  0.199800  1.0  0.1139
  H  H84  1  0.074100  0.616600  0.289100  1.0  0.0828
  H  H85  1  0.081600  0.426400  0.123800  1.0  0.113
  H  H86  1  0.137200  0.770600  0.787500  1.0  0.1016
  H  H87  1  0.920000  0.353800  0.725600  1.0  0.0995
  H  H88  1  0.538500  0.747800  0.251300  1.0  0.1191
  H  H89  1  0.233300  0.758800  0.557300  1.0  0.1186
  H  H90  1  0.278300  0.324000  0.552400  1.0  0.1149
  H  H91  1  0.480500  0.268200  0.466500  1.0  0.1069
  H  H92  1  0.499300  0.762000  0.158100  1.0  0.1163
  H  H93  1  0.266000  0.301000  0.037800  1.0  0.1094
  H  H94  1  0.422000  0.348400  0.716400  1.0  0.1047
  H  H95  1  0.826500  0.489400  0.377200  1.0  0.1232
  H  H96  1  0.943000  0.656200  0.674800  1.0  0.1174
  H  H97  1  0.391400  0.640800  0.277400  1.0  0.1159
  H  H98  1  0.793800  0.106800  0.803100  1.0  0.0864
  H  H99  1  0.293700  0.333400  0.139700  1.0  0.1185
  H  H100  1  0.581700  0.770200  0.181300  1.0  0.1227
  H  H101  1  0.064200  0.222400  0.313700  1.0  0.1007
  H  H102  1  0.581000  0.242800  0.946100  1.0  0.1181
  H  H103  1  0.003400  0.863800  0.563100  1.0  0.1116
  H  H104  1  0.585600  0.246000  0.770900  1.0  0.0868
  H  H105  1  0.262800  0.149400  0.708900  1.0  0.1152
  H  H106  1  0.397700  0.324000  0.447600  1.0  0.1143
  H  H107  1  0.537500  0.373600  0.293500  1.0  0.0915
  H  H108  1  0.601000  0.838400  0.305600  1.0  0.1053
  H  H109  1  0.601800  0.483800  0.293200  1.0  0.0781
  H  H110  1  0.365500  0.183600  0.816700  1.0  0.1176
  H  H111  1  0.558700  0.093600  0.273400  1.0  0.1247
  H  H112  1  0.573500  0.914400  0.309400  1.0  0.0928
  H  H113  1  0.230400  0.786400  0.841000  1.0  0.0998
  H  H114  1  0.630800  0.665200  0.103200  1.0  0.1094
  H  H115  1  0.412500  0.914600  0.819900  1.0  0.0945
  H  H116  1  0.762800  0.927200  0.832900  1.0  0.1175
  H  H117  1  0.128300  0.729800  0.295700  1.0  0.0799
  H  H118  1  0.269900  0.515800  0.715200  1.0  0.1162
  H  H119  1  0.979400  0.391000  0.824600  1.0  0.07
  H  H120  1  0.383100  0.436000  0.903100  1.0  0.1265
  H  H121  1  0.643100  0.892800  0.732400  1.0  0.0941
  H  H122  1  0.472400  0.848200  0.935600  1.0  0.1206
  H  H123  1  0.041600  0.288200  0.286900  1.0  0.1088
  H  H124  1  0.846900  0.953800  0.721100  1.0  0.1193
  H  H125  1  0.834600  0.970800  0.866400  1.0  0.1297
  H  H126  1  0.492000  0.426400  0.876200  1.0  0.1129
  H  H127  1  0.729000  0.677800  0.077700  1.0  0.117
  H  H128  1  0.516300  0.615400  0.359400  1.0  0.1271
  H  H129  1  0.605700  0.622400  0.611800  1.0  0.116
  H  H130  1  0.233700  0.140200  0.206300  1.0  0.1047
  H  H131  1  0.088900  0.373600  0.706500  1.0  0.0908
  H  H132  1  0.462900  0.587600  0.303600  1.0  0.1178
  H  H133  1  0.626100  0.140200  0.793700  1.0  0.1052
  H  H134  1  0.851800  0.451400  0.790600  1.0  0.1112
  H  H135  1  0.475000  0.154000  0.298200  1.0  0.1189
  H  H136  1  0.247600  0.177000  0.581500  1.0  0.0963
  H  H137  1  0.532700  0.626200  0.213500  1.0  0.1059
  H  H138  1  0.144300  0.717000  0.825700  1.0  0.1003
  H  H139  1  0.250300  0.272000  0.785100  1.0  0.1226
  H  H140  1  0.884700  0.842000  0.758500  1.0  0.1157
  H  H141  1  0.086100  0.446400  0.701400  1.0  0.1048
  H  H142  1  0.522600  0.762000  0.075500  1.0  0.1138
  H  H143  1  0.592200  0.850800  0.766900  1.0  0.0818
  H  H144  1  0.113300  0.460400  0.206600  1.0  0.113
  H  H145  1  0.679400  0.848200  0.064400  1.0  0.1211
  H  H146  1  0.479400  0.985200  0.225100  1.0  0.166
  H  H147  1  0.249100  0.333200  0.642000  1.0  0.1202
  H  H148  1  0.726200  0.353800  0.274400  1.0  0.0994
  H  H149  1  0.091500  0.953600  0.277300  1.0  0.1104
  H  H150  1  0.306600  0.254000  0.075700  1.0  0.1253
  H  H151  1  0.951900  0.853000  0.643400  1.0  0.1205
  H  H152  1  0.989700  0.944200  0.618300  1.0  0.1124
  H  H153  1  0.505500  0.278600  0.329500  1.0  0.12
  H  H154  1  0.115900  0.853200  0.541100  1.0  0.1102
  H  H155  1  0.483300  0.183600  0.396800  1.0  0.108
  H  H156  1  0.417700  0.333200  0.358000  1.0  0.1222
  H  H157  1  0.176200  0.242800  0.053900  1.0  0.1181
  H  H158  1  0.095700  0.944200  0.592600  1.0  0.1166
  H  H159  1  0.448800  0.757600  0.292100  1.0  0.127
  H  H160  1  0.333100  0.183600  0.603200  1.0  0.1128
  H  H161  1  0.631200  0.829600  0.923200  1.0  0.1162
  H  H162  1  0.414000  0.261800  0.358600  1.0  0.1309
  H  H163  1  0.033900  0.785000  0.646400  1.0  0.1146
  H  H164  1  0.713700  0.747800  0.748700  1.0  0.1196
  H  H165  1  0.400800  0.656200  0.325200  1.0  0.1178
  H  H166  1  0.123200  0.793800  0.438500  1.0  0.1264
  H  H167  1  0.803600  0.361800  0.398300  1.0  0.1297
  H  H168  1  0.806300  0.960800  0.166600  1.0  0.1161
  H  H169  1  0.629600  0.391000  0.175400  1.0  0.07
  H  H170  1  0.128900  0.522600  0.222600  1.0  0.1162
  H  H171  1  0.479900  0.325200  0.831800  1.0  0.1177
  H  H172  1  0.482600  0.403200  0.226900  1.0  0.0815
  H  H173  1  0.144000  0.657400  0.700400  1.0  0.0829
  H  H174  1  0.788100  0.329200  0.154300  1.0  0.1103
  H  H175  1  0.116100  0.362800  0.556100  1.0  0.1207
  H  H176  1  0.251300  0.268200  0.533500  1.0  0.1061
  H  H177  1  0.967800  0.640800  0.722600  1.0  0.117
  H  H178  1  0.618100  0.425800  0.327700  1.0  0.0789
  H  H179  1  0.521100  0.362800  0.443900  1.0  0.1206
  H  H180  1  0.712800  0.666000  0.129400  1.0  0.1221
  H  H181  1  0.477200  0.747600  0.605300  1.0  0.1237
  H  H182  1  0.106500  0.421400  0.071600  1.0  0.1218
  H  H183  1  0.771900  0.622400  0.388200  1.0  0.1169
  H  H184  1  0.285400  0.365400  0.237200  1.0  0.1117
  H  H185  1  0.132800  0.863800  0.436900  1.0  0.112
  H  H186  1  0.530100  0.263400  0.256000  1.0  0.1133
  H  H187  1  0.201200  0.637600  0.225000  1.0  0.1082
  H  H188  1  0.923600  0.981000  0.113200  1.0  0.1175
  H  H189  1  0.467500  0.446400  0.298600  1.0  0.1052
  H  H190  1  0.347700  0.093600  0.726600  1.0  0.1251
  H  H191  1  0.579100  0.206000  0.731500  1.0  0.0921
  H  H192  1  0.026200  0.843400  0.675900  1.0  0.1201
  H  H193  1  0.309300  0.616600  0.710900  1.0  0.0823
  H  H194  1  0.428900  0.834400  0.753000  1.0  0.0873
  H  H195  1  0.672900  0.914600  0.180100  1.0  0.095
  H  H196  1  0.001700  0.122800  0.879000  1.0  0.1179
  H  H197  1  0.062400  0.695000  0.772300  1.0  0.1135
  H  H198  1  0.736700  0.834400  0.247000  1.0  0.0878
  H  H199  1  0.388500  0.175600  0.230400  1.0  0.1144
  H  H200  1  0.114600  0.482200  0.347000  1.0  0.1265
  H  H201  1  0.539200  0.829600  0.076800  1.0  0.1188
  H  H202  1  0.242600  0.695000  0.227700  1.0  0.1133
  H  H203  1  0.841100  0.626200  0.786500  1.0  0.1069
  H  H204  1  0.324200  0.261800  0.641400  1.0  0.1337
  H  H205  1  0.130400  0.843400  0.324100  1.0  0.1209
  H  H206  1  0.313500  0.465000  0.800200  1.0  0.1145
  H  H207  1  0.875500  0.122800  0.121000  1.0  0.1178
  H  H208  1  0.956100  0.425800  0.672300  1.0  0.0795
  H  H209  1  0.704000  0.665200  0.896800  1.0  0.1073
  H  H210  1  0.919200  0.833000  0.804400  1.0  0.1202
  H  H211  1  0.077300  0.181400  0.185100  1.0  0.0935
  H  H212  1  0.011300  0.131600  0.267400  1.0  0.1156
  H  H213  1  0.141900  0.729800  0.704300  1.0  0.0814
  H  H214  1  0.336300  0.317400  0.064700  1.0  0.1179
  H  H215  1  0.346300  0.317400  0.935300  1.0  0.1171
  H  H216  1  0.868300  0.615400  0.640600  1.0  0.1271
  H  H217  1  0.347900  0.251200  0.553900  1.0  0.1046
  H  H218  1  0.221800  0.851000  0.896700  1.0  0.1224
  H  H219  1  0.403200  0.482200  0.653000  1.0  0.1263
  H  H220  1  0.450900  0.183600  0.183300  1.0  0.1169
  H  H221  1  0.671800  0.968200  0.261200  1.0  0.1042
  H  H222  1  0.741300  0.181400  0.814900  1.0  0.0923
  H  H223  1  0.650900  0.828600  0.845200  1.0  0.1225
  H  H224  1  0.468600  0.830400  0.659500  1.0  0.1811
  H  H225  1  0.046300  0.651600  0.213200  1.0  0.1055
  H  H226  1  0.247800  0.833000  0.195600  1.0  0.1203
  H  H227  1  0.586500  0.181000  0.366500  1.0  0.1103
  H  H228  1  0.435900  0.175600  0.769600  1.0  0.1165
  H  H229  1  0.215900  0.278600  0.670500  1.0  0.1218
  H  H230  1  0.206500  0.263400  0.744000  1.0  0.1125
  H  H231  1  0.927200  0.851000  0.103300  1.0  0.1237
  H  H232  1  0.520500  0.828600  0.154800  1.0  0.1236
  H  H233  1  0.161200  0.637600  0.775000  1.0  0.1109
  H  H234  1  0.960100  0.944200  0.407400  1.0  0.1166
  H  H235  1  0.297100  0.450000  0.689800  1.0  0.1162
  H  H236  1  0.699700  0.115400  0.748500  1.0  0.0997
  H  H237  1  0.310000  0.927200  0.167100  1.0  0.117
  H  H238  1  0.670200  0.288200  0.713100  1.0  0.1073
  H  H239  1  0.328800  0.936000  0.214500  1.0  0.1287
  H  H240  1  0.127600  0.011400  0.255700  1.0  0.1183
  H  H241  1  0.892000  0.651000  0.333800  1.0  0.1184
  H  H242  1  0.575400  0.177000  0.418500  1.0  0.0971
  H  H243  1  0.477700  0.272000  0.214900  1.0  0.1216
  H  H244  1  0.535400  0.985200  0.774900  1.0  0.1657
  H  H245  1  0.114200  0.403200  0.773100  1.0  0.081
  H  H246  1  0.834600  0.361800  0.601700  1.0  0.1292
  H  H247  1  0.861800  0.237200  0.890900  1.0  0.1198
  H  H248  1  0.919000  0.131000  0.826200  1.0  0.1084
  H  H249  1  0.644300  0.338400  0.213200  1.0  0.088
  H  H250  1  0.618200  0.773400  0.046100  1.0  0.1144
  H  H251  1  0.302100  0.651600  0.786800  1.0  0.1068
  H  H252  1  0.696800  0.451400  0.209400  1.0  0.1123
  H  H253  1  0.882700  0.329200  0.845700  1.0  0.109
  H  H254  1  0.797000  0.456600  0.676100  1.0  0.1272
  H  H255  1  0.286800  0.121800  0.849800  1.0  0.1229
  H  H256  1  0.371000  0.154000  0.701800  1.0  0.1169
  H  H257  1  0.587800  0.149400  0.291100  1.0  0.1178
  H  H258  1  0.648100  0.770200  0.818700  1.0  0.1233
  H  H259  1  0.297700  0.748000  0.721600  1.0  0.098
  H  H260  1  0.909900  0.297400  0.337200  1.0  0.0983
  H  H261  1  0.017300  0.338400  0.786800  1.0  0.0862
  H  H262  1  0.372900  0.333400  0.860300  1.0  0.118
  H  H263  1  0.950000  0.131000  0.173800  1.0  0.1073
  H  H264  1  0.715400  0.762000  0.924500  1.0  0.1119
  H  H265  1  0.083000  0.793800  0.561500  1.0  0.1263
  H  H266  1  0.076200  0.934000  0.644400  1.0  0.12
  H  H267  1  0.252900  0.450000  0.310200  1.0  0.1175
  H  H268  1  0.949500  0.587600  0.696400  1.0  0.1158
  H  H269  1  0.557000  0.850800  0.233100  1.0  0.0812
  H  H270  1  0.512100  0.914400  0.690600  1.0  0.0938
  H  H271  1  0.591400  0.121800  0.150200  1.0  0.1224
  H  H272  1  0.459900  0.267000  0.860900  1.0  0.1422
  H  H273  1  0.198600  0.657400  0.299600  1.0  0.084
  H  H274  1  0.092200  0.770600  0.212500  1.0  0.1004
  H  H275  1  0.349200  0.365400  0.762800  1.0  0.1113
  H  H276  1  0.621200  0.666000  0.870600  1.0  0.123
  H  H277  1  0.195100  0.853000  0.356600  1.0  0.123
  H  H278  1  0.214300  0.515800  0.284800  1.0  0.1143
  H  H279  1  0.735200  0.936000  0.785500  1.0  0.1282
  H  H280  1  0.348500  0.522600  0.777400  1.0  0.1131
  H  H281  1  0.463500  0.355000  0.758600  1.0  0.1112
  H  H282  1  0.194900  0.325200  0.168200  1.0  0.1172
  H  H283  1  0.232500  0.181000  0.633500  1.0  0.1095
  H  H284  1  0.746400  0.456600  0.323900  1.0  0.1271
  C  C285  1  0.968900  0.490200  0.369000  1.0  -0.1404
  C  C286  1  0.647200  0.663600  0.704000  1.0  0.3062
  C  C287  1  0.105400  0.306800  0.104700  1.0  0.0002
  C  C288  1  0.984700  0.384600  0.793100  1.0  -0.1149
  C  C289  1  0.241500  0.469200  0.281800  1.0  -0.3693
  C  C290  1  0.792400  0.602200  0.570600  1.0  0.609
  C  C291  1  0.841200  0.336200  0.163600  1.0  0.1779
  C  C292  1  0.675900  0.150200  0.770400  1.0  -0.1022
  C  C293  1  0.149400  0.831400  0.352500  1.0  -0.3639
  C  C294  1  0.486700  0.663200  0.686900  1.0  0.089
  C  C295  1  0.486100  0.249200  0.242600  1.0  -0.3665
  C  C296  1  0.400500  0.837000  0.669200  1.0  0.0917
  C  C297  1  0.225900  0.129000  0.841200  1.0  -0.1471
  C  C298  1  0.086700  0.149600  0.209000  1.0  -0.1112
  C  C299  1  0.579400  0.888000  0.747000  1.0  -0.1693
  C  C300  1  0.897400  0.453600  0.315600  1.0  -0.0957
  C  C301  1  0.728900  0.629200  0.368200  1.0  -0.0863
  C  C302  1  0.050600  0.417800  0.716700  1.0  -0.1015
  C  C303  1  0.633100  0.479400  0.642800  1.0  -0.015
  C  C304  1  0.264700  0.249200  0.757400  1.0  -0.3662
  C  C305  1  0.592300  0.304800  0.389900  1.0  0.0013
  C  C306  1  0.135000  0.682600  0.765700  1.0  -0.1483
  C  C307  1  0.521200  0.878000  0.711200  1.0  -0.1926
  C  C308  1  0.745200  0.614800  0.619200  1.0  -0.1491
  C  C309  1  0.058600  0.241200  0.284400  1.0  -0.2009
  C  C310  1  0.541900  0.196200  0.394400  1.0  -0.3405
  C  C311  1  0.337700  0.857200  0.921500  1.0  -0.1501
  C  C312  1  0.536300  0.949600  0.226900  1.0  -0.1497
  C  C313  1  0.408100  0.764000  0.607300  1.0  -0.0746
  C  C314  1  0.261900  0.196200  0.605600  1.0  -0.3389
  C  C315  1  0.436400  0.633600  0.297700  1.0  -0.3266
  C  C316  1  0.279800  0.279400  0.556200  1.0  -0.3418
  C  C317  1  0.348300  0.788200  0.861200  1.0  0.032
  C  C318  1  0.070600  0.348000  0.576500  1.0  -0.1023
  C  C319  1  0.524200  0.659800  0.276800  1.0  0.0934
  C  C320  1  0.575700  0.625000  0.351000  1.0  -0.1167
  C  C321  1  0.587800  0.306800  0.895300  1.0  0.0013
  C  C322  1  0.088700  0.839600  0.435400  1.0  -0.3646
  C  C323  1  0.737600  0.099000  0.084200  1.0  0.7407
  C  C324  1  0.283400  0.662600  0.703800  1.0  -0.1399
  C  C325  1  0.813500  0.917000  0.048200  1.0  0.6607
  C  C326  1  0.996900  0.166400  0.245100  1.0  -0.0415
  C  C327  1  0.946100  0.947400  0.811900  1.0  -0.0015
  C  C328  1  0.783400  0.733000  0.734700  1.0  -0.3516
  C  C329  1  0.900000  0.009000  0.928300  1.0  0.6814
  C  C330  1  0.055300  0.176600  0.045700  1.0  0.6866
  C  C331  1  0.480800  0.449200  0.702500  1.0  0.0015
  C  C332  1  0.783900  0.764200  0.143400  1.0  0.3281
  C  C333  1  0.279600  0.697800  0.778200  1.0  0.0121
  C  C334  1  0.464900  0.475000  0.660900  1.0  -0.173
  C  C335  1  0.046400  0.941000  0.796100  1.0  0.2618
  C  C336  1  0.649000  0.453600  0.684400  1.0  -0.0959
  C  C337  1  0.300100  0.770000  0.833900  1.0  0.1223
  C  C338  1  0.189900  0.338000  0.101300  1.0  0.1117
  C  C339  1  0.923400  0.854600  0.776000  1.0  -0.3669
  C  C340  1  0.827900  0.764000  0.392700  1.0  -0.0756
  C  C341  1  0.022600  0.697800  0.221800  1.0  0.0085
  C  C342  1  0.882700  0.928200  0.783000  1.0  0.1449
  C  C343  1  0.877100  0.693600  0.455900  1.0  0.711
  C  C344  1  0.762500  0.837000  0.330800  1.0  0.0898
  C  C345  1  0.291200  0.834800  0.893600  1.0  -0.1445
  C  C346  1  0.367100  0.476000  0.780800  1.0  -0.3784
  C  C347  1  0.727500  0.232000  0.923400  1.0  -0.1112
  C  C348  1  0.667700  0.782000  0.844200  1.0  -0.3428
  C  C349  1  0.882800  0.404800  0.782900  1.0  0.0686
  C  C350  1  0.429300  0.693600  0.544100  1.0  0.7095
  C  C351  1  0.805600  0.150600  0.184300  1.0  0.1961
  C  C352  1  0.019200  0.831400  0.647500  1.0  -0.362
  C  C353  1  0.060500  0.925400  0.617000  1.0  -0.3686
  C  C354  1  0.630700  0.384600  0.206900  1.0  -0.1135
  C  C355  1  0.612400  0.758200  0.887100  1.0  0.1169
  C  C356  1  0.063300  0.979000  0.116100  1.0  -0.1482
  C  C357  1  0.417400  0.298800  0.933500  1.0  -0.3296
  C  C358  1  0.847200  0.949200  0.187700  1.0  0.1027
  C  C359  1  0.680500  0.685000  0.105100  1.0  -0.3478
  C  C360  1  0.888400  0.746400  0.424400  1.0  -0.1504
  C  C361  1  0.043800  0.150600  0.815700  1.0  0.1983
  C  C362  1  0.040500  0.232000  0.076600  1.0  -0.1103
  C  C363  1  0.806400  0.441600  0.303500  1.0  0.1411
  C  C364  1  0.592900  0.653600  0.674200  1.0  -0.0674
  C  C365  1  0.531100  0.175800  0.233700  1.0  0.1691
  C  C366  1  0.419600  0.872800  0.733300  1.0  0.1133
  C  C367  1  0.407300  0.948000  0.796800  1.0  -0.1798
  C  C368  1  0.091000  0.009000  0.071700  1.0  0.6853
  C  C369  1  0.571800  0.783200  0.074100  1.0  -0.3456
  C  C370  1  0.891000  0.148000  0.194700  1.0  0.0675
  C  C371  1  0.605400  0.602200  0.429400  1.0  0.6094
  C  C372  1  0.131800  0.966400  0.144200  1.0  -0.1603
  C  C373  1  0.715000  0.786600  0.115500  1.0  0.0304
  C  C374  1  0.713200  0.400000  0.266600  1.0  0.0798
  C  C375  1  0.148100  0.965200  0.261300  1.0  -0.3659
  C  C376  1  0.635300  0.150200  0.201800  1.0  0.0174
  C  C377  1  0.956700  0.517600  0.415800  1.0  0.615
  C  C378  1  0.289300  0.469200  0.718200  1.0  -0.3693
  C  C379  1  0.483600  0.733000  0.265300  1.0  -0.3518
  C  C380  1  0.704000  0.931800  0.240000  1.0  0.0066
  C  C381  1  0.365200  0.746400  0.575600  1.0  -0.1518
  C  C382  1  0.682300  0.283000  0.359400  1.0  0.3092
  C  C383  1  0.514100  0.949600  0.773100  1.0  -0.1486
  C  C384  1  0.689200  0.663600  0.296000  1.0  0.3091
  C  C385  1  0.973400  0.702000  0.269700  1.0  0.0606
  C  C386  1  0.715600  0.161000  0.214600  1.0  0.3352
  C  C387  1  0.070000  0.449200  0.297500  1.0  -0.0003
  C  C388  1  0.214500  0.150200  0.798200  1.0  0.0171
  C  C389  1  0.145900  0.685400  0.285100  1.0  -0.1165
  C  C390  1  0.707600  0.872800  0.266700  1.0  0.1102
  C  C391  1  0.243200  0.313600  0.140800  1.0  -0.3418
  C  C392  1  0.017000  0.329600  0.136100  1.0  0.2828
  C  C393  1  0.948000  0.437000  0.703300  1.0  -0.1074
  C  C394  1  0.985600  0.812600  0.387000  1.0  0.0264
  C  C395  1  0.057900  0.972600  0.868000  1.0  -0.116
  C  C396  1  0.925000  0.830400  0.355300  1.0  0.2414
  C  C397  1  0.961000  0.148000  0.805300  1.0  0.0674
  C  C398  1  0.645000  0.783200  0.925900  1.0  -0.3461
  C  C399  1  0.634500  0.685000  0.894900  1.0  -0.3466
  C  C400  1  0.255100  0.287800  0.643000  1.0  -0.3749
  C  C401  1  0.874000  0.834800  0.106400  1.0  -0.1447
  C  C402  1  0.034700  0.283000  0.640600  1.0  0.3113
  C  C403  1  0.443200  0.313600  0.859200  1.0  -0.3415
  C  C404  1  0.221300  0.371400  0.256100  1.0  -0.3747
  C  C405  1  0.970000  0.369400  0.573400  1.0  -0.1355
  C  C406  1  0.579200  0.620400  0.233000  1.0  -0.3785
  C  C407  1  0.123400  0.161000  0.785400  1.0  0.3356
  C  C408  1  0.822600  0.336200  0.836400  1.0  0.1722
  C  C409  1  0.161600  0.213600  0.251900  1.0  -0.1282
  C  C410  1  0.645100  0.129000  0.158800  1.0  -0.1455
  C  C411  1  0.850100  0.663200  0.313100  1.0  0.0899
  C  C412  1  0.756100  0.303400  0.862200  1.0  -0.0767
  C  C413  1  0.799400  0.226200  0.731500  1.0  0.0763
  C  C414  1  0.815300  0.129600  0.141300  1.0  -0.1202
  C  C415  1  0.440800  0.279400  0.443800  1.0  -0.343
  C  C416  1  0.283800  0.298800  0.066500  1.0  -0.3276
  C  C417  1  0.110800  0.724400  0.205900  1.0  -0.1007
  C  C418  1  0.269500  0.917000  0.951800  1.0  0.6634
  C  C419  1  0.901800  0.347600  0.603800  1.0  -0.1155
  C  C420  1  0.457100  0.287800  0.357000  1.0  -0.372
  C  C421  1  0.761400  0.304400  0.362600  1.0  -0.084
  C  C422  1  0.644700  0.948000  0.203200  1.0  -0.1799
  C  C423  1  0.201800  0.812600  0.613000  1.0  0.0282
  C  C424  1  0.451900  0.764200  0.856600  1.0  0.3274
  C  C425  1  0.859500  0.282800  0.331900  1.0  0.1293
  C  C426  1  0.753500  0.653600  0.325800  1.0  -0.0682
  C  C427  1  0.117100  0.258000  0.075000  1.0  -0.1173
  C  C428  1  0.887500  0.479400  0.357200  1.0  -0.0158
  C  C429  1  0.156900  0.476000  0.219200  1.0  -0.3777
  C  C430  1  0.164800  0.724400  0.794100  1.0  -0.0984
  C  C431  1  0.940500  0.303400  0.137800  1.0  -0.0752
  C  C432  1  0.771000  0.948600  0.804600  1.0  -0.372
  C  C433  1  0.168700  0.685400  0.714900  1.0  -0.114
  C  C434  1  0.244600  0.830400  0.644700  1.0  0.2428
  C  C435  1  0.539100  0.139800  0.278300  1.0  -0.3587
  C  C436  1  0.054000  0.662600  0.296200  1.0  -0.1416
  C  C437  1  0.511600  0.271000  0.396700  1.0  0.0848
  C  C438  1  0.441300  0.833200  0.917000  1.0  -0.1186
  C  C439  1  0.600800  0.878000  0.288800  1.0  -0.1943
  C  C440  1  0.217400  0.271000  0.603300  1.0  0.0854
  C  C441  1  0.498400  0.786600  0.884500  1.0  0.027
  C  C442  1  0.641900  0.629200  0.631800  1.0  -0.0797
  C  C443  1  0.173900  0.150200  0.229600  1.0  -0.1019
  C  C444  1  0.816000  0.659800  0.723200  1.0  0.0928
  C  C445  1  0.615000  0.437000  0.296700  1.0  -0.1077
  C  C446  1  0.712400  0.404800  0.217100  1.0  0.0711
  C  C447  1  0.280400  0.948600  0.195400  1.0  -0.3708
  C  C448  1  0.092500  0.852000  0.610300  1.0  0.1811
  C  C449  1  0.640000  0.614800  0.380800  1.0  -0.1482
  C  C450  1  0.624900  0.258000  0.925000  1.0  -0.118
  C  C451  1  0.988700  0.438400  0.285700  1.0  0.2396
  C  C452  1  0.168000  0.443800  0.265700  1.0  0.1856
  C  C453  1  0.532200  0.421000  0.232700  1.0  -0.1116
  C  C454  1  0.385500  0.161000  0.788700  1.0  -0.321
  C  C455  1  0.581400  0.348000  0.423500  1.0  -0.104
  C  C456  1  0.901800  0.966400  0.855800  1.0  -0.1611
  C  C457  1  0.846200  0.806000  0.358200  1.0  -0.0346
  C  C458  1  0.805100  0.857200  0.078500  1.0  -0.1541
  C  C459  1  0.857700  0.282800  0.668100  1.0  0.1269
  C  C460  1  0.472100  0.338000  0.898700  1.0  0.1109
  C  C461  1  0.163400  0.099000  0.915800  1.0  0.7428
  C  C462  1  0.930000  0.633600  0.702300  1.0  -0.3276
  C  C463  1  0.102900  0.304800  0.610100  1.0  -0.0017
  C  C464  1  0.624800  0.213600  0.748100  1.0  -0.1288
  C  C465  1  0.182400  0.682600  0.234300  1.0  -0.1489
  C  C466  1  0.046800  0.421000  0.767300  1.0  -0.1149
  C  C467  1  0.929900  0.770000  0.166100  1.0  0.1208
  C  C468  1  0.793200  0.254600  0.892000  1.0  -0.0806
  C  C469  1  0.934200  0.304400  0.637400  1.0  -0.0881
  C  C470  1  0.969500  0.972600  0.132000  1.0  -0.119
  C  C471  1  0.324600  0.702000  0.730300  1.0  0.0592
  C  C472  1  0.550300  0.782000  0.155800  1.0  -0.3416
  C  C473  1  0.321100  0.139800  0.721700  1.0  -0.3588
  C  C474  1  0.453500  0.161000  0.211300  1.0  -0.3223
  C  C475  1  0.944100  0.953600  0.175900  1.0  0.0122
  C  C476  1  0.800400  0.620400  0.767000  1.0  -0.3779
  C  C477  1  0.763700  0.149600  0.791000  1.0  -0.1134
  C  C478  1  0.886800  0.400000  0.733400  1.0  0.079
  C  C479  1  0.071700  0.839600  0.564600  1.0  -0.364
  C  C480  1  0.060100  0.475000  0.339100  1.0  -0.1715
  C  C481  1  0.203600  0.949200  0.812300  1.0  0.102
  C  C482  1  0.974400  0.226200  0.268500  1.0  0.0769
  C  C483  1  0.700200  0.241200  0.715600  1.0  -0.1994
  C  C484  1  0.014100  0.925400  0.383000  1.0  -0.3689
  C  C485  1  0.453000  0.412600  0.901900  1.0  -0.3688
  C  C486  1  0.146200  0.118800  0.871500  1.0  -0.1079
  C  C487  1  0.836700  0.166400  0.754900  1.0  -0.0432
  C  C488  1  0.660600  0.369400  0.426600  1.0  -0.1315
  C  C489  1  0.540900  0.490200  0.631000  1.0  -0.141
  C  C490  1  0.863500  0.788200  0.138800  1.0  0.0269
  C  C491  1  0.102300  0.953600  0.824100  1.0  0.0108
  C  C492  1  0.407300  0.371400  0.743900  1.0  -0.3762
  C  C493  1  0.600300  0.649400  0.308600  1.0  0.0171
  C  C494  1  0.886700  0.965200  0.738700  1.0  -0.3652
  C  C495  1  0.629400  0.758200  0.112900  1.0  0.1189
  C  C496  1  0.725500  0.833200  0.083000  1.0  -0.1174
  C  C497  1  0.364200  0.931800  0.760000  1.0  0.0099
  C  C498  1  0.222000  0.854600  0.224000  1.0  -0.3679
  C  C499  1  0.752000  0.441600  0.696500  1.0  0.141
  C  C500  1  0.930500  0.427800  0.543100  1.0  0.68
  C  C501  1  0.388200  0.443800  0.734300  1.0  0.1868
  C  C502  1  0.952200  0.254600  0.108000  1.0  -0.0813
  C  C503  1  0.967300  0.770600  0.421500  1.0  -0.1366
  C  C504  1  0.525700  0.517600  0.584200  1.0  0.6158
  C  C505  1  0.531600  0.417800  0.283300  1.0  -0.1023
  C  C506  1  0.735000  0.118800  0.128500  1.0  -0.1084
  C  C507  1  0.572900  0.438400  0.714300  1.0  0.2408
  C  C508  1  0.293100  0.175800  0.766300  1.0  0.1685
  C  C509  1  0.262100  0.770600  0.578500  1.0  -0.1353
  C  C510  1  0.957700  0.979000  0.883900  1.0  -0.1466
  C  C511  1  0.768100  0.176600  0.954300  1.0  0.6861
  C  C512  1  0.347800  0.806000  0.641800  1.0  -0.0317
  C  C513  1  0.750600  0.347600  0.396200  1.0  -0.1172
  C  C514  1  0.641700  0.427800  0.456900  1.0  0.6776
  C  C515  1  0.750300  0.649400  0.691400  1.0  0.0171
  C  C516  1  0.653400  0.329600  0.863900  1.0  0.282
  C  C517  1  0.134400  0.412600  0.098100  1.0  -0.3677
  C  C518  1  0.106500  0.947400  0.188100  1.0  -0.0032
  C  C519  1  0.189100  0.928200  0.217000  1.0  0.1433
  C  C520  1  0.532600  0.888000  0.253000  1.0  -0.1693
  C  C521  1  0.799300  0.625000  0.649000  1.0  -0.1154
  C  C522  1  0.012600  0.941000  0.203900  1.0  0.2625
  C  C523  1  0.055100  0.129600  0.858700  1.0  -0.1217
  C  C524  1  0.055500  0.852000  0.389700  1.0  0.1804
  N  N525  1  0.929700  0.732000  0.201800  1.0  -0.362
  N  N526  1  0.256900  0.930200  0.774400  1.0  -0.3517
  N  N527  1  0.774000  0.869400  0.297400  1.0  -0.2135
  N  N528  1  0.356600  0.869400  0.702600  1.0  -0.2148
  N  N529  1  0.338300  0.732000  0.798200  1.0  -0.3596
  N  N530  1  0.879200  0.246000  0.299000  1.0  -0.3134
  N  N531  1  0.426500  0.688200  0.726000  1.0  -0.2186
  N  N532  1  0.812900  0.930200  0.225600  1.0  -0.3495
  N  N533  1  0.818000  0.373000  0.196800  1.0  -0.2758
  N  N534  1  0.874800  0.246000  0.701000  1.0  -0.3136
  N  N535  1  0.780900  0.415400  0.729000  1.0  -0.2374
  N  N536  1  0.885300  0.688200  0.274000  1.0  -0.2187
  N  N537  1  0.803700  0.415400  0.271000  1.0  -0.2422
  N  N538  1  0.934300  0.168600  0.766000  1.0  -0.3584
  N  N539  1  0.897100  0.168600  0.234000  1.0  -0.3606
  N  N540  1  0.809000  0.373000  0.803200  1.0  -0.2747
  O  O541  1  0.247600  0.085600  0.925000  1.0  -0.6046
  O  O542  1  0.537300  0.576400  0.437800  1.0  -0.5941
  O  O543  1  0.389900  0.667800  0.521000  1.0  -0.6582
  O  O544  1  0.862300  0.159600  0.958400  1.0  -0.6443
  O  O545  1  0.840200  0.440200  0.542400  1.0  -0.6107
  O  O546  1  0.664900  0.593600  0.459300  1.0  -0.7248
  O  O547  1  0.716100  0.145000  0.975000  1.0  -0.6806
  O  O548  1  0.942300  0.667800  0.479000  1.0  -0.6612
  O  O549  1  0.012800  0.366400  0.170800  1.0  -0.6141
  O  O550  1  0.034400  0.528400  0.421200  1.0  -0.6151
  O  O551  1  0.620800  0.366400  0.829200  1.0  -0.612
  O  O552  1  0.327000  0.941800  0.967900  1.0  -0.6492
  O  O553  1  0.813300  0.088000  0.054900  1.0  -0.7155
  O  O554  1  0.947900  0.007400  0.957800  1.0  -0.6656
  O  O555  1  0.995900  0.448000  0.517600  1.0  -0.7018
  O  O556  1  0.709200  0.185000  0.253600  1.0  -0.6218
  O  O557  1  0.510800  0.728200  0.822400  1.0  -0.5931
  O  O558  1  0.600500  0.689600  0.742900  1.0  -0.6151
  O  O559  1  0.719600  0.440200  0.457600  1.0  -0.6121
  O  O560  1  0.761000  0.728200  0.177600  1.0  -0.5934
  O  O561  1  0.873000  0.525800  0.444600  1.0  -0.7313
  O  O562  1  0.556100  0.448000  0.482400  1.0  -0.7007
  O  O563  1  0.525000  0.679000  0.536900  1.0  -0.6914
  O  O564  1  0.731200  0.941800  0.032100  1.0  -0.65
  O  O565  1  0.186100  0.862200  0.683400  1.0  -0.6135
  O  O566  1  0.601200  0.525800  0.555400  1.0  -0.7294
  O  O567  1  0.066500  0.245800  0.674300  1.0  -0.5981
  O  O568  1  0.978100  0.159600  0.041600  1.0  -0.6444
  O  O569  1  0.741500  0.593600  0.540700  1.0  -0.7247
  O  O570  1  0.951700  0.862200  0.316600  1.0  -0.6159
  O  O571  1  0.886300  0.576400  0.562200  1.0  -0.5935
  O  O572  1  0.105800  0.185000  0.746400  1.0  -0.6224
  O  O573  1  0.098700  0.088000  0.945100  1.0  -0.7151
  O  O574  1  0.087900  0.917600  0.753900  1.0  -0.5936
  O  O575  1  0.186200  0.937800  0.955500  1.0  -0.6735
  O  O576  1  0.687700  0.245800  0.325700  1.0  -0.5985
  O  O577  1  0.579800  0.412600  0.756900  1.0  -0.6012
  O  O578  1  0.811500  0.012200  0.938100  1.0  -0.6139
  O  O579  1  0.796000  0.679000  0.463100  1.0  -0.6922
  O  O580  1  0.007600  0.412600  0.243100  1.0  -0.6006
  O  O581  1  0.044700  0.007400  0.042200  1.0  -0.6684
  O  O582  1  0.176300  0.012200  0.061900  1.0  -0.6143
  O  O583  1  0.994500  0.917600  0.246100  1.0  -0.5945
  O  O584  1  0.666800  0.085600  0.075000  1.0  -0.6053
  O  O585  1  0.138900  0.145000  0.025000  1.0  -0.6797
  O  O586  1  0.876000  0.937800  0.044500  1.0  -0.6715
  O  O587  1  0.709900  0.689600  0.257100  1.0  -0.6158
  O  O588  1  0.437200  0.528400  0.578800  1.0  -0.6164
