# generated using pymatgen
data_ZnH3C7O3
_symmetry_space_group_name_H-M   'P 1'
_cell_length_a   6.86900000
_cell_length_b   21.69800000
_cell_length_c   21.69800000
_cell_angle_alpha   120.00000000
_cell_angle_beta   90.00000000
_cell_angle_gamma   90.00000000
_symmetry_Int_Tables_number   1
_chemical_formula_structural   ZnH3C7O3
_chemical_formula_sum   'Zn6 H18 C42 O18'
_cell_volume   2800.68043686
_cell_formula_units_Z   6
loop_
 _symmetry_equiv_pos_site_id
 _symmetry_equiv_pos_as_xyz
  1  'x, y, z'
loop_
 _atom_site_type_symbol
 _atom_site_label
 _atom_site_symmetry_multiplicity
 _atom_site_fract_x
 _atom_site_fract_y
 _atom_site_fract_z
 _atom_site_occupancy
 _atom_site_charge
  Zn  Zn1  1  0.491260  0.606390  0.279470  1.0  0.9974
  Zn  Zn2  1  0.842070  0.393610  0.673080  1.0  0.9934
  Zn  Zn3  1  0.175400  0.279470  0.606390  1.0  0.9994
  Zn  Zn4  1  0.508740  0.326920  0.720530  1.0  0.9999
  Zn  Zn5  1  0.157930  0.720530  0.326920  1.0  0.9981
  Zn  Zn6  1  0.824600  0.673080  0.393610  1.0  0.999
  H  H7  1  0.792870  0.511200  0.393000  1.0  0.1159
  H  H8  1  0.011900  0.446200  0.452900  1.0  0.1076
  H  H9  1  0.873800  0.393000  0.511200  1.0  0.115
  H  H10  1  0.540470  0.488800  0.881800  1.0  0.1161
  H  H11  1  0.207130  0.118200  0.607000  1.0  0.1158
  H  H12  1  0.654770  0.452900  0.446200  1.0  0.1079
  H  H13  1  0.136030  0.542800  0.453000  1.0  0.1076
  H  H14  1  0.469370  0.910200  0.457200  1.0  0.1094
  H  H15  1  0.345230  0.006700  0.553800  1.0  0.1071
  H  H16  1  0.321430  0.553800  0.006700  1.0  0.1061
  H  H17  1  0.988100  0.993300  0.547100  1.0  0.1062
  H  H18  1  0.678570  0.547100  0.993300  1.0  0.1069
  H  H19  1  0.126200  0.881800  0.488800  1.0  0.1169
  H  H20  1  0.802700  0.547000  0.089800  1.0  0.1064
  H  H21  1  0.530630  0.453000  0.542800  1.0  0.1072
  H  H22  1  0.197300  0.457200  0.910200  1.0  0.1072
  H  H23  1  0.459530  0.607000  0.118200  1.0  0.1156
  H  H24  1  0.863970  0.089800  0.547000  1.0  0.1086
  C  C25  1  0.212030  0.613800  0.174400  1.0  0.347
  C  C26  1  0.377130  0.490600  0.455100  1.0  0.08
  C  C27  1  0.730470  0.095800  0.560200  1.0  -0.0643
  C  C28  1  0.043800  0.544900  0.035500  1.0  0.0802
  C  C29  1  0.342230  0.113200  0.596200  1.0  -0.1624
  C  C30  1  0.454630  0.174400  0.613800  1.0  0.3418
  C  C31  1  0.451930  0.395000  0.617900  1.0  0.7535
  C  C32  1  0.622870  0.035500  0.544900  1.0  0.0804
  C  C33  1  0.347630  0.570900  0.406000  1.0  -0.2028
  C  C34  1  0.319030  0.406000  0.570900  1.0  -0.2024
  C  C35  1  0.602870  0.904200  0.464400  1.0  -0.0634
  C  C36  1  0.121300  0.386200  0.560600  1.0  0.3458
  C  C37  1  0.548070  0.777100  0.382100  1.0  0.7533
  C  C38  1  0.242230  0.563800  0.046500  1.0  -0.1583
  C  C39  1  0.289530  0.455100  0.490600  1.0  0.0802
  C  C40  1  0.675570  0.483000  0.886800  1.0  -0.164
  C  C41  1  0.908900  0.953500  0.517300  1.0  -0.1588
  C  C42  1  0.091100  0.436200  0.482700  1.0  -0.1598
  C  C43  1  0.881400  0.605000  0.222900  1.0  0.7535
  C  C44  1  0.269530  0.535600  0.439800  1.0  -0.0639
  C  C45  1  0.575570  0.482700  0.436200  1.0  -0.1589
  C  C46  1  0.787970  0.439400  0.825600  1.0  0.3482
  C  C47  1  0.652370  0.164900  0.594000  1.0  -0.2021
  C  C48  1  0.680970  0.835100  0.429100  1.0  -0.2022
  C  C49  1  0.878700  0.825600  0.439400  1.0  0.3427
  C  C50  1  0.757770  0.517300  0.953500  1.0  -0.1581
  C  C51  1  0.063800  0.464400  0.904200  1.0  -0.064
  C  C52  1  0.397130  0.439800  0.535600  1.0  -0.0647
  C  C53  1  0.657770  0.517000  0.403800  1.0  -0.1644
  C  C54  1  0.545370  0.560600  0.386200  1.0  0.3482
  C  C55  1  0.214730  0.617900  0.395000  1.0  0.7529
  C  C56  1  0.991100  0.886800  0.483000  1.0  -0.1623
  C  C57  1  0.008900  0.403800  0.517000  1.0  -0.1633
  C  C58  1  0.424430  0.046500  0.563800  1.0  -0.1593
  C  C59  1  0.985700  0.429100  0.835100  1.0  -0.2028
  C  C60  1  0.324430  0.596200  0.113200  1.0  -0.1624
  C  C61  1  0.785270  0.222900  0.605000  1.0  0.7537
  C  C62  1  0.956200  0.509400  0.964500  1.0  0.0801
  C  C63  1  0.118600  0.382100  0.777100  1.0  0.7531
  C  C64  1  0.014300  0.594000  0.164900  1.0  -0.2025
  C  C65  1  0.710470  0.964500  0.509400  1.0  0.0802
  C  C66  1  0.936200  0.560200  0.095800  1.0  -0.0633
  O  O67  1  0.722070  0.286210  0.636280  1.0  -0.6355
  O  O68  1  0.364330  0.238250  0.649000  1.0  -0.6752
  O  O69  1  0.626200  0.417930  0.625310  1.0  -0.6086
  O  O70  1  0.611270  0.713790  0.350070  1.0  -0.6363
  O  O71  1  0.944600  0.636280  0.286210  1.0  -0.6351
  O  O72  1  0.031000  0.351000  0.589250  1.0  -0.6775
  O  O73  1  0.959530  0.207380  0.582070  1.0  -0.6069
  O  O74  1  0.635670  0.589250  0.351000  1.0  -0.6767
  O  O75  1  0.055400  0.350070  0.713790  1.0  -0.6363
  O  O76  1  0.388730  0.363720  0.649930  1.0  -0.6361
  O  O77  1  0.277930  0.649930  0.363720  1.0  -0.6366
  O  O78  1  0.707130  0.582070  0.207380  1.0  -0.6062
  O  O79  1  0.040470  0.625310  0.417930  1.0  -0.6055
  O  O80  1  0.302330  0.649000  0.238250  1.0  -0.6781
  O  O81  1  0.373800  0.792620  0.374690  1.0  -0.6056
  O  O82  1  0.969000  0.761750  0.410750  1.0  -0.677
  O  O83  1  0.292870  0.374690  0.792620  1.0  -0.6064
  O  O84  1  0.697670  0.410750  0.761750  1.0  -0.676
