# generated using pymatgen
data_CdH12C24O5
_symmetry_space_group_name_H-M   'P 1'
_cell_length_a   13.23400000
_cell_length_b   13.82490000
_cell_length_c   22.79470000
_cell_angle_alpha   107.64300000
_cell_angle_beta   106.87500000
_cell_angle_gamma   90.00000000
_symmetry_Int_Tables_number   1
_chemical_formula_structural   CdH12C24O5
_chemical_formula_sum   'Cd4 H48 C96 O20'
_cell_volume   3785.44950985
_cell_formula_units_Z   4
loop_
 _symmetry_equiv_pos_site_id
 _symmetry_equiv_pos_as_xyz
  1  'x, y, z'
loop_
 _atom_site_type_symbol
 _atom_site_label
 _atom_site_symmetry_multiplicity
 _atom_site_fract_x
 _atom_site_fract_y
 _atom_site_fract_z
 _atom_site_occupancy
 _atom_site_charge
  Cd  Cd1  1  0.151600  0.500000  0.000000  1.0  1.1505
  Cd  Cd2  1  0.165820  0.234300  0.966960  1.0  1.115
  Cd  Cd3  1  0.198860  0.765700  0.033040  1.0  1.111
  Cd  Cd4  1  0.207400  0.000000  0.000000  1.0  0.8313
  H  H5  1  0.923700  0.990200  0.768400  1.0  0.1317
  H  H6  1  0.179500  0.869600  0.857400  1.0  0.1261
  H  H7  1  0.538100  0.430400  0.364400  1.0  0.1254
  H  H8  1  0.112700  0.267800  0.660600  1.0  0.1378
  H  H9  1  0.042000  0.265700  0.241800  1.0  0.1244
  H  H10  1  0.305700  0.259200  0.395600  1.0  0.1403
  H  H11  1  0.697900  0.605600  0.648200  1.0  0.1234
  H  H12  1  0.432300  0.753000  0.238600  1.0  0.129
  H  H13  1  0.831000  0.517400  0.884000  1.0  0.1266
  H  H14  1  0.348000  0.783600  0.897800  1.0  0.1311
  H  H15  1  0.242100  0.483500  0.817800  1.0  0.1184
  H  H16  1  0.837600  0.597800  0.513600  1.0  0.1317
  H  H17  1  0.153100  0.574800  0.164000  1.0  0.1155
  H  H18  1  0.908100  0.446100  0.735200  1.0  0.1322
  H  H19  1  0.752200  0.388200  0.234000  1.0  0.1334
  H  H20  1  0.049700  0.394400  0.351800  1.0  0.1256
  H  H21  1  0.387400  0.781200  0.803600  1.0  0.1336
  H  H22  1  0.424300  0.516500  0.182200  1.0  0.1197
  H  H23  1  0.450200  0.216400  0.102200  1.0  0.1295
  H  H24  1  0.312700  0.444100  0.288400  1.0  0.1293
  H  H25  1  0.155300  0.009800  0.231600  1.0  0.1316
  H  H26  1  0.951100  0.754600  0.847200  1.0  0.1263
  H  H27  1  0.583800  0.218800  0.196400  1.0  0.1323
  H  H28  1  0.680100  0.497100  0.795200  1.0  0.1385
  H  H29  1  0.322100  0.130400  0.142600  1.0  0.1279
  H  H30  1  0.181500  0.166700  0.313400  1.0  0.1417
  H  H31  1  0.983200  0.417700  0.439200  1.0  0.1326
  H  H32  1  0.868100  0.833300  0.686600  1.0  0.1397
  H  H33  1  0.173700  0.569600  0.635600  1.0  0.1264
  H  H34  1  0.349300  0.769500  0.428200  1.0  0.1415
  H  H35  1  0.324000  0.402200  0.486400  1.0  0.1305
  H  H36  1  0.989100  0.425200  0.836000  1.0  0.1168
  H  H37  1  0.884900  0.502900  0.204800  1.0  0.138
  H  H38  1  0.172900  0.553900  0.264800  1.0  0.1319
  H  H39  1  0.024300  0.555900  0.711600  1.0  0.1266
  H  H40  1  0.947000  0.482600  0.116000  1.0  0.1283
  H  H41  1  0.544000  0.582300  0.560800  1.0  0.1335
  H  H42  1  0.103900  0.245400  0.152800  1.0  0.1241
  H  H43  1  0.123800  0.712700  0.775600  1.0  0.1214
  H  H44  1  0.800200  0.734300  0.758200  1.0  0.1248
  H  H45  1  0.910100  0.740800  0.604400  1.0  0.1399
  H  H46  1  0.921100  0.230500  0.571800  1.0  0.1417
  H  H47  1  0.518200  0.611800  0.766000  1.0  0.1342
  H  H48  1  0.348200  0.287300  0.224400  1.0  0.1213
  H  H49  1  0.193700  0.247000  0.761400  1.0  0.1289
  H  H50  1  0.452100  0.732200  0.339400  1.0  0.137
  H  H51  1  0.557800  0.518800  0.276200  1.0  0.1323
  H  H52  1  0.281600  0.481200  0.723800  1.0  0.1319
  C  C53  1  0.290800  0.665900  0.191800  1.0  -0.0657
  C  C54  1  0.116300  0.862200  0.822800  1.0  -0.0418
  C  C55  1  0.966100  0.405700  0.740600  1.0  -0.0769
  C  C56  1  0.957600  0.386200  0.231600  1.0  0.0621
  C  C57  1  0.759600  0.408000  0.327600  1.0  0.0508
  C  C58  1  0.735200  0.549400  0.805800  1.0  -0.1297
  C  C59  1  0.538700  0.588300  0.602400  1.0  -0.1159
  C  C60  1  0.799000  0.394200  0.275600  1.0  -0.1522
  C  C61  1  0.344200  0.702900  0.431600  1.0  -0.1056
  C  C62  1  0.918600  0.674200  0.607800  1.0  -0.2229
  C  C63  1  0.975800  0.397900  0.345600  1.0  -0.1109
  C  C64  1  0.391400  0.700200  0.303800  1.0  -0.1236
  C  C65  1  0.329100  0.508100  0.441200  1.0  0.0494
  C  C66  1  0.059500  0.297700  0.163400  1.0  -0.0348
  C  C67  1  0.424700  0.366200  0.133400  1.0  -0.0977
  C  C68  1  0.998300  0.662700  0.936400  1.0  0.4315
  C  C69  1  0.432000  0.592000  0.672400  1.0  0.0516
  C  C70  1  0.022600  0.309700  0.216200  1.0  -0.1136
  C  C71  1  0.788600  0.430600  0.440400  1.0  0.0041
  C  C72  1  0.844800  0.406900  0.504800  1.0  0.0062
  C  C73  1  0.896100  0.702300  0.836600  1.0  -0.0314
  C  C74  1  0.472100  0.277800  0.137600  1.0  -0.0512
  C  C75  1  0.321700  0.410700  0.446200  1.0  -0.1432
  C  C76  1  0.347500  0.690500  0.490200  1.0  0.1994
  C  C77  1  0.551400  0.279200  0.193400  1.0  -0.0526
  C  C78  1  0.212600  0.954900  0.125000  1.0  0.6594
  C  C79  1  0.334500  0.722200  0.862400  1.0  -0.0537
  C  C80  1  0.907200  0.389100  0.284600  1.0  0.0259
  C  C81  1  0.194500  0.066100  0.230200  1.0  -0.0422
  C  C82  1  0.338200  0.631000  0.754800  1.0  -0.0388
  C  C83  1  0.523400  0.605800  0.724400  1.0  -0.1524
  C  C84  1  0.267300  0.241800  0.276600  1.0  0.0634
  C  C85  1  0.964300  0.933900  0.769800  1.0  -0.0402
  C  C86  1  0.213800  0.606700  0.199600  1.0  0.0079
  C  C87  1  0.135800  0.287400  0.756200  1.0  -0.0531
  C  C88  1  0.241400  0.573100  0.629400  1.0  -0.0664
  C  C89  1  0.936300  0.411700  0.397600  1.0  -0.1124
  C  C90  1  0.225500  0.594300  0.259400  1.0  -0.0768
  C  C91  1  0.456600  0.456000  0.185000  1.0  0.0046
  C  C92  1  0.061900  0.337300  0.063600  1.0  0.4342
  C  C93  1  0.929400  0.450600  0.194200  1.0  -0.1339
  C  C94  1  0.099000  0.334100  0.808200  1.0  -0.0701
  C  C95  1  0.271600  0.544000  0.815000  1.0  0.0047
  C  C96  1  0.344800  0.369300  0.071400  1.0  0.6308
  C  C97  1  0.630200  0.602100  0.654400  1.0  -0.1102
  C  C98  1  0.726000  0.613800  0.768400  1.0  0.0625
  C  C99  1  0.612000  0.426900  0.370600  1.0  -0.0672
  C  C100  1  0.348200  0.569400  0.559600  1.0  -0.0014
  C  C101  1  0.210000  0.159300  0.278800  1.0  -0.1019
  C  C102  1  0.828200  0.416800  0.388600  1.0  0.0557
  C  C103  1  0.143600  0.307900  0.870400  1.0  0.6611
  C  C104  1  0.273200  0.692100  0.129600  1.0  0.6586
  C  C105  1  0.333400  0.618000  0.377600  1.0  -0.0432
  C  C106  1  0.083200  0.769000  0.774200  1.0  -0.0765
  C  C107  1  0.931200  0.840700  0.721200  1.0  -0.1046
  C  C108  1  0.583400  0.369000  0.245200  1.0  -0.0409
  C  C109  1  0.236200  0.055300  0.179400  1.0  -0.109
  C  C110  1  0.974100  0.661800  0.666667  1.0  0.0708
  C  C111  1  0.056800  0.944700  0.820600  1.0  -0.1081
  C  C112  1  0.966300  0.438600  0.141600  1.0  -0.0438
  C  C113  1  0.806400  0.690300  0.783800  1.0  -0.1107
  C  C114  1  0.325800  0.520600  0.382400  1.0  0.0512
  C  C115  1  0.536000  0.457400  0.241000  1.0  -0.149
  C  C116  1  0.875500  0.589300  0.553800  1.0  -0.1437
  C  C117  1  0.943400  0.479400  0.617600  1.0  0.0509
  C  C118  1  0.340000  0.593100  0.495200  1.0  0.0088
  C  C119  1  0.295000  0.542600  0.759000  1.0  -0.153
  C  C120  1  0.293500  0.137800  0.177200  1.0  -0.0445
  C  C121  1  0.651500  0.413100  0.318600  1.0  0.0288
  C  C122  1  0.955800  0.382000  0.622400  1.0  -0.0434
  C  C123  1  0.439600  0.583200  0.611400  1.0  0.0574
  C  C124  1  0.857300  0.309500  0.509800  1.0  0.201
  C  C125  1  0.309000  0.231000  0.225800  1.0  -0.0789
  C  C126  1  0.014200  0.393300  0.800400  1.0  0.0085
  C  C127  1  0.249100  0.564300  0.568600  1.0  0.2889
  C  C128  1  0.912600  0.297100  0.568400  1.0  -0.1082
  C  C129  1  0.824700  0.561400  0.858400  1.0  -0.0323
  C  C130  1  0.031300  0.362100  0.126000  1.0  -0.0992
  C  C131  1  0.379600  0.712600  0.243800  1.0  -0.0509
  C  C132  1  0.990700  0.758200  0.723400  1.0  0.0612
  C  C133  1  0.002900  0.358900  0.688600  1.0  0.0359
  C  C134  1  0.307500  0.338200  0.333400  1.0  0.0699
  C  C135  1  0.887900  0.491900  0.558800  1.0  0.0477
  C  C136  1  0.315000  0.435600  0.328600  1.0  -0.1105
  C  C137  1  0.680500  0.435700  0.431400  1.0  0.2855
  C  C138  1  0.273400  0.630700  0.928600  1.0  0.6357
  C  C139  1  0.905300  0.637900  0.874000  1.0  -0.0967
  C  C140  1  0.314300  0.641100  0.311400  1.0  0.0362
  C  C141  1  0.087600  0.299800  0.696200  1.0  -0.1216
  C  C142  1  0.986400  0.564400  0.671400  1.0  -0.1105
  C  C143  1  0.291300  0.633800  0.866600  1.0  -0.1026
  C  C144  1  0.622600  0.610900  0.715400  1.0  0.0267
  C  C145  1  0.087600  0.045100  0.875000  1.0  0.6594
  C  C146  1  0.332900  0.586900  0.681400  1.0  0.0291
  C  C147  1  0.310800  0.325800  0.392200  1.0  -0.2207
  C  C148  1  0.358000  0.720800  0.806600  1.0  -0.0513
  O  O149  1  0.106300  0.347500  0.915200  1.0  -0.6329
  O  O150  1  0.306700  0.719100  0.972200  1.0  -0.6294
  O  O151  1  0.334500  0.280900  0.027800  1.0  -0.6357
  O  O152  1  0.148400  0.882200  0.119800  1.0  -0.5974
  O  O153  1  0.020800  0.586800  0.959600  1.0  -0.6857
  O  O154  1  0.061200  0.413200  0.040400  1.0  -0.6872
  O  O155  1  0.026100  0.759800  0.948800  1.0  -0.6246
  O  O156  1  0.649400  0.433000  0.480800  1.0  -0.4942
  O  O157  1  0.330600  0.761800  0.125000  1.0  -0.5657
  O  O158  1  0.843100  0.218900  0.464600  1.0  -0.4369
  O  O159  1  0.378500  0.781100  0.535400  1.0  -0.4334
  O  O160  1  0.077300  0.240200  0.051200  1.0  -0.6218
  O  O161  1  0.262100  0.935100  0.083000  1.0  -0.68
  O  O162  1  0.179100  0.064900  0.917000  1.0  -0.6774
  O  O163  1  0.205600  0.238200  0.875000  1.0  -0.5641
  O  O164  1  0.303100  0.449500  0.060600  1.0  -0.6982
  O  O165  1  0.242500  0.550500  0.939400  1.0  -0.6982
  O  O166  1  0.168600  0.567000  0.519200  1.0  -0.4896
  O  O167  1  0.191100  0.652500  0.084800  1.0  -0.6342
  O  O168  1  0.028600  0.117800  0.880200  1.0  -0.6006
