# generated using pymatgen
data_ZnH3(CO2)3
_symmetry_space_group_name_H-M   'P 1'
_cell_length_a   7.30410000
_cell_length_b   7.30410000
_cell_length_c   8.16400000
_cell_angle_alpha   90.00000000
_cell_angle_beta   90.00000000
_cell_angle_gamma   120.00000000
_symmetry_Int_Tables_number   1
_chemical_formula_structural   ZnH3(CO2)3
_chemical_formula_sum   'Zn2 H6 C6 O12'
_cell_volume   377.19597402
_cell_formula_units_Z   2
loop_
 _symmetry_equiv_pos_site_id
 _symmetry_equiv_pos_as_xyz
  1  'x, y, z'
loop_
 _atom_site_type_symbol
 _atom_site_label
 _atom_site_symmetry_multiplicity
 _atom_site_fract_x
 _atom_site_fract_y
 _atom_site_fract_z
 _atom_site_occupancy
 _atom_site_charge
  Zn  Zn1  1  0.666667  0.333333  0.750000  1.0  0.9325
  Zn  Zn2  1  0.333333  0.666667  0.250000  1.0  0.9325
  H  H3  1  0.000000  0.565400  0.000000  1.0  0.0726
  H  H4  1  0.000000  0.434600  0.500000  1.0  0.0731
  H  H5  1  0.565400  0.000000  0.000000  1.0  0.0723
  H  H6  1  0.434600  0.434600  0.000000  1.0  0.0726
  H  H7  1  0.565400  0.565400  0.500000  1.0  0.0729
  H  H8  1  0.434600  0.000000  0.500000  1.0  0.0737
  C  C9  1  0.000000  0.437900  0.000000  1.0  0.7324
  C  C10  1  0.000000  0.562100  0.500000  1.0  0.7337
  C  C11  1  0.562100  0.000000  0.500000  1.0  0.7347
  C  C12  1  0.562100  0.562100  0.000000  1.0  0.7335
  C  C13  1  0.437900  0.000000  0.000000  1.0  0.7347
  C  C14  1  0.437900  0.437900  0.500000  1.0  0.7321
  O  O15  1  0.695000  0.110900  0.604800  1.0  -0.5587
  O  O16  1  0.415900  0.110900  0.895200  1.0  -0.5581
  O  O17  1  0.584100  0.695000  0.104800  1.0  -0.5584
  O  O18  1  0.584100  0.889100  0.395200  1.0  -0.5584
  O  O19  1  0.415900  0.305000  0.604800  1.0  -0.5586
  O  O20  1  0.110900  0.695000  0.395200  1.0  -0.56
  O  O21  1  0.305000  0.889100  0.104800  1.0  -0.557
  O  O22  1  0.889100  0.305000  0.895200  1.0  -0.5583
  O  O23  1  0.305000  0.415900  0.395200  1.0  -0.5593
  O  O24  1  0.110900  0.415900  0.104800  1.0  -0.5581
  O  O25  1  0.695000  0.584100  0.895200  1.0  -0.5593
  O  O26  1  0.889100  0.584100  0.604800  1.0  -0.5591
