# generated using pymatgen
data_ZnH11(C11O2)2
_symmetry_space_group_name_H-M   'P 1'
_cell_length_a   4.79820000
_cell_length_b   14.65460000
_cell_length_c   33.04540000
_cell_angle_alpha   90.00000000
_cell_angle_beta   90.00000000
_cell_angle_gamma   92.67600000
_symmetry_Int_Tables_number   1
_chemical_formula_structural   ZnH11(C11O2)2
_chemical_formula_sum   'Zn4 H44 C88 O16'
_cell_volume   2321.07663707
_cell_formula_units_Z   4
loop_
 _symmetry_equiv_pos_site_id
 _symmetry_equiv_pos_as_xyz
  1  'x, y, z'
loop_
 _atom_site_type_symbol
 _atom_site_label
 _atom_site_symmetry_multiplicity
 _atom_site_fract_x
 _atom_site_fract_y
 _atom_site_fract_z
 _atom_site_occupancy
 _atom_site_charge
  Zn  Zn1  1  0.797830  0.410200  0.471700  1.0  1.09
  Zn  Zn2  1  0.797830  0.410200  0.028300  1.0  1.0896
  Zn  Zn3  1  0.202170  0.589800  0.971700  1.0  1.0888
  Zn  Zn4  1  0.202170  0.589800  0.528300  1.0  1.0884
  H  H5  1  0.822520  0.867850  0.151170  1.0  0.1175
  H  H6  1  0.687470  0.360730  0.373630  1.0  0.1191
  H  H7  1  0.846050  0.907380  0.656220  1.0  0.1016
  H  H8  1  0.277180  0.453580  0.615530  1.0  0.1174
  H  H9  1  0.673000  0.612230  0.179220  1.0  0.1269
  H  H10  1  0.667900  0.211330  0.843670  1.0  0.1068
  H  H11  1  0.722820  0.546420  0.115530  1.0  0.1175
  H  H12  1  0.608950  0.276570  0.592720  1.0  0.1232
  H  H13  1  0.657850  0.012670  0.151220  1.0  0.1209
  H  H14  1  0.391050  0.723430  0.407280  1.0  0.1236
  H  H15  1  0.608950  0.276570  0.907280  1.0  0.1236
  H  H16  1  0.277180  0.453580  0.884470  1.0  0.117
  H  H17  1  0.722820  0.546420  0.384470  1.0  0.1172
  H  H18  1  0.948650  0.342950  0.750000  1.0  0.1278
  H  H19  1  0.207920  0.725470  0.683030  1.0  0.1228
  H  H20  1  0.673000  0.612230  0.320780  1.0  0.1268
  H  H21  1  0.566850  0.777700  0.750000  1.0  0.1164
  H  H22  1  0.332100  0.788670  0.343670  1.0  0.1073
  H  H23  1  0.846050  0.907380  0.843780  1.0  0.102
  H  H24  1  0.153950  0.092620  0.343780  1.0  0.1017
  H  H25  1  0.332100  0.788670  0.156330  1.0  0.1068
  H  H26  1  0.959900  0.821900  0.599600  1.0  0.1219
  H  H27  1  0.312530  0.639270  0.626370  1.0  0.1178
  H  H28  1  0.657850  0.012670  0.348780  1.0  0.1206
  H  H29  1  0.433150  0.222300  0.250000  1.0  0.1169
  H  H30  1  0.391050  0.723430  0.092720  1.0  0.1235
  H  H31  1  0.051350  0.657050  0.250000  1.0  0.128
  H  H32  1  0.687470  0.360730  0.126370  1.0  0.119
  H  H33  1  0.342150  0.987330  0.651220  1.0  0.1208
  H  H34  1  0.792080  0.274530  0.183030  1.0  0.1228
  H  H35  1  0.822520  0.867850  0.348830  1.0  0.117
  H  H36  1  0.959900  0.821900  0.900400  1.0  0.1231
  H  H37  1  0.327000  0.387770  0.679220  1.0  0.1269
  H  H38  1  0.327000  0.387770  0.820780  1.0  0.1268
  H  H39  1  0.207920  0.725470  0.816970  1.0  0.1228
  H  H40  1  0.667900  0.211330  0.656330  1.0  0.107
  H  H41  1  0.040100  0.178100  0.400400  1.0  0.1231
  H  H42  1  0.792080  0.274530  0.316970  1.0  0.1231
  H  H43  1  0.342150  0.987330  0.848780  1.0  0.1209
  H  H44  1  0.177480  0.132150  0.848830  1.0  0.1162
  H  H45  1  0.153950  0.092620  0.156220  1.0  0.1011
  H  H46  1  0.040100  0.178100  0.099600  1.0  0.1222
  H  H47  1  0.177480  0.132150  0.651170  1.0  0.1168
  H  H48  1  0.312530  0.639270  0.873630  1.0  0.1189
  C  C49  1  0.693150  0.984900  0.250000  1.0  0.0078
  C  C50  1  0.083370  0.593150  0.445150  1.0  0.6129
  C  C51  1  0.733830  0.853020  0.850420  1.0  -0.1373
  C  C52  1  0.938800  0.371700  0.596930  1.0  -0.0895
  C  C53  1  0.504050  0.161600  0.250000  1.0  -0.1125
  C  C54  1  0.547750  0.119700  0.212630  1.0  0.0331
  C  C55  1  0.206350  0.104700  0.750000  1.0  0.0074
  C  C56  1  0.982550  0.718000  0.250000  1.0  -0.0591
  C  C57  1  0.513200  0.826650  0.675200  1.0  0.0849
  C  C58  1  0.061200  0.628300  0.403070  1.0  -0.0897
  C  C59  1  0.916630  0.406850  0.554850  1.0  0.6135
  C  C60  1  0.276180  0.333980  0.429450  1.0  0.6532
  C  C61  1  0.843450  0.850600  0.286870  1.0  0.0319
  C  C62  1  0.209150  0.738130  0.148020  1.0  -0.1134
  C  C63  1  0.843450  0.850600  0.213130  1.0  0.0323
  C  C64  1  0.060930  0.239700  0.787450  1.0  -0.022
  C  C65  1  0.790850  0.261870  0.851980  1.0  -0.1127
  C  C66  1  0.642630  0.029550  0.286880  1.0  0.0389
  C  C67  1  0.360900  0.745830  0.834450  1.0  -0.1502
  C  C68  1  0.354980  0.278150  0.393930  1.0  -0.0846
  C  C69  1  0.357370  0.970450  0.713120  1.0  0.0381
  C  C70  1  0.308830  0.016200  0.823100  1.0  -0.1444
  C  C71  1  0.792020  0.896600  0.176950  1.0  -0.1249
  C  C72  1  0.495950  0.838400  0.750000  1.0  -0.1144
  C  C73  1  0.421770  0.695050  0.631270  1.0  -0.0803
  C  C74  1  0.645020  0.721850  0.893930  1.0  -0.0848
  C  C75  1  0.266170  0.146980  0.350420  1.0  -0.1379
  C  C76  1  0.723820  0.666020  0.929450  1.0  0.652
  C  C77  1  0.547750  0.119700  0.287370  1.0  0.033
  C  C78  1  0.733830  0.853020  0.649580  1.0  -0.1373
  C  C79  1  0.691170  0.983800  0.176900  1.0  -0.1432
  C  C80  1  0.800630  0.801630  0.615900  1.0  -0.0892
  C  C81  1  0.083370  0.593150  0.054850  1.0  0.613
  C  C82  1  0.145580  0.405300  0.623580  1.0  -0.0896
  C  C83  1  0.452250  0.880300  0.712630  1.0  0.0332
  C  C84  1  0.357370  0.970450  0.786880  1.0  0.0383
  C  C85  1  0.938800  0.371700  0.903070  1.0  -0.0903
  C  C86  1  0.854420  0.594700  0.123580  1.0  -0.0899
  C  C87  1  0.145580  0.405300  0.876420  1.0  -0.0895
  C  C88  1  0.513200  0.826650  0.824800  1.0  0.0854
  C  C89  1  0.645020  0.721850  0.606070  1.0  -0.0853
  C  C90  1  0.486800  0.173350  0.324800  1.0  0.0857
  C  C91  1  0.209150  0.738130  0.351980  1.0  -0.1131
  C  C92  1  0.156550  0.149400  0.786870  1.0  0.032
  C  C93  1  0.175870  0.366150  0.838300  1.0  -0.1482
  C  C94  1  0.242800  0.699070  0.110150  1.0  -0.1049
  C  C95  1  0.993770  0.708950  0.325850  1.0  0.0768
  C  C96  1  0.175870  0.366150  0.661700  1.0  -0.1479
  C  C97  1  0.757200  0.300930  0.610150  1.0  -0.1054
  C  C98  1  0.486800  0.173350  0.175200  1.0  0.0854
  C  C99  1  0.642630  0.029550  0.213120  1.0  0.039
  C  C100  1  0.266170  0.146980  0.149580  1.0  -0.1383
  C  C101  1  0.421770  0.695050  0.868730  1.0  -0.0803
  C  C102  1  0.993770  0.708950  0.174150  1.0  0.0759
  C  C103  1  0.854420  0.594700  0.376420  1.0  -0.0897
  C  C104  1  0.639100  0.254170  0.334450  1.0  -0.15
  C  C105  1  0.207980  0.103400  0.676950  1.0  -0.1247
  C  C106  1  0.939070  0.760300  0.212550  1.0  -0.0216
  C  C107  1  0.207980  0.103400  0.823050  1.0  -0.1257
  C  C108  1  0.793650  0.895300  0.250000  1.0  0.0072
  C  C109  1  0.824130  0.633850  0.161700  1.0  -0.1478
  C  C110  1  0.360900  0.745830  0.665550  1.0  -0.1482
  C  C111  1  0.723820  0.666020  0.570550  1.0  0.6523
  C  C112  1  0.354980  0.278150  0.106070  1.0  -0.084
  C  C113  1  0.452250  0.880300  0.787370  1.0  0.0333
  C  C114  1  0.061200  0.628300  0.096930  1.0  -0.0904
  C  C115  1  0.006230  0.291050  0.674150  1.0  0.0758
  C  C116  1  0.824130  0.633850  0.338300  1.0  -0.149
  C  C117  1  0.276180  0.333980  0.070550  1.0  0.6524
  C  C118  1  0.639100  0.254170  0.165550  1.0  -0.1479
  C  C119  1  0.916630  0.406850  0.945150  1.0  0.614
  C  C120  1  0.757200  0.300930  0.889850  1.0  -0.1041
  C  C121  1  0.306850  0.015100  0.750000  1.0  0.0076
  C  C122  1  0.790850  0.261870  0.648020  1.0  -0.1128
  C  C123  1  0.199370  0.198370  0.384100  1.0  -0.09
  C  C124  1  0.199370  0.198370  0.115900  1.0  -0.0907
  C  C125  1  0.691170  0.983800  0.323100  1.0  -0.1448
  C  C126  1  0.800630  0.801630  0.884100  1.0  -0.0887
  C  C127  1  0.792020  0.896600  0.323050  1.0  -0.1249
  C  C128  1  0.060930  0.239700  0.712550  1.0  -0.0217
  C  C129  1  0.578230  0.304950  0.131270  1.0  -0.0785
  C  C130  1  0.578230  0.304950  0.368730  1.0  -0.0787
  C  C131  1  0.242800  0.699070  0.389850  1.0  -0.1034
  C  C132  1  0.939070  0.760300  0.287450  1.0  -0.0221
  C  C133  1  0.017450  0.282000  0.750000  1.0  -0.0587
  C  C134  1  0.006230  0.291050  0.825850  1.0  0.0766
  C  C135  1  0.156550  0.149400  0.713130  1.0  0.0323
  C  C136  1  0.308830  0.016200  0.676900  1.0  -0.1439
  O  O137  1  0.249200  0.615170  0.028600  1.0  -0.5958
  O  O138  1  0.075580  0.460680  0.963120  1.0  -0.6645
  O  O139  1  0.422680  0.394980  0.445070  1.0  -0.6054
  O  O140  1  0.924420  0.539320  0.036880  1.0  -0.6656
  O  O141  1  0.249200  0.615170  0.471400  1.0  -0.5959
  O  O142  1  0.422680  0.394980  0.054930  1.0  -0.6059
  O  O143  1  0.750800  0.384830  0.971400  1.0  -0.5934
  O  O144  1  0.950830  0.669820  0.945900  1.0  -0.6011
  O  O145  1  0.049170  0.330180  0.445900  1.0  -0.6003
  O  O146  1  0.075580  0.460680  0.536880  1.0  -0.6639
  O  O147  1  0.950830  0.669820  0.554100  1.0  -0.6004
  O  O148  1  0.049170  0.330180  0.054100  1.0  -0.5989
  O  O149  1  0.750800  0.384830  0.528600  1.0  -0.5937
  O  O150  1  0.577320  0.605020  0.945070  1.0  -0.6054
  O  O151  1  0.577320  0.605020  0.554930  1.0  -0.6054
  O  O152  1  0.924420  0.539320  0.463120  1.0  -0.6657
