# generated using pymatgen
data_Cd3CuH46C50(N2O7)2
_symmetry_space_group_name_H-M   'P 1'
_cell_length_a   10.35620000
_cell_length_b   17.89790000
_cell_length_c   44.13830000
_cell_angle_alpha   90.00000000
_cell_angle_beta   90.00000000
_cell_angle_gamma   90.00000000
_symmetry_Int_Tables_number   1
_chemical_formula_structural   Cd3CuH46C50(N2O7)2
_chemical_formula_sum   'Cd12 Cu4 H184 C200 N16 O56'
_cell_volume   8181.22069740
_cell_formula_units_Z   4
loop_
 _symmetry_equiv_pos_site_id
 _symmetry_equiv_pos_as_xyz
  1  'x, y, z'
loop_
 _atom_site_type_symbol
 _atom_site_label
 _atom_site_symmetry_multiplicity
 _atom_site_fract_x
 _atom_site_fract_y
 _atom_site_fract_z
 _atom_site_occupancy
 _atom_site_charge
  Cd  Cd1  1  0.154110  0.003970  0.922110  1.0  1.0049
  Cd  Cd2  1  0.242190  0.999620  0.001750  1.0  1.0896
  Cd  Cd3  1  0.326340  0.996670  0.082180  1.0  1.0015
  Cd  Cd4  1  0.345890  0.996030  0.422110  1.0  1.0057
  Cd  Cd5  1  0.257810  0.000380  0.501750  1.0  1.0891
  Cd  Cd6  1  0.173660  0.003330  0.582180  1.0  1.0014
  Cd  Cd7  1  0.845890  0.503970  0.577890  1.0  1.0072
  Cd  Cd8  1  0.757810  0.499620  0.498250  1.0  1.089
  Cd  Cd9  1  0.673660  0.496670  0.417820  1.0  1.0012
  Cd  Cd10  1  0.654110  0.496030  0.077890  1.0  1.0067
  Cd  Cd11  1  0.742190  0.500380  0.998250  1.0  1.0894
  Cd  Cd12  1  0.826340  0.503330  0.917820  1.0  1.0007
  Cu  Cu13  1  0.027180  0.067230  0.752180  1.0  0.7396
  Cu  Cu14  1  0.472820  0.932770  0.252180  1.0  0.739
  Cu  Cu15  1  0.972820  0.567230  0.747820  1.0  0.739
  Cu  Cu16  1  0.527180  0.432770  0.247820  1.0  0.7394
  H  H17  1  0.490200  0.831300  0.990700  1.0  0.1058
  H  H18  1  0.618200  0.725200  0.990700  1.0  0.115
  H  H19  1  0.483400  0.669900  0.908200  1.0  0.1044
  H  H20  1  0.356000  0.776900  0.907600  1.0  0.1146
  H  H21  1  0.760000  0.105700  0.971100  1.0  0.1117
  H  H22  1  0.573700  0.088000  0.999700  1.0  0.1065
  H  H23  1  0.721900  0.894400  0.032800  1.0  0.1224
  H  H24  1  0.906600  0.913400  0.004600  1.0  0.0911
  H  H25  1  0.987100  0.159200  0.010800  1.0  0.1009
  H  H26  1  0.865700  0.268100  0.006700  1.0  0.1188
  H  H27  1  0.999600  0.334900  0.088600  1.0  0.1093
  H  H28  1  0.120900  0.225400  0.092200  1.0  0.1167
  H  H29  1  0.997200  0.989400  0.639500  1.0  0.1023
  H  H30  1  0.895200  0.968500  0.684000  1.0  0.1045
  H  H31  1  0.865900  0.912800  0.746300  1.0  0.1045
  H  H32  1  0.738000  0.911500  0.701800  1.0  0.0916
  H  H33  1  0.670700  0.988500  0.711600  1.0  0.0822
  H  H34  1  0.532400  0.888100  0.725700  1.0  0.0812
  H  H35  1  0.647000  0.849100  0.744300  1.0  0.0866
  H  H36  1  0.509500  0.911000  0.778400  1.0  0.0944
  H  H37  1  0.527200  0.987900  0.760300  1.0  0.0813
  H  H38  1  0.662600  0.990000  0.803900  1.0  0.0771
  H  H39  1  0.731000  0.913700  0.793400  1.0  0.0843
  H  H40  1  0.737300  0.050300  0.759100  1.0  0.0964
  H  H41  1  0.859400  0.994200  0.821300  1.0  0.0828
  H  H42  1  0.979700  0.996200  0.864400  1.0  0.1022
  H  H43  1  0.304200  0.106300  0.874400  1.0  0.0981
  H  H44  1  0.313500  0.107900  0.630800  1.0  0.102
  H  H45  1  0.401000  0.214700  0.859800  1.0  0.1144
  H  H46  1  0.517100  0.212900  0.835900  1.0  0.1169
  H  H47  1  0.480800  0.139200  0.854600  1.0  0.1134
  H  H48  1  0.462400  0.067900  0.806100  1.0  0.109
  H  H49  1  0.503000  0.142500  0.788500  1.0  0.1111
  H  H50  1  0.373500  0.099400  0.779300  1.0  0.1051
  H  H51  1  0.252700  0.261600  0.820000  1.0  0.1197
  H  H52  1  0.243500  0.219200  0.788100  1.0  0.1079
  H  H53  1  0.373400  0.261900  0.797300  1.0  0.1184
  H  H54  1  0.262400  0.255300  0.689200  1.0  0.1199
  H  H55  1  0.384100  0.252900  0.711500  1.0  0.1172
  H  H56  1  0.254900  0.208500  0.720100  1.0  0.1067
  H  H57  1  0.472000  0.061400  0.698200  1.0  0.1216
  H  H58  1  0.381900  0.089100  0.725500  1.0  0.1005
  H  H59  1  0.511200  0.133900  0.717400  1.0  0.1071
  H  H60  1  0.405000  0.214800  0.648200  1.0  0.1101
  H  H61  1  0.489300  0.140300  0.651200  1.0  0.0979
  H  H62  1  0.523000  0.211700  0.671500  1.0  0.1137
  H  H63  1  0.009800  0.168700  0.490700  1.0  0.1063
  H  H64  1  0.881800  0.274800  0.490700  1.0  0.115
  H  H65  1  0.016600  0.330100  0.408200  1.0  0.1047
  H  H66  1  0.144000  0.223100  0.407600  1.0  0.1148
  H  H67  1  0.740000  0.894300  0.471100  1.0  0.1112
  H  H68  1  0.926300  0.912000  0.499700  1.0  0.1064
  H  H69  1  0.778100  0.105600  0.532800  1.0  0.1222
  H  H70  1  0.593400  0.086600  0.504600  1.0  0.0913
  H  H71  1  0.512900  0.840800  0.510800  1.0  0.1008
  H  H72  1  0.634300  0.731900  0.506700  1.0  0.1189
  H  H73  1  0.500400  0.665100  0.588600  1.0  0.1096
  H  H74  1  0.379100  0.774600  0.592200  1.0  0.1168
  H  H75  1  0.502800  0.010600  0.139500  1.0  0.103
  H  H76  1  0.604800  0.031500  0.184000  1.0  0.1035
  H  H77  1  0.634100  0.087200  0.246300  1.0  0.104
  H  H78  1  0.762000  0.088500  0.201800  1.0  0.091
  H  H79  1  0.829300  0.011500  0.211600  1.0  0.0816
  H  H80  1  0.967600  0.111900  0.225700  1.0  0.0783
  H  H81  1  0.853000  0.150900  0.244300  1.0  0.0864
  H  H82  1  0.990500  0.089000  0.278400  1.0  0.0934
  H  H83  1  0.972800  0.012100  0.260300  1.0  0.0809
  H  H84  1  0.837400  0.010000  0.303900  1.0  0.0771
  H  H85  1  0.769000  0.086300  0.293400  1.0  0.0832
  H  H86  1  0.762700  0.949700  0.259100  1.0  0.0954
  H  H87  1  0.640600  0.005800  0.321300  1.0  0.0817
  H  H88  1  0.520300  0.003800  0.364400  1.0  0.102
  H  H89  1  0.195800  0.893700  0.374400  1.0  0.0986
  H  H90  1  0.186500  0.892100  0.130800  1.0  0.1027
  H  H91  1  0.099000  0.785300  0.359800  1.0  0.1148
  H  H92  1  0.982900  0.787100  0.335900  1.0  0.1162
  H  H93  1  0.019200  0.860800  0.354600  1.0  0.1126
  H  H94  1  0.037600  0.932100  0.306100  1.0  0.1081
  H  H95  1  0.997000  0.857500  0.288500  1.0  0.1098
  H  H96  1  0.126500  0.900600  0.279300  1.0  0.1049
  H  H97  1  0.247300  0.738400  0.320000  1.0  0.1199
  H  H98  1  0.256500  0.780800  0.288100  1.0  0.107
  H  H99  1  0.126600  0.738100  0.297300  1.0  0.1174
  H  H100  1  0.237600  0.744700  0.189200  1.0  0.119
  H  H101  1  0.115900  0.747100  0.211500  1.0  0.1165
  H  H102  1  0.245100  0.791500  0.220100  1.0  0.1067
  H  H103  1  0.028000  0.938600  0.198200  1.0  0.1222
  H  H104  1  0.118100  0.910900  0.225500  1.0  0.0988
  H  H105  1  0.988800  0.866100  0.217400  1.0  0.1075
  H  H106  1  0.095000  0.785200  0.148200  1.0  0.1102
  H  H107  1  0.010700  0.859700  0.151200  1.0  0.0972
  H  H108  1  0.977000  0.788300  0.171500  1.0  0.1167
  H  H109  1  0.509800  0.331300  0.509300  1.0  0.1046
  H  H110  1  0.381800  0.225200  0.509300  1.0  0.1144
  H  H111  1  0.516600  0.169900  0.591800  1.0  0.1052
  H  H112  1  0.644000  0.276900  0.592400  1.0  0.115
  H  H113  1  0.240000  0.605700  0.528900  1.0  0.1112
  H  H114  1  0.426300  0.588000  0.500300  1.0  0.1059
  H  H115  1  0.278100  0.394400  0.467200  1.0  0.1218
  H  H116  1  0.093400  0.413400  0.495400  1.0  0.0914
  H  H117  1  0.012900  0.659200  0.489200  1.0  0.1015
  H  H118  1  0.134300  0.768100  0.493300  1.0  0.1189
  H  H119  1  0.000400  0.834900  0.411400  1.0  0.1091
  H  H120  1  0.879100  0.725400  0.407800  1.0  0.1167
  H  H121  1  0.002800  0.489400  0.860500  1.0  0.1025
  H  H122  1  0.104800  0.468500  0.816000  1.0  0.1057
  H  H123  1  0.134100  0.412800  0.753700  1.0  0.1039
  H  H124  1  0.262000  0.411500  0.798200  1.0  0.0913
  H  H125  1  0.329300  0.488500  0.788400  1.0  0.0822
  H  H126  1  0.467600  0.388100  0.774300  1.0  0.0765
  H  H127  1  0.353000  0.349100  0.755700  1.0  0.087
  H  H128  1  0.490500  0.411000  0.721600  1.0  0.0939
  H  H129  1  0.472800  0.487900  0.739700  1.0  0.0801
  H  H130  1  0.337400  0.490000  0.696100  1.0  0.0776
  H  H131  1  0.269000  0.413700  0.706600  1.0  0.0826
  H  H132  1  0.262700  0.550300  0.740900  1.0  0.0955
  H  H133  1  0.140600  0.494200  0.678700  1.0  0.0823
  H  H134  1  0.020300  0.496200  0.635600  1.0  0.1023
  H  H135  1  0.695800  0.606300  0.625600  1.0  0.0978
  H  H136  1  0.686500  0.607900  0.869200  1.0  0.1029
  H  H137  1  0.599000  0.714700  0.640200  1.0  0.1131
  H  H138  1  0.482900  0.712900  0.664100  1.0  0.1156
  H  H139  1  0.519200  0.639200  0.645400  1.0  0.1078
  H  H140  1  0.537600  0.567900  0.693900  1.0  0.108
  H  H141  1  0.497000  0.642500  0.711500  1.0  0.11
  H  H142  1  0.626500  0.599400  0.720700  1.0  0.1049
  H  H143  1  0.747300  0.761600  0.680000  1.0  0.1192
  H  H144  1  0.756500  0.719200  0.711900  1.0  0.1059
  H  H145  1  0.626600  0.761900  0.702700  1.0  0.1175
  H  H146  1  0.737600  0.755300  0.810800  1.0  0.1206
  H  H147  1  0.615900  0.752900  0.788500  1.0  0.1173
  H  H148  1  0.745100  0.708500  0.779900  1.0  0.1077
  H  H149  1  0.528000  0.561400  0.801800  1.0  0.1219
  H  H150  1  0.618100  0.589100  0.774500  1.0  0.0994
  H  H151  1  0.488800  0.633900  0.782600  1.0  0.1081
  H  H152  1  0.595000  0.714800  0.851800  1.0  0.1103
  H  H153  1  0.510700  0.640300  0.848800  1.0  0.0978
  H  H154  1  0.477000  0.711700  0.828500  1.0  0.1162
  H  H155  1  0.990200  0.668700  0.009300  1.0  0.1052
  H  H156  1  0.118200  0.774800  0.009300  1.0  0.1144
  H  H157  1  0.983400  0.830100  0.091800  1.0  0.1046
  H  H158  1  0.856000  0.723100  0.092400  1.0  0.1153
  H  H159  1  0.260000  0.394300  0.028900  1.0  0.1116
  H  H160  1  0.073700  0.412000  0.000300  1.0  0.1058
  H  H161  1  0.221900  0.605600  0.967200  1.0  0.1223
  H  H162  1  0.406600  0.586600  0.995400  1.0  0.0917
  H  H163  1  0.487100  0.340800  0.989200  1.0  0.101
  H  H164  1  0.365700  0.231900  0.993300  1.0  0.1187
  H  H165  1  0.499600  0.165100  0.911400  1.0  0.1089
  H  H166  1  0.620900  0.274600  0.907800  1.0  0.1171
  H  H167  1  0.497200  0.510600  0.360500  1.0  0.1024
  H  H168  1  0.395200  0.531500  0.316000  1.0  0.1056
  H  H169  1  0.365900  0.587200  0.253700  1.0  0.1036
  H  H170  1  0.238000  0.588500  0.298200  1.0  0.091
  H  H171  1  0.170700  0.511500  0.288400  1.0  0.084
  H  H172  1  0.032400  0.611900  0.274300  1.0  0.0813
  H  H173  1  0.147000  0.650900  0.255700  1.0  0.0863
  H  H174  1  0.009500  0.589000  0.221600  1.0  0.094
  H  H175  1  0.027200  0.512100  0.239700  1.0  0.0814
  H  H176  1  0.162600  0.510000  0.196100  1.0  0.0779
  H  H177  1  0.231000  0.586300  0.206600  1.0  0.083
  H  H178  1  0.237300  0.449700  0.240900  1.0  0.0972
  H  H179  1  0.359400  0.505800  0.178700  1.0  0.083
  H  H180  1  0.479700  0.503800  0.135600  1.0  0.1024
  H  H181  1  0.804200  0.393700  0.125600  1.0  0.0974
  H  H182  1  0.813500  0.392100  0.369200  1.0  0.1027
  H  H183  1  0.901000  0.285300  0.140200  1.0  0.1128
  H  H184  1  0.017100  0.287100  0.164100  1.0  0.1159
  H  H185  1  0.980800  0.360800  0.145400  1.0  0.1106
  H  H186  1  0.962400  0.432100  0.193900  1.0  0.1086
  H  H187  1  0.003000  0.357500  0.211500  1.0  0.11
  H  H188  1  0.873500  0.400600  0.220700  1.0  0.1055
  H  H189  1  0.752700  0.238400  0.180000  1.0  0.1179
  H  H190  1  0.743500  0.280800  0.211900  1.0  0.1064
  H  H191  1  0.873400  0.238100  0.202700  1.0  0.118
  H  H192  1  0.762400  0.244700  0.310800  1.0  0.1206
  H  H193  1  0.884100  0.247100  0.288500  1.0  0.1158
  H  H194  1  0.754900  0.291500  0.279900  1.0  0.1074
  H  H195  1  0.972000  0.438600  0.301800  1.0  0.1218
  H  H196  1  0.881900  0.410900  0.274500  1.0  0.0988
  H  H197  1  0.011200  0.366100  0.282600  1.0  0.1073
  H  H198  1  0.905000  0.285200  0.351800  1.0  0.1112
  H  H199  1  0.989300  0.359700  0.348800  1.0  0.0964
  H  H200  1  0.023000  0.288300  0.328500  1.0  0.1113
  C  C201  1  0.340800  0.889100  0.948210  1.0  0.715
  C  C202  1  0.412900  0.816000  0.948980  1.0  -0.1409
  C  C203  1  0.489600  0.799000  0.973600  1.0  -0.0497
  C  C204  1  0.565300  0.735900  0.973660  1.0  -0.0492
  C  C205  1  0.565100  0.688100  0.949340  1.0  -0.1406
  C  C206  1  0.485700  0.703400  0.924910  1.0  -0.0347
  C  C207  1  0.410000  0.766800  0.924490  1.0  -0.0574
  C  C208  1  0.655200  0.621400  0.949130  1.0  0.7596
  C  C209  1  0.967200  0.018600  0.964980  1.0  0.7031
  C  C210  1  0.852100  0.010800  0.984910  1.0  -0.1451
  C  C211  1  0.752100  0.062900  0.983670  1.0  -0.0428
  C  C212  1  0.641600  0.052400  0.000710  1.0  -0.0415
  C  C213  1  0.629300  0.990000  0.019380  1.0  -0.1211
  C  C214  1  0.729600  0.937600  0.020420  1.0  -0.0912
  C  C215  1  0.838500  0.948900  0.003560  1.0  -0.0319
  C  C216  1  0.514500  0.982500  0.039450  1.0  0.6802
  C  C217  1  0.135100  0.108400  0.054840  1.0  0.7111
  C  C218  1  0.063300  0.180800  0.052380  1.0  -0.132
  C  C219  1  0.988500  0.194700  0.026840  1.0  -0.0433
  C  C220  1  0.916400  0.259300  0.024320  1.0  -0.0464
  C  C221  1  0.918400  0.311700  0.047880  1.0  -0.1253
  C  C222  1  0.995700  0.298900  0.072770  1.0  -0.0497
  C  C223  1  0.067900  0.233600  0.074930  1.0  -0.048
  C  C224  1  0.831200  0.377800  0.046160  1.0  0.7238
  C  C225  1  0.063400  0.018800  0.648450  1.0  0.1281
  C  C226  1  0.055400  0.034000  0.679610  1.0  -0.0979
  C  C227  1  0.952000  0.999100  0.695410  1.0  0.0564
  C  C228  1  0.826600  0.960700  0.739100  1.0  0.0623
  C  C229  1  0.710100  0.941900  0.719330  1.0  -0.1516
  C  C230  1  0.609900  0.897800  0.738240  1.0  -0.111
  C  C231  1  0.571200  0.941100  0.766370  1.0  -0.12
  C  C232  1  0.689400  0.960100  0.786060  1.0  -0.1316
  C  C233  1  0.783600  0.004800  0.766540  1.0  0.0639
  C  C234  1  0.923800  0.019600  0.809930  1.0  0.0618
  C  C235  1  0.039800  0.044400  0.825650  1.0  -0.1473
  C  C236  1  0.047500  0.025400  0.855990  1.0  0.1153
  C  C237  1  0.236500  0.089400  0.861600  1.0  0.0891
  C  C238  1  0.240000  0.111700  0.831300  1.0  -0.0027
  C  C239  1  0.138500  0.087000  0.811820  1.0  0.3018
  C  C240  1  0.152600  0.079100  0.693570  1.0  0.2973
  C  C241  1  0.248200  0.088100  0.643620  1.0  0.0879
  C  C242  1  0.251700  0.107200  0.674240  1.0  0.0045
  C  C243  1  0.351800  0.161100  0.819780  1.0  0.1046
  C  C244  1  0.446100  0.184000  0.844750  1.0  -0.3704
  C  C245  1  0.430000  0.113200  0.796190  1.0  -0.3666
  C  C246  1  0.300800  0.232300  0.804970  1.0  -0.3632
  C  C247  1  0.362600  0.154700  0.686800  1.0  0.1181
  C  C248  1  0.311400  0.224100  0.703400  1.0  -0.3666
  C  C249  1  0.438800  0.105300  0.708980  1.0  -0.3689
  C  C250  1  0.453000  0.182900  0.662270  1.0  -0.3706
  C  C251  1  0.159200  0.110900  0.448210  1.0  0.7148
  C  C252  1  0.087100  0.184000  0.448980  1.0  -0.1418
  C  C253  1  0.010400  0.201000  0.473600  1.0  -0.0508
  C  C254  1  0.934700  0.264100  0.473660  1.0  -0.0478
  C  C255  1  0.934900  0.311900  0.449340  1.0  -0.1407
  C  C256  1  0.014300  0.296600  0.424910  1.0  -0.0344
  C  C257  1  0.090000  0.233200  0.424490  1.0  -0.0576
  C  C258  1  0.844800  0.378600  0.449130  1.0  0.7597
  C  C259  1  0.532800  0.981400  0.464980  1.0  0.7053
  C  C260  1  0.647900  0.989200  0.484910  1.0  -0.1451
  C  C261  1  0.747900  0.937100  0.483670  1.0  -0.0433
  C  C262  1  0.858400  0.947600  0.500710  1.0  -0.0422
  C  C263  1  0.870700  0.010000  0.519380  1.0  -0.1204
  C  C264  1  0.770400  0.062400  0.520420  1.0  -0.0915
  C  C265  1  0.661500  0.051100  0.503560  1.0  -0.032
  C  C266  1  0.985500  0.017500  0.539450  1.0  0.6799
  C  C267  1  0.364900  0.891600  0.554840  1.0  0.7121
  C  C268  1  0.436700  0.819200  0.552380  1.0  -0.13
  C  C269  1  0.511500  0.805300  0.526840  1.0  -0.0424
  C  C270  1  0.583600  0.740700  0.524320  1.0  -0.0467
  C  C271  1  0.581600  0.688300  0.547880  1.0  -0.1261
  C  C272  1  0.504300  0.701100  0.572770  1.0  -0.0502
  C  C273  1  0.432100  0.766400  0.574930  1.0  -0.049
  C  C274  1  0.668800  0.622200  0.546160  1.0  0.724
  C  C275  1  0.436600  0.981200  0.148450  1.0  0.1289
  C  C276  1  0.444600  0.966000  0.179610  1.0  -0.0983
  C  C277  1  0.548000  0.000900  0.195410  1.0  0.0582
  C  C278  1  0.673400  0.039300  0.239100  1.0  0.0597
  C  C279  1  0.789900  0.058100  0.219330  1.0  -0.151
  C  C280  1  0.890100  0.102200  0.238240  1.0  -0.1124
  C  C281  1  0.928800  0.058900  0.266370  1.0  -0.1208
  C  C282  1  0.810600  0.039900  0.286060  1.0  -0.1313
  C  C283  1  0.716400  0.995200  0.266540  1.0  0.0626
  C  C284  1  0.576200  0.980400  0.309930  1.0  0.0654
  C  C285  1  0.460200  0.955600  0.325650  1.0  -0.1467
  C  C286  1  0.452500  0.974600  0.355990  1.0  0.1148
  C  C287  1  0.263500  0.910600  0.361600  1.0  0.0867
  C  C288  1  0.260000  0.888300  0.331300  1.0  1e-04
  C  C289  1  0.361500  0.913000  0.311820  1.0  0.3005
  C  C290  1  0.347400  0.920900  0.193570  1.0  0.2953
  C  C291  1  0.251800  0.911900  0.143620  1.0  0.0884
  C  C292  1  0.248300  0.892800  0.174240  1.0  0.0052
  C  C293  1  0.148200  0.838900  0.319780  1.0  0.1044
  C  C294  1  0.053900  0.816000  0.344750  1.0  -0.3708
  C  C295  1  0.070000  0.886800  0.296190  1.0  -0.3655
  C  C296  1  0.199200  0.767700  0.304970  1.0  -0.3647
  C  C297  1  0.137400  0.845300  0.186800  1.0  0.1188
  C  C298  1  0.188600  0.775900  0.203400  1.0  -0.3678
  C  C299  1  0.061200  0.894700  0.208980  1.0  -0.3686
  C  C300  1  0.047000  0.817100  0.162270  1.0  -0.3706
  C  C301  1  0.659200  0.389100  0.551790  1.0  0.7155
  C  C302  1  0.587100  0.316000  0.551020  1.0  -0.1422
  C  C303  1  0.510400  0.299000  0.526400  1.0  -0.0485
  C  C304  1  0.434700  0.235900  0.526340  1.0  -0.0486
  C  C305  1  0.434900  0.188100  0.550660  1.0  -0.141
  C  C306  1  0.514300  0.203400  0.575090  1.0  -0.035
  C  C307  1  0.590000  0.266800  0.575510  1.0  -0.0565
  C  C308  1  0.344800  0.121400  0.550870  1.0  0.7592
  C  C309  1  0.032800  0.518600  0.535020  1.0  0.7039
  C  C310  1  0.147900  0.510800  0.515090  1.0  -0.1461
  C  C311  1  0.247900  0.562900  0.516330  1.0  -0.0431
  C  C312  1  0.358400  0.552400  0.499290  1.0  -0.0417
  C  C313  1  0.370700  0.490000  0.480620  1.0  -0.1205
  C  C314  1  0.270400  0.437600  0.479580  1.0  -0.091
  C  C315  1  0.161500  0.448900  0.496440  1.0  -0.0311
  C  C316  1  0.485500  0.482500  0.460550  1.0  0.6799
  C  C317  1  0.864900  0.608400  0.445160  1.0  0.7144
  C  C318  1  0.936700  0.680800  0.447620  1.0  -0.1316
  C  C319  1  0.011500  0.694700  0.473160  1.0  -0.0445
  C  C320  1  0.083600  0.759300  0.475680  1.0  -0.0475
  C  C321  1  0.081600  0.811700  0.452120  1.0  -0.1254
  C  C322  1  0.004300  0.798900  0.427230  1.0  -0.048
  C  C323  1  0.932100  0.733600  0.425070  1.0  -0.0474
  C  C324  1  0.168800  0.877800  0.453840  1.0  0.7242
  C  C325  1  0.936600  0.518800  0.851550  1.0  0.1294
  C  C326  1  0.944600  0.534000  0.820390  1.0  -0.0984
  C  C327  1  0.048000  0.499100  0.804590  1.0  0.0596
  C  C328  1  0.173400  0.460700  0.760900  1.0  0.0614
  C  C329  1  0.289900  0.441900  0.780670  1.0  -0.1494
  C  C330  1  0.390100  0.397800  0.761760  1.0  -0.1109
  C  C331  1  0.428800  0.441100  0.733630  1.0  -0.122
  C  C332  1  0.310600  0.460100  0.713940  1.0  -0.1328
  C  C333  1  0.216400  0.504800  0.733460  1.0  0.0625
  C  C334  1  0.076200  0.519600  0.690070  1.0  0.0641
  C  C335  1  0.960200  0.544400  0.674350  1.0  -0.1466
  C  C336  1  0.952500  0.525400  0.644010  1.0  0.1141
  C  C337  1  0.763500  0.589400  0.638400  1.0  0.0874
  C  C338  1  0.760000  0.611700  0.668700  1.0  -0.0006
  C  C339  1  0.861500  0.587000  0.688180  1.0  0.3005
  C  C340  1  0.847400  0.579100  0.806430  1.0  0.2963
  C  C341  1  0.751800  0.588100  0.856380  1.0  0.0876
  C  C342  1  0.748300  0.607200  0.825760  1.0  0.0074
  C  C343  1  0.648200  0.661100  0.680220  1.0  0.1033
  C  C344  1  0.553900  0.684000  0.655250  1.0  -0.3692
  C  C345  1  0.570000  0.613200  0.703810  1.0  -0.3655
  C  C346  1  0.699200  0.732300  0.695030  1.0  -0.3652
  C  C347  1  0.637400  0.654700  0.813200  1.0  0.1188
  C  C348  1  0.688600  0.724100  0.796600  1.0  -0.3679
  C  C349  1  0.561200  0.605300  0.791020  1.0  -0.3685
  C  C350  1  0.547000  0.682900  0.837730  1.0  -0.3711
  C  C351  1  0.840800  0.610900  0.051790  1.0  0.7155
  C  C352  1  0.912900  0.684000  0.051020  1.0  -0.1431
  C  C353  1  0.989600  0.701000  0.026400  1.0  -0.0497
  C  C354  1  0.065300  0.764100  0.026340  1.0  -0.049
  C  C355  1  0.065100  0.811900  0.050660  1.0  -0.141
  C  C356  1  0.985700  0.796600  0.075090  1.0  -0.0349
  C  C357  1  0.910000  0.733200  0.075510  1.0  -0.0581
  C  C358  1  0.155200  0.878600  0.050870  1.0  0.7604
  C  C359  1  0.467200  0.481400  0.035020  1.0  0.7029
  C  C360  1  0.352100  0.489200  0.015090  1.0  -0.1458
  C  C361  1  0.252100  0.437100  0.016330  1.0  -0.0434
  C  C362  1  0.141600  0.447600  0.999290  1.0  -0.0414
  C  C363  1  0.129300  0.510000  0.980620  1.0  -0.1211
  C  C364  1  0.229600  0.562400  0.979580  1.0  -0.0916
  C  C365  1  0.338500  0.551100  0.996440  1.0  -0.0324
  C  C366  1  0.014500  0.517500  0.960550  1.0  0.6811
  C  C367  1  0.635100  0.391600  0.945160  1.0  0.7133
  C  C368  1  0.563300  0.319200  0.947620  1.0  -0.1315
  C  C369  1  0.488500  0.305300  0.973160  1.0  -0.0436
  C  C370  1  0.416400  0.240700  0.975680  1.0  -0.0474
  C  C371  1  0.418400  0.188300  0.952120  1.0  -0.1257
  C  C372  1  0.495700  0.201100  0.927230  1.0  -0.0488
  C  C373  1  0.567900  0.266400  0.925070  1.0  -0.048
  C  C374  1  0.331200  0.122200  0.953840  1.0  0.7236
  C  C375  1  0.563400  0.481200  0.351550  1.0  0.1278
  C  C376  1  0.555400  0.466000  0.320390  1.0  -0.0975
  C  C377  1  0.452000  0.500900  0.304590  1.0  0.0566
  C  C378  1  0.326600  0.539300  0.260900  1.0  0.0622
  C  C379  1  0.210100  0.558100  0.280670  1.0  -0.15
  C  C380  1  0.109900  0.602200  0.261760  1.0  -0.1098
  C  C381  1  0.071200  0.558900  0.233630  1.0  -0.121
  C  C382  1  0.189400  0.539900  0.213940  1.0  -0.1333
  C  C383  1  0.283600  0.495200  0.233460  1.0  0.062
  C  C384  1  0.423800  0.480400  0.190070  1.0  0.0619
  C  C385  1  0.539800  0.455600  0.174350  1.0  -0.1455
  C  C386  1  0.547500  0.474600  0.144010  1.0  0.1147
  C  C387  1  0.736500  0.410600  0.138400  1.0  0.0892
  C  C388  1  0.740000  0.388300  0.168700  1.0  -0.0032
  C  C389  1  0.638500  0.413000  0.188180  1.0  0.3005
  C  C390  1  0.652600  0.420900  0.306430  1.0  0.299
  C  C391  1  0.748200  0.411900  0.356380  1.0  0.0873
  C  C392  1  0.751700  0.392800  0.325760  1.0  0.0052
  C  C393  1  0.851800  0.338900  0.180220  1.0  0.1041
  C  C394  1  0.946100  0.316000  0.155250  1.0  -0.37
  C  C395  1  0.930000  0.386800  0.203810  1.0  -0.3662
  C  C396  1  0.800800  0.267700  0.195030  1.0  -0.3646
  C  C397  1  0.862600  0.345300  0.313200  1.0  0.1192
  C  C398  1  0.811400  0.275900  0.296600  1.0  -0.3664
  C  C399  1  0.938800  0.394700  0.291020  1.0  -0.369
  C  C400  1  0.953000  0.317100  0.337730  1.0  -0.3709
  N  N401  1  0.144400  0.045600  0.874200  1.0  -0.3519
  N  N402  1  0.157600  0.043000  0.630950  1.0  -0.3375
  N  N403  1  0.929300  0.005700  0.723880  1.0  -0.2744
  N  N404  1  0.903900  0.030000  0.781670  1.0  -0.2806
  N  N405  1  0.355600  0.954400  0.374200  1.0  -0.351
  N  N406  1  0.342400  0.957000  0.130950  1.0  -0.3373
  N  N407  1  0.570700  0.994300  0.223880  1.0  -0.2755
  N  N408  1  0.596100  0.970000  0.281670  1.0  -0.2822
  N  N409  1  0.855600  0.545600  0.625800  1.0  -0.3556
  N  N410  1  0.842400  0.543000  0.869050  1.0  -0.3353
  N  N411  1  0.070700  0.505700  0.776120  1.0  -0.2762
  N  N412  1  0.096100  0.530000  0.718330  1.0  -0.2817
  N  N413  1  0.644400  0.454400  0.125800  1.0  -0.3526
  N  N414  1  0.657600  0.457000  0.369050  1.0  -0.3362
  N  N415  1  0.429300  0.494300  0.276120  1.0  -0.2738
  N  N416  1  0.403900  0.470000  0.218330  1.0  -0.2803
  O  O417  1  0.271200  0.900100  0.925010  1.0  -0.6221
  O  O418  1  0.358600  0.932900  0.969320  1.0  -0.6412
  O  O419  1  0.713000  0.606700  0.973530  1.0  -0.6759
  O  O420  1  0.671000  0.588200  0.924440  1.0  -0.5857
  O  O421  1  0.964300  0.061900  0.942870  1.0  -0.6028
  O  O422  1  0.065500  0.977000  0.970300  1.0  -0.6704
  O  O423  1  0.520400  0.941100  0.062010  1.0  -0.6136
  O  O424  1  0.415500  0.022300  0.033890  1.0  -0.667
  O  O425  1  0.203500  0.098400  0.078610  1.0  -0.6299
  O  O426  1  0.118400  0.061300  0.034370  1.0  -0.67
  O  O427  1  0.814400  0.414200  0.070060  1.0  -0.5931
  O  O428  1  0.780200  0.392600  0.021110  1.0  -0.6412
  O  O429  1  0.140400  0.103600  0.783590  1.0  -0.5995
  O  O430  1  0.152500  0.094600  0.722020  1.0  -0.5917
  O  O431  1  0.228800  0.099900  0.425010  1.0  -0.6235
  O  O432  1  0.141400  0.067100  0.469320  1.0  -0.6415
  O  O433  1  0.787000  0.393300  0.473530  1.0  -0.6757
  O  O434  1  0.829000  0.411800  0.424440  1.0  -0.584
  O  O435  1  0.535700  0.938100  0.442870  1.0  -0.6039
  O  O436  1  0.434500  0.023000  0.470300  1.0  -0.6709
  O  O437  1  0.979600  0.058900  0.562010  1.0  -0.6134
  O  O438  1  0.084500  0.977700  0.533890  1.0  -0.6662
  O  O439  1  0.296500  0.901600  0.578610  1.0  -0.6308
  O  O440  1  0.381600  0.938700  0.534370  1.0  -0.6704
  O  O441  1  0.685600  0.585800  0.570060  1.0  -0.5932
  O  O442  1  0.719800  0.607400  0.521110  1.0  -0.6404
  O  O443  1  0.359600  0.896400  0.283590  1.0  -0.6005
  O  O444  1  0.347500  0.905400  0.222020  1.0  -0.5921
  O  O445  1  0.728800  0.400100  0.574990  1.0  -0.6255
  O  O446  1  0.641400  0.432900  0.530680  1.0  -0.6418
  O  O447  1  0.287000  0.106700  0.526470  1.0  -0.6769
  O  O448  1  0.329000  0.088200  0.575560  1.0  -0.5827
  O  O449  1  0.035700  0.561900  0.557130  1.0  -0.6027
  O  O450  1  0.934500  0.477000  0.529700  1.0  -0.6688
  O  O451  1  0.479600  0.441100  0.437990  1.0  -0.6115
  O  O452  1  0.584500  0.522300  0.466110  1.0  -0.6679
  O  O453  1  0.796500  0.598400  0.421390  1.0  -0.6258
  O  O454  1  0.881600  0.561300  0.465630  1.0  -0.6699
  O  O455  1  0.185600  0.914200  0.429940  1.0  -0.5938
  O  O456  1  0.219800  0.892600  0.478890  1.0  -0.6394
  O  O457  1  0.859600  0.603600  0.716410  1.0  -0.6014
  O  O458  1  0.847500  0.594600  0.777980  1.0  -0.5922
  O  O459  1  0.771200  0.599900  0.074990  1.0  -0.6261
  O  O460  1  0.858600  0.567100  0.030680  1.0  -0.6418
  O  O461  1  0.213000  0.893300  0.026470  1.0  -0.6756
  O  O462  1  0.171000  0.911800  0.075560  1.0  -0.5842
  O  O463  1  0.464300  0.438100  0.057130  1.0  -0.6044
  O  O464  1  0.565500  0.523000  0.029700  1.0  -0.6707
  O  O465  1  0.020400  0.558900  0.937990  1.0  -0.6123
  O  O466  1  0.915500  0.477700  0.966110  1.0  -0.6676
  O  O467  1  0.703500  0.401600  0.921390  1.0  -0.6265
  O  O468  1  0.618400  0.438700  0.965630  1.0  -0.6703
  O  O469  1  0.314400  0.085800  0.929940  1.0  -0.5938
  O  O470  1  0.280200  0.107400  0.978890  1.0  -0.6399
  O  O471  1  0.640400  0.396400  0.216410  1.0  -0.6001
  O  O472  1  0.652500  0.405400  0.277980  1.0  -0.5921
