# generated using pymatgen
data_ZnH3(CO2)3
_symmetry_space_group_name_H-M   'P 1'
_cell_length_a   7.28290000
_cell_length_b   7.28290000
_cell_length_c   8.16910000
_cell_angle_alpha   90.00000000
_cell_angle_beta   90.00000000
_cell_angle_gamma   120.00000000
_symmetry_Int_Tables_number   1
_chemical_formula_structural   ZnH3(CO2)3
_chemical_formula_sum   'Zn2 H6 C6 O12'
_cell_volume   375.24381068
_cell_formula_units_Z   2
loop_
 _symmetry_equiv_pos_site_id
 _symmetry_equiv_pos_as_xyz
  1  'x, y, z'
loop_
 _atom_site_type_symbol
 _atom_site_label
 _atom_site_symmetry_multiplicity
 _atom_site_fract_x
 _atom_site_fract_y
 _atom_site_fract_z
 _atom_site_occupancy
 _atom_site_charge
  Zn  Zn1  1  0.666667  0.333333  0.750000  1.0  0.9399
  Zn  Zn2  1  0.333333  0.666667  0.250000  1.0  0.9399
  H  H3  1  0.000000  0.565400  0.000000  1.0  0.0725
  H  H4  1  0.000000  0.434600  0.500000  1.0  0.0733
  H  H5  1  0.565400  0.000000  0.000000  1.0  0.0727
  H  H6  1  0.434600  0.434600  0.000000  1.0  0.0726
  H  H7  1  0.565400  0.565400  0.500000  1.0  0.073
  H  H8  1  0.434600  0.000000  0.500000  1.0  0.0736
  C  C9  1  0.562800  0.000000  0.500000  1.0  0.7322
  C  C10  1  0.000000  0.562800  0.500000  1.0  0.7309
  C  C11  1  0.437200  0.437200  0.500000  1.0  0.7294
  C  C12  1  0.437200  0.000000  0.000000  1.0  0.7323
  C  C13  1  0.000000  0.437200  0.000000  1.0  0.7297
  C  C14  1  0.562800  0.562800  0.000000  1.0  0.7308
  O  O15  1  0.110300  0.415500  0.105700  1.0  -0.5584
  O  O16  1  0.584500  0.889700  0.394300  1.0  -0.5584
  O  O17  1  0.415500  0.305200  0.605700  1.0  -0.5584
  O  O18  1  0.110300  0.694800  0.394300  1.0  -0.5594
  O  O19  1  0.889700  0.305200  0.894300  1.0  -0.558
  O  O20  1  0.584500  0.694800  0.105700  1.0  -0.5587
  O  O21  1  0.305200  0.889700  0.105700  1.0  -0.5574
  O  O22  1  0.889700  0.584500  0.605700  1.0  -0.559
  O  O23  1  0.694800  0.584500  0.894300  1.0  -0.5591
  O  O24  1  0.415500  0.110300  0.894300  1.0  -0.5579
  O  O25  1  0.305200  0.415500  0.394300  1.0  -0.5593
  O  O26  1  0.694800  0.110300  0.605700  1.0  -0.5588
