# generated using pymatgen
data_Zn6Cr3H48C84N6O37
_symmetry_space_group_name_H-M   'P 1'
_cell_length_a   18.94790000
_cell_length_b   18.94790000
_cell_length_c   35.91270000
_cell_angle_alpha   90.00000000
_cell_angle_beta   90.00000000
_cell_angle_gamma   120.00000000
_symmetry_Int_Tables_number   1
_chemical_formula_structural   Zn6Cr3H48C84N6O37
_chemical_formula_sum   'Zn12 Cr6 H96 C168 N12 O74'
_cell_volume   11166.08314432
_cell_formula_units_Z   2
loop_
 _symmetry_equiv_pos_site_id
 _symmetry_equiv_pos_as_xyz
  1  'x, y, z'
loop_
 _atom_site_type_symbol
 _atom_site_label
 _atom_site_symmetry_multiplicity
 _atom_site_fract_x
 _atom_site_fract_y
 _atom_site_fract_z
 _atom_site_occupancy
 _atom_site_charge
  Zn  Zn1  1  0.049390  0.524700  0.033600  1.0  0.924
  Zn  Zn2  1  0.049390  0.524700  0.466400  1.0  0.9239
  Zn  Zn3  1  0.524690  0.475300  0.966400  1.0  0.9242
  Zn  Zn4  1  0.524690  0.475300  0.533600  1.0  0.9243
  Zn  Zn5  1  0.475310  0.950620  0.033600  1.0  0.9247
  Zn  Zn6  1  0.950610  0.475300  0.533600  1.0  0.9241
  Zn  Zn7  1  0.475310  0.524700  0.033600  1.0  0.924
  Zn  Zn8  1  0.524690  0.049380  0.533600  1.0  0.9247
  Zn  Zn9  1  0.475310  0.524700  0.466400  1.0  0.9241
  Zn  Zn10  1  0.475310  0.950620  0.466400  1.0  0.9243
  Zn  Zn11  1  0.950610  0.475300  0.966400  1.0  0.9241
  Zn  Zn12  1  0.524690  0.049380  0.966400  1.0  0.9246
  Cr  Cr13  1  0.550080  0.275040  0.750000  1.0  1.4896
  Cr  Cr14  1  0.449920  0.724960  0.250000  1.0  1.4937
  Cr  Cr15  1  0.275040  0.724960  0.250000  1.0  1.4907
  Cr  Cr16  1  0.724960  0.275040  0.750000  1.0  1.492
  Cr  Cr17  1  0.275040  0.550080  0.250000  1.0  1.4899
  Cr  Cr18  1  0.724960  0.449920  0.750000  1.0  1.4909
  H  H19  1  0.168100  0.831900  0.615700  1.0  0.1106
  H  H20  1  0.474600  0.237300  0.003000  1.0  0.1175
  H  H21  1  0.350500  0.905300  0.408700  1.0  0.0901
  H  H22  1  0.466700  0.143200  0.651800  1.0  0.1154
  H  H23  1  0.676500  0.143200  0.848200  1.0  0.1154
  H  H24  1  0.676500  0.143200  0.651800  1.0  0.1157
  H  H25  1  0.168100  0.831900  0.884300  1.0  0.1099
  H  H26  1  0.084700  0.704100  0.590100  1.0  0.1072
  H  H27  1  0.663800  0.831900  0.884300  1.0  0.112
  H  H28  1  0.831900  0.663800  0.384300  1.0  0.1096
  H  H29  1  0.168100  0.336200  0.615700  1.0  0.1117
  H  H30  1  0.466700  0.143200  0.848200  1.0  0.1148
  H  H31  1  0.762700  0.237300  0.497000  1.0  0.1174
  H  H32  1  0.094700  0.649500  0.408700  1.0  0.0904
  H  H33  1  0.084700  0.380600  0.909900  1.0  0.1073
  H  H34  1  0.084700  0.704100  0.909900  1.0  0.1069
  H  H35  1  0.554800  0.905300  0.091300  1.0  0.0898
  H  H36  1  0.143200  0.466700  0.151800  1.0  0.1162
  H  H37  1  0.554800  0.905300  0.408700  1.0  0.09
  H  H38  1  0.094700  0.649500  0.091300  1.0  0.0904
  H  H39  1  0.762700  0.237300  0.003000  1.0  0.1175
  H  H40  1  0.831900  0.663800  0.115700  1.0  0.1105
  H  H41  1  0.445200  0.350500  0.591300  1.0  0.0897
  H  H42  1  0.905300  0.554800  0.591300  1.0  0.09
  H  H43  1  0.649500  0.554800  0.908700  1.0  0.0898
  H  H44  1  0.649500  0.094700  0.591300  1.0  0.0897
  H  H45  1  0.168100  0.336200  0.884300  1.0  0.1096
  H  H46  1  0.445200  0.094700  0.591300  1.0  0.0904
  H  H47  1  0.466700  0.323500  0.848200  1.0  0.1147
  H  H48  1  0.350500  0.905300  0.091300  1.0  0.0904
  H  H49  1  0.649500  0.554800  0.591300  1.0  0.0897
  H  H50  1  0.474600  0.237300  0.497000  1.0  0.1173
  H  H51  1  0.856800  0.323500  0.651800  1.0  0.1148
  H  H52  1  0.295900  0.380600  0.909900  1.0  0.1068
  H  H53  1  0.704100  0.619400  0.090100  1.0  0.1075
  H  H54  1  0.237300  0.762700  0.997000  1.0  0.1172
  H  H55  1  0.323500  0.856800  0.348200  1.0  0.1147
  H  H56  1  0.676500  0.533300  0.848200  1.0  0.1162
  H  H57  1  0.762700  0.525400  0.497000  1.0  0.117
  H  H58  1  0.237300  0.762700  0.503000  1.0  0.1176
  H  H59  1  0.915300  0.295900  0.090100  1.0  0.1064
  H  H60  1  0.905300  0.350500  0.591300  1.0  0.0897
  H  H61  1  0.831900  0.168100  0.384300  1.0  0.1119
  H  H62  1  0.704100  0.084700  0.409900  1.0  0.1072
  H  H63  1  0.915300  0.619400  0.409900  1.0  0.1067
  H  H64  1  0.094700  0.445200  0.408700  1.0  0.0898
  H  H65  1  0.380600  0.295900  0.090100  1.0  0.1069
  H  H66  1  0.295900  0.915300  0.909900  1.0  0.1069
  H  H67  1  0.619400  0.915300  0.909900  1.0  0.1071
  H  H68  1  0.323500  0.466700  0.348200  1.0  0.1155
  H  H69  1  0.533300  0.856800  0.348200  1.0  0.115
  H  H70  1  0.533300  0.676500  0.348200  1.0  0.115
  H  H71  1  0.143200  0.676500  0.348200  1.0  0.1151
  H  H72  1  0.663800  0.831900  0.615700  1.0  0.1115
  H  H73  1  0.380600  0.084700  0.090100  1.0  0.1074
  H  H74  1  0.336200  0.168100  0.115700  1.0  0.1108
  H  H75  1  0.856800  0.533300  0.651800  1.0  0.1167
  H  H76  1  0.350500  0.445200  0.091300  1.0  0.0898
  H  H77  1  0.350500  0.445200  0.408700  1.0  0.0899
  H  H78  1  0.525400  0.762700  0.503000  1.0  0.1174
  H  H79  1  0.336200  0.168100  0.384300  1.0  0.1097
  H  H80  1  0.380600  0.084700  0.409900  1.0  0.107
  H  H81  1  0.554800  0.649500  0.408700  1.0  0.0902
  H  H82  1  0.445200  0.094700  0.908700  1.0  0.0903
  H  H83  1  0.143200  0.676500  0.151800  1.0  0.1154
  H  H84  1  0.466700  0.323500  0.651800  1.0  0.1156
  H  H85  1  0.533300  0.676500  0.151800  1.0  0.1151
  H  H86  1  0.533300  0.856800  0.151800  1.0  0.1153
  H  H87  1  0.323500  0.466700  0.151800  1.0  0.1161
  H  H88  1  0.525400  0.762700  0.997000  1.0  0.1173
  H  H89  1  0.295900  0.380600  0.590100  1.0  0.1073
  H  H90  1  0.380600  0.295900  0.409900  1.0  0.107
  H  H91  1  0.094700  0.445200  0.091300  1.0  0.0897
  H  H92  1  0.619400  0.704100  0.909900  1.0  0.1067
  H  H93  1  0.915300  0.619400  0.090100  1.0  0.107
  H  H94  1  0.704100  0.084700  0.090100  1.0  0.1075
  H  H95  1  0.831900  0.168100  0.115700  1.0  0.1107
  H  H96  1  0.143200  0.466700  0.348200  1.0  0.1157
  H  H97  1  0.084700  0.380600  0.590100  1.0  0.1075
  H  H98  1  0.905300  0.554800  0.908700  1.0  0.0901
  H  H99  1  0.445200  0.350500  0.908700  1.0  0.09
  H  H100  1  0.237300  0.474600  0.997000  1.0  0.1171
  H  H101  1  0.619400  0.915300  0.590100  1.0  0.1073
  H  H102  1  0.915300  0.295900  0.409900  1.0  0.1064
  H  H103  1  0.856800  0.533300  0.848200  1.0  0.1164
  H  H104  1  0.762700  0.525400  0.003000  1.0  0.1173
  H  H105  1  0.554800  0.649500  0.091300  1.0  0.09
  H  H106  1  0.905300  0.350500  0.908700  1.0  0.0899
  H  H107  1  0.856800  0.323500  0.848200  1.0  0.1146
  H  H108  1  0.323500  0.856800  0.151800  1.0  0.1151
  H  H109  1  0.676500  0.533300  0.651800  1.0  0.1164
  H  H110  1  0.619400  0.704100  0.590100  1.0  0.1069
  H  H111  1  0.704100  0.619400  0.409900  1.0  0.1073
  H  H112  1  0.237300  0.474600  0.503000  1.0  0.1173
  H  H113  1  0.649500  0.094700  0.908700  1.0  0.0899
  H  H114  1  0.295900  0.915300  0.590100  1.0  0.1071
  C  C115  1  0.453900  0.358100  0.025950  1.0  0.6873
  C  C116  1  0.592470  0.184940  0.803660  1.0  0.7083
  C  C117  1  0.894700  0.506200  0.896250  1.0  0.1662
  C  C118  1  0.278000  0.848600  0.956380  1.0  -0.1647
  C  C119  1  0.426380  0.852760  0.158050  1.0  -0.1033
  C  C120  1  0.722000  0.570600  0.043620  1.0  -0.1648
  C  C121  1  0.742000  0.608900  0.422390  1.0  -0.0529
  C  C122  1  0.505900  0.372300  0.860150  1.0  -0.0989
  C  C123  1  0.551700  0.775850  0.973430  1.0  -1e-04
  C  C124  1  0.866900  0.608900  0.422390  1.0  -0.0532
  C  C125  1  0.095800  0.641900  0.525950  1.0  0.6881
  C  C126  1  0.570600  0.722000  0.956380  1.0  -0.1626
  C  C127  1  0.407530  0.815060  0.196340  1.0  0.7079
  C  C128  1  0.815060  0.407530  0.696340  1.0  0.7117
  C  C129  1  0.372300  0.505900  0.139850  1.0  -0.1006
  C  C130  1  0.258000  0.866900  0.922390  1.0  -0.0559
  C  C131  1  0.105300  0.611500  0.396250  1.0  0.1677
  C  C132  1  0.151400  0.722000  0.543620  1.0  -0.1636
  C  C133  1  0.866400  0.372300  0.860150  1.0  -0.0999
  C  C134  1  0.627700  0.494100  0.860150  1.0  -0.1033
  C  C135  1  0.506200  0.894700  0.103750  1.0  0.1685
  C  C136  1  0.573620  0.147240  0.658050  1.0  -0.1042
  C  C137  1  0.388500  0.894700  0.103750  1.0  0.1684
  C  C138  1  0.848600  0.278000  0.043620  1.0  -0.1628
  C  C139  1  0.184000  0.368000  0.593700  1.0  -0.1368
  C  C140  1  0.775850  0.224150  0.473430  1.0  -0.0005
  C  C141  1  0.133600  0.505900  0.360150  1.0  -0.1012
  C  C142  1  0.151400  0.429400  0.956380  1.0  -0.1645
  C  C143  1  0.358100  0.453900  0.525950  1.0  0.6866
  C  C144  1  0.505900  0.133600  0.639850  1.0  -0.0999
  C  C145  1  0.573620  0.426380  0.841950  1.0  -0.1044
  C  C146  1  0.133600  0.505900  0.139850  1.0  -0.101
  C  C147  1  0.775850  0.224150  0.026570  1.0  0.0007
  C  C148  1  0.224150  0.448300  0.526570  1.0  0.0005
  C  C149  1  0.493800  0.388500  0.896250  1.0  0.1675
  C  C150  1  0.133100  0.391100  0.577610  1.0  -0.0529
  C  C151  1  0.848600  0.278000  0.456380  1.0  -0.1625
  C  C152  1  0.388500  0.894700  0.396250  1.0  0.1692
  C  C153  1  0.866400  0.494100  0.860150  1.0  -0.1035
  C  C154  1  0.151400  0.722000  0.956380  1.0  -0.1633
  C  C155  1  0.546100  0.641900  0.974050  1.0  0.6868
  C  C156  1  0.506200  0.894700  0.396250  1.0  0.1691
  C  C157  1  0.570600  0.722000  0.543620  1.0  -0.163
  C  C158  1  0.894700  0.388500  0.603750  1.0  0.1646
  C  C159  1  0.493800  0.105300  0.896250  1.0  0.169
  C  C160  1  0.105300  0.611500  0.103750  1.0  0.1668
  C  C161  1  0.358100  0.453900  0.974050  1.0  0.6866
  C  C162  1  0.627700  0.133600  0.860150  1.0  -0.0994
  C  C163  1  0.372300  0.505900  0.360150  1.0  -0.1023
  C  C164  1  0.407530  0.815060  0.303660  1.0  0.7081
  C  C165  1  0.258000  0.866900  0.577610  1.0  -0.0559
  C  C166  1  0.866900  0.608900  0.077610  1.0  -0.0563
  C  C167  1  0.592470  0.184940  0.696340  1.0  0.7087
  C  C168  1  0.133100  0.742000  0.577610  1.0  -0.0537
  C  C169  1  0.278000  0.848600  0.543620  1.0  -0.165
  C  C170  1  0.742000  0.608900  0.077610  1.0  -0.054
  C  C171  1  0.722000  0.570600  0.456380  1.0  -0.1646
  C  C172  1  0.258000  0.391100  0.922390  1.0  -0.0526
  C  C173  1  0.426380  0.852760  0.341950  1.0  -0.102
  C  C174  1  0.506200  0.611500  0.103750  1.0  0.1652
  C  C175  1  0.866400  0.372300  0.639850  1.0  -0.1019
  C  C176  1  0.453900  0.358100  0.474050  1.0  0.6874
  C  C177  1  0.742000  0.133100  0.077610  1.0  -0.0608
  C  C178  1  0.904200  0.358100  0.474050  1.0  0.6867
  C  C179  1  0.493800  0.105300  0.603750  1.0  0.1688
  C  C180  1  0.815060  0.407530  0.803660  1.0  0.7121
  C  C181  1  0.429400  0.278000  0.043620  1.0  -0.1633
  C  C182  1  0.551700  0.775850  0.526570  1.0  0.001
  C  C183  1  0.852760  0.426380  0.658050  1.0  -0.106
  C  C184  1  0.546100  0.904200  0.525950  1.0  0.6858
  C  C185  1  0.453900  0.095800  0.025950  1.0  0.6861
  C  C186  1  0.573620  0.426380  0.658050  1.0  -0.1058
  C  C187  1  0.184000  0.368000  0.906300  1.0  -0.1307
  C  C188  1  0.494100  0.866400  0.360150  1.0  -0.1001
  C  C189  1  0.570600  0.848600  0.956380  1.0  -0.165
  C  C190  1  0.608900  0.866900  0.922390  1.0  -0.0566
  C  C191  1  0.848600  0.570600  0.043620  1.0  -0.1641
  C  C192  1  0.608900  0.866900  0.577610  1.0  -0.0597
  C  C193  1  0.866400  0.494100  0.639850  1.0  -0.1022
  C  C194  1  0.775850  0.551700  0.026570  1.0  0.0006
  C  C195  1  0.184940  0.592470  0.303660  1.0  0.7123
  C  C196  1  0.816000  0.184000  0.406300  1.0  -0.1295
  C  C197  1  0.546100  0.904200  0.974050  1.0  0.6858
  C  C198  1  0.722000  0.151400  0.456380  1.0  -0.165
  C  C199  1  0.641900  0.546100  0.474050  1.0  0.6867
  C  C200  1  0.641900  0.095800  0.474050  1.0  0.6861
  C  C201  1  0.426380  0.573620  0.341950  1.0  -0.1043
  C  C202  1  0.904200  0.546100  0.474050  1.0  0.6868
  C  C203  1  0.184000  0.816000  0.593700  1.0  -0.1354
  C  C204  1  0.358100  0.904200  0.525950  1.0  0.6862
  C  C205  1  0.894700  0.506200  0.603750  1.0  0.1663
  C  C206  1  0.611500  0.105300  0.603750  1.0  0.1682
  C  C207  1  0.407530  0.592470  0.303660  1.0  0.712
  C  C208  1  0.494100  0.627700  0.139850  1.0  -0.1024
  C  C209  1  0.611500  0.105300  0.896250  1.0  0.1689
  C  C210  1  0.592470  0.407530  0.803660  1.0  0.7126
  C  C211  1  0.429400  0.151400  0.043620  1.0  -0.1655
  C  C212  1  0.147240  0.573620  0.158050  1.0  -0.1059
  C  C213  1  0.105300  0.493800  0.396250  1.0  0.1669
  C  C214  1  0.258000  0.391100  0.577610  1.0  -0.0527
  C  C215  1  0.391100  0.133100  0.077610  1.0  -0.0564
  C  C216  1  0.627700  0.494100  0.639850  1.0  -0.1042
  C  C217  1  0.627700  0.133600  0.639850  1.0  -0.1
  C  C218  1  0.448300  0.224150  0.473430  1.0  0.0008
  C  C219  1  0.095800  0.453900  0.974050  1.0  0.6868
  C  C220  1  0.133600  0.627700  0.360150  1.0  -0.1019
  C  C221  1  0.095800  0.641900  0.974050  1.0  0.6879
  C  C222  1  0.546100  0.641900  0.525950  1.0  0.6871
  C  C223  1  0.372300  0.866400  0.360150  1.0  -0.098
  C  C224  1  0.278000  0.429400  0.543620  1.0  -0.1642
  C  C225  1  0.816000  0.632000  0.093700  1.0  -0.1356
  C  C226  1  0.388500  0.493800  0.103750  1.0  0.166
  C  C227  1  0.866900  0.258000  0.077610  1.0  -0.0532
  C  C228  1  0.391100  0.258000  0.077610  1.0  -0.0544
  C  C229  1  0.391100  0.258000  0.422390  1.0  -0.0541
  C  C230  1  0.278000  0.429400  0.956380  1.0  -0.1638
  C  C231  1  0.866900  0.258000  0.422390  1.0  -0.0544
  C  C232  1  0.388500  0.493800  0.396250  1.0  0.1671
  C  C233  1  0.816000  0.632000  0.406300  1.0  -0.1358
  C  C234  1  0.372300  0.866400  0.139850  1.0  -0.0997
  C  C235  1  0.573620  0.147240  0.841950  1.0  -0.1024
  C  C236  1  0.368000  0.184000  0.093700  1.0  -0.1309
  C  C237  1  0.133600  0.627700  0.139850  1.0  -0.1029
  C  C238  1  0.151400  0.429400  0.543620  1.0  -0.1648
  C  C239  1  0.894700  0.388500  0.896250  1.0  0.166
  C  C240  1  0.448300  0.224150  0.026570  1.0  0.0015
  C  C241  1  0.391100  0.133100  0.422390  1.0  -0.056
  C  C242  1  0.775850  0.551700  0.473430  1.0  -0.0006
  C  C243  1  0.184000  0.816000  0.906300  1.0  -0.1299
  C  C244  1  0.095800  0.453900  0.525950  1.0  0.6864
  C  C245  1  0.105300  0.493800  0.103750  1.0  0.1658
  C  C246  1  0.147240  0.573620  0.341950  1.0  -0.1044
  C  C247  1  0.632000  0.816000  0.906300  1.0  -0.1301
  C  C248  1  0.429400  0.151400  0.456380  1.0  -0.165
  C  C249  1  0.133100  0.742000  0.922390  1.0  -0.0526
  C  C250  1  0.494100  0.627700  0.360150  1.0  -0.1017
  C  C251  1  0.407530  0.592470  0.196340  1.0  0.7122
  C  C252  1  0.224150  0.448300  0.973430  1.0  -0.0006
  C  C253  1  0.505900  0.372300  0.639850  1.0  -0.0988
  C  C254  1  0.493800  0.388500  0.603750  1.0  0.1663
  C  C255  1  0.592470  0.407530  0.696340  1.0  0.7117
  C  C256  1  0.904200  0.546100  0.025950  1.0  0.6868
  C  C257  1  0.608900  0.742000  0.922390  1.0  -0.0532
  C  C258  1  0.632000  0.816000  0.593700  1.0  -0.1291
  C  C259  1  0.426380  0.573620  0.158050  1.0  -0.1058
  C  C260  1  0.133100  0.391100  0.922390  1.0  -0.0527
  C  C261  1  0.641900  0.095800  0.025950  1.0  0.6861
  C  C262  1  0.358100  0.904200  0.974050  1.0  0.6855
  C  C263  1  0.641900  0.546100  0.025950  1.0  0.6867
  C  C264  1  0.722000  0.151400  0.043620  1.0  -0.1653
  C  C265  1  0.224150  0.775850  0.526570  1.0  0.0017
  C  C266  1  0.816000  0.184000  0.093700  1.0  -0.133
  C  C267  1  0.184940  0.592470  0.196340  1.0  0.7115
  C  C268  1  0.506200  0.611500  0.396250  1.0  0.1663
  C  C269  1  0.848600  0.570600  0.456380  1.0  -0.1638
  C  C270  1  0.505900  0.133600  0.860150  1.0  -0.0978
  C  C271  1  0.368000  0.184000  0.406300  1.0  -0.1358
  C  C272  1  0.608900  0.742000  0.577610  1.0  -0.0523
  C  C273  1  0.494100  0.866400  0.139850  1.0  -0.1018
  C  C274  1  0.611500  0.506200  0.896250  1.0  0.1653
  C  C275  1  0.852760  0.426380  0.841950  1.0  -0.1042
  C  C276  1  0.453900  0.095800  0.474050  1.0  0.6862
  C  C277  1  0.570600  0.848600  0.543620  1.0  -0.1652
  C  C278  1  0.611500  0.506200  0.603750  1.0  0.1652
  C  C279  1  0.429400  0.278000  0.456380  1.0  -0.1629
  C  C280  1  0.904200  0.358100  0.025950  1.0  0.687
  C  C281  1  0.742000  0.133100  0.422390  1.0  -0.057
  C  C282  1  0.224150  0.775850  0.973430  1.0  0.001
  N  N283  1  0.092620  0.546310  0.414120  1.0  -0.2707
  N  N284  1  0.453690  0.907380  0.085880  1.0  -0.2698
  N  N285  1  0.546310  0.092620  0.585880  1.0  -0.2716
  N  N286  1  0.546310  0.092620  0.914120  1.0  -0.2723
  N  N287  1  0.546310  0.453690  0.914120  1.0  -0.2725
  N  N288  1  0.453690  0.907380  0.414120  1.0  -0.2724
  N  N289  1  0.092620  0.546310  0.085880  1.0  -0.2725
  N  N290  1  0.546310  0.453690  0.585880  1.0  -0.2728
  N  N291  1  0.453690  0.546310  0.414120  1.0  -0.2729
  N  N292  1  0.907380  0.453690  0.914120  1.0  -0.2717
  N  N293  1  0.453690  0.546310  0.085880  1.0  -0.2724
  N  N294  1  0.907380  0.453690  0.585880  1.0  -0.271
  O  O295  1  0.591800  0.035300  0.456130  1.0  -0.6116
  O  O296  1  0.459330  0.799940  0.210260  1.0  -0.6278
  O  O297  1  0.482770  0.113620  0.506370  1.0  -0.5727
  O  O298  1  0.964700  0.556500  0.043870  1.0  -0.6128
  O  O299  1  0.443500  0.408200  0.456130  1.0  -0.6115
  O  O300  1  0.659390  0.200060  0.710260  1.0  -0.6275
  O  O301  1  0.630850  0.113620  0.506370  1.0  -0.5726
  O  O302  1  0.113620  0.630850  0.006370  1.0  -0.5718
  O  O303  1  0.482770  0.369150  0.506370  1.0  -0.5719
  O  O304  1  0.369150  0.886380  0.493630  1.0  -0.5736
  O  O305  1  0.659390  0.459330  0.710260  1.0  -0.6276
  O  O306  1  0.459330  0.799940  0.289740  1.0  -0.6281
  O  O307  1  0.886380  0.369150  0.506370  1.0  -0.5714
  O  O308  1  0.333333  0.666667  0.250000  1.0  -1.008
  O  O309  1  0.886380  0.369150  0.993630  1.0  -0.5719
  O  O310  1  0.799940  0.340610  0.710260  1.0  -0.6263
  O  O311  1  0.886380  0.517230  0.506370  1.0  -0.5722
  O  O312  1  0.443500  0.408200  0.043870  1.0  -0.6118
  O  O313  1  0.556500  0.591800  0.956130  1.0  -0.611
  O  O314  1  0.964700  0.556500  0.456130  1.0  -0.6122
  O  O315  1  0.799940  0.340610  0.789740  1.0  -0.6268
  O  O316  1  0.591800  0.035300  0.043870  1.0  -0.6119
  O  O317  1  0.799940  0.459330  0.710260  1.0  -0.6267
  O  O318  1  0.659390  0.459330  0.789740  1.0  -0.6283
  O  O319  1  0.666667  0.333333  0.750000  1.0  -1.008
  O  O320  1  0.556500  0.591800  0.543870  1.0  -0.612
  O  O321  1  0.035300  0.443500  0.543870  1.0  -0.6118
  O  O322  1  0.113620  0.630850  0.493630  1.0  -0.572
  O  O323  1  0.630850  0.517230  0.993630  1.0  -0.5733
  O  O324  1  0.591800  0.556500  0.043870  1.0  -0.6118
  O  O325  1  0.113620  0.482770  0.006370  1.0  -0.5737
  O  O326  1  0.556500  0.964700  0.543870  1.0  -0.6122
  O  O327  1  0.799940  0.459330  0.789740  1.0  -0.6271
  O  O328  1  0.035300  0.591800  0.543870  1.0  -0.6116
  O  O329  1  0.369150  0.886380  0.006370  1.0  -0.5735
  O  O330  1  0.200060  0.659390  0.289740  1.0  -0.6306
  O  O331  1  0.517230  0.886380  0.006370  1.0  -0.5734
  O  O332  1  0.540670  0.200060  0.710260  1.0  -0.6279
  O  O333  1  0.443500  0.035300  0.043870  1.0  -0.6125
  O  O334  1  0.964700  0.408200  0.043870  1.0  -0.6117
  O  O335  1  0.459330  0.659390  0.210260  1.0  -0.6276
  O  O336  1  0.540670  0.340610  0.789740  1.0  -0.6296
  O  O337  1  0.200060  0.540670  0.289740  1.0  -0.6278
  O  O338  1  0.408200  0.964700  0.543870  1.0  -0.6127
  O  O339  1  0.369150  0.482770  0.006370  1.0  -0.5727
  O  O340  1  0.035300  0.443500  0.956130  1.0  -0.6113
  O  O341  1  0.340610  0.799940  0.210260  1.0  -0.6278
  O  O342  1  0.517230  0.630850  0.493630  1.0  -0.5719
  O  O343  1  0.556500  0.964700  0.956130  1.0  -0.6119
  O  O344  1  0.035300  0.591800  0.956130  1.0  -0.6105
  O  O345  1  0.408200  0.443500  0.956130  1.0  -0.6125
  O  O346  1  0.886380  0.517230  0.993630  1.0  -0.5734
  O  O347  1  0.659390  0.200060  0.789740  1.0  -0.6276
  O  O348  1  0.630850  0.113620  0.993630  1.0  -0.5724
  O  O349  1  0.517230  0.630850  0.006370  1.0  -0.5718
  O  O350  1  0.340610  0.540670  0.210260  1.0  -0.6269
  O  O351  1  0.340610  0.799940  0.289740  1.0  -0.6283
  O  O352  1  0.482770  0.369150  0.993630  1.0  -0.5721
  O  O353  1  0.408200  0.964700  0.956130  1.0  -0.6123
  O  O354  1  0.369150  0.482770  0.493630  1.0  -0.5726
  O  O355  1  0.482770  0.113620  0.993630  1.0  -0.5737
  O  O356  1  0.200060  0.540670  0.210260  1.0  -0.6277
  O  O357  1  0.630850  0.517230  0.506370  1.0  -0.5736
  O  O358  1  0.459330  0.659390  0.289740  1.0  -0.6278
  O  O359  1  0.964700  0.408200  0.456130  1.0  -0.6117
  O  O360  1  0.443500  0.035300  0.456130  1.0  -0.6118
  O  O361  1  0.517230  0.886380  0.493630  1.0  -0.5727
  O  O362  1  0.200060  0.659390  0.210260  1.0  -0.6306
  O  O363  1  0.113620  0.482770  0.493630  1.0  -0.5729
  O  O364  1  0.591800  0.556500  0.456130  1.0  -0.6104
  O  O365  1  0.540670  0.340610  0.710260  1.0  -0.6292
  O  O366  1  0.540670  0.200060  0.789740  1.0  -0.628
  O  O367  1  0.340610  0.540670  0.289740  1.0  -0.6269
  O  O368  1  0.408200  0.443500  0.543870  1.0  -0.6127
