# generated using pymatgen
data_MgH4(C4O3)2
_symmetry_space_group_name_H-M   'P 1'
_cell_length_a   9.53300000
_cell_length_b   10.20370000
_cell_length_c   10.20370000
_cell_angle_alpha   109.86500000
_cell_angle_beta   110.11800000
_cell_angle_gamma   69.88180000
_symmetry_Int_Tables_number   1
_chemical_formula_structural   MgH4(C4O3)2
_chemical_formula_sum   'Mg2 H8 C16 O12'
_cell_volume   847.04565864
_cell_formula_units_Z   2
loop_
 _symmetry_equiv_pos_site_id
 _symmetry_equiv_pos_as_xyz
  1  'x, y, z'
loop_
 _atom_site_type_symbol
 _atom_site_label
 _atom_site_symmetry_multiplicity
 _atom_site_fract_x
 _atom_site_fract_y
 _atom_site_fract_z
 _atom_site_occupancy
 _atom_site_charge
  Mg  Mg1  1  0.000000  0.000000  0.000000  1.0  1.6044
  Mg  Mg2  1  0.500000  0.000000  0.000000  1.0  1.6044
  H  H3  1  0.147900  0.657900  0.905300  1.0  0.3601
  H  H4  1  0.138200  0.870200  0.329400  1.0  0.1071
  H  H5  1  0.361800  0.329400  0.870200  1.0  0.1068
  H  H6  1  0.852100  0.342100  0.094700  1.0  0.3591
  H  H7  1  0.638200  0.670600  0.129800  1.0  0.1063
  H  H8  1  0.352100  0.905300  0.657900  1.0  0.3569
  H  H9  1  0.647900  0.094700  0.342100  1.0  0.3568
  H  H10  1  0.861800  0.129800  0.670600  1.0  0.1071
  C  C11  1  0.582700  0.601710  0.078090  1.0  -0.1356
  C  C12  1  0.655500  0.195860  0.955940  1.0  0.7061
  C  C13  1  0.076800  0.020360  0.646240  1.0  -0.2452
  C  C14  1  0.341300  0.541960  0.940240  1.0  0.3124
  C  C15  1  0.923200  0.979640  0.353760  1.0  -0.2462
  C  C16  1  0.423200  0.646240  0.020360  1.0  -0.2459
  C  C17  1  0.658700  0.458040  0.059760  1.0  0.3107
  C  C18  1  0.417300  0.398290  0.921910  1.0  -0.1351
  C  C19  1  0.841300  0.059760  0.458040  1.0  0.3113
  C  C20  1  0.576800  0.353760  0.979640  1.0  -0.2451
  C  C21  1  0.158700  0.940240  0.541960  1.0  0.3152
  C  C22  1  0.155500  0.044060  0.804140  1.0  0.7169
  C  C23  1  0.344500  0.804140  0.044060  1.0  0.7097
  C  C24  1  0.844500  0.955940  0.195860  1.0  0.7149
  C  C25  1  0.917300  0.078090  0.601710  1.0  -0.1354
  C  C26  1  0.082700  0.921910  0.398290  1.0  -0.1358
  O  O27  1  0.187700  0.572400  0.874400  1.0  -0.5156
  O  O28  1  0.801800  0.163190  0.984410  1.0  -0.7062
  O  O29  1  0.812300  0.427600  0.125600  1.0  -0.5174
  O  O30  1  0.923800  0.907800  0.107320  1.0  -0.6864
  O  O31  1  0.312300  0.874400  0.572400  1.0  -0.5173
  O  O32  1  0.687700  0.125600  0.427600  1.0  -0.5158
  O  O33  1  0.301800  0.015590  0.836810  1.0  -0.7091
  O  O34  1  0.198200  0.836810  0.015590  1.0  -0.7076
  O  O35  1  0.576200  0.107320  0.907800  1.0  -0.6847
  O  O36  1  0.076200  0.092200  0.892680  1.0  -0.6881
  O  O37  1  0.698200  0.984410  0.163190  1.0  -0.7071
  O  O38  1  0.423800  0.892680  0.092200  1.0  -0.6866
