# generated using pymatgen
data_Zn6Cr3H54C84N6O43
_symmetry_space_group_name_H-M   'P 1'
_cell_length_a   19.20400000
_cell_length_b   19.20400000
_cell_length_c   35.99800000
_cell_angle_alpha   90.00000000
_cell_angle_beta   90.00000000
_cell_angle_gamma   120.00000000
_symmetry_Int_Tables_number   1
_chemical_formula_structural   Zn6Cr3H54C84N6O43
_chemical_formula_sum   'Zn12 Cr6 H108 C168 N12 O86'
_cell_volume   11497.20827826
_cell_formula_units_Z   2
loop_
 _symmetry_equiv_pos_site_id
 _symmetry_equiv_pos_as_xyz
  1  'x, y, z'
loop_
 _atom_site_type_symbol
 _atom_site_label
 _atom_site_symmetry_multiplicity
 _atom_site_fract_x
 _atom_site_fract_y
 _atom_site_fract_z
 _atom_site_occupancy
 _atom_site_charge
  Zn  Zn1  1  0.953770  0.476890  0.965650  1.0  0.9241
  Zn  Zn2  1  0.523110  0.476890  0.965650  1.0  0.924
  Zn  Zn3  1  0.523110  0.046230  0.965650  1.0  0.9244
  Zn  Zn4  1  0.046230  0.523110  0.465650  1.0  0.924
  Zn  Zn5  1  0.476890  0.523110  0.465650  1.0  0.9241
  Zn  Zn6  1  0.476890  0.953770  0.465650  1.0  0.9242
  Zn  Zn7  1  0.476890  0.953770  0.034350  1.0  0.9244
  Zn  Zn8  1  0.476890  0.523110  0.034350  1.0  0.9241
  Zn  Zn9  1  0.046230  0.523110  0.034350  1.0  0.924
  Zn  Zn10  1  0.523110  0.046230  0.534350  1.0  0.9244
  Zn  Zn11  1  0.523110  0.476890  0.534350  1.0  0.924
  Zn  Zn12  1  0.953770  0.476890  0.534350  1.0  0.924
  Cr  Cr13  1  0.275830  0.724170  0.250000  1.0  1.4278
  Cr  Cr14  1  0.275830  0.551660  0.250000  1.0  1.4249
  Cr  Cr15  1  0.448340  0.724170  0.250000  1.0  1.4277
  Cr  Cr16  1  0.724170  0.275830  0.750000  1.0  1.4269
  Cr  Cr17  1  0.724170  0.448340  0.750000  1.0  1.4254
  Cr  Cr18  1  0.551660  0.275830  0.750000  1.0  1.4279
  H  H19  1  0.602400  0.906300  0.909900  1.0  0.1229
  H  H20  1  0.091200  0.445700  0.092600  1.0  0.0884
  H  H21  1  0.203600  0.338200  0.864500  1.0  0.3331
  H  H22  1  0.532900  0.674400  0.347700  1.0  0.1214
  H  H23  1  0.093700  0.696100  0.909900  1.0  0.1227
  H  H24  1  0.554300  0.645500  0.092600  1.0  0.0881
  H  H25  1  0.661800  0.865400  0.864500  1.0  0.3359
  H  H26  1  0.325600  0.858500  0.347700  1.0  0.1214
  H  H27  1  0.303900  0.397600  0.909900  1.0  0.1232
  H  H28  1  0.354500  0.908800  0.092600  1.0  0.0888
  H  H29  1  0.134600  0.796400  0.864500  1.0  0.3333
  H  H30  1  0.141500  0.467100  0.347700  1.0  0.1215
  H  H31  1  0.397600  0.093700  0.409900  1.0  0.1237
  H  H32  1  0.908800  0.554300  0.592600  1.0  0.0886
  H  H33  1  0.796400  0.661800  0.364500  1.0  0.3382
  H  H34  1  0.467100  0.325600  0.847700  1.0  0.1206
  H  H35  1  0.906300  0.303900  0.409900  1.0  0.1229
  H  H36  1  0.445700  0.354500  0.592600  1.0  0.088
  H  H37  1  0.338200  0.134600  0.364500  1.0  0.3331
  H  H38  1  0.674400  0.141500  0.847700  1.0  0.1223
  H  H39  1  0.696100  0.602400  0.409900  1.0  0.1236
  H  H40  1  0.645500  0.091200  0.592600  1.0  0.0881
  H  H41  1  0.865400  0.203600  0.364500  1.0  0.3318
  H  H42  1  0.858500  0.532900  0.847700  1.0  0.122
  H  H43  1  0.906300  0.602400  0.090100  1.0  0.1238
  H  H44  1  0.445700  0.091200  0.907400  1.0  0.0884
  H  H45  1  0.338200  0.203600  0.135500  1.0  0.3357
  H  H46  1  0.674400  0.532900  0.652300  1.0  0.1224
  H  H47  1  0.696100  0.093700  0.090100  1.0  0.1235
  H  H48  1  0.645500  0.554300  0.907400  1.0  0.0882
  H  H49  1  0.865400  0.661800  0.135500  1.0  0.3361
  H  H50  1  0.858500  0.325600  0.652300  1.0  0.1216
  H  H51  1  0.397600  0.303900  0.090100  1.0  0.1228
  H  H52  1  0.908800  0.354500  0.907400  1.0  0.0885
  H  H53  1  0.796400  0.134600  0.135500  1.0  0.3367
  H  H54  1  0.467100  0.141500  0.652300  1.0  0.1219
  H  H55  1  0.093700  0.397600  0.590100  1.0  0.1239
  H  H56  1  0.554300  0.908800  0.407400  1.0  0.0885
  H  H57  1  0.661800  0.796400  0.635500  1.0  0.3336
  H  H58  1  0.325600  0.467100  0.152300  1.0  0.1222
  H  H59  1  0.303900  0.906300  0.590100  1.0  0.1238
  H  H60  1  0.354500  0.445700  0.407400  1.0  0.0891
  H  H61  1  0.134600  0.338200  0.635500  1.0  0.3402
  H  H62  1  0.141500  0.674400  0.152300  1.0  0.1217
  H  H63  1  0.602400  0.696100  0.590100  1.0  0.1237
  H  H64  1  0.091200  0.645500  0.407400  1.0  0.0885
  H  H65  1  0.203600  0.865400  0.635500  1.0  0.3382
  H  H66  1  0.532900  0.858500  0.152300  1.0  0.1224
  H  H67  1  0.397600  0.093700  0.090100  1.0  0.124
  H  H68  1  0.908800  0.554300  0.907400  1.0  0.0886
  H  H69  1  0.796400  0.661800  0.135500  1.0  0.3413
  H  H70  1  0.467100  0.325600  0.652300  1.0  0.1215
  H  H71  1  0.906300  0.303900  0.090100  1.0  0.123
  H  H72  1  0.445700  0.354500  0.907400  1.0  0.0883
  H  H73  1  0.338200  0.134600  0.135500  1.0  0.336
  H  H74  1  0.674400  0.141500  0.652300  1.0  0.1226
  H  H75  1  0.696100  0.602400  0.090100  1.0  0.1239
  H  H76  1  0.645500  0.091200  0.907400  1.0  0.0883
  H  H77  1  0.865400  0.203600  0.135500  1.0  0.3351
  H  H78  1  0.858500  0.532900  0.652300  1.0  0.1227
  H  H79  1  0.602400  0.906300  0.590100  1.0  0.1235
  H  H80  1  0.091200  0.445700  0.407400  1.0  0.0888
  H  H81  1  0.203600  0.338200  0.635500  1.0  0.3364
  H  H82  1  0.532900  0.674400  0.152300  1.0  0.1217
  H  H83  1  0.093700  0.696100  0.590100  1.0  0.1234
  H  H84  1  0.554300  0.645500  0.407400  1.0  0.0883
  H  H85  1  0.661800  0.865400  0.635500  1.0  0.3396
  H  H86  1  0.325600  0.858500  0.152300  1.0  0.1217
  H  H87  1  0.303900  0.397600  0.590100  1.0  0.1239
  H  H88  1  0.354500  0.908800  0.407400  1.0  0.0886
  H  H89  1  0.134600  0.796400  0.635500  1.0  0.3348
  H  H90  1  0.141500  0.467100  0.152300  1.0  0.1223
  H  H91  1  0.093700  0.397600  0.909900  1.0  0.1235
  H  H92  1  0.554300  0.908800  0.092600  1.0  0.0884
  H  H93  1  0.661800  0.796400  0.864500  1.0  0.3332
  H  H94  1  0.325600  0.467100  0.347700  1.0  0.1215
  H  H95  1  0.303900  0.906300  0.909900  1.0  0.1234
  H  H96  1  0.354500  0.445700  0.092600  1.0  0.089
  H  H97  1  0.134600  0.338200  0.864500  1.0  0.3399
  H  H98  1  0.141500  0.674400  0.347700  1.0  0.1211
  H  H99  1  0.602400  0.696100  0.909900  1.0  0.1229
  H  H100  1  0.091200  0.645500  0.092600  1.0  0.0885
  H  H101  1  0.203600  0.865400  0.864500  1.0  0.338
  H  H102  1  0.532900  0.858500  0.347700  1.0  0.1222
  H  H103  1  0.906300  0.602400  0.409900  1.0  0.1233
  H  H104  1  0.445700  0.091200  0.592600  1.0  0.0885
  H  H105  1  0.338200  0.203600  0.364500  1.0  0.336
  H  H106  1  0.674400  0.532900  0.847700  1.0  0.1219
  H  H107  1  0.696100  0.093700  0.409900  1.0  0.1232
  H  H108  1  0.645500  0.554300  0.592600  1.0  0.088
  H  H109  1  0.865400  0.661800  0.364500  1.0  0.3355
  H  H110  1  0.858500  0.325600  0.847700  1.0  0.1211
  H  H111  1  0.397600  0.303900  0.409900  1.0  0.1228
  H  H112  1  0.908800  0.354500  0.592600  1.0  0.0882
  H  H113  1  0.796400  0.134600  0.364500  1.0  0.3379
  H  H114  1  0.467100  0.141500  0.847700  1.0  0.1213
  H  H115  1  0.476100  0.238050  0.000400  1.0  0.1212
  H  H116  1  0.761950  0.238050  0.000400  1.0  0.1217
  H  H117  1  0.761950  0.523900  0.000400  1.0  0.1213
  H  H118  1  0.523900  0.761950  0.500400  1.0  0.1215
  H  H119  1  0.238050  0.761950  0.500400  1.0  0.1212
  H  H120  1  0.238050  0.476100  0.500400  1.0  0.1212
  H  H121  1  0.238050  0.476100  0.999600  1.0  0.121
  H  H122  1  0.238050  0.761950  0.999600  1.0  0.121
  H  H123  1  0.523900  0.761950  0.999600  1.0  0.1214
  H  H124  1  0.761950  0.523900  0.499600  1.0  0.1211
  H  H125  1  0.761950  0.238050  0.499600  1.0  0.1214
  H  H126  1  0.476100  0.238050  0.499600  1.0  0.1209
  C  C127  1  0.897800  0.391200  0.604820  1.0  0.1887
  C  C128  1  0.357480  0.455200  0.523620  1.0  0.6982
  C  C129  1  0.734100  0.593800  0.422300  1.0  -0.223
  C  C130  1  0.626600  0.132000  0.859370  1.0  -0.144
  C  C131  1  0.846500  0.568300  0.040950  1.0  -0.1523
  C  C132  1  0.608800  0.506600  0.604820  1.0  0.1902
  C  C133  1  0.544800  0.902280  0.523620  1.0  0.6991
  C  C134  1  0.406200  0.140300  0.422300  1.0  -0.2223
  C  C135  1  0.868000  0.494600  0.859370  1.0  -0.1471
  C  C136  1  0.431700  0.278200  0.040950  1.0  -0.1538
  C  C137  1  0.493400  0.102200  0.604820  1.0  0.1914
  C  C138  1  0.097720  0.642520  0.523620  1.0  0.7
  C  C139  1  0.859700  0.265900  0.422300  1.0  -0.2235
  C  C140  1  0.505400  0.373400  0.859370  1.0  -0.1446
  C  C141  1  0.721800  0.153500  0.040950  1.0  -0.1535
  C  C142  1  0.102200  0.608800  0.104820  1.0  0.1898
  C  C143  1  0.642520  0.544800  0.023620  1.0  0.6978
  C  C144  1  0.265900  0.406200  0.922300  1.0  -0.2202
  C  C145  1  0.373400  0.868000  0.359370  1.0  -0.1435
  C  C146  1  0.153500  0.431700  0.540950  1.0  -0.1538
  C  C147  1  0.391200  0.493400  0.104820  1.0  0.1903
  C  C148  1  0.455200  0.097720  0.023620  1.0  0.6987
  C  C149  1  0.593800  0.859700  0.922300  1.0  -0.2251
  C  C150  1  0.132000  0.505400  0.359370  1.0  -0.1458
  C  C151  1  0.568300  0.721800  0.540950  1.0  -0.1532
  C  C152  1  0.506600  0.897800  0.104820  1.0  0.1907
  C  C153  1  0.902280  0.357480  0.023620  1.0  0.6998
  C  C154  1  0.140300  0.734100  0.922300  1.0  -0.2248
  C  C155  1  0.494600  0.626600  0.359370  1.0  -0.1456
  C  C156  1  0.278200  0.846500  0.540950  1.0  -0.1532
  C  C157  1  0.391200  0.897800  0.395180  1.0  0.191
  C  C158  1  0.455200  0.357480  0.476380  1.0  0.7002
  C  C159  1  0.593800  0.734100  0.577700  1.0  -0.2243
  C  C160  1  0.132000  0.626600  0.140630  1.0  -0.1461
  C  C161  1  0.568300  0.846500  0.959050  1.0  -0.1546
  C  C162  1  0.506600  0.608800  0.395180  1.0  0.1887
  C  C163  1  0.902280  0.544800  0.476380  1.0  0.6985
  C  C164  1  0.140300  0.406200  0.577700  1.0  -0.2254
  C  C165  1  0.494600  0.868000  0.140630  1.0  -0.1445
  C  C166  1  0.278200  0.431700  0.959050  1.0  -0.1531
  C  C167  1  0.102200  0.493400  0.395180  1.0  0.1902
  C  C168  1  0.642520  0.097720  0.476380  1.0  0.6987
  C  C169  1  0.265900  0.859700  0.577700  1.0  -0.2245
  C  C170  1  0.373400  0.505400  0.140630  1.0  -0.1462
  C  C171  1  0.153500  0.721800  0.959050  1.0  -0.1542
  C  C172  1  0.608800  0.102200  0.895180  1.0  0.1911
  C  C173  1  0.544800  0.642520  0.976380  1.0  0.6999
  C  C174  1  0.406200  0.265900  0.077700  1.0  -0.2272
  C  C175  1  0.868000  0.373400  0.640630  1.0  -0.1455
  C  C176  1  0.431700  0.153500  0.459050  1.0  -0.154
  C  C177  1  0.493400  0.391200  0.895180  1.0  0.1902
  C  C178  1  0.097720  0.455200  0.976380  1.0  0.6986
  C  C179  1  0.859700  0.593800  0.077700  1.0  -0.222
  C  C180  1  0.505400  0.132000  0.640630  1.0  -0.1442
  C  C181  1  0.721800  0.568300  0.459050  1.0  -0.1543
  C  C182  1  0.897800  0.506600  0.895180  1.0  0.1896
  C  C183  1  0.357480  0.902280  0.976380  1.0  0.6993
  C  C184  1  0.734100  0.140300  0.077700  1.0  -0.2268
  C  C185  1  0.626600  0.494600  0.640630  1.0  -0.1467
  C  C186  1  0.846500  0.278200  0.459050  1.0  -0.1542
  C  C187  1  0.102200  0.608800  0.395180  1.0  0.1908
  C  C188  1  0.642520  0.544800  0.476380  1.0  0.6979
  C  C189  1  0.265900  0.406200  0.577700  1.0  -0.2209
  C  C190  1  0.373400  0.868000  0.140630  1.0  -0.1431
  C  C191  1  0.153500  0.431700  0.959050  1.0  -0.1539
  C  C192  1  0.391200  0.493400  0.395180  1.0  0.1922
  C  C193  1  0.455200  0.097720  0.476380  1.0  0.6989
  C  C194  1  0.593800  0.859700  0.577700  1.0  -0.226
  C  C195  1  0.132000  0.505400  0.140630  1.0  -0.1452
  C  C196  1  0.568300  0.721800  0.959050  1.0  -0.1538
  C  C197  1  0.506600  0.897800  0.395180  1.0  0.1925
  C  C198  1  0.902280  0.357480  0.476380  1.0  0.6999
  C  C199  1  0.140300  0.734100  0.577700  1.0  -0.2265
  C  C200  1  0.494600  0.626600  0.140630  1.0  -0.1455
  C  C201  1  0.278200  0.846500  0.959050  1.0  -0.1542
  C  C202  1  0.897800  0.391200  0.895180  1.0  0.1907
  C  C203  1  0.357480  0.455200  0.976380  1.0  0.6985
  C  C204  1  0.734100  0.593800  0.077700  1.0  -0.2244
  C  C205  1  0.626600  0.132000  0.640630  1.0  -0.1434
  C  C206  1  0.846500  0.568300  0.459050  1.0  -0.1535
  C  C207  1  0.608800  0.506600  0.895180  1.0  0.1916
  C  C208  1  0.544800  0.902280  0.976380  1.0  0.6992
  C  C209  1  0.406200  0.140300  0.077700  1.0  -0.2234
  C  C210  1  0.868000  0.494600  0.640630  1.0  -0.1468
  C  C211  1  0.431700  0.278200  0.459050  1.0  -0.1544
  C  C212  1  0.493400  0.102200  0.895180  1.0  0.1936
  C  C213  1  0.097720  0.642520  0.976380  1.0  0.7001
  C  C214  1  0.859700  0.265900  0.077700  1.0  -0.2241
  C  C215  1  0.505400  0.373400  0.640630  1.0  -0.1439
  C  C216  1  0.721800  0.153500  0.459050  1.0  -0.154
  C  C217  1  0.608800  0.102200  0.604820  1.0  0.1925
  C  C218  1  0.544800  0.642520  0.523620  1.0  0.6999
  C  C219  1  0.406200  0.265900  0.422300  1.0  -0.2251
  C  C220  1  0.868000  0.373400  0.859370  1.0  -0.1443
  C  C221  1  0.431700  0.153500  0.040950  1.0  -0.1537
  C  C222  1  0.493400  0.391200  0.604820  1.0  0.1919
  C  C223  1  0.097720  0.455200  0.523620  1.0  0.6985
  C  C224  1  0.859700  0.593800  0.422300  1.0  -0.2205
  C  C225  1  0.505400  0.132000  0.859370  1.0  -0.1424
  C  C226  1  0.721800  0.568300  0.040950  1.0  -0.1532
  C  C227  1  0.897800  0.506600  0.604820  1.0  0.1919
  C  C228  1  0.357480  0.902280  0.523620  1.0  0.6991
  C  C229  1  0.734100  0.140300  0.422300  1.0  -0.2246
  C  C230  1  0.626600  0.494600  0.859370  1.0  -0.145
  C  C231  1  0.846500  0.278200  0.040950  1.0  -0.1535
  C  C232  1  0.391200  0.897800  0.104820  1.0  0.1931
  C  C233  1  0.455200  0.357480  0.023620  1.0  0.7001
  C  C234  1  0.593800  0.734100  0.922300  1.0  -0.2228
  C  C235  1  0.132000  0.626600  0.359370  1.0  -0.1444
  C  C236  1  0.568300  0.846500  0.540950  1.0  -0.1534
  C  C237  1  0.506600  0.608800  0.104820  1.0  0.1908
  C  C238  1  0.902280  0.544800  0.023620  1.0  0.6984
  C  C239  1  0.140300  0.406200  0.922300  1.0  -0.2231
  C  C240  1  0.494600  0.868000  0.359370  1.0  -0.1435
  C  C241  1  0.278200  0.431700  0.540950  1.0  -0.1528
  C  C242  1  0.102200  0.493400  0.104820  1.0  0.1913
  C  C243  1  0.642520  0.097720  0.023620  1.0  0.6986
  C  C244  1  0.265900  0.859700  0.922300  1.0  -0.2229
  C  C245  1  0.373400  0.505400  0.359370  1.0  -0.1454
  C  C246  1  0.153500  0.721800  0.540950  1.0  -0.1536
  C  C247  1  0.813280  0.406640  0.696340  1.0  0.7265
  C  C248  1  0.593360  0.406640  0.696340  1.0  0.7256
  C  C249  1  0.593360  0.186720  0.696340  1.0  0.7214
  C  C250  1  0.186720  0.593360  0.196340  1.0  0.7254
  C  C251  1  0.406640  0.593360  0.196340  1.0  0.7265
  C  C252  1  0.406640  0.813280  0.196340  1.0  0.7214
  C  C253  1  0.406640  0.813280  0.303660  1.0  0.7214
  C  C254  1  0.406640  0.593360  0.303660  1.0  0.7264
  C  C255  1  0.186720  0.593360  0.303660  1.0  0.7257
  C  C256  1  0.593360  0.186720  0.803660  1.0  0.7208
  C  C257  1  0.593360  0.406640  0.803660  1.0  0.726
  C  C258  1  0.813280  0.406640  0.803660  1.0  0.7267
  C  C259  1  0.573570  0.147140  0.658540  1.0  -0.104
  C  C260  1  0.852860  0.426430  0.658540  1.0  -0.1068
  C  C261  1  0.573570  0.426430  0.658540  1.0  -0.1063
  C  C262  1  0.426430  0.852860  0.158540  1.0  -0.1038
  C  C263  1  0.147140  0.573570  0.158540  1.0  -0.1059
  C  C264  1  0.426430  0.573570  0.158540  1.0  -0.1061
  C  C265  1  0.147140  0.573570  0.341460  1.0  -0.1048
  C  C266  1  0.426430  0.852860  0.341460  1.0  -0.1032
  C  C267  1  0.426430  0.573570  0.341460  1.0  -0.1055
  C  C268  1  0.852860  0.426430  0.841460  1.0  -0.1059
  C  C269  1  0.573570  0.147140  0.841460  1.0  -0.1028
  C  C270  1  0.573570  0.426430  0.841460  1.0  -0.1051
  C  C271  1  0.225300  0.450600  0.523730  1.0  0.0131
  C  C272  1  0.549400  0.774700  0.523730  1.0  0.0136
  C  C273  1  0.225300  0.774700  0.523730  1.0  0.0134
  C  C274  1  0.774700  0.549400  0.023730  1.0  0.0132
  C  C275  1  0.450600  0.225300  0.023730  1.0  0.013
  C  C276  1  0.774700  0.225300  0.023730  1.0  0.0133
  C  C277  1  0.450600  0.225300  0.476270  1.0  0.0125
  C  C278  1  0.774700  0.549400  0.476270  1.0  0.0122
  C  C279  1  0.774700  0.225300  0.476270  1.0  0.0117
  C  C280  1  0.549400  0.774700  0.976270  1.0  0.0121
  C  C281  1  0.225300  0.450600  0.976270  1.0  0.0122
  C  C282  1  0.225300  0.774700  0.976270  1.0  0.0127
  C  C283  1  0.803200  0.196800  0.095800  1.0  0.247
  C  C284  1  0.803200  0.606400  0.095800  1.0  0.2436
  C  C285  1  0.393600  0.196800  0.095800  1.0  0.2448
  C  C286  1  0.196800  0.803200  0.595800  1.0  0.2482
  C  C287  1  0.196800  0.393600  0.595800  1.0  0.2437
  C  C288  1  0.606400  0.803200  0.595800  1.0  0.2452
  C  C289  1  0.196800  0.803200  0.904200  1.0  0.2462
  C  C290  1  0.606400  0.803200  0.904200  1.0  0.2432
  C  C291  1  0.196800  0.393600  0.904200  1.0  0.242
  C  C292  1  0.803200  0.196800  0.404200  1.0  0.2456
  C  C293  1  0.393600  0.196800  0.404200  1.0  0.2434
  C  C294  1  0.803200  0.606400  0.404200  1.0  0.2417
  N  N295  1  0.455800  0.911600  0.087140  1.0  -0.2738
  N  N296  1  0.088400  0.544200  0.087140  1.0  -0.2752
  N  N297  1  0.455800  0.544200  0.087140  1.0  -0.2748
  N  N298  1  0.544200  0.088400  0.587140  1.0  -0.2742
  N  N299  1  0.911600  0.455800  0.587140  1.0  -0.274
  N  N300  1  0.544200  0.455800  0.587140  1.0  -0.2748
  N  N301  1  0.911600  0.455800  0.912860  1.0  -0.2739
  N  N302  1  0.544200  0.088400  0.912860  1.0  -0.2733
  N  N303  1  0.544200  0.455800  0.912860  1.0  -0.2743
  N  N304  1  0.088400  0.544200  0.412860  1.0  -0.2744
  N  N305  1  0.455800  0.911600  0.412860  1.0  -0.2736
  N  N306  1  0.455800  0.544200  0.412860  1.0  -0.2743
  O  O307  1  0.516490  0.630050  0.008550  1.0  -0.5703
  O  O308  1  0.457390  0.659090  0.289890  1.0  -0.6276
  O  O309  1  0.038400  0.594220  0.542580  1.0  -0.5955
  O  O310  1  0.369950  0.886440  0.008550  1.0  -0.5715
  O  O311  1  0.340910  0.798300  0.289890  1.0  -0.6271
  O  O312  1  0.405780  0.444180  0.542580  1.0  -0.5951
  O  O313  1  0.113560  0.483510  0.008550  1.0  -0.5717
  O  O314  1  0.201700  0.542610  0.289890  1.0  -0.6277
  O  O315  1  0.555820  0.961600  0.542580  1.0  -0.5961
  O  O316  1  0.483510  0.369950  0.508550  1.0  -0.5704
  O  O317  1  0.542610  0.340910  0.789890  1.0  -0.6292
  O  O318  1  0.961600  0.405780  0.042580  1.0  -0.5947
  O  O319  1  0.630050  0.113560  0.508550  1.0  -0.5709
  O  O320  1  0.659090  0.201700  0.789890  1.0  -0.6278
  O  O321  1  0.594220  0.555820  0.042580  1.0  -0.5945
  O  O322  1  0.886440  0.516490  0.508550  1.0  -0.5708
  O  O323  1  0.798300  0.457390  0.789890  1.0  -0.6276
  O  O324  1  0.444180  0.038400  0.042580  1.0  -0.5966
  O  O325  1  0.630050  0.516490  0.991450  1.0  -0.5711
  O  O326  1  0.659090  0.457390  0.710110  1.0  -0.6281
  O  O327  1  0.594220  0.038400  0.457420  1.0  -0.5962
  O  O328  1  0.886440  0.369950  0.991450  1.0  -0.57
  O  O329  1  0.798300  0.340910  0.710110  1.0  -0.6256
  O  O330  1  0.444180  0.405780  0.457420  1.0  -0.5955
  O  O331  1  0.483510  0.113560  0.991450  1.0  -0.571
  O  O332  1  0.542610  0.201700  0.710110  1.0  -0.6271
  O  O333  1  0.961600  0.555820  0.457420  1.0  -0.5952
  O  O334  1  0.369950  0.483510  0.491450  1.0  -0.571
  O  O335  1  0.340910  0.542610  0.210110  1.0  -0.6269
  O  O336  1  0.405780  0.961600  0.957420  1.0  -0.5968
  O  O337  1  0.113560  0.630050  0.491450  1.0  -0.5695
  O  O338  1  0.201700  0.659090  0.210110  1.0  -0.6303
  O  O339  1  0.555820  0.594220  0.957420  1.0  -0.5952
  O  O340  1  0.516490  0.886440  0.491450  1.0  -0.5706
  O  O341  1  0.457390  0.798300  0.210110  1.0  -0.6281
  O  O342  1  0.038400  0.444180  0.957420  1.0  -0.5948
  O  O343  1  0.483510  0.369950  0.991450  1.0  -0.5696
  O  O344  1  0.542610  0.340910  0.710110  1.0  -0.6285
  O  O345  1  0.961600  0.405780  0.457420  1.0  -0.5953
  O  O346  1  0.630050  0.113560  0.991450  1.0  -0.5702
  O  O347  1  0.659090  0.201700  0.710110  1.0  -0.6278
  O  O348  1  0.594220  0.555820  0.457420  1.0  -0.5942
  O  O349  1  0.886440  0.516490  0.991450  1.0  -0.5716
  O  O350  1  0.798300  0.457390  0.710110  1.0  -0.6271
  O  O351  1  0.444180  0.038400  0.457420  1.0  -0.5969
  O  O352  1  0.516490  0.630050  0.491450  1.0  -0.5699
  O  O353  1  0.457390  0.659090  0.210110  1.0  -0.6277
  O  O354  1  0.038400  0.594220  0.957420  1.0  -0.595
  O  O355  1  0.369950  0.886440  0.491450  1.0  -0.5711
  O  O356  1  0.340910  0.798300  0.210110  1.0  -0.6269
  O  O357  1  0.405780  0.444180  0.957420  1.0  -0.5956
  O  O358  1  0.113560  0.483510  0.491450  1.0  -0.5709
  O  O359  1  0.201700  0.542610  0.210110  1.0  -0.6276
  O  O360  1  0.555820  0.961600  0.957420  1.0  -0.5961
  O  O361  1  0.369950  0.483510  0.008550  1.0  -0.571
  O  O362  1  0.340910  0.542610  0.289890  1.0  -0.6271
  O  O363  1  0.405780  0.961600  0.542580  1.0  -0.5965
  O  O364  1  0.113560  0.630050  0.008550  1.0  -0.5697
  O  O365  1  0.201700  0.659090  0.289890  1.0  -0.6304
  O  O366  1  0.555820  0.594220  0.542580  1.0  -0.5957
  O  O367  1  0.516490  0.886440  0.008550  1.0  -0.5715
  O  O368  1  0.457390  0.798300  0.289890  1.0  -0.6279
  O  O369  1  0.038400  0.444180  0.542580  1.0  -0.5944
  O  O370  1  0.630050  0.516490  0.508550  1.0  -0.5717
  O  O371  1  0.659090  0.457390  0.789890  1.0  -0.6287
  O  O372  1  0.594220  0.038400  0.042580  1.0  -0.5961
  O  O373  1  0.886440  0.369950  0.508550  1.0  -0.5706
  O  O374  1  0.798300  0.340910  0.789890  1.0  -0.6258
  O  O375  1  0.444180  0.405780  0.042580  1.0  -0.5949
  O  O376  1  0.483510  0.113560  0.508550  1.0  -0.5709
  O  O377  1  0.542610  0.201700  0.789890  1.0  -0.6275
  O  O378  1  0.961600  0.555820  0.042580  1.0  -0.5953
  O  O379  1  0.816350  0.632700  0.131900  1.0  -0.6721
  O  O380  1  0.367300  0.183650  0.131900  1.0  -0.6759
  O  O381  1  0.816350  0.183650  0.131900  1.0  -0.677
  O  O382  1  0.183650  0.367300  0.631900  1.0  -0.6733
  O  O383  1  0.632700  0.816350  0.631900  1.0  -0.6772
  O  O384  1  0.183650  0.816350  0.631900  1.0  -0.676
  O  O385  1  0.632700  0.816350  0.868100  1.0  -0.6808
  O  O386  1  0.183650  0.367300  0.868100  1.0  -0.6781
  O  O387  1  0.183650  0.816350  0.868100  1.0  -0.6819
  O  O388  1  0.367300  0.183650  0.368100  1.0  -0.6806
  O  O389  1  0.816350  0.632700  0.368100  1.0  -0.6758
  O  O390  1  0.816350  0.183650  0.368100  1.0  -0.6795
  O  O391  1  0.333333  0.666667  0.250000  1.0  -1.0266
  O  O392  1  0.666667  0.333333  0.750000  1.0  -1.0266
