# generated using pymatgen
data_Zn6Cr3H42C84N12O49
_symmetry_space_group_name_H-M   'P 1'
_cell_length_a   19.20870000
_cell_length_b   19.20870000
_cell_length_c   36.04200000
_cell_angle_alpha   90.00000000
_cell_angle_beta   90.00000000
_cell_angle_gamma   120.00000000
_symmetry_Int_Tables_number   1
_chemical_formula_structural   Zn6Cr3H42C84N12O49
_chemical_formula_sum   'Zn12 Cr6 H84 C168 N24 O98'
_cell_volume   11516.89643970
_cell_formula_units_Z   2
loop_
 _symmetry_equiv_pos_site_id
 _symmetry_equiv_pos_as_xyz
  1  'x, y, z'
loop_
 _atom_site_type_symbol
 _atom_site_label
 _atom_site_symmetry_multiplicity
 _atom_site_fract_x
 _atom_site_fract_y
 _atom_site_fract_z
 _atom_site_occupancy
 _atom_site_charge
  Zn  Zn1  1  0.476520  0.523480  0.034800  1.0  0.9536
  Zn  Zn2  1  0.476520  0.953040  0.034800  1.0  0.9538
  Zn  Zn3  1  0.046960  0.523480  0.034800  1.0  0.9533
  Zn  Zn4  1  0.523480  0.476520  0.534800  1.0  0.9535
  Zn  Zn5  1  0.523480  0.046960  0.534800  1.0  0.9537
  Zn  Zn6  1  0.953040  0.476520  0.534800  1.0  0.9536
  Zn  Zn7  1  0.523480  0.476520  0.965200  1.0  0.9535
  Zn  Zn8  1  0.953040  0.476520  0.965200  1.0  0.9535
  Zn  Zn9  1  0.523480  0.046960  0.965200  1.0  0.9538
  Zn  Zn10  1  0.476520  0.523480  0.465200  1.0  0.9536
  Zn  Zn11  1  0.046960  0.523480  0.465200  1.0  0.9534
  Zn  Zn12  1  0.476520  0.953040  0.465200  1.0  0.9536
  Cr  Cr13  1  0.448170  0.724080  0.250000  1.0  1.4757
  Cr  Cr14  1  0.275920  0.724090  0.250000  1.0  1.4745
  Cr  Cr15  1  0.275910  0.551830  0.250000  1.0  1.4716
  Cr  Cr16  1  0.551830  0.275920  0.750000  1.0  1.4744
  Cr  Cr17  1  0.724080  0.275910  0.750000  1.0  1.4746
  Cr  Cr18  1  0.724090  0.448170  0.750000  1.0  1.4718
  H  H19  1  0.613700  0.912100  0.912500  1.0  0.1493
  H  H20  1  0.087900  0.701600  0.912500  1.0  0.1492
  H  H21  1  0.298400  0.386300  0.912500  1.0  0.15
  H  H22  1  0.386300  0.087900  0.412500  1.0  0.1486
  H  H23  1  0.912100  0.298400  0.412500  1.0  0.1498
  H  H24  1  0.701600  0.613700  0.412500  1.0  0.15
  H  H25  1  0.912100  0.613700  0.087500  1.0  0.1498
  H  H26  1  0.701600  0.087900  0.087500  1.0  0.1491
  H  H27  1  0.386300  0.298400  0.087500  1.0  0.1497
  H  H28  1  0.087900  0.386300  0.587500  1.0  0.1496
  H  H29  1  0.298400  0.912100  0.587500  1.0  0.1486
  H  H30  1  0.613700  0.701600  0.587500  1.0  0.1495
  H  H31  1  0.386300  0.087900  0.087500  1.0  0.1485
  H  H32  1  0.912100  0.298400  0.087500  1.0  0.1495
  H  H33  1  0.701600  0.613700  0.087500  1.0  0.1497
  H  H34  1  0.613700  0.912100  0.587500  1.0  0.1493
  H  H35  1  0.087900  0.701600  0.587500  1.0  0.1493
  H  H36  1  0.298400  0.386300  0.587500  1.0  0.15
  H  H37  1  0.087900  0.386300  0.912500  1.0  0.15
  H  H38  1  0.298400  0.912100  0.912500  1.0  0.1488
  H  H39  1  0.613700  0.701600  0.912500  1.0  0.1497
  H  H40  1  0.912100  0.613700  0.412500  1.0  0.1497
  H  H41  1  0.701600  0.087900  0.412500  1.0  0.1493
  H  H42  1  0.386300  0.298400  0.412500  1.0  0.1498
  H  H43  1  0.467800  0.142500  0.652700  1.0  0.1486
  H  H44  1  0.857500  0.325300  0.652700  1.0  0.1487
  H  H45  1  0.674700  0.532200  0.652700  1.0  0.1495
  H  H46  1  0.532200  0.857500  0.152700  1.0  0.1489
  H  H47  1  0.142500  0.674700  0.152700  1.0  0.1486
  H  H48  1  0.325300  0.467800  0.152700  1.0  0.1494
  H  H49  1  0.142500  0.467800  0.347300  1.0  0.1494
  H  H50  1  0.325300  0.857500  0.347300  1.0  0.1486
  H  H51  1  0.532200  0.674700  0.347300  1.0  0.1491
  H  H52  1  0.857500  0.532200  0.847300  1.0  0.1497
  H  H53  1  0.674700  0.142500  0.847300  1.0  0.1493
  H  H54  1  0.467800  0.325300  0.847300  1.0  0.1483
  H  H55  1  0.532200  0.857500  0.347300  1.0  0.1493
  H  H56  1  0.142500  0.674700  0.347300  1.0  0.1487
  H  H57  1  0.325300  0.467800  0.347300  1.0  0.1492
  H  H58  1  0.467800  0.142500  0.847300  1.0  0.1485
  H  H59  1  0.857500  0.325300  0.847300  1.0  0.1488
  H  H60  1  0.674700  0.532200  0.847300  1.0  0.1495
  H  H61  1  0.857500  0.532200  0.652700  1.0  0.1497
  H  H62  1  0.674700  0.142500  0.652700  1.0  0.1492
  H  H63  1  0.467800  0.325300  0.652700  1.0  0.1486
  H  H64  1  0.142500  0.467800  0.152700  1.0  0.1496
  H  H65  1  0.325300  0.857500  0.152700  1.0  0.1483
  H  H66  1  0.532200  0.674700  0.152700  1.0  0.1487
  H  H67  1  0.647000  0.092700  0.592600  1.0  0.1215
  H  H68  1  0.907300  0.554300  0.592600  1.0  0.1209
  H  H69  1  0.445700  0.353000  0.592600  1.0  0.1206
  H  H70  1  0.353000  0.907300  0.092600  1.0  0.1218
  H  H71  1  0.092700  0.445700  0.092600  1.0  0.1207
  H  H72  1  0.554300  0.647000  0.092600  1.0  0.1208
  H  H73  1  0.092700  0.647000  0.407400  1.0  0.1212
  H  H74  1  0.554300  0.907300  0.407400  1.0  0.1215
  H  H75  1  0.353000  0.445700  0.407400  1.0  0.1211
  H  H76  1  0.907300  0.353000  0.907400  1.0  0.1211
  H  H77  1  0.445700  0.092700  0.907400  1.0  0.1219
  H  H78  1  0.647000  0.554300  0.907400  1.0  0.1209
  H  H79  1  0.353000  0.907300  0.407400  1.0  0.1218
  H  H80  1  0.092700  0.445700  0.407400  1.0  0.1209
  H  H81  1  0.554300  0.647000  0.407400  1.0  0.121
  H  H82  1  0.647000  0.092700  0.907400  1.0  0.1216
  H  H83  1  0.907300  0.554300  0.907400  1.0  0.1211
  H  H84  1  0.445700  0.353000  0.907400  1.0  0.121
  H  H85  1  0.907300  0.353000  0.592600  1.0  0.1207
  H  H86  1  0.445700  0.092700  0.592600  1.0  0.1218
  H  H87  1  0.647000  0.554300  0.592600  1.0  0.1207
  H  H88  1  0.092700  0.647000  0.092600  1.0  0.1212
  H  H89  1  0.554300  0.907300  0.092600  1.0  0.1215
  H  H90  1  0.353000  0.445700  0.092600  1.0  0.1208
  H  H91  1  0.762700  0.237300  0.001400  1.0  0.1382
  H  H92  1  0.762700  0.525400  0.001400  1.0  0.1383
  H  H93  1  0.474600  0.237300  0.001400  1.0  0.1381
  H  H94  1  0.237300  0.762700  0.501400  1.0  0.1383
  H  H95  1  0.237300  0.474600  0.501400  1.0  0.1383
  H  H96  1  0.525400  0.762700  0.501400  1.0  0.1383
  H  H97  1  0.237300  0.762700  0.998600  1.0  0.1378
  H  H98  1  0.525400  0.762700  0.998600  1.0  0.138
  H  H99  1  0.237300  0.474600  0.998600  1.0  0.138
  H  H100  1  0.762700  0.237300  0.498600  1.0  0.1378
  H  H101  1  0.474600  0.237300  0.498600  1.0  0.1377
  H  H102  1  0.762700  0.525400  0.498600  1.0  0.1379
  C  C103  1  0.722500  0.570810  0.040230  1.0  -0.1529
  C  C104  1  0.429190  0.151690  0.040230  1.0  -0.1534
  C  C105  1  0.848310  0.277500  0.040230  1.0  -0.1532
  C  C106  1  0.277500  0.429190  0.540230  1.0  -0.1526
  C  C107  1  0.570810  0.848310  0.540230  1.0  -0.1538
  C  C108  1  0.151690  0.722500  0.540230  1.0  -0.1525
  C  C109  1  0.570810  0.722500  0.959770  1.0  -0.1533
  C  C110  1  0.151690  0.429190  0.959770  1.0  -0.1529
  C  C111  1  0.277500  0.848310  0.959770  1.0  -0.1537
  C  C112  1  0.429190  0.277500  0.459770  1.0  -0.1529
  C  C113  1  0.848310  0.570810  0.459770  1.0  -0.153
  C  C114  1  0.722500  0.151690  0.459770  1.0  -0.1537
  C  C115  1  0.277500  0.429190  0.959770  1.0  -0.1527
  C  C116  1  0.570810  0.848310  0.959770  1.0  -0.1544
  C  C117  1  0.151690  0.722500  0.959770  1.0  -0.1525
  C  C118  1  0.722500  0.570810  0.459770  1.0  -0.1531
  C  C119  1  0.429190  0.151690  0.459770  1.0  -0.1536
  C  C120  1  0.848310  0.277500  0.459770  1.0  -0.1536
  C  C121  1  0.429190  0.277500  0.040230  1.0  -0.153
  C  C122  1  0.848310  0.570810  0.040230  1.0  -0.1526
  C  C123  1  0.722500  0.151690  0.040230  1.0  -0.1533
  C  C124  1  0.570810  0.722500  0.540230  1.0  -0.1529
  C  C125  1  0.151690  0.429190  0.540230  1.0  -0.153
  C  C126  1  0.277500  0.848310  0.540230  1.0  -0.1534
  C  C127  1  0.357400  0.902830  0.976390  1.0  0.7263
  C  C128  1  0.097170  0.454570  0.976390  1.0  0.7274
  C  C129  1  0.545430  0.642600  0.976390  1.0  0.7266
  C  C130  1  0.642600  0.097170  0.476390  1.0  0.7259
  C  C131  1  0.902830  0.545430  0.476390  1.0  0.7272
  C  C132  1  0.454570  0.357400  0.476390  1.0  0.7274
  C  C133  1  0.902830  0.357400  0.023610  1.0  0.727
  C  C134  1  0.454570  0.097170  0.023610  1.0  0.7261
  C  C135  1  0.642600  0.545430  0.023610  1.0  0.7271
  C  C136  1  0.097170  0.642600  0.523610  1.0  0.727
  C  C137  1  0.545430  0.902830  0.523610  1.0  0.726
  C  C138  1  0.357400  0.454570  0.523610  1.0  0.7272
  C  C139  1  0.642600  0.097170  0.023610  1.0  0.7258
  C  C140  1  0.902830  0.545430  0.023610  1.0  0.7271
  C  C141  1  0.454570  0.357400  0.023610  1.0  0.7275
  C  C142  1  0.357400  0.902830  0.523610  1.0  0.7263
  C  C143  1  0.097170  0.454570  0.523610  1.0  0.7273
  C  C144  1  0.545430  0.642600  0.523610  1.0  0.7266
  C  C145  1  0.097170  0.642600  0.976390  1.0  0.727
  C  C146  1  0.545430  0.902830  0.976390  1.0  0.726
  C  C147  1  0.357400  0.454570  0.976390  1.0  0.7274
  C  C148  1  0.902830  0.357400  0.476390  1.0  0.7269
  C  C149  1  0.454570  0.097170  0.476390  1.0  0.7261
  C  C150  1  0.642600  0.545430  0.476390  1.0  0.7272
  C  C151  1  0.493300  0.103400  0.895140  1.0  0.2034
  C  C152  1  0.896600  0.389900  0.895140  1.0  0.2016
  C  C153  1  0.610100  0.506700  0.895140  1.0  0.2025
  C  C154  1  0.506700  0.896600  0.395140  1.0  0.2024
  C  C155  1  0.103400  0.610100  0.395140  1.0  0.2019
  C  C156  1  0.389900  0.493300  0.395140  1.0  0.2029
  C  C157  1  0.103400  0.493300  0.104860  1.0  0.2005
  C  C158  1  0.389900  0.896600  0.104860  1.0  0.2018
  C  C159  1  0.506700  0.610100  0.104860  1.0  0.2008
  C  C160  1  0.896600  0.506700  0.604860  1.0  0.202
  C  C161  1  0.610100  0.103400  0.604860  1.0  0.2015
  C  C162  1  0.493300  0.389900  0.604860  1.0  0.2011
  C  C163  1  0.506700  0.896600  0.104860  1.0  0.2014
  C  C164  1  0.103400  0.610100  0.104860  1.0  0.2017
  C  C165  1  0.389900  0.493300  0.104860  1.0  0.2015
  C  C166  1  0.493300  0.103400  0.604860  1.0  0.2023
  C  C167  1  0.896600  0.389900  0.604860  1.0  0.1998
  C  C168  1  0.610100  0.506700  0.604860  1.0  0.2016
  C  C169  1  0.896600  0.506700  0.895140  1.0  0.2028
  C  C170  1  0.610100  0.103400  0.895140  1.0  0.2031
  C  C171  1  0.493300  0.389900  0.895140  1.0  0.2036
  C  C172  1  0.103400  0.493300  0.395140  1.0  0.2026
  C  C173  1  0.389900  0.896600  0.395140  1.0  0.2034
  C  C174  1  0.506700  0.610100  0.395140  1.0  0.2016
  C  C175  1  0.261800  0.397800  0.924460  1.0  -0.0287
  C  C176  1  0.602200  0.864000  0.924460  1.0  -0.0304
  C  C177  1  0.136000  0.738200  0.924460  1.0  -0.0286
  C  C178  1  0.738200  0.602200  0.424460  1.0  -0.0298
  C  C179  1  0.397800  0.136000  0.424460  1.0  -0.0298
  C  C180  1  0.864000  0.261800  0.424460  1.0  -0.0296
  C  C181  1  0.397800  0.261800  0.075540  1.0  -0.0294
  C  C182  1  0.864000  0.602200  0.075540  1.0  -0.0294
  C  C183  1  0.738200  0.136000  0.075540  1.0  -0.0298
  C  C184  1  0.602200  0.738200  0.575540  1.0  -0.0286
  C  C185  1  0.136000  0.397800  0.575540  1.0  -0.0285
  C  C186  1  0.261800  0.864000  0.575540  1.0  -0.0312
  C  C187  1  0.738200  0.602200  0.075540  1.0  -0.03
  C  C188  1  0.397800  0.136000  0.075540  1.0  -0.0295
  C  C189  1  0.864000  0.261800  0.075540  1.0  -0.0292
  C  C190  1  0.261800  0.397800  0.575540  1.0  -0.0284
  C  C191  1  0.602200  0.864000  0.575540  1.0  -0.0306
  C  C192  1  0.136000  0.738200  0.575540  1.0  -0.0286
  C  C193  1  0.602200  0.738200  0.924460  1.0  -0.0292
  C  C194  1  0.136000  0.397800  0.924460  1.0  -0.0285
  C  C195  1  0.261800  0.864000  0.924460  1.0  -0.0304
  C  C196  1  0.397800  0.261800  0.424460  1.0  -0.0292
  C  C197  1  0.864000  0.602200  0.424460  1.0  -0.0297
  C  C198  1  0.738200  0.136000  0.424460  1.0  -0.0302
  C  C199  1  0.133300  0.627200  0.359160  1.0  -0.0923
  C  C200  1  0.372800  0.506100  0.359160  1.0  -0.0941
  C  C201  1  0.493900  0.866700  0.359160  1.0  -0.0915
  C  C202  1  0.866700  0.372800  0.859160  1.0  -0.0922
  C  C203  1  0.627200  0.493900  0.859160  1.0  -0.0932
  C  C204  1  0.506100  0.133300  0.859160  1.0  -0.0912
  C  C205  1  0.627200  0.133300  0.640840  1.0  -0.091
  C  C206  1  0.506100  0.372800  0.640840  1.0  -0.0916
  C  C207  1  0.866700  0.493900  0.640840  1.0  -0.0947
  C  C208  1  0.372800  0.866700  0.140840  1.0  -0.0918
  C  C209  1  0.493900  0.627200  0.140840  1.0  -0.0932
  C  C210  1  0.133300  0.506100  0.140840  1.0  -0.0936
  C  C211  1  0.866700  0.372800  0.640840  1.0  -0.0919
  C  C212  1  0.627200  0.493900  0.640840  1.0  -0.0939
  C  C213  1  0.506100  0.133300  0.640840  1.0  -0.0916
  C  C214  1  0.133300  0.627200  0.140840  1.0  -0.0932
  C  C215  1  0.372800  0.506100  0.140840  1.0  -0.0936
  C  C216  1  0.493900  0.866700  0.140840  1.0  -0.0913
  C  C217  1  0.372800  0.866700  0.359160  1.0  -0.0916
  C  C218  1  0.493900  0.627200  0.359160  1.0  -0.0922
  C  C219  1  0.133300  0.506100  0.359160  1.0  -0.0939
  C  C220  1  0.627200  0.133300  0.859160  1.0  -0.0911
  C  C221  1  0.506100  0.372800  0.859160  1.0  -0.0919
  C  C222  1  0.866700  0.493900  0.859160  1.0  -0.0942
  C  C223  1  0.776090  0.223910  0.024340  1.0  0.0235
  C  C224  1  0.776090  0.552180  0.024340  1.0  0.0238
  C  C225  1  0.447820  0.223910  0.024340  1.0  0.024
  C  C226  1  0.223910  0.776090  0.524340  1.0  0.0239
  C  C227  1  0.223910  0.447820  0.524340  1.0  0.0237
  C  C228  1  0.552180  0.776090  0.524340  1.0  0.0235
  C  C229  1  0.223910  0.776090  0.975660  1.0  0.0235
  C  C230  1  0.552180  0.776090  0.975660  1.0  0.0223
  C  C231  1  0.223910  0.447820  0.975660  1.0  0.0226
  C  C232  1  0.776090  0.223910  0.475660  1.0  0.0222
  C  C233  1  0.447820  0.223910  0.475660  1.0  0.0236
  C  C234  1  0.776090  0.552180  0.475660  1.0  0.023
  C  C235  1  0.187200  0.593600  0.303350  1.0  0.7386
  C  C236  1  0.406400  0.593600  0.303350  1.0  0.7394
  C  C237  1  0.406400  0.812800  0.303350  1.0  0.7357
  C  C238  1  0.812800  0.406400  0.803350  1.0  0.7392
  C  C239  1  0.593600  0.406400  0.803350  1.0  0.7387
  C  C240  1  0.593600  0.187200  0.803350  1.0  0.7351
  C  C241  1  0.593600  0.187200  0.696650  1.0  0.7352
  C  C242  1  0.593600  0.406400  0.696650  1.0  0.7379
  C  C243  1  0.812800  0.406400  0.696650  1.0  0.7393
  C  C244  1  0.406400  0.812800  0.196650  1.0  0.7354
  C  C245  1  0.406400  0.593600  0.196650  1.0  0.7398
  C  C246  1  0.187200  0.593600  0.196650  1.0  0.738
  C  C247  1  0.574450  0.148900  0.658600  1.0  -0.0869
  C  C248  1  0.851100  0.425550  0.658600  1.0  -0.089
  C  C249  1  0.574450  0.425550  0.658600  1.0  -0.0892
  C  C250  1  0.425550  0.851100  0.158600  1.0  -0.0863
  C  C251  1  0.148900  0.574450  0.158600  1.0  -0.0889
  C  C252  1  0.425550  0.574450  0.158600  1.0  -0.0886
  C  C253  1  0.148900  0.574450  0.341400  1.0  -0.0881
  C  C254  1  0.425550  0.851100  0.341400  1.0  -0.0855
  C  C255  1  0.425550  0.574450  0.341400  1.0  -0.0881
  C  C256  1  0.851100  0.425550  0.841400  1.0  -0.0882
  C  C257  1  0.574450  0.148900  0.841400  1.0  -0.0858
  C  C258  1  0.574450  0.425550  0.841400  1.0  -0.0883
  C  C259  1  0.382800  0.191400  0.406600  1.0  -0.1358
  C  C260  1  0.808600  0.191400  0.406600  1.0  -0.1362
  C  C261  1  0.808600  0.617200  0.406600  1.0  -0.1354
  C  C262  1  0.617200  0.808600  0.906600  1.0  -0.1352
  C  C263  1  0.191400  0.808600  0.906600  1.0  -0.1352
  C  C264  1  0.191400  0.382800  0.906600  1.0  -0.1357
  C  C265  1  0.191400  0.382800  0.593400  1.0  -0.1362
  C  C266  1  0.191400  0.808600  0.593400  1.0  -0.1367
  C  C267  1  0.617200  0.808600  0.593400  1.0  -0.1371
  C  C268  1  0.808600  0.617200  0.093400  1.0  -0.1356
  C  C269  1  0.808600  0.191400  0.093400  1.0  -0.1374
  C  C270  1  0.382800  0.191400  0.093400  1.0  -0.1368
  N  N271  1  0.455330  0.544670  0.087250  1.0  -0.2551
  N  N272  1  0.455330  0.910660  0.087250  1.0  -0.2545
  N  N273  1  0.089340  0.544670  0.087250  1.0  -0.2551
  N  N274  1  0.544670  0.455330  0.587250  1.0  -0.2551
  N  N275  1  0.544670  0.089340  0.587250  1.0  -0.2549
  N  N276  1  0.910660  0.455330  0.587250  1.0  -0.2549
  N  N277  1  0.544670  0.455330  0.912750  1.0  -0.2543
  N  N278  1  0.910660  0.455330  0.912750  1.0  -0.2545
  N  N279  1  0.544670  0.089340  0.912750  1.0  -0.2538
  N  N280  1  0.455330  0.544670  0.412750  1.0  -0.2544
  N  N281  1  0.089340  0.544670  0.412750  1.0  -0.2543
  N  N282  1  0.455330  0.910660  0.412750  1.0  -0.2542
  N  N283  1  0.649600  0.824800  0.632800  1.0  0.3192
  N  N284  1  0.175200  0.824800  0.632800  1.0  0.3162
  N  N285  1  0.175200  0.350400  0.632800  1.0  0.3173
  N  N286  1  0.350400  0.175200  0.132800  1.0  0.3165
  N  N287  1  0.824800  0.175200  0.132800  1.0  0.3196
  N  N288  1  0.824800  0.649600  0.132800  1.0  0.3167
  N  N289  1  0.824800  0.649600  0.367200  1.0  0.3173
  N  N290  1  0.824800  0.175200  0.367200  1.0  0.3192
  N  N291  1  0.350400  0.175200  0.367200  1.0  0.3199
  N  N292  1  0.175200  0.350400  0.867200  1.0  0.3179
  N  N293  1  0.175200  0.824800  0.867200  1.0  0.32
  N  N294  1  0.649600  0.824800  0.867200  1.0  0.3192
  O  O295  1  0.405910  0.961470  0.542570  1.0  -0.582
  O  O296  1  0.038530  0.444440  0.542570  1.0  -0.5791
  O  O297  1  0.555560  0.594090  0.542570  1.0  -0.5801
  O  O298  1  0.594090  0.038530  0.042570  1.0  -0.5822
  O  O299  1  0.961470  0.555560  0.042570  1.0  -0.5801
  O  O300  1  0.444440  0.405910  0.042570  1.0  -0.5788
  O  O301  1  0.961470  0.405910  0.457430  1.0  -0.5805
  O  O302  1  0.444440  0.038530  0.457430  1.0  -0.582
  O  O303  1  0.594090  0.555560  0.457430  1.0  -0.579
  O  O304  1  0.038530  0.594090  0.957430  1.0  -0.5784
  O  O305  1  0.555560  0.961470  0.957430  1.0  -0.583
  O  O306  1  0.405910  0.444440  0.957430  1.0  -0.5805
  O  O307  1  0.594090  0.038530  0.457430  1.0  -0.5821
  O  O308  1  0.961470  0.555560  0.457430  1.0  -0.5801
  O  O309  1  0.444440  0.405910  0.457430  1.0  -0.5795
  O  O310  1  0.405910  0.961470  0.957430  1.0  -0.5825
  O  O311  1  0.038530  0.444440  0.957430  1.0  -0.5792
  O  O312  1  0.555560  0.594090  0.957430  1.0  -0.5794
  O  O313  1  0.038530  0.594090  0.542570  1.0  -0.579
  O  O314  1  0.555560  0.961470  0.542570  1.0  -0.5826
  O  O315  1  0.405910  0.444440  0.542570  1.0  -0.5799
  O  O316  1  0.961470  0.405910  0.042570  1.0  -0.5797
  O  O317  1  0.444440  0.038530  0.042570  1.0  -0.5819
  O  O318  1  0.594090  0.555560  0.042570  1.0  -0.5793
  O  O319  1  0.886430  0.369760  0.991640  1.0  -0.5454
  O  O320  1  0.630240  0.516670  0.991640  1.0  -0.5465
  O  O321  1  0.483330  0.113570  0.991640  1.0  -0.5468
  O  O322  1  0.113570  0.630240  0.491640  1.0  -0.5447
  O  O323  1  0.369760  0.483330  0.491640  1.0  -0.5465
  O  O324  1  0.516670  0.886430  0.491640  1.0  -0.5471
  O  O325  1  0.369760  0.886430  0.008360  1.0  -0.547
  O  O326  1  0.516670  0.630240  0.008360  1.0  -0.5456
  O  O327  1  0.113570  0.483330  0.008360  1.0  -0.5468
  O  O328  1  0.630240  0.113570  0.508360  1.0  -0.5471
  O  O329  1  0.483330  0.369760  0.508360  1.0  -0.5451
  O  O330  1  0.886430  0.516670  0.508360  1.0  -0.5464
  O  O331  1  0.113570  0.630240  0.008360  1.0  -0.5452
  O  O332  1  0.369760  0.483330  0.008360  1.0  -0.5466
  O  O333  1  0.516670  0.886430  0.008360  1.0  -0.5474
  O  O334  1  0.886430  0.369760  0.508360  1.0  -0.546
  O  O335  1  0.630240  0.516670  0.508360  1.0  -0.5471
  O  O336  1  0.483330  0.113570  0.508360  1.0  -0.5471
  O  O337  1  0.630240  0.113570  0.991640  1.0  -0.5464
  O  O338  1  0.483330  0.369760  0.991640  1.0  -0.5446
  O  O339  1  0.886430  0.516670  0.991640  1.0  -0.5472
  O  O340  1  0.369760  0.886430  0.491640  1.0  -0.5469
  O  O341  1  0.516670  0.630240  0.491640  1.0  -0.545
  O  O342  1  0.113570  0.483330  0.491640  1.0  -0.5461
  O  O343  1  0.659500  0.457350  0.710130  1.0  -0.5881
  O  O344  1  0.542650  0.202150  0.710130  1.0  -0.5874
  O  O345  1  0.797850  0.340500  0.710130  1.0  -0.5855
  O  O346  1  0.340500  0.542650  0.210130  1.0  -0.5869
  O  O347  1  0.457350  0.797850  0.210130  1.0  -0.5884
  O  O348  1  0.202150  0.659500  0.210130  1.0  -0.5897
  O  O349  1  0.457350  0.659500  0.289870  1.0  -0.5877
  O  O350  1  0.202150  0.542650  0.289870  1.0  -0.5874
  O  O351  1  0.340500  0.797850  0.289870  1.0  -0.5878
  O  O352  1  0.542650  0.340500  0.789870  1.0  -0.5887
  O  O353  1  0.797850  0.457350  0.789870  1.0  -0.5875
  O  O354  1  0.659500  0.202150  0.789870  1.0  -0.5879
  O  O355  1  0.340500  0.542650  0.289870  1.0  -0.5869
  O  O356  1  0.457350  0.797850  0.289870  1.0  -0.5883
  O  O357  1  0.202150  0.659500  0.289870  1.0  -0.5899
  O  O358  1  0.659500  0.457350  0.789870  1.0  -0.5887
  O  O359  1  0.542650  0.202150  0.789870  1.0  -0.588
  O  O360  1  0.797850  0.340500  0.789870  1.0  -0.5858
  O  O361  1  0.542650  0.340500  0.710130  1.0  -0.5881
  O  O362  1  0.797850  0.457350  0.710130  1.0  -0.5873
  O  O363  1  0.659500  0.202150  0.710130  1.0  -0.5877
  O  O364  1  0.457350  0.659500  0.210130  1.0  -0.5877
  O  O365  1  0.202150  0.542650  0.210130  1.0  -0.5874
  O  O366  1  0.340500  0.797850  0.210130  1.0  -0.5876
  O  O367  1  0.890600  0.229900  0.353200  1.0  -0.4888
  O  O368  1  0.770100  0.660700  0.353200  1.0  -0.4902
  O  O369  1  0.339300  0.109400  0.353200  1.0  -0.4927
  O  O370  1  0.109400  0.770100  0.853200  1.0  -0.4927
  O  O371  1  0.229900  0.339300  0.853200  1.0  -0.4912
  O  O372  1  0.660700  0.890600  0.853200  1.0  -0.4902
  O  O373  1  0.229900  0.890600  0.646800  1.0  -0.4943
  O  O374  1  0.660700  0.770100  0.646800  1.0  -0.4927
  O  O375  1  0.109400  0.339300  0.646800  1.0  -0.4907
  O  O376  1  0.770100  0.109400  0.146800  1.0  -0.4916
  O  O377  1  0.339300  0.229900  0.146800  1.0  -0.4936
  O  O378  1  0.890600  0.660700  0.146800  1.0  -0.4929
  O  O379  1  0.109400  0.770100  0.646800  1.0  -0.4933
  O  O380  1  0.229900  0.339300  0.646800  1.0  -0.4929
  O  O381  1  0.660700  0.890600  0.646800  1.0  -0.4918
  O  O382  1  0.890600  0.229900  0.146800  1.0  -0.4925
  O  O383  1  0.770100  0.660700  0.146800  1.0  -0.4915
  O  O384  1  0.339300  0.109400  0.146800  1.0  -0.4937
  O  O385  1  0.770100  0.109400  0.353200  1.0  -0.4898
  O  O386  1  0.339300  0.229900  0.353200  1.0  -0.4922
  O  O387  1  0.890600  0.660700  0.353200  1.0  -0.4907
  O  O388  1  0.229900  0.890600  0.853200  1.0  -0.4931
  O  O389  1  0.660700  0.770100  0.853200  1.0  -0.4899
  O  O390  1  0.109400  0.339300  0.853200  1.0  -0.4901
  O  O391  1  0.333333  0.666667  0.250000  1.0  -0.9788
  O  O392  1  0.666667  0.333333  0.750000  1.0  -0.9788
