# generated using pymatgen
data_Zn3(C4N3)2
_symmetry_space_group_name_H-M   'P 1'
_cell_length_a   12.48150000
_cell_length_b   12.48150000
_cell_length_c   12.48150000
_cell_angle_alpha   90.00000000
_cell_angle_beta   90.00000000
_cell_angle_gamma   90.00000000
_symmetry_Int_Tables_number   1
_chemical_formula_structural   Zn3(C4N3)2
_chemical_formula_sum   'Zn12 C32 N24'
_cell_volume   1944.46595304
_cell_formula_units_Z   4
loop_
 _symmetry_equiv_pos_site_id
 _symmetry_equiv_pos_as_xyz
  1  'x, y, z'
loop_
 _atom_site_type_symbol
 _atom_site_label
 _atom_site_symmetry_multiplicity
 _atom_site_fract_x
 _atom_site_fract_y
 _atom_site_fract_z
 _atom_site_occupancy
 _atom_site_charge
  Zn  Zn1  1  0.108190  0.108190  0.108190  1.0  0.9414
  Zn  Zn2  1  0.391810  0.891810  0.608190  1.0  0.9385
  Zn  Zn3  1  0.891810  0.608190  0.391810  1.0  0.9392
  Zn  Zn4  1  0.608190  0.391810  0.891810  1.0  0.9382
  Zn  Zn5  1  0.891810  0.891810  0.891810  1.0  0.9373
  Zn  Zn6  1  0.608190  0.108190  0.391810  1.0  0.9402
  Zn  Zn7  1  0.108190  0.391810  0.608190  1.0  0.9393
  Zn  Zn8  1  0.391810  0.608190  0.108190  1.0  0.9406
  Zn  Zn9  1  0.500000  0.500000  0.500000  1.0  0.8019
  Zn  Zn10  1  0.000000  0.500000  0.000000  1.0  0.8019
  Zn  Zn11  1  0.500000  0.000000  0.000000  1.0  0.8019
  Zn  Zn12  1  0.000000  0.000000  0.500000  1.0  0.8019
  C  C13  1  0.048800  0.340900  0.068100  1.0  -0.0282
  C  C14  1  0.451200  0.659100  0.568100  1.0  -0.0246
  C  C15  1  0.951200  0.840900  0.431900  1.0  -0.0276
  C  C16  1  0.548800  0.159100  0.931900  1.0  -0.0244
  C  C17  1  0.068100  0.048800  0.340900  1.0  -0.0265
  C  C18  1  0.568100  0.451200  0.659100  1.0  -0.0266
  C  C19  1  0.431900  0.951200  0.840900  1.0  -0.0269
  C  C20  1  0.931900  0.548800  0.159100  1.0  -0.0264
  C  C21  1  0.340900  0.068100  0.048800  1.0  -0.0249
  C  C22  1  0.659100  0.568100  0.451200  1.0  -0.0252
  C  C23  1  0.840900  0.431900  0.951200  1.0  -0.0256
  C  C24  1  0.159100  0.931900  0.548800  1.0  -0.0245
  C  C25  1  0.951200  0.659100  0.931900  1.0  -0.0242
  C  C26  1  0.548800  0.340900  0.431900  1.0  -0.0277
  C  C27  1  0.048800  0.159100  0.568100  1.0  -0.0245
  C  C28  1  0.451200  0.840900  0.068100  1.0  -0.0283
  C  C29  1  0.931900  0.951200  0.659100  1.0  -0.0269
  C  C30  1  0.431900  0.548800  0.340900  1.0  -0.0267
  C  C31  1  0.568100  0.048800  0.159100  1.0  -0.0261
  C  C32  1  0.068100  0.451200  0.840900  1.0  -0.0267
  C  C33  1  0.659100  0.931900  0.951200  1.0  -0.0254
  C  C34  1  0.340900  0.431900  0.548800  1.0  -0.0251
  C  C35  1  0.159100  0.568100  0.048800  1.0  -0.0243
  C  C36  1  0.840900  0.068100  0.451200  1.0  -0.0254
  C  C37  1  0.026200  0.026200  0.026200  1.0  0.0896
  C  C38  1  0.473800  0.973800  0.526200  1.0  0.0922
  C  C39  1  0.973800  0.526200  0.473800  1.0  0.0908
  C  C40  1  0.526200  0.473800  0.973800  1.0  0.0883
  C  C41  1  0.973800  0.973800  0.973800  1.0  0.0911
  C  C42  1  0.526200  0.026200  0.473800  1.0  0.088
  C  C43  1  0.026200  0.473800  0.526200  1.0  0.0901
  C  C44  1  0.473800  0.526200  0.026200  1.0  0.0917
  N  N45  1  0.074200  0.259400  0.088200  1.0  -0.4504
  N  N46  1  0.425800  0.740600  0.588200  1.0  -0.4553
  N  N47  1  0.925800  0.759400  0.411800  1.0  -0.4507
  N  N48  1  0.574200  0.240600  0.911800  1.0  -0.4551
  N  N49  1  0.088200  0.074200  0.259400  1.0  -0.4505
  N  N50  1  0.588200  0.425800  0.740600  1.0  -0.4495
  N  N51  1  0.411800  0.925800  0.759400  1.0  -0.4501
  N  N52  1  0.911800  0.574200  0.240600  1.0  -0.4502
  N  N53  1  0.259400  0.088200  0.074200  1.0  -0.4506
  N  N54  1  0.740600  0.588200  0.425800  1.0  -0.4495
  N  N55  1  0.759400  0.411800  0.925800  1.0  -0.4495
  N  N56  1  0.240600  0.911800  0.574200  1.0  -0.4493
  N  N57  1  0.925800  0.740600  0.911800  1.0  -0.4551
  N  N58  1  0.574200  0.259400  0.411800  1.0  -0.4508
  N  N59  1  0.074200  0.240600  0.588200  1.0  -0.455
  N  N60  1  0.425800  0.759400  0.088200  1.0  -0.4506
  N  N61  1  0.911800  0.925800  0.740600  1.0  -0.4499
  N  N62  1  0.411800  0.574200  0.259400  1.0  -0.4505
  N  N63  1  0.588200  0.074200  0.240600  1.0  -0.4497
  N  N64  1  0.088200  0.425800  0.759400  1.0  -0.45
  N  N65  1  0.740600  0.911800  0.925800  1.0  -0.4489
  N  N66  1  0.259400  0.411800  0.574200  1.0  -0.4501
  N  N67  1  0.240600  0.588200  0.074200  1.0  -0.4498
  N  N68  1  0.759400  0.088200  0.425800  1.0  -0.4501
