# generated using pymatgen
data_Zn6Cr3H42C84Br6N6O37
_symmetry_space_group_name_H-M   'P 1'
_cell_length_a   19.20950000
_cell_length_b   19.20950000
_cell_length_c   36.02450000
_cell_angle_alpha   90.00000000
_cell_angle_beta   90.00000000
_cell_angle_gamma   120.00000000
_symmetry_Int_Tables_number   1
_chemical_formula_structural   Zn6Cr3H42C84Br6N6O37
_chemical_formula_sum   'Zn12 Cr6 H84 C168 Br12 N12 O74'
_cell_volume   11512.26333320
_cell_formula_units_Z   2
loop_
 _symmetry_equiv_pos_site_id
 _symmetry_equiv_pos_as_xyz
  1  'x, y, z'
loop_
 _atom_site_type_symbol
 _atom_site_label
 _atom_site_symmetry_multiplicity
 _atom_site_fract_x
 _atom_site_fract_y
 _atom_site_fract_z
 _atom_site_occupancy
 _atom_site_charge
  Zn  Zn1  1  0.523330  0.046660  0.965360  1.0  0.9215
  Zn  Zn2  1  0.953340  0.476670  0.965360  1.0  0.9202
  Zn  Zn3  1  0.523330  0.476670  0.965360  1.0  0.9205
  Zn  Zn4  1  0.476670  0.953340  0.465360  1.0  0.9215
  Zn  Zn5  1  0.046660  0.523330  0.465360  1.0  0.9208
  Zn  Zn6  1  0.476670  0.523330  0.465360  1.0  0.9205
  Zn  Zn7  1  0.046660  0.523330  0.034640  1.0  0.9209
  Zn  Zn8  1  0.476670  0.953340  0.034640  1.0  0.9219
  Zn  Zn9  1  0.476670  0.523330  0.034640  1.0  0.9207
  Zn  Zn10  1  0.953340  0.476670  0.534640  1.0  0.9205
  Zn  Zn11  1  0.523330  0.046660  0.534640  1.0  0.9217
  Zn  Zn12  1  0.523330  0.476670  0.534640  1.0  0.9208
  Cr  Cr13  1  0.275800  0.551600  0.250000  1.0  1.382
  Cr  Cr14  1  0.448400  0.724200  0.250000  1.0  1.3859
  Cr  Cr15  1  0.275800  0.724200  0.250000  1.0  1.3853
  Cr  Cr16  1  0.724200  0.448400  0.750000  1.0  1.3825
  Cr  Cr17  1  0.551600  0.275800  0.750000  1.0  1.3856
  Cr  Cr18  1  0.724200  0.275800  0.750000  1.0  1.3846
  H  H19  1  0.923000  0.284700  0.419500  1.0  0.1124
  H  H20  1  0.715300  0.638300  0.419500  1.0  0.1134
  H  H21  1  0.361700  0.077000  0.419500  1.0  0.1127
  H  H22  1  0.077000  0.715300  0.919500  1.0  0.1128
  H  H23  1  0.284700  0.361700  0.919500  1.0  0.1132
  H  H24  1  0.638300  0.923000  0.919500  1.0  0.1127
  H  H25  1  0.284700  0.923000  0.580500  1.0  0.1127
  H  H26  1  0.638300  0.715300  0.580500  1.0  0.1122
  H  H27  1  0.077000  0.361700  0.580500  1.0  0.1133
  H  H28  1  0.715300  0.077000  0.080500  1.0  0.1128
  H  H29  1  0.361700  0.284700  0.080500  1.0  0.1131
  H  H30  1  0.923000  0.638300  0.080500  1.0  0.1135
  H  H31  1  0.077000  0.715300  0.580500  1.0  0.1126
  H  H32  1  0.284700  0.361700  0.580500  1.0  0.1135
  H  H33  1  0.638300  0.923000  0.580500  1.0  0.113
  H  H34  1  0.923000  0.284700  0.080500  1.0  0.1126
  H  H35  1  0.715300  0.638300  0.080500  1.0  0.1135
  H  H36  1  0.361700  0.077000  0.080500  1.0  0.1126
  H  H37  1  0.715300  0.077000  0.419500  1.0  0.1129
  H  H38  1  0.361700  0.284700  0.419500  1.0  0.113
  H  H39  1  0.923000  0.638300  0.419500  1.0  0.1132
  H  H40  1  0.284700  0.923000  0.919500  1.0  0.1123
  H  H41  1  0.638300  0.715300  0.919500  1.0  0.1125
  H  H42  1  0.077000  0.361700  0.919500  1.0  0.1132
  H  H43  1  0.325700  0.467500  0.152500  1.0  0.1207
  H  H44  1  0.532500  0.858200  0.152500  1.0  0.1207
  H  H45  1  0.141800  0.674300  0.152500  1.0  0.1204
  H  H46  1  0.674300  0.532500  0.652500  1.0  0.121
  H  H47  1  0.467500  0.141800  0.652500  1.0  0.1206
  H  H48  1  0.858200  0.325700  0.652500  1.0  0.1201
  H  H49  1  0.467500  0.325700  0.847500  1.0  0.1202
  H  H50  1  0.858200  0.532500  0.847500  1.0  0.1212
  H  H51  1  0.674300  0.141800  0.847500  1.0  0.1212
  H  H52  1  0.532500  0.674300  0.347500  1.0  0.1201
  H  H53  1  0.141800  0.467500  0.347500  1.0  0.1206
  H  H54  1  0.325700  0.858200  0.347500  1.0  0.1203
  H  H55  1  0.674300  0.532500  0.847500  1.0  0.1208
  H  H56  1  0.467500  0.141800  0.847500  1.0  0.1203
  H  H57  1  0.858200  0.325700  0.847500  1.0  0.1202
  H  H58  1  0.325700  0.467500  0.347500  1.0  0.1205
  H  H59  1  0.532500  0.858200  0.347500  1.0  0.121
  H  H60  1  0.141800  0.674300  0.347500  1.0  0.1202
  H  H61  1  0.532500  0.674300  0.152500  1.0  0.1201
  H  H62  1  0.141800  0.467500  0.152500  1.0  0.1209
  H  H63  1  0.325700  0.858200  0.152500  1.0  0.1202
  H  H64  1  0.467500  0.325700  0.652500  1.0  0.1204
  H  H65  1  0.858200  0.532500  0.652500  1.0  0.1214
  H  H66  1  0.674300  0.141800  0.652500  1.0  0.1211
  H  H67  1  0.445600  0.354400  0.907500  1.0  0.0863
  H  H68  1  0.645600  0.091200  0.907500  1.0  0.0865
  H  H69  1  0.908800  0.554400  0.907500  1.0  0.0867
  H  H70  1  0.554400  0.645600  0.407500  1.0  0.086
  H  H71  1  0.354400  0.908800  0.407500  1.0  0.0865
  H  H72  1  0.091200  0.445600  0.407500  1.0  0.0867
  H  H73  1  0.354400  0.445600  0.092500  1.0  0.087
  H  H74  1  0.091200  0.645600  0.092500  1.0  0.0867
  H  H75  1  0.554400  0.908800  0.092500  1.0  0.0867
  H  H76  1  0.645600  0.554400  0.592500  1.0  0.0865
  H  H77  1  0.908800  0.354400  0.592500  1.0  0.0864
  H  H78  1  0.445600  0.091200  0.592500  1.0  0.0868
  H  H79  1  0.554400  0.645600  0.092500  1.0  0.0862
  H  H80  1  0.354400  0.908800  0.092500  1.0  0.0869
  H  H81  1  0.091200  0.445600  0.092500  1.0  0.0868
  H  H82  1  0.445600  0.354400  0.592500  1.0  0.0864
  H  H83  1  0.645600  0.091200  0.592500  1.0  0.0865
  H  H84  1  0.908800  0.554400  0.592500  1.0  0.087
  H  H85  1  0.645600  0.554400  0.907500  1.0  0.0863
  H  H86  1  0.908800  0.354400  0.907500  1.0  0.0863
  H  H87  1  0.445600  0.091200  0.907500  1.0  0.0865
  H  H88  1  0.354400  0.445600  0.407500  1.0  0.0869
  H  H89  1  0.091200  0.645600  0.407500  1.0  0.0864
  H  H90  1  0.554400  0.908800  0.407500  1.0  0.0865
  H  H91  1  0.472000  0.236000  0.499700  1.0  0.112
  H  H92  1  0.764000  0.236000  0.499700  1.0  0.112
  H  H93  1  0.764000  0.528000  0.499700  1.0  0.112
  H  H94  1  0.528000  0.764000  0.999700  1.0  0.1121
  H  H95  1  0.236000  0.764000  0.999700  1.0  0.112
  H  H96  1  0.236000  0.472000  0.999700  1.0  0.1118
  H  H97  1  0.236000  0.472000  0.500300  1.0  0.1118
  H  H98  1  0.236000  0.764000  0.500300  1.0  0.1121
  H  H99  1  0.528000  0.764000  0.500300  1.0  0.1119
  H  H100  1  0.764000  0.528000  0.000300  1.0  0.1121
  H  H101  1  0.764000  0.236000  0.000300  1.0  0.1119
  H  H102  1  0.472000  0.236000  0.000300  1.0  0.1121
  C  C103  1  0.749300  0.128000  0.070200  1.0  -0.0268
  C  C104  1  0.872000  0.621300  0.070200  1.0  -0.0252
  C  C105  1  0.378700  0.250700  0.070200  1.0  -0.0275
  C  C106  1  0.250700  0.872000  0.570200  1.0  -0.0282
  C  C107  1  0.128000  0.378700  0.570200  1.0  -0.0268
  C  C108  1  0.621300  0.749300  0.570200  1.0  -0.0258
  C  C109  1  0.128000  0.749300  0.929800  1.0  -0.0271
  C  C110  1  0.621300  0.872000  0.929800  1.0  -0.0282
  C  C111  1  0.250700  0.378700  0.929800  1.0  -0.0261
  C  C112  1  0.872000  0.250700  0.429800  1.0  -0.026
  C  C113  1  0.378700  0.128000  0.429800  1.0  -0.0265
  C  C114  1  0.749300  0.621300  0.429800  1.0  -0.0275
  C  C115  1  0.250700  0.872000  0.929800  1.0  -0.0278
  C  C116  1  0.128000  0.378700  0.929800  1.0  -0.0268
  C  C117  1  0.621300  0.749300  0.929800  1.0  -0.0258
  C  C118  1  0.749300  0.128000  0.429800  1.0  -0.0263
  C  C119  1  0.872000  0.621300  0.429800  1.0  -0.0257
  C  C120  1  0.378700  0.250700  0.429800  1.0  -0.0265
  C  C121  1  0.872000  0.250700  0.070200  1.0  -0.0249
  C  C122  1  0.378700  0.128000  0.070200  1.0  -0.0262
  C  C123  1  0.749300  0.621300  0.070200  1.0  -0.0273
  C  C124  1  0.128000  0.749300  0.570200  1.0  -0.0273
  C  C125  1  0.621300  0.872000  0.570200  1.0  -0.028
  C  C126  1  0.250700  0.378700  0.570200  1.0  -0.0239
  C  C127  1  0.626700  0.132600  0.640700  1.0  -0.1244
  C  C128  1  0.867400  0.494100  0.640700  1.0  -0.1288
  C  C129  1  0.505900  0.373300  0.640700  1.0  -0.1261
  C  C130  1  0.373300  0.867400  0.140700  1.0  -0.1252
  C  C131  1  0.132600  0.505900  0.140700  1.0  -0.1272
  C  C132  1  0.494100  0.626700  0.140700  1.0  -0.1282
  C  C133  1  0.132600  0.626700  0.359300  1.0  -0.1266
  C  C134  1  0.494100  0.867400  0.359300  1.0  -0.1248
  C  C135  1  0.373300  0.505900  0.359300  1.0  -0.1276
  C  C136  1  0.867400  0.373300  0.859300  1.0  -0.1271
  C  C137  1  0.505900  0.132600  0.859300  1.0  -0.1244
  C  C138  1  0.626700  0.494100  0.859300  1.0  -0.1274
  C  C139  1  0.373300  0.867400  0.359300  1.0  -0.1249
  C  C140  1  0.132600  0.505900  0.359300  1.0  -0.1275
  C  C141  1  0.494100  0.626700  0.359300  1.0  -0.1274
  C  C142  1  0.626700  0.132600  0.859300  1.0  -0.1244
  C  C143  1  0.867400  0.494100  0.859300  1.0  -0.1286
  C  C144  1  0.505900  0.373300  0.859300  1.0  -0.1263
  C  C145  1  0.867400  0.373300  0.640700  1.0  -0.127
  C  C146  1  0.505900  0.132600  0.640700  1.0  -0.125
  C  C147  1  0.626700  0.494100  0.640700  1.0  -0.1279
  C  C148  1  0.132600  0.626700  0.140700  1.0  -0.1273
  C  C149  1  0.494100  0.867400  0.140700  1.0  -0.1247
  C  C150  1  0.373300  0.505900  0.140700  1.0  -0.1274
  C  C151  1  0.902900  0.546100  0.476480  1.0  0.6945
  C  C152  1  0.453900  0.356800  0.476480  1.0  0.6957
  C  C153  1  0.643200  0.097100  0.476480  1.0  0.6946
  C  C154  1  0.097100  0.453900  0.976480  1.0  0.696
  C  C155  1  0.546100  0.643200  0.976480  1.0  0.6958
  C  C156  1  0.356800  0.902900  0.976480  1.0  0.694
  C  C157  1  0.546100  0.902900  0.523520  1.0  0.6949
  C  C158  1  0.356800  0.453900  0.523520  1.0  0.6948
  C  C159  1  0.097100  0.643200  0.523520  1.0  0.6952
  C  C160  1  0.453900  0.097100  0.023520  1.0  0.6933
  C  C161  1  0.643200  0.546100  0.023520  1.0  0.6955
  C  C162  1  0.902900  0.356800  0.023520  1.0  0.6959
  C  C163  1  0.097100  0.453900  0.523520  1.0  0.6958
  C  C164  1  0.546100  0.643200  0.523520  1.0  0.6958
  C  C165  1  0.356800  0.902900  0.523520  1.0  0.6938
  C  C166  1  0.902900  0.546100  0.023520  1.0  0.6945
  C  C167  1  0.453900  0.356800  0.023520  1.0  0.6955
  C  C168  1  0.643200  0.097100  0.023520  1.0  0.6945
  C  C169  1  0.453900  0.097100  0.476480  1.0  0.6934
  C  C170  1  0.643200  0.546100  0.476480  1.0  0.6956
  C  C171  1  0.902900  0.356800  0.476480  1.0  0.6961
  C  C172  1  0.546100  0.902900  0.976480  1.0  0.6951
  C  C173  1  0.356800  0.453900  0.976480  1.0  0.6948
  C  C174  1  0.097100  0.643200  0.976480  1.0  0.6954
  C  C175  1  0.430000  0.153100  0.040550  1.0  -0.0927
  C  C176  1  0.846900  0.276900  0.040550  1.0  -0.0927
  C  C177  1  0.723100  0.570000  0.040550  1.0  -0.0943
  C  C178  1  0.570000  0.846900  0.540550  1.0  -0.0941
  C  C179  1  0.153100  0.723100  0.540550  1.0  -0.0932
  C  C180  1  0.276900  0.430000  0.540550  1.0  -0.0941
  C  C181  1  0.153100  0.430000  0.959450  1.0  -0.095
  C  C182  1  0.276900  0.846900  0.959450  1.0  -0.0927
  C  C183  1  0.570000  0.723100  0.959450  1.0  -0.0935
  C  C184  1  0.846900  0.570000  0.459450  1.0  -0.0939
  C  C185  1  0.723100  0.153100  0.459450  1.0  -0.094
  C  C186  1  0.430000  0.276900  0.459450  1.0  -0.0931
  C  C187  1  0.570000  0.846900  0.959450  1.0  -0.0943
  C  C188  1  0.153100  0.723100  0.959450  1.0  -0.0934
  C  C189  1  0.276900  0.430000  0.959450  1.0  -0.0942
  C  C190  1  0.430000  0.153100  0.459450  1.0  -0.0927
  C  C191  1  0.846900  0.276900  0.459450  1.0  -0.0928
  C  C192  1  0.723100  0.570000  0.459450  1.0  -0.0947
  C  C193  1  0.846900  0.570000  0.040550  1.0  -0.0938
  C  C194  1  0.723100  0.153100  0.040550  1.0  -0.0939
  C  C195  1  0.430000  0.276900  0.040550  1.0  -0.0931
  C  C196  1  0.153100  0.430000  0.540550  1.0  -0.0947
  C  C197  1  0.276900  0.846900  0.540550  1.0  -0.0927
  C  C198  1  0.570000  0.723100  0.540550  1.0  -0.0933
  C  C199  1  0.493400  0.102500  0.604730  1.0  0.1652
  C  C200  1  0.897500  0.390900  0.604730  1.0  0.164
  C  C201  1  0.609100  0.506600  0.604730  1.0  0.164
  C  C202  1  0.506600  0.897500  0.104730  1.0  0.1651
  C  C203  1  0.102500  0.609100  0.104730  1.0  0.1652
  C  C204  1  0.390900  0.493400  0.104730  1.0  0.1642
  C  C205  1  0.102500  0.493400  0.395270  1.0  0.1643
  C  C206  1  0.390900  0.897500  0.395270  1.0  0.1656
  C  C207  1  0.506600  0.609100  0.395270  1.0  0.1634
  C  C208  1  0.897500  0.506600  0.895270  1.0  0.1637
  C  C209  1  0.609100  0.102500  0.895270  1.0  0.1654
  C  C210  1  0.493400  0.390900  0.895270  1.0  0.1663
  C  C211  1  0.506600  0.897500  0.395270  1.0  0.1656
  C  C212  1  0.102500  0.609100  0.395270  1.0  0.165
  C  C213  1  0.390900  0.493400  0.395270  1.0  0.1651
  C  C214  1  0.493400  0.102500  0.895270  1.0  0.1659
  C  C215  1  0.897500  0.390900  0.895270  1.0  0.1648
  C  C216  1  0.609100  0.506600  0.895270  1.0  0.164
  C  C217  1  0.897500  0.506600  0.604730  1.0  0.1642
  C  C218  1  0.609100  0.102500  0.604730  1.0  0.1649
  C  C219  1  0.493400  0.390900  0.604730  1.0  0.1657
  C  C220  1  0.102500  0.493400  0.104730  1.0  0.1637
  C  C221  1  0.390900  0.897500  0.104730  1.0  0.1656
  C  C222  1  0.506600  0.609100  0.104730  1.0  0.164
  C  C223  1  0.447480  0.223740  0.476210  1.0  -0.0011
  C  C224  1  0.776260  0.223740  0.476210  1.0  -0.0021
  C  C225  1  0.776260  0.552520  0.476210  1.0  -0.002
  C  C226  1  0.552520  0.776260  0.976210  1.0  -0.0017
  C  C227  1  0.223740  0.776260  0.976210  1.0  -0.0007
  C  C228  1  0.223740  0.447480  0.976210  1.0  -0.0023
  C  C229  1  0.223740  0.447480  0.523790  1.0  -0.0018
  C  C230  1  0.223740  0.776260  0.523790  1.0  -0.0007
  C  C231  1  0.552520  0.776260  0.523790  1.0  -0.0009
  C  C232  1  0.776260  0.552520  0.023790  1.0  -0.002
  C  C233  1  0.776260  0.223740  0.023790  1.0  -0.0011
  C  C234  1  0.447480  0.223740  0.023790  1.0  -0.0009
  C  C235  1  0.406050  0.593950  0.196500  1.0  0.7212
  C  C236  1  0.406050  0.812100  0.196500  1.0  0.7148
  C  C237  1  0.187900  0.593950  0.196500  1.0  0.7192
  C  C238  1  0.593950  0.406050  0.696500  1.0  0.7191
  C  C239  1  0.593950  0.187900  0.696500  1.0  0.7152
  C  C240  1  0.812100  0.406050  0.696500  1.0  0.7207
  C  C241  1  0.593950  0.406050  0.803500  1.0  0.7188
  C  C242  1  0.812100  0.406050  0.803500  1.0  0.7197
  C  C243  1  0.593950  0.187900  0.803500  1.0  0.714
  C  C244  1  0.406050  0.593950  0.303500  1.0  0.7197
  C  C245  1  0.187900  0.593950  0.303500  1.0  0.7186
  C  C246  1  0.406050  0.812100  0.303500  1.0  0.7142
  C  C247  1  0.824400  0.175600  0.414500  1.0  -0.0816
  C  C248  1  0.824400  0.648800  0.414500  1.0  -0.0819
  C  C249  1  0.351200  0.175600  0.414500  1.0  -0.0856
  C  C250  1  0.175600  0.824400  0.914500  1.0  -0.0839
  C  C251  1  0.175600  0.351200  0.914500  1.0  -0.0824
  C  C252  1  0.648800  0.824400  0.914500  1.0  -0.0808
  C  C253  1  0.175600  0.824400  0.585500  1.0  -0.0801
  C  C254  1  0.648800  0.824400  0.585500  1.0  -0.0758
  C  C255  1  0.175600  0.351200  0.585500  1.0  -0.0776
  C  C256  1  0.824400  0.175600  0.085500  1.0  -0.0755
  C  C257  1  0.351200  0.175600  0.085500  1.0  -0.0803
  C  C258  1  0.824400  0.648800  0.085500  1.0  -0.0779
  C  C259  1  0.425900  0.851800  0.341580  1.0  -0.1127
  C  C260  1  0.148200  0.574100  0.341580  1.0  -0.1144
  C  C261  1  0.425900  0.574100  0.341580  1.0  -0.1148
  C  C262  1  0.574100  0.148200  0.841580  1.0  -0.1125
  C  C263  1  0.851800  0.425900  0.841580  1.0  -0.1148
  C  C264  1  0.574100  0.425900  0.841580  1.0  -0.1146
  C  C265  1  0.851800  0.425900  0.658420  1.0  -0.1154
  C  C266  1  0.574100  0.148200  0.658420  1.0  -0.1135
  C  C267  1  0.574100  0.425900  0.658420  1.0  -0.1153
  C  C268  1  0.148200  0.574100  0.158420  1.0  -0.1155
  C  C269  1  0.425900  0.851800  0.158420  1.0  -0.1131
  C  C270  1  0.425900  0.574100  0.158420  1.0  -0.1153
  Br  Br271  1  0.857880  0.715760  0.128200  1.0  -0.081
  Br  Br272  1  0.284240  0.142120  0.128200  1.0  -0.0803
  Br  Br273  1  0.857880  0.142120  0.128200  1.0  -0.0794
  Br  Br274  1  0.142120  0.284240  0.628200  1.0  -0.0809
  Br  Br275  1  0.715760  0.857880  0.628200  1.0  -0.0795
  Br  Br276  1  0.142120  0.857880  0.628200  1.0  -0.0803
  Br  Br277  1  0.715760  0.857880  0.871800  1.0  -0.0811
  Br  Br278  1  0.142120  0.284240  0.871800  1.0  -0.0818
  Br  Br279  1  0.142120  0.857880  0.871800  1.0  -0.081
  Br  Br280  1  0.284240  0.142120  0.371800  1.0  -0.0813
  Br  Br281  1  0.857880  0.715760  0.371800  1.0  -0.0825
  Br  Br282  1  0.857880  0.142120  0.371800  1.0  -0.0812
  N  N283  1  0.455350  0.910700  0.087330  1.0  -0.2136
  N  N284  1  0.089300  0.544650  0.087330  1.0  -0.2137
  N  N285  1  0.455350  0.544650  0.087330  1.0  -0.214
  N  N286  1  0.544650  0.089300  0.587330  1.0  -0.2145
  N  N287  1  0.910700  0.455350  0.587330  1.0  -0.2136
  N  N288  1  0.544650  0.455350  0.587330  1.0  -0.2134
  N  N289  1  0.910700  0.455350  0.912670  1.0  -0.2129
  N  N290  1  0.544650  0.089300  0.912670  1.0  -0.2131
  N  N291  1  0.544650  0.455350  0.912670  1.0  -0.2128
  N  N292  1  0.089300  0.544650  0.412670  1.0  -0.2128
  N  N293  1  0.455350  0.910700  0.412670  1.0  -0.2129
  N  N294  1  0.455350  0.544650  0.412670  1.0  -0.2129
  O  O295  1  0.113780  0.483610  0.008360  1.0  -0.5819
  O  O296  1  0.516390  0.630170  0.008360  1.0  -0.5797
  O  O297  1  0.369830  0.886220  0.008360  1.0  -0.5818
  O  O298  1  0.886220  0.516390  0.508360  1.0  -0.5815
  O  O299  1  0.483610  0.369830  0.508360  1.0  -0.5794
  O  O300  1  0.630170  0.113780  0.508360  1.0  -0.582
  O  O301  1  0.483610  0.113780  0.991640  1.0  -0.581
  O  O302  1  0.630170  0.516390  0.991640  1.0  -0.5812
  O  O303  1  0.886220  0.369830  0.991640  1.0  -0.5794
  O  O304  1  0.516390  0.886220  0.491640  1.0  -0.5826
  O  O305  1  0.369830  0.483610  0.491640  1.0  -0.5816
  O  O306  1  0.113780  0.630170  0.491640  1.0  -0.5792
  O  O307  1  0.886220  0.516390  0.991640  1.0  -0.582
  O  O308  1  0.483610  0.369830  0.991640  1.0  -0.5793
  O  O309  1  0.630170  0.113780  0.991640  1.0  -0.5815
  O  O310  1  0.113780  0.483610  0.491640  1.0  -0.5813
  O  O311  1  0.516390  0.630170  0.491640  1.0  -0.5792
  O  O312  1  0.369830  0.886220  0.491640  1.0  -0.582
  O  O313  1  0.516390  0.886220  0.008360  1.0  -0.5824
  O  O314  1  0.369830  0.483610  0.008360  1.0  -0.5815
  O  O315  1  0.113780  0.630170  0.008360  1.0  -0.5796
  O  O316  1  0.483610  0.113780  0.508360  1.0  -0.5814
  O  O317  1  0.630170  0.516390  0.508360  1.0  -0.5818
  O  O318  1  0.886220  0.369830  0.508360  1.0  -0.5796
  O  O319  1  0.593850  0.037960  0.042590  1.0  -0.6174
  O  O320  1  0.962040  0.555890  0.042590  1.0  -0.6165
  O  O321  1  0.444110  0.406150  0.042590  1.0  -0.615
  O  O322  1  0.406150  0.962040  0.542590  1.0  -0.6175
  O  O323  1  0.037960  0.444110  0.542590  1.0  -0.6156
  O  O324  1  0.555890  0.593850  0.542590  1.0  -0.6163
  O  O325  1  0.037960  0.593850  0.957410  1.0  -0.614
  O  O326  1  0.555890  0.962040  0.957410  1.0  -0.6166
  O  O327  1  0.406150  0.444110  0.957410  1.0  -0.6149
  O  O328  1  0.962040  0.406150  0.457410  1.0  -0.6148
  O  O329  1  0.444110  0.037960  0.457410  1.0  -0.6162
  O  O330  1  0.593850  0.555890  0.457410  1.0  -0.6147
  O  O331  1  0.406150  0.962040  0.957410  1.0  -0.6163
  O  O332  1  0.037960  0.444110  0.957410  1.0  -0.6147
  O  O333  1  0.555890  0.593850  0.957410  1.0  -0.6149
  O  O334  1  0.593850  0.037960  0.457410  1.0  -0.6163
  O  O335  1  0.962040  0.555890  0.457410  1.0  -0.6152
  O  O336  1  0.444110  0.406150  0.457410  1.0  -0.6143
  O  O337  1  0.962040  0.406150  0.042590  1.0  -0.6155
  O  O338  1  0.444110  0.037960  0.042590  1.0  -0.6172
  O  O339  1  0.593850  0.555890  0.042590  1.0  -0.6161
  O  O340  1  0.037960  0.593850  0.542590  1.0  -0.6154
  O  O341  1  0.555890  0.962040  0.542590  1.0  -0.6177
  O  O342  1  0.406150  0.444110  0.542590  1.0  -0.6159
  O  O343  1  0.340790  0.542820  0.289750  1.0  -0.6279
  O  O344  1  0.457180  0.797970  0.289750  1.0  -0.6291
  O  O345  1  0.202030  0.659210  0.289750  1.0  -0.6318
  O  O346  1  0.659210  0.457180  0.789750  1.0  -0.6291
  O  O347  1  0.542820  0.202030  0.789750  1.0  -0.6289
  O  O348  1  0.797970  0.340790  0.789750  1.0  -0.6275
  O  O349  1  0.542820  0.340790  0.710250  1.0  -0.63
  O  O350  1  0.797970  0.457180  0.710250  1.0  -0.6283
  O  O351  1  0.659210  0.202030  0.710250  1.0  -0.6288
  O  O352  1  0.457180  0.659210  0.210250  1.0  -0.6299
  O  O353  1  0.202030  0.542820  0.210250  1.0  -0.6282
  O  O354  1  0.340790  0.797970  0.210250  1.0  -0.6282
  O  O355  1  0.659210  0.457180  0.710250  1.0  -0.6288
  O  O356  1  0.542820  0.202030  0.710250  1.0  -0.6284
  O  O357  1  0.797970  0.340790  0.710250  1.0  -0.6274
  O  O358  1  0.340790  0.542820  0.210250  1.0  -0.6279
  O  O359  1  0.457180  0.797970  0.210250  1.0  -0.6293
  O  O360  1  0.202030  0.659210  0.210250  1.0  -0.6316
  O  O361  1  0.457180  0.659210  0.289750  1.0  -0.6295
  O  O362  1  0.202030  0.542820  0.289750  1.0  -0.6281
  O  O363  1  0.340790  0.797970  0.289750  1.0  -0.6282
  O  O364  1  0.542820  0.340790  0.789750  1.0  -0.6307
  O  O365  1  0.797970  0.457180  0.789750  1.0  -0.6284
  O  O366  1  0.659210  0.202030  0.789750  1.0  -0.6288
  O  O367  1  0.333333  0.666667  0.250000  1.0  -1.0058
  O  O368  1  0.666667  0.333333  0.750000  1.0  -1.0058
