# generated using pymatgen
data_Zn6Cr3H54C84N12O37
_symmetry_space_group_name_H-M   'P 1'
_cell_length_a   19.16920000
_cell_length_b   19.16920000
_cell_length_c   35.98600000
_cell_angle_alpha   90.00000000
_cell_angle_beta   90.00000000
_cell_angle_gamma   120.00000000
_symmetry_Int_Tables_number   1
_chemical_formula_structural   Zn6Cr3H54C84N12O37
_chemical_formula_sum   'Zn12 Cr6 H108 C168 N24 O74'
_cell_volume   11451.75859570
_cell_formula_units_Z   2
loop_
 _symmetry_equiv_pos_site_id
 _symmetry_equiv_pos_as_xyz
  1  'x, y, z'
loop_
 _atom_site_type_symbol
 _atom_site_label
 _atom_site_symmetry_multiplicity
 _atom_site_fract_x
 _atom_site_fract_y
 _atom_site_fract_z
 _atom_site_occupancy
 _atom_site_charge
  Zn  Zn1  1  0.046000  0.523000  0.465760  1.0  0.8963
  Zn  Zn2  1  0.477000  0.523000  0.465760  1.0  0.8969
  Zn  Zn3  1  0.477000  0.954000  0.465760  1.0  0.8969
  Zn  Zn4  1  0.954000  0.477000  0.965760  1.0  0.8967
  Zn  Zn5  1  0.523000  0.477000  0.965760  1.0  0.8961
  Zn  Zn6  1  0.523000  0.046000  0.965760  1.0  0.8971
  Zn  Zn7  1  0.523000  0.046000  0.534240  1.0  0.8969
  Zn  Zn8  1  0.523000  0.477000  0.534240  1.0  0.896
  Zn  Zn9  1  0.954000  0.477000  0.534240  1.0  0.8964
  Zn  Zn10  1  0.477000  0.954000  0.034240  1.0  0.897
  Zn  Zn11  1  0.477000  0.523000  0.034240  1.0  0.8965
  Zn  Zn12  1  0.046000  0.523000  0.034240  1.0  0.8962
  Cr  Cr13  1  0.724160  0.448320  0.750000  1.0  1.427
  Cr  Cr14  1  0.551680  0.275840  0.750000  1.0  1.4294
  Cr  Cr15  1  0.724160  0.275840  0.750000  1.0  1.4294
  Cr  Cr16  1  0.275840  0.551680  0.250000  1.0  1.4261
  Cr  Cr17  1  0.448320  0.724160  0.250000  1.0  1.4308
  Cr  Cr18  1  0.275840  0.724160  0.250000  1.0  1.4298
  H  H19  1  0.102900  0.284300  0.873100  1.0  0.3449
  H  H20  1  0.075600  0.357400  0.580400  1.0  0.1036
  H  H21  1  0.858500  0.325500  0.847700  1.0  0.1112
  H  H22  1  0.554200  0.910200  0.407200  1.0  0.0721
  H  H23  1  0.715700  0.818600  0.873100  1.0  0.3451
  H  H24  1  0.642600  0.718200  0.580400  1.0  0.1036
  H  H25  1  0.674500  0.533000  0.847700  1.0  0.1123
  H  H26  1  0.089800  0.644000  0.407200  1.0  0.0723
  H  H27  1  0.181400  0.897100  0.873100  1.0  0.3415
  H  H28  1  0.281800  0.924400  0.580400  1.0  0.1028
  H  H29  1  0.467000  0.141500  0.847700  1.0  0.1113
  H  H30  1  0.356000  0.445800  0.407200  1.0  0.0729
  H  H31  1  0.897100  0.715700  0.373100  1.0  0.3411
  H  H32  1  0.924400  0.642600  0.080400  1.0  0.1037
  H  H33  1  0.141500  0.674500  0.347700  1.0  0.1114
  H  H34  1  0.445800  0.089800  0.907200  1.0  0.0721
  H  H35  1  0.284300  0.181400  0.373100  1.0  0.3425
  H  H36  1  0.357400  0.281800  0.080400  1.0  0.1041
  H  H37  1  0.325500  0.467000  0.347700  1.0  0.1116
  H  H38  1  0.910200  0.356000  0.907200  1.0  0.0724
  H  H39  1  0.818600  0.102900  0.373100  1.0  0.3487
  H  H40  1  0.718200  0.075600  0.080400  1.0  0.1027
  H  H41  1  0.533000  0.858500  0.347700  1.0  0.1109
  H  H42  1  0.644000  0.554200  0.907200  1.0  0.0721
  H  H43  1  0.284300  0.102900  0.126900  1.0  0.349
  H  H44  1  0.357400  0.075600  0.419600  1.0  0.1027
  H  H45  1  0.325500  0.858500  0.152300  1.0  0.1115
  H  H46  1  0.910200  0.554200  0.592800  1.0  0.0729
  H  H47  1  0.818600  0.715700  0.126900  1.0  0.3441
  H  H48  1  0.718200  0.642600  0.419600  1.0  0.1036
  H  H49  1  0.533000  0.674500  0.152300  1.0  0.1115
  H  H50  1  0.644000  0.089800  0.592800  1.0  0.0719
  H  H51  1  0.897100  0.181400  0.126900  1.0  0.3431
  H  H52  1  0.924400  0.281800  0.419600  1.0  0.1032
  H  H53  1  0.141500  0.467000  0.152300  1.0  0.1125
  H  H54  1  0.445800  0.356000  0.592800  1.0  0.0725
  H  H55  1  0.715700  0.897100  0.626900  1.0  0.3418
  H  H56  1  0.642600  0.924400  0.919600  1.0  0.1023
  H  H57  1  0.674500  0.141500  0.652300  1.0  0.1114
  H  H58  1  0.089800  0.445800  0.092800  1.0  0.0729
  H  H59  1  0.181400  0.284300  0.626900  1.0  0.3438
  H  H60  1  0.281800  0.357400  0.919600  1.0  0.1038
  H  H61  1  0.467000  0.325500  0.652300  1.0  0.1115
  H  H62  1  0.356000  0.910200  0.092800  1.0  0.0727
  H  H63  1  0.102900  0.818600  0.626900  1.0  0.3467
  H  H64  1  0.075600  0.718200  0.919600  1.0  0.1041
  H  H65  1  0.858500  0.533000  0.652300  1.0  0.1129
  H  H66  1  0.554200  0.644000  0.092800  1.0  0.072
  H  H67  1  0.897100  0.715700  0.126900  1.0  0.3412
  H  H68  1  0.924400  0.642600  0.419600  1.0  0.1036
  H  H69  1  0.141500  0.674500  0.152300  1.0  0.1118
  H  H70  1  0.445800  0.089800  0.592800  1.0  0.0725
  H  H71  1  0.284300  0.181400  0.126900  1.0  0.344
  H  H72  1  0.357400  0.281800  0.419600  1.0  0.1041
  H  H73  1  0.325500  0.467000  0.152300  1.0  0.1123
  H  H74  1  0.910200  0.356000  0.592800  1.0  0.0725
  H  H75  1  0.818600  0.102900  0.126900  1.0  0.3497
  H  H76  1  0.718200  0.075600  0.419600  1.0  0.1026
  H  H77  1  0.533000  0.858500  0.152300  1.0  0.1109
  H  H78  1  0.644000  0.554200  0.592800  1.0  0.0724
  H  H79  1  0.102900  0.284300  0.626900  1.0  0.346
  H  H80  1  0.075600  0.357400  0.919600  1.0  0.1036
  H  H81  1  0.858500  0.325500  0.652300  1.0  0.1115
  H  H82  1  0.554200  0.910200  0.092800  1.0  0.0723
  H  H83  1  0.715700  0.818600  0.626900  1.0  0.3455
  H  H84  1  0.642600  0.718200  0.919600  1.0  0.1037
  H  H85  1  0.674500  0.533000  0.652300  1.0  0.1126
  H  H86  1  0.089800  0.644000  0.092800  1.0  0.0725
  H  H87  1  0.181400  0.897100  0.626900  1.0  0.342
  H  H88  1  0.281800  0.924400  0.919600  1.0  0.1028
  H  H89  1  0.467000  0.141500  0.652300  1.0  0.1118
  H  H90  1  0.356000  0.445800  0.092800  1.0  0.0731
  H  H91  1  0.715700  0.897100  0.873100  1.0  0.3413
  H  H92  1  0.642600  0.924400  0.580400  1.0  0.1025
  H  H93  1  0.674500  0.141500  0.847700  1.0  0.1112
  H  H94  1  0.089800  0.445800  0.407200  1.0  0.0726
  H  H95  1  0.181400  0.284300  0.873100  1.0  0.343
  H  H96  1  0.281800  0.357400  0.580400  1.0  0.1037
  H  H97  1  0.467000  0.325500  0.847700  1.0  0.1106
  H  H98  1  0.356000  0.910200  0.407200  1.0  0.0721
  H  H99  1  0.102900  0.818600  0.873100  1.0  0.3455
  H  H100  1  0.075600  0.718200  0.580400  1.0  0.104
  H  H101  1  0.858500  0.533000  0.847700  1.0  0.1126
  H  H102  1  0.554200  0.644000  0.407200  1.0  0.0719
  H  H103  1  0.284300  0.102900  0.373100  1.0  0.3481
  H  H104  1  0.357400  0.075600  0.080400  1.0  0.1029
  H  H105  1  0.325500  0.858500  0.347700  1.0  0.1113
  H  H106  1  0.910200  0.554200  0.907200  1.0  0.0725
  H  H107  1  0.818600  0.715700  0.373100  1.0  0.3432
  H  H108  1  0.718200  0.642600  0.080400  1.0  0.1037
  H  H109  1  0.533000  0.674500  0.347700  1.0  0.1114
  H  H110  1  0.644000  0.089800  0.907200  1.0  0.0718
  H  H111  1  0.897100  0.181400  0.373100  1.0  0.3426
  H  H112  1  0.924400  0.281800  0.080400  1.0  0.1031
  H  H113  1  0.141500  0.467000  0.347700  1.0  0.1119
  H  H114  1  0.445800  0.356000  0.907200  1.0  0.0723
  H  H115  1  0.762750  0.237250  0.000200  1.0  0.1128
  H  H116  1  0.762750  0.525500  0.000200  1.0  0.1128
  H  H117  1  0.474500  0.237250  0.000200  1.0  0.1128
  H  H118  1  0.237250  0.762750  0.500200  1.0  0.1129
  H  H119  1  0.237250  0.474500  0.500200  1.0  0.1128
  H  H120  1  0.525500  0.762750  0.500200  1.0  0.1128
  H  H121  1  0.237250  0.762750  0.999800  1.0  0.113
  H  H122  1  0.525500  0.762750  0.999800  1.0  0.1129
  H  H123  1  0.237250  0.474500  0.999800  1.0  0.1127
  H  H124  1  0.762750  0.237250  0.499800  1.0  0.1128
  H  H125  1  0.474500  0.237250  0.499800  1.0  0.1128
  H  H126  1  0.762750  0.525500  0.499800  1.0  0.1127
  C  C127  1  0.722500  0.569600  0.040970  1.0  -0.1157
  C  C128  1  0.867700  0.494400  0.640690  1.0  -0.1655
  C  C129  1  0.545000  0.902900  0.976490  1.0  0.6894
  C  C130  1  0.392200  0.494000  0.104870  1.0  0.1802
  C  C131  1  0.248800  0.872300  0.570900  1.0  -0.1278
  C  C132  1  0.430400  0.152900  0.040970  1.0  -0.1136
  C  C133  1  0.505600  0.373300  0.640690  1.0  -0.1629
  C  C134  1  0.097100  0.642100  0.976490  1.0  0.689
  C  C135  1  0.506000  0.898200  0.104870  1.0  0.1811
  C  C136  1  0.127700  0.376500  0.570900  1.0  -0.1299
  C  C137  1  0.847100  0.277500  0.040970  1.0  -0.1134
  C  C138  1  0.626700  0.132300  0.640690  1.0  -0.1617
  C  C139  1  0.357900  0.455000  0.976490  1.0  0.6887
  C  C140  1  0.101800  0.607800  0.104870  1.0  0.1798
  C  C141  1  0.623500  0.751200  0.570900  1.0  -0.1292
  C  C142  1  0.277500  0.430400  0.540970  1.0  -0.1183
  C  C143  1  0.132300  0.505600  0.140690  1.0  -0.1649
  C  C144  1  0.455000  0.097100  0.476490  1.0  0.6881
  C  C145  1  0.607800  0.506000  0.604870  1.0  0.1792
  C  C146  1  0.751200  0.127700  0.070900  1.0  -0.1281
  C  C147  1  0.569600  0.847100  0.540970  1.0  -0.1158
  C  C148  1  0.494400  0.626700  0.140690  1.0  -0.1658
  C  C149  1  0.902900  0.357900  0.476490  1.0  0.6884
  C  C150  1  0.494000  0.101800  0.604870  1.0  0.1805
  C  C151  1  0.872300  0.623500  0.070900  1.0  -0.1298
  C  C152  1  0.152900  0.722500  0.540970  1.0  -0.1161
  C  C153  1  0.373300  0.867700  0.140690  1.0  -0.162
  C  C154  1  0.642100  0.545000  0.476490  1.0  0.6899
  C  C155  1  0.898200  0.392200  0.604870  1.0  0.1791
  C  C156  1  0.376500  0.248800  0.070900  1.0  -0.13
  C  C157  1  0.569600  0.722500  0.959030  1.0  -0.1134
  C  C158  1  0.494400  0.867700  0.359310  1.0  -0.1621
  C  C159  1  0.902900  0.545000  0.023510  1.0  0.6882
  C  C160  1  0.494000  0.392200  0.895130  1.0  0.1807
  C  C161  1  0.872300  0.248800  0.429100  1.0  -0.1302
  C  C162  1  0.152900  0.430400  0.959030  1.0  -0.1149
  C  C163  1  0.373300  0.505600  0.359310  1.0  -0.1645
  C  C164  1  0.642100  0.097100  0.023510  1.0  0.6888
  C  C165  1  0.898200  0.506000  0.895130  1.0  0.1787
  C  C166  1  0.376500  0.127700  0.429100  1.0  -0.1274
  C  C167  1  0.277500  0.847100  0.959030  1.0  -0.113
  C  C168  1  0.132300  0.626700  0.359310  1.0  -0.1638
  C  C169  1  0.455000  0.357900  0.023510  1.0  0.689
  C  C170  1  0.607800  0.101800  0.895130  1.0  0.1811
  C  C171  1  0.751200  0.623500  0.429100  1.0  -0.1299
  C  C172  1  0.430400  0.277500  0.459030  1.0  -0.1162
  C  C173  1  0.505600  0.132300  0.859310  1.0  -0.1612
  C  C174  1  0.097100  0.455000  0.523510  1.0  0.6897
  C  C175  1  0.506000  0.607800  0.395130  1.0  0.1777
  C  C176  1  0.127700  0.751200  0.929100  1.0  -0.1292
  C  C177  1  0.847100  0.569600  0.459030  1.0  -0.1187
  C  C178  1  0.626700  0.494400  0.859310  1.0  -0.1651
  C  C179  1  0.357900  0.902900  0.523510  1.0  0.6883
  C  C180  1  0.101800  0.494000  0.395130  1.0  0.1796
  C  C181  1  0.623500  0.872300  0.929100  1.0  -0.1286
  C  C182  1  0.722500  0.152900  0.459030  1.0  -0.1162
  C  C183  1  0.867700  0.373300  0.859310  1.0  -0.164
  C  C184  1  0.545000  0.642100  0.523510  1.0  0.688
  C  C185  1  0.392200  0.898200  0.395130  1.0  0.1798
  C  C186  1  0.248800  0.376500  0.929100  1.0  -0.1305
  C  C187  1  0.277500  0.430400  0.959030  1.0  -0.1178
  C  C188  1  0.132300  0.505600  0.359310  1.0  -0.1643
  C  C189  1  0.455000  0.097100  0.023510  1.0  0.6882
  C  C190  1  0.607800  0.506000  0.895130  1.0  0.1795
  C  C191  1  0.751200  0.127700  0.429100  1.0  -0.1301
  C  C192  1  0.569600  0.847100  0.959030  1.0  -0.1153
  C  C193  1  0.494400  0.626700  0.359310  1.0  -0.1641
  C  C194  1  0.902900  0.357900  0.023510  1.0  0.6885
  C  C195  1  0.494000  0.101800  0.895130  1.0  0.181
  C  C196  1  0.872300  0.623500  0.429100  1.0  -0.1321
  C  C197  1  0.152900  0.722500  0.959030  1.0  -0.1157
  C  C198  1  0.373300  0.867700  0.359310  1.0  -0.1609
  C  C199  1  0.642100  0.545000  0.023510  1.0  0.6898
  C  C200  1  0.898200  0.392200  0.895130  1.0  0.1801
  C  C201  1  0.376500  0.248800  0.429100  1.0  -0.1322
  C  C202  1  0.722500  0.569600  0.459030  1.0  -0.1181
  C  C203  1  0.867700  0.494400  0.859310  1.0  -0.1659
  C  C204  1  0.545000  0.902900  0.523510  1.0  0.6895
  C  C205  1  0.392200  0.494000  0.395130  1.0  0.1799
  C  C206  1  0.248800  0.872300  0.929100  1.0  -0.1284
  C  C207  1  0.430400  0.152900  0.459030  1.0  -0.1162
  C  C208  1  0.505600  0.373300  0.859310  1.0  -0.1637
  C  C209  1  0.097100  0.642100  0.523510  1.0  0.6889
  C  C210  1  0.506000  0.898200  0.395130  1.0  0.1806
  C  C211  1  0.127700  0.376500  0.929100  1.0  -0.1299
  C  C212  1  0.847100  0.277500  0.459030  1.0  -0.1158
  C  C213  1  0.626700  0.132300  0.859310  1.0  -0.1624
  C  C214  1  0.357900  0.455000  0.523510  1.0  0.6889
  C  C215  1  0.101800  0.607800  0.395130  1.0  0.1785
  C  C216  1  0.623500  0.751200  0.929100  1.0  -0.1297
  C  C217  1  0.430400  0.277500  0.040970  1.0  -0.1162
  C  C218  1  0.505600  0.132300  0.640690  1.0  -0.1612
  C  C219  1  0.097100  0.455000  0.976490  1.0  0.6904
  C  C220  1  0.506000  0.607800  0.104870  1.0  0.1795
  C  C221  1  0.127700  0.751200  0.570900  1.0  -0.1311
  C  C222  1  0.847100  0.569600  0.040970  1.0  -0.1187
  C  C223  1  0.626700  0.494400  0.640690  1.0  -0.1646
  C  C224  1  0.357900  0.902900  0.976490  1.0  0.6889
  C  C225  1  0.101800  0.494000  0.104870  1.0  0.1804
  C  C226  1  0.623500  0.872300  0.570900  1.0  -0.1302
  C  C227  1  0.722500  0.152900  0.040970  1.0  -0.1161
  C  C228  1  0.867700  0.373300  0.640690  1.0  -0.1634
  C  C229  1  0.545000  0.642100  0.976490  1.0  0.6885
  C  C230  1  0.392200  0.898200  0.104870  1.0  0.1814
  C  C231  1  0.248800  0.376500  0.570900  1.0  -0.1316
  C  C232  1  0.569600  0.722500  0.540970  1.0  -0.1166
  C  C233  1  0.494400  0.867700  0.140690  1.0  -0.1625
  C  C234  1  0.902900  0.545000  0.476490  1.0  0.6888
  C  C235  1  0.494000  0.392200  0.604870  1.0  0.1806
  C  C236  1  0.872300  0.248800  0.070900  1.0  -0.1297
  C  C237  1  0.152900  0.430400  0.540970  1.0  -0.1181
  C  C238  1  0.373300  0.505600  0.140690  1.0  -0.1652
  C  C239  1  0.642100  0.097100  0.476490  1.0  0.6894
  C  C240  1  0.898200  0.506000  0.604870  1.0  0.1794
  C  C241  1  0.376500  0.127700  0.070900  1.0  -0.1273
  C  C242  1  0.277500  0.847100  0.540970  1.0  -0.1163
  C  C243  1  0.132300  0.626700  0.140690  1.0  -0.1651
  C  C244  1  0.455000  0.357900  0.476490  1.0  0.6894
  C  C245  1  0.607800  0.101800  0.604870  1.0  0.1807
  C  C246  1  0.751200  0.623500  0.070900  1.0  -0.1303
  C  C247  1  0.175150  0.824850  0.587000  1.0  0.186
  C  C248  1  0.175150  0.350300  0.587000  1.0  0.1865
  C  C249  1  0.649700  0.824850  0.587000  1.0  0.1858
  C  C250  1  0.824850  0.175150  0.087000  1.0  0.1863
  C  C251  1  0.824850  0.649700  0.087000  1.0  0.187
  C  C252  1  0.350300  0.175150  0.087000  1.0  0.1864
  C  C253  1  0.824850  0.175150  0.413000  1.0  0.1841
  C  C254  1  0.350300  0.175150  0.413000  1.0  0.1843
  C  C255  1  0.824850  0.649700  0.413000  1.0  0.1848
  C  C256  1  0.175150  0.824850  0.913000  1.0  0.1839
  C  C257  1  0.649700  0.824850  0.913000  1.0  0.1838
  C  C258  1  0.175150  0.350300  0.913000  1.0  0.184
  C  C259  1  0.851840  0.425920  0.841710  1.0  -0.1135
  C  C260  1  0.449200  0.224600  0.476450  1.0  0.0164
  C  C261  1  0.574080  0.425920  0.841710  1.0  -0.1143
  C  C262  1  0.775400  0.224600  0.476450  1.0  0.0157
  C  C263  1  0.574080  0.148160  0.841710  1.0  -0.1107
  C  C264  1  0.775400  0.550800  0.476450  1.0  0.0179
  C  C265  1  0.148160  0.574080  0.341710  1.0  -0.1138
  C  C266  1  0.550800  0.775400  0.976450  1.0  0.0166
  C  C267  1  0.425920  0.574080  0.341710  1.0  -0.1131
  C  C268  1  0.224600  0.775400  0.976450  1.0  0.0171
  C  C269  1  0.425920  0.851840  0.341710  1.0  -0.1114
  C  C270  1  0.224600  0.449200  0.976450  1.0  0.0169
  C  C271  1  0.425920  0.851840  0.158290  1.0  -0.1119
  C  C272  1  0.224600  0.449200  0.523550  1.0  0.018
  C  C273  1  0.425920  0.574080  0.158290  1.0  -0.1138
  C  C274  1  0.224600  0.775400  0.523550  1.0  0.0173
  C  C275  1  0.148160  0.574080  0.158290  1.0  -0.1148
  C  C276  1  0.550800  0.775400  0.523550  1.0  0.0175
  C  C277  1  0.574080  0.148160  0.658290  1.0  -0.1119
  C  C278  1  0.775400  0.550800  0.023550  1.0  0.018
  C  C279  1  0.574080  0.425920  0.658290  1.0  -0.115
  C  C280  1  0.775400  0.224600  0.023550  1.0  0.017
  C  C281  1  0.851840  0.425920  0.658290  1.0  -0.1144
  C  C282  1  0.449200  0.224600  0.023550  1.0  0.0169
  C  C283  1  0.406680  0.813360  0.196350  1.0  0.7136
  C  C284  1  0.186640  0.593320  0.196350  1.0  0.7167
  C  C285  1  0.406680  0.593320  0.196350  1.0  0.7187
  C  C286  1  0.593320  0.186640  0.696350  1.0  0.7142
  C  C287  1  0.813360  0.406680  0.696350  1.0  0.7184
  C  C288  1  0.593320  0.406680  0.696350  1.0  0.7167
  C  C289  1  0.813360  0.406680  0.803650  1.0  0.7181
  C  C290  1  0.593320  0.186640  0.803650  1.0  0.7138
  C  C291  1  0.593320  0.406680  0.803650  1.0  0.7176
  C  C292  1  0.186640  0.593320  0.303650  1.0  0.7173
  C  C293  1  0.406680  0.813360  0.303650  1.0  0.7138
  C  C294  1  0.406680  0.593320  0.303650  1.0  0.718
  N  N295  1  0.544440  0.455560  0.912960  1.0  -0.2643
  N  N296  1  0.544440  0.088880  0.912960  1.0  -0.2636
  N  N297  1  0.911120  0.455560  0.912960  1.0  -0.2639
  N  N298  1  0.455560  0.544440  0.412960  1.0  -0.2676
  N  N299  1  0.455560  0.911120  0.412960  1.0  -0.2674
  N  N300  1  0.088880  0.544440  0.412960  1.0  -0.268
  N  N301  1  0.455560  0.544440  0.087040  1.0  -0.2652
  N  N302  1  0.088880  0.544440  0.087040  1.0  -0.2652
  N  N303  1  0.455560  0.911120  0.087040  1.0  -0.2645
  N  N304  1  0.544440  0.455560  0.587040  1.0  -0.2691
  N  N305  1  0.911120  0.455560  0.587040  1.0  -0.2691
  N  N306  1  0.544440  0.088880  0.587040  1.0  -0.2695
  N  N307  1  0.300300  0.150150  0.117300  1.0  -0.6149
  N  N308  1  0.849850  0.150150  0.117300  1.0  -0.6131
  N  N309  1  0.849850  0.699700  0.117300  1.0  -0.619
  N  N310  1  0.699700  0.849850  0.617300  1.0  -0.6136
  N  N311  1  0.150150  0.849850  0.617300  1.0  -0.616
  N  N312  1  0.150150  0.300300  0.617300  1.0  -0.6185
  N  N313  1  0.150150  0.300300  0.882700  1.0  -0.6159
  N  N314  1  0.150150  0.849850  0.882700  1.0  -0.6142
  N  N315  1  0.699700  0.849850  0.882700  1.0  -0.6129
  N  N316  1  0.849850  0.699700  0.382700  1.0  -0.6177
  N  N317  1  0.849850  0.150150  0.382700  1.0  -0.612
  N  N318  1  0.300300  0.150150  0.382700  1.0  -0.613
  O  O319  1  0.457560  0.798560  0.210150  1.0  -0.6261
  O  O320  1  0.961750  0.405750  0.042600  1.0  -0.6112
  O  O321  1  0.886760  0.369470  0.508640  1.0  -0.5908
  O  O322  1  0.201440  0.659000  0.210150  1.0  -0.6281
  O  O323  1  0.594250  0.556000  0.042600  1.0  -0.6111
  O  O324  1  0.630530  0.517290  0.508640  1.0  -0.5935
  O  O325  1  0.341000  0.542440  0.210150  1.0  -0.6247
  O  O326  1  0.444000  0.038250  0.042600  1.0  -0.613
  O  O327  1  0.482710  0.113240  0.508640  1.0  -0.5926
  O  O328  1  0.542440  0.201440  0.710150  1.0  -0.6258
  O  O329  1  0.038250  0.594250  0.542600  1.0  -0.6108
  O  O330  1  0.113240  0.630530  0.008640  1.0  -0.5908
  O  O331  1  0.798560  0.341000  0.710150  1.0  -0.6243
  O  O332  1  0.405750  0.444000  0.542600  1.0  -0.6114
  O  O333  1  0.369470  0.482710  0.008640  1.0  -0.593
  O  O334  1  0.659000  0.457560  0.710150  1.0  -0.6252
  O  O335  1  0.556000  0.961750  0.542600  1.0  -0.6137
  O  O336  1  0.517290  0.886760  0.008640  1.0  -0.5929
  O  O337  1  0.798560  0.457560  0.789850  1.0  -0.6248
  O  O338  1  0.405750  0.961750  0.957400  1.0  -0.6131
  O  O339  1  0.369470  0.886760  0.491360  1.0  -0.5929
  O  O340  1  0.659000  0.201440  0.789850  1.0  -0.6264
  O  O341  1  0.556000  0.594250  0.957400  1.0  -0.6112
  O  O342  1  0.517290  0.630530  0.491360  1.0  -0.5903
  O  O343  1  0.542440  0.341000  0.789850  1.0  -0.6275
  O  O344  1  0.038250  0.444000  0.957400  1.0  -0.611
  O  O345  1  0.113240  0.482710  0.491360  1.0  -0.5928
  O  O346  1  0.201440  0.542440  0.289850  1.0  -0.6256
  O  O347  1  0.594250  0.038250  0.457400  1.0  -0.6134
  O  O348  1  0.630530  0.113240  0.991360  1.0  -0.5916
  O  O349  1  0.341000  0.798560  0.289850  1.0  -0.626
  O  O350  1  0.444000  0.405750  0.457400  1.0  -0.611
  O  O351  1  0.482710  0.369470  0.991360  1.0  -0.5905
  O  O352  1  0.457560  0.659000  0.289850  1.0  -0.6262
  O  O353  1  0.961750  0.556000  0.457400  1.0  -0.6113
  O  O354  1  0.886760  0.517290  0.991360  1.0  -0.5943
  O  O355  1  0.542440  0.201440  0.789850  1.0  -0.6266
  O  O356  1  0.038250  0.594250  0.957400  1.0  -0.6104
  O  O357  1  0.113240  0.630530  0.491360  1.0  -0.5902
  O  O358  1  0.798560  0.341000  0.789850  1.0  -0.6246
  O  O359  1  0.405750  0.444000  0.957400  1.0  -0.6117
  O  O360  1  0.369470  0.482710  0.491360  1.0  -0.5933
  O  O361  1  0.659000  0.457560  0.789850  1.0  -0.6258
  O  O362  1  0.556000  0.961750  0.957400  1.0  -0.6136
  O  O363  1  0.517290  0.886760  0.491360  1.0  -0.5923
  O  O364  1  0.457560  0.798560  0.289850  1.0  -0.6262
  O  O365  1  0.961750  0.405750  0.457400  1.0  -0.6116
  O  O366  1  0.886760  0.369470  0.991360  1.0  -0.5909
  O  O367  1  0.201440  0.659000  0.289850  1.0  -0.6284
  O  O368  1  0.594250  0.556000  0.457400  1.0  -0.6106
  O  O369  1  0.630530  0.517290  0.991360  1.0  -0.5932
  O  O370  1  0.341000  0.542440  0.289850  1.0  -0.6251
  O  O371  1  0.444000  0.038250  0.457400  1.0  -0.613
  O  O372  1  0.482710  0.113240  0.991360  1.0  -0.5924
  O  O373  1  0.201440  0.542440  0.210150  1.0  -0.6253
  O  O374  1  0.594250  0.038250  0.042600  1.0  -0.6137
  O  O375  1  0.630530  0.113240  0.508640  1.0  -0.5928
  O  O376  1  0.341000  0.798560  0.210150  1.0  -0.6254
  O  O377  1  0.444000  0.405750  0.042600  1.0  -0.611
  O  O378  1  0.482710  0.369470  0.508640  1.0  -0.5906
  O  O379  1  0.457560  0.659000  0.210150  1.0  -0.6263
  O  O380  1  0.961750  0.556000  0.042600  1.0  -0.6114
  O  O381  1  0.886760  0.517290  0.508640  1.0  -0.5935
  O  O382  1  0.798560  0.457560  0.710150  1.0  -0.6244
  O  O383  1  0.405750  0.961750  0.542600  1.0  -0.613
  O  O384  1  0.369470  0.886760  0.008640  1.0  -0.5927
  O  O385  1  0.659000  0.201440  0.710150  1.0  -0.6262
  O  O386  1  0.556000  0.594250  0.542600  1.0  -0.6115
  O  O387  1  0.517290  0.630530  0.008640  1.0  -0.5909
  O  O388  1  0.542440  0.341000  0.710150  1.0  -0.6267
  O  O389  1  0.038250  0.444000  0.542600  1.0  -0.611
  O  O390  1  0.113240  0.482710  0.008640  1.0  -0.5934
  O  O391  1  0.666667  0.333333  0.750000  1.0  -1.022
  O  O392  1  0.333333  0.666667  0.250000  1.0  -1.022
