# generated using pymatgen
data_Zr3H26(C11O4)4
_symmetry_space_group_name_H-M   'P 1'
_cell_length_a   16.79200000
_cell_length_b   41.04650000
_cell_length_c   41.04650000
_cell_angle_alpha   120.00000000
_cell_angle_beta   90.00000000
_cell_angle_gamma   90.00000000
_symmetry_Int_Tables_number   1
_chemical_formula_structural   Zr3H26(C11O4)4
_chemical_formula_sum   'Zr18 H156 C264 O96'
_cell_volume   24501.08514214
_cell_formula_units_Z   6
loop_
 _symmetry_equiv_pos_site_id
 _symmetry_equiv_pos_as_xyz
  1  'x, y, z'
loop_
 _atom_site_type_symbol
 _atom_site_label
 _atom_site_symmetry_multiplicity
 _atom_site_fract_x
 _atom_site_fract_y
 _atom_site_fract_z
 _atom_site_occupancy
 _atom_site_charge
  Zr  Zr1  1  0.102880  0.458210  0.458210  1.0  1.9307
  Zr  Zr2  1  0.000000  0.933300  0.466650  1.0  2.0017
  Zr  Zr3  1  0.897120  0.458210  0.000000  1.0  1.9332
  Zr  Zr4  1  0.102880  0.000000  0.458210  1.0  1.9277
  Zr  Zr5  1  0.897120  0.541790  0.541790  1.0  1.9317
  Zr  Zr6  1  0.897120  0.000000  0.541790  1.0  1.931
  Zr  Zr7  1  0.897120  0.000000  0.458210  1.0  1.9294
  Zr  Zr8  1  0.102880  0.541790  0.541790  1.0  1.931
  Zr  Zr9  1  0.102880  0.458210  0.000000  1.0  1.932
  Zr  Zr10  1  0.897120  0.458210  0.458210  1.0  1.9319
  Zr  Zr11  1  0.102880  0.000000  0.541790  1.0  1.9311
  Zr  Zr12  1  0.102880  0.541790  0.000000  1.0  1.9298
  Zr  Zr13  1  0.897120  0.541790  0.000000  1.0  1.9305
  Zr  Zr14  1  0.000000  0.066700  0.533350  1.0  1.9971
  Zr  Zr15  1  0.000000  0.533350  0.466650  1.0  2.0014
  Zr  Zr16  1  0.000000  0.533350  0.066700  1.0  2.0023
  Zr  Zr17  1  0.000000  0.466650  0.933300  1.0  2.0031
  Zr  Zr18  1  0.000000  0.466650  0.533350  1.0  2.004
  H  H19  1  0.854070  0.601740  0.000000  1.0  0.3899
  H  H20  1  0.182680  0.781880  0.312950  1.0  0.1296
  H  H21  1  0.854070  0.398260  0.398260  1.0  0.386
  H  H22  1  0.182680  0.687050  0.468930  1.0  0.1284
  H  H23  1  0.249250  0.000000  0.439640  1.0  0.3431
  H  H24  1  0.655920  0.136080  0.685790  1.0  0.1211
  H  H25  1  0.344080  0.549710  0.863920  1.0  0.1258
  H  H26  1  0.781580  0.752170  0.247830  1.0  0.1451
  H  H27  1  0.732050  0.548850  0.634530  1.0  0.126
  H  H28  1  0.428200  0.332410  0.501260  1.0  0.1251
  H  H29  1  0.428200  0.667590  0.498740  1.0  0.1247
  H  H30  1  0.571800  0.498740  0.667590  1.0  0.125
  H  H31  1  0.182680  0.468930  0.781880  1.0  0.1269
  H  H32  1  0.817320  0.218120  0.531070  1.0  0.1304
  H  H33  1  0.428200  0.831150  0.498740  1.0  0.124
  H  H34  1  0.267950  0.914320  0.548850  1.0  0.1267
  H  H35  1  0.892880  0.532190  0.167690  1.0  0.1319
  H  H36  1  0.428200  0.501260  0.168850  1.0  0.1238
  H  H37  1  0.428200  0.332410  0.831150  1.0  0.125
  H  H38  1  0.750750  0.000000  0.439640  1.0  0.3433
  H  H39  1  0.344080  0.863920  0.549710  1.0  0.122
  H  H40  1  0.892880  0.167690  0.532190  1.0  0.1298
  H  H41  1  0.249250  0.000000  0.560360  1.0  0.3428
  H  H42  1  0.107120  0.832310  0.467810  1.0  0.13
  H  H43  1  0.428200  0.168850  0.501260  1.0  0.1236
  H  H44  1  0.267950  0.548850  0.634530  1.0  0.1257
  H  H45  1  0.781580  0.504340  0.752170  1.0  0.145
  H  H46  1  0.817320  0.468930  0.687050  1.0  0.1269
  H  H47  1  0.732050  0.451150  0.365470  1.0  0.1264
  H  H48  1  0.267950  0.365470  0.914320  1.0  0.1263
  H  H49  1  0.817320  0.312950  0.531070  1.0  0.1319
  H  H50  1  0.182680  0.312950  0.531070  1.0  0.129
  H  H51  1  0.732050  0.451150  0.085680  1.0  0.126
  H  H52  1  0.892880  0.467810  0.832310  1.0  0.1323
  H  H53  1  0.344080  0.685790  0.549710  1.0  0.1265
  H  H54  1  0.892880  0.832310  0.467810  1.0  0.1304
  H  H55  1  0.344080  0.314210  0.450290  1.0  0.125
  H  H56  1  0.571800  0.168850  0.667590  1.0  0.125
  H  H57  1  0.344080  0.450290  0.136080  1.0  0.1204
  H  H58  1  0.428200  0.168850  0.667590  1.0  0.1243
  H  H59  1  0.817320  0.218120  0.687050  1.0  0.1274
  H  H60  1  0.267950  0.451150  0.085680  1.0  0.1257
  H  H61  1  0.854070  0.000000  0.601740  1.0  0.3904
  H  H62  1  0.182680  0.218120  0.687050  1.0  0.128
  H  H63  1  0.854070  0.398260  0.000000  1.0  0.3861
  H  H64  1  0.428200  0.498740  0.667590  1.0  0.1243
  H  H65  1  0.892880  0.635500  0.167690  1.0  0.1294
  H  H66  1  0.107120  0.532190  0.167690  1.0  0.1315
  H  H67  1  0.732050  0.365470  0.914320  1.0  0.1268
  H  H68  1  0.107120  0.532190  0.364500  1.0  0.1318
  H  H69  1  0.732050  0.634530  0.548850  1.0  0.1266
  H  H70  1  0.817320  0.781880  0.312950  1.0  0.1278
  H  H71  1  0.892880  0.532190  0.364500  1.0  0.132
  H  H72  1  0.267950  0.451150  0.365470  1.0  0.1259
  H  H73  1  0.428200  0.501260  0.332410  1.0  0.1233
  H  H74  1  0.344080  0.136080  0.685790  1.0  0.1214
  H  H75  1  0.182680  0.218120  0.531070  1.0  0.1278
  H  H76  1  0.892880  0.364500  0.532190  1.0  0.1298
  H  H77  1  0.145930  0.398260  0.398260  1.0  0.3854
  H  H78  1  0.267950  0.634530  0.085680  1.0  0.1254
  H  H79  1  0.571800  0.168850  0.501260  1.0  0.1244
  H  H80  1  0.107120  0.167690  0.532190  1.0  0.1294
  H  H81  1  0.571800  0.498740  0.831150  1.0  0.1244
  H  H82  1  0.344080  0.314210  0.863920  1.0  0.1232
  H  H83  1  0.732050  0.634530  0.085680  1.0  0.1255
  H  H84  1  0.781580  0.247830  0.495660  1.0  0.1454
  H  H85  1  0.107120  0.364500  0.532190  1.0  0.13
  H  H86  1  0.182680  0.312950  0.781880  1.0  0.1261
  H  H87  1  0.750750  0.560360  0.560360  1.0  0.3427
  H  H88  1  0.249250  0.439640  0.000000  1.0  0.3428
  H  H89  1  0.732050  0.548850  0.914320  1.0  0.1262
  H  H90  1  0.344080  0.450290  0.314210  1.0  0.121
  H  H91  1  0.218420  0.752170  0.504340  1.0  0.1447
  H  H92  1  0.267950  0.085680  0.451150  1.0  0.1269
  H  H93  1  0.655920  0.314210  0.863920  1.0  0.1212
  H  H94  1  0.107120  0.635500  0.467810  1.0  0.1302
  H  H95  1  0.750750  0.000000  0.560360  1.0  0.3434
  H  H96  1  0.571800  0.831150  0.498740  1.0  0.1244
  H  H97  1  0.781580  0.247830  0.752170  1.0  0.1451
  H  H98  1  0.182680  0.687050  0.218120  1.0  0.1272
  H  H99  1  0.107120  0.167690  0.635500  1.0  0.1301
  H  H100  1  0.571800  0.332410  0.501260  1.0  0.1256
  H  H101  1  0.892880  0.467810  0.635500  1.0  0.132
  H  H102  1  0.892880  0.832310  0.364500  1.0  0.1304
  H  H103  1  0.655920  0.685790  0.549710  1.0  0.1214
  H  H104  1  0.218420  0.495660  0.247830  1.0  0.1452
  H  H105  1  0.218420  0.504340  0.752170  1.0  0.1452
  H  H106  1  0.249250  0.560360  0.000000  1.0  0.3417
  H  H107  1  0.817320  0.687050  0.468930  1.0  0.1257
  H  H108  1  0.655920  0.863920  0.314210  1.0  0.1209
  H  H109  1  0.107120  0.635500  0.167690  1.0  0.1298
  H  H110  1  0.732050  0.365470  0.451150  1.0  0.126
  H  H111  1  0.571800  0.501260  0.168850  1.0  0.1245
  H  H112  1  0.344080  0.685790  0.136080  1.0  0.1226
  H  H113  1  0.655920  0.450290  0.314210  1.0  0.1205
  H  H114  1  0.817320  0.687050  0.218120  1.0  0.1267
  H  H115  1  0.571800  0.667590  0.498740  1.0  0.1252
  H  H116  1  0.655920  0.450290  0.136080  1.0  0.1203
  H  H117  1  0.655920  0.314210  0.450290  1.0  0.1223
  H  H118  1  0.182680  0.531070  0.218120  1.0  0.1292
  H  H119  1  0.428200  0.498740  0.831150  1.0  0.1237
  H  H120  1  0.750750  0.439640  0.000000  1.0  0.343
  H  H121  1  0.571800  0.501260  0.332410  1.0  0.124
  H  H122  1  0.107120  0.832310  0.364500  1.0  0.1299
  H  H123  1  0.892880  0.364500  0.832310  1.0  0.1302
  H  H124  1  0.892880  0.167690  0.635500  1.0  0.1302
  H  H125  1  0.655920  0.863920  0.549710  1.0  0.1251
  H  H126  1  0.107120  0.467810  0.635500  1.0  0.1315
  H  H127  1  0.571800  0.831150  0.332410  1.0  0.124
  H  H128  1  0.781580  0.495660  0.247830  1.0  0.1453
  H  H129  1  0.182680  0.468930  0.687050  1.0  0.1277
  H  H130  1  0.145930  0.000000  0.601740  1.0  0.3897
  H  H131  1  0.732050  0.085680  0.634530  1.0  0.1268
  H  H132  1  0.145930  0.601740  0.601740  1.0  0.388
  H  H133  1  0.732050  0.914320  0.365470  1.0  0.1273
  H  H134  1  0.267950  0.548850  0.914320  1.0  0.1257
  H  H135  1  0.732050  0.914320  0.548850  1.0  0.1271
  H  H136  1  0.107120  0.364500  0.832310  1.0  0.1301
  H  H137  1  0.892880  0.635500  0.467810  1.0  0.1302
  H  H138  1  0.655920  0.685790  0.136080  1.0  0.1264
  H  H139  1  0.218420  0.752170  0.247830  1.0  0.145
  H  H140  1  0.267950  0.365470  0.451150  1.0  0.1257
  H  H141  1  0.817320  0.531070  0.218120  1.0  0.1267
  H  H142  1  0.218420  0.247830  0.495660  1.0  0.1451
  H  H143  1  0.249250  0.439640  0.439640  1.0  0.3424
  H  H144  1  0.817320  0.468930  0.781880  1.0  0.1263
  H  H145  1  0.267950  0.914320  0.365470  1.0  0.127
  H  H146  1  0.344080  0.863920  0.314210  1.0  0.1245
  H  H147  1  0.145930  0.000000  0.398260  1.0  0.3835
  H  H148  1  0.571800  0.667590  0.168850  1.0  0.1251
  H  H149  1  0.655920  0.549710  0.863920  1.0  0.1223
  H  H150  1  0.249250  0.560360  0.560360  1.0  0.342
  H  H151  1  0.267950  0.085680  0.634530  1.0  0.1264
  H  H152  1  0.732050  0.085680  0.451150  1.0  0.127
  H  H153  1  0.428200  0.667590  0.168850  1.0  0.1247
  H  H154  1  0.428200  0.831150  0.332410  1.0  0.1236
  H  H155  1  0.817320  0.531070  0.312950  1.0  0.1259
  H  H156  1  0.107120  0.467810  0.832310  1.0  0.1318
  H  H157  1  0.145930  0.601740  0.000000  1.0  0.3887
  H  H158  1  0.854070  0.000000  0.398260  1.0  0.3844
  H  H159  1  0.781580  0.752170  0.504340  1.0  0.1448
  H  H160  1  0.182680  0.781880  0.468930  1.0  0.1277
  H  H161  1  0.750750  0.560360  0.000000  1.0  0.3422
  H  H162  1  0.750750  0.439640  0.439640  1.0  0.3423
  H  H163  1  0.571800  0.332410  0.831150  1.0  0.1256
  H  H164  1  0.655920  0.136080  0.450290  1.0  0.1212
  H  H165  1  0.145930  0.398260  0.000000  1.0  0.3863
  H  H166  1  0.344080  0.549710  0.685790  1.0  0.1204
  H  H167  1  0.817320  0.781880  0.468930  1.0  0.1293
  H  H168  1  0.344080  0.136080  0.450290  1.0  0.1242
  H  H169  1  0.854070  0.601740  0.601740  1.0  0.3887
  H  H170  1  0.655920  0.549710  0.685790  1.0  0.126
  H  H171  1  0.267950  0.634530  0.548850  1.0  0.126
  H  H172  1  0.218420  0.247830  0.752170  1.0  0.1452
  H  H173  1  0.817320  0.312950  0.781880  1.0  0.128
  H  H174  1  0.182680  0.531070  0.312950  1.0  0.1263
  C  C175  1  0.322370  0.507690  0.785300  1.0  -0.0949
  C  C176  1  0.796780  0.189560  0.676340  1.0  -0.0562
  C  C177  1  0.725530  0.691510  0.183330  1.0  -0.0292
  C  C178  1  0.706070  0.144210  0.674870  1.0  -0.0607
  C  C179  1  0.133390  0.493310  0.090240  1.0  0.6413
  C  C180  1  0.725530  0.491820  0.308490  1.0  -0.0288
  C  C181  1  0.866610  0.909760  0.403070  1.0  0.6413
  C  C182  1  0.841080  0.514100  0.354310  1.0  -0.0694
  C  C183  1  0.282820  0.505270  0.752630  1.0  0.0289
  C  C184  1  0.544210  0.494810  0.306120  1.0  -0.0881
  C  C185  1  0.841080  0.485900  0.840210  1.0  -0.0662
  C  C186  1  0.544210  0.505190  0.693880  1.0  -0.0867
  C  C187  1  0.677630  0.492310  0.214700  1.0  -0.0947
  C  C188  1  0.590430  0.724360  0.214980  1.0  0.0216
  C  C189  1  0.796780  0.810440  0.323660  1.0  -0.0545
  C  C190  1  0.179410  0.507860  0.628720  1.0  -0.0469
  C  C191  1  0.248170  0.530730  0.885670  1.0  -0.0762
  C  C192  1  0.866610  0.596930  0.506690  1.0  0.6424
  C  C193  1  0.866610  0.909760  0.506690  1.0  0.6415
  C  C194  1  0.158920  0.485900  0.840210  1.0  -0.067
  C  C195  1  0.717180  0.494730  0.247370  1.0  0.0315
  C  C196  1  0.274470  0.183330  0.491820  1.0  -0.028
  C  C197  1  0.751830  0.885670  0.530730  1.0  -0.0776
  C  C198  1  0.590430  0.275640  0.785020  1.0  0.0214
  C  C199  1  0.706070  0.855790  0.325130  1.0  -0.0626
  C  C200  1  0.717180  0.505270  0.752630  1.0  0.0302
  C  C201  1  0.322370  0.722390  0.507690  1.0  -0.0946
  C  C202  1  0.293930  0.469340  0.325130  1.0  -0.0627
  C  C203  1  0.179410  0.628720  0.120860  1.0  -0.0464
  C  C204  1  0.203220  0.676340  0.189560  1.0  -0.0575
  C  C205  1  0.179410  0.120860  0.628720  1.0  -0.0472
  C  C206  1  0.179410  0.628720  0.507860  1.0  -0.0468
  C  C207  1  0.133390  0.403070  0.909760  1.0  0.6412
  C  C208  1  0.455790  0.306120  0.811310  1.0  -0.089
  C  C209  1  0.133390  0.090240  0.493310  1.0  0.6407
  C  C210  1  0.546990  0.755380  0.244630  1.0  -0.04
  C  C211  1  0.293930  0.674870  0.144210  1.0  -0.0611
  C  C212  1  0.725530  0.183330  0.691510  1.0  -0.0293
  C  C213  1  0.544210  0.693880  0.505190  1.0  -0.0881
  C  C214  1  0.841080  0.354310  0.840210  1.0  -0.0682
  C  C215  1  0.203220  0.513220  0.189560  1.0  -0.0593
  C  C216  1  0.725530  0.491820  0.183330  1.0  -0.029
  C  C217  1  0.322370  0.785300  0.507690  1.0  -0.095
  C  C218  1  0.203220  0.323660  0.513220  1.0  -0.0572
  C  C219  1  0.706070  0.530660  0.674870  1.0  -0.0644
  C  C220  1  0.409570  0.785020  0.275640  1.0  0.0221
  C  C221  1  0.706070  0.530660  0.855790  1.0  -0.0654
  C  C222  1  0.409570  0.490620  0.275640  1.0  0.0147
  C  C223  1  0.706070  0.469340  0.144210  1.0  -0.0624
  C  C224  1  0.796780  0.676340  0.189560  1.0  -0.0545
  C  C225  1  0.717180  0.752640  0.247370  1.0  0.0316
  C  C226  1  0.455790  0.188690  0.693880  1.0  -0.0909
  C  C227  1  0.677630  0.722390  0.214700  1.0  -0.0947
  C  C228  1  0.866610  0.403070  0.493310  1.0  0.6417
  C  C229  1  0.677630  0.507690  0.722390  1.0  -0.095
  C  C230  1  0.158920  0.354310  0.840210  1.0  -0.0662
  C  C231  1  0.282820  0.494730  0.247370  1.0  0.0291
  C  C232  1  0.544210  0.811310  0.306120  1.0  -0.0904
  C  C233  1  0.706070  0.674870  0.144210  1.0  -0.0576
  C  C234  1  0.455790  0.306120  0.494810  1.0  -0.0911
  C  C235  1  0.293930  0.855790  0.530660  1.0  -0.0612
  C  C236  1  0.841080  0.159790  0.514100  1.0  -0.0668
  C  C237  1  0.158920  0.159790  0.645690  1.0  -0.0682
  C  C238  1  0.841080  0.485900  0.645690  1.0  -0.0659
  C  C239  1  0.677630  0.492310  0.277610  1.0  -0.0953
  C  C240  1  0.158920  0.514100  0.159790  1.0  -0.0685
  C  C241  1  0.282820  0.247360  0.494730  1.0  0.0306
  C  C242  1  0.409570  0.214980  0.724360  1.0  0.016
  C  C243  1  0.751830  0.354940  0.885670  1.0  -0.0756
  C  C244  1  0.544210  0.505190  0.811310  1.0  -0.0886
  C  C245  1  0.158920  0.485900  0.645690  1.0  -0.0678
  C  C246  1  0.248170  0.885670  0.530730  1.0  -0.0793
  C  C247  1  0.841080  0.840210  0.485900  1.0  -0.067
  C  C248  1  0.725530  0.308490  0.491820  1.0  -0.0296
  C  C249  1  0.455790  0.494810  0.188690  1.0  -0.0934
  C  C250  1  0.820590  0.628720  0.507860  1.0  -0.0465
  C  C251  1  0.282820  0.247360  0.752630  1.0  0.0291
  C  C252  1  0.409570  0.509380  0.724360  1.0  0.0153
  C  C253  1  0.820590  0.120860  0.628720  1.0  -0.0469
  C  C254  1  0.725530  0.308490  0.816670  1.0  -0.0296
  C  C255  1  0.820590  0.628720  0.120860  1.0  -0.0461
  C  C256  1  0.796780  0.810440  0.486780  1.0  -0.0551
  C  C257  1  0.866610  0.506690  0.596930  1.0  0.642
  C  C258  1  0.409570  0.509380  0.785020  1.0  0.0215
  C  C259  1  0.544210  0.306120  0.494810  1.0  -0.0865
  C  C260  1  0.866610  0.090240  0.493310  1.0  0.6413
  C  C261  1  0.866610  0.506690  0.909760  1.0  0.6416
  C  C262  1  0.158920  0.840210  0.485900  1.0  -0.0673
  C  C263  1  0.455790  0.188690  0.494810  1.0  -0.0901
  C  C264  1  0.866610  0.493310  0.090240  1.0  0.6418
  C  C265  1  0.820590  0.371280  0.492140  1.0  -0.0458
  C  C266  1  0.322370  0.507690  0.722390  1.0  -0.0948
  C  C267  1  0.751830  0.885670  0.354940  1.0  -0.0776
  C  C268  1  0.293930  0.469340  0.144210  1.0  -0.0623
  C  C269  1  0.544210  0.188690  0.693880  1.0  -0.0895
  C  C270  1  0.455790  0.505190  0.811310  1.0  -0.0879
  C  C271  1  0.203220  0.486780  0.810440  1.0  -0.0582
  C  C272  1  0.274470  0.691510  0.183330  1.0  -0.0282
  C  C273  1  0.203220  0.189560  0.676340  1.0  -0.0584
  C  C274  1  0.820590  0.492140  0.120860  1.0  -0.0463
  C  C275  1  0.455790  0.693880  0.188690  1.0  -0.09
  C  C276  1  0.133390  0.403070  0.493310  1.0  0.641
  C  C277  1  0.293930  0.530660  0.674870  1.0  -0.0632
  C  C278  1  0.158920  0.354310  0.514100  1.0  -0.0662
  C  C279  1  0.706070  0.469340  0.325130  1.0  -0.0597
  C  C280  1  0.590430  0.490620  0.214980  1.0  0.0146
  C  C281  1  0.455790  0.811310  0.505190  1.0  -0.0922
  C  C282  1  0.293930  0.855790  0.325130  1.0  -0.0583
  C  C283  1  0.453010  0.244620  0.755370  1.0  -0.0352
  C  C284  1  0.677630  0.785300  0.277610  1.0  -0.0954
  C  C285  1  0.751830  0.645060  0.530730  1.0  -0.0747
  C  C286  1  0.841080  0.514100  0.159790  1.0  -0.069
  C  C287  1  0.866610  0.090240  0.596930  1.0  0.6416
  C  C288  1  0.179410  0.492140  0.371280  1.0  -0.0459
  C  C289  1  0.725530  0.816670  0.508180  1.0  -0.03
  C  C290  1  0.248170  0.885670  0.354940  1.0  -0.0802
  C  C291  1  0.409570  0.275640  0.785020  1.0  0.015
  C  C292  1  0.158920  0.645690  0.485900  1.0  -0.0663
  C  C293  1  0.158920  0.840210  0.354310  1.0  -0.068
  C  C294  1  0.590430  0.724360  0.509380  1.0  0.0152
  C  C295  1  0.546990  0.755370  0.510750  1.0  -0.035
  C  C296  1  0.409570  0.214980  0.490620  1.0  0.0264
  C  C297  1  0.248170  0.114330  0.645060  1.0  -0.075
  C  C298  1  0.796780  0.323660  0.513220  1.0  -0.0542
  C  C299  1  0.274470  0.691510  0.508180  1.0  -0.0282
  C  C300  1  0.841080  0.159790  0.645690  1.0  -0.0671
  C  C301  1  0.866610  0.403070  0.909760  1.0  0.642
  C  C302  1  0.546990  0.489250  0.244630  1.0  -0.0351
  C  C303  1  0.796780  0.323660  0.810440  1.0  -0.0561
  C  C304  1  0.274470  0.816670  0.308490  1.0  -0.0288
  C  C305  1  0.133390  0.596930  0.090240  1.0  0.6413
  C  C306  1  0.717180  0.247360  0.494720  1.0  0.0301
  C  C307  1  0.248170  0.354940  0.885670  1.0  -0.0748
  C  C308  1  0.133390  0.909760  0.403070  1.0  0.6405
  C  C309  1  0.274470  0.308490  0.816670  1.0  -0.0287
  C  C310  1  0.796780  0.486780  0.810440  1.0  -0.056
  C  C311  1  0.203220  0.810440  0.486780  1.0  -0.0571
  C  C312  1  0.590430  0.275640  0.490620  1.0  0.0271
  C  C313  1  0.293930  0.144210  0.674870  1.0  -0.0607
  C  C314  1  0.590430  0.785020  0.509380  1.0  0.0226
  C  C315  1  0.866610  0.493310  0.403070  1.0  0.6417
  C  C316  1  0.179410  0.120860  0.492140  1.0  -0.0474
  C  C317  1  0.841080  0.645690  0.485900  1.0  -0.0665
  C  C318  1  0.706070  0.325130  0.469340  1.0  -0.0611
  C  C319  1  0.820590  0.879140  0.371280  1.0  -0.0468
  C  C320  1  0.274470  0.508180  0.691510  1.0  -0.0279
  C  C321  1  0.274470  0.308490  0.491820  1.0  -0.0286
  C  C322  1  0.841080  0.645690  0.159790  1.0  -0.0656
  C  C323  1  0.677630  0.277610  0.492310  1.0  -0.0948
  C  C324  1  0.751830  0.114330  0.469270  1.0  -0.0751
  C  C325  1  0.158920  0.645690  0.159790  1.0  -0.0665
  C  C326  1  0.717180  0.247360  0.752630  1.0  0.0301
  C  C327  1  0.133390  0.506690  0.596930  1.0  0.6412
  C  C328  1  0.293930  0.325130  0.855790  1.0  -0.0571
  C  C329  1  0.751830  0.530730  0.645060  1.0  -0.0785
  C  C330  1  0.133390  0.596930  0.506690  1.0  0.6417
  C  C331  1  0.820590  0.371280  0.879140  1.0  -0.0462
  C  C332  1  0.544210  0.494810  0.188690  1.0  -0.0881
  C  C333  1  0.455790  0.811310  0.306120  1.0  -0.0931
  C  C334  1  0.274470  0.491820  0.183330  1.0  -0.0281
  C  C335  1  0.248170  0.469270  0.114330  1.0  -0.0751
  C  C336  1  0.677630  0.214700  0.492310  1.0  -0.0943
  C  C337  1  0.725530  0.816670  0.308490  1.0  -0.0296
  C  C338  1  0.544210  0.693880  0.188690  1.0  -0.0856
  C  C339  1  0.546990  0.244620  0.755370  1.0  -0.039
  C  C340  1  0.677630  0.722390  0.507690  1.0  -0.095
  C  C341  1  0.248170  0.645060  0.114330  1.0  -0.0781
  C  C342  1  0.590430  0.214980  0.490620  1.0  0.0257
  C  C343  1  0.590430  0.509380  0.724360  1.0  0.0216
  C  C344  1  0.677630  0.507690  0.785300  1.0  -0.095
  C  C345  1  0.706070  0.674870  0.530660  1.0  -0.0607
  C  C346  1  0.725530  0.508180  0.816670  1.0  -0.0287
  C  C347  1  0.706070  0.144210  0.469340  1.0  -0.0615
  C  C348  1  0.248170  0.354940  0.469270  1.0  -0.076
  C  C349  1  0.248170  0.645060  0.530730  1.0  -0.0746
  C  C350  1  0.544210  0.811310  0.505190  1.0  -0.0909
  C  C351  1  0.248170  0.469270  0.354940  1.0  -0.0758
  C  C352  1  0.274470  0.491820  0.308490  1.0  -0.0279
  C  C353  1  0.820590  0.879140  0.507860  1.0  -0.0464
  C  C354  1  0.409570  0.724360  0.214980  1.0  0.0151
  C  C355  1  0.322370  0.277610  0.785300  1.0  -0.0952
  C  C356  1  0.751830  0.114330  0.645060  1.0  -0.0757
  C  C357  1  0.248170  0.530730  0.645060  1.0  -0.077
  C  C358  1  0.179410  0.507860  0.879140  1.0  -0.0465
  C  C359  1  0.274470  0.183330  0.691510  1.0  -0.0283
  C  C360  1  0.546990  0.510750  0.755380  1.0  -0.0419
  C  C361  1  0.866610  0.596930  0.090240  1.0  0.642
  C  C362  1  0.133390  0.506690  0.909760  1.0  0.641
  C  C363  1  0.546990  0.244620  0.489240  1.0  -0.041
  C  C364  1  0.179410  0.879140  0.507860  1.0  -0.0467
  C  C365  1  0.409570  0.724360  0.509380  1.0  0.0219
  C  C366  1  0.590430  0.214980  0.724360  1.0  0.0159
  C  C367  1  0.544210  0.188690  0.494810  1.0  -0.0915
  C  C368  1  0.203220  0.513220  0.323660  1.0  -0.0596
  C  C369  1  0.796780  0.486780  0.676340  1.0  -0.055
  C  C370  1  0.796780  0.676340  0.486780  1.0  -0.0564
  C  C371  1  0.544210  0.306120  0.811310  1.0  -0.0913
  C  C372  1  0.677630  0.214700  0.722390  1.0  -0.0952
  C  C373  1  0.293930  0.325130  0.469340  1.0  -0.0617
  C  C374  1  0.282820  0.752640  0.505280  1.0  0.031
  C  C375  1  0.590430  0.785020  0.275640  1.0  0.0152
  C  C376  1  0.820590  0.507860  0.879140  1.0  -0.0463
  C  C377  1  0.453010  0.755380  0.510750  1.0  -0.0407
  C  C378  1  0.409570  0.275640  0.490620  1.0  0.0218
  C  C379  1  0.841080  0.354310  0.514100  1.0  -0.0656
  C  C380  1  0.725530  0.691510  0.508180  1.0  -0.0291
  C  C381  1  0.820590  0.507860  0.628720  1.0  -0.0466
  C  C382  1  0.590430  0.509380  0.785020  1.0  0.0149
  C  C383  1  0.248170  0.114330  0.469270  1.0  -0.0767
  C  C384  1  0.455790  0.505190  0.693880  1.0  -0.0903
  C  C385  1  0.409570  0.785020  0.509380  1.0  0.0159
  C  C386  1  0.725530  0.508180  0.691510  1.0  -0.0289
  C  C387  1  0.453010  0.489250  0.244630  1.0  -0.0376
  C  C388  1  0.751830  0.469270  0.114330  1.0  -0.0759
  C  C389  1  0.751830  0.645060  0.114330  1.0  -0.0758
  C  C390  1  0.274470  0.508180  0.816670  1.0  -0.0278
  C  C391  1  0.322370  0.785300  0.277610  1.0  -0.095
  C  C392  1  0.706070  0.325130  0.855790  1.0  -0.0577
  C  C393  1  0.409570  0.490620  0.214980  1.0  0.0211
  C  C394  1  0.677630  0.785300  0.507690  1.0  -0.0952
  C  C395  1  0.796780  0.513220  0.189560  1.0  -0.0566
  C  C396  1  0.725530  0.183330  0.491820  1.0  -0.029
  C  C397  1  0.322370  0.492310  0.214700  1.0  -0.0947
  C  C398  1  0.820590  0.120860  0.492140  1.0  -0.0471
  C  C399  1  0.133390  0.909760  0.506690  1.0  0.6409
  C  C400  1  0.133390  0.090240  0.596930  1.0  0.6409
  C  C401  1  0.677630  0.277610  0.785300  1.0  -0.0952
  C  C402  1  0.717180  0.752630  0.505270  1.0  0.0305
  C  C403  1  0.751830  0.354940  0.469270  1.0  -0.0762
  C  C404  1  0.455790  0.494810  0.306120  1.0  -0.0888
  C  C405  1  0.820590  0.492140  0.371280  1.0  -0.0457
  C  C406  1  0.203220  0.323660  0.810440  1.0  -0.0578
  C  C407  1  0.293930  0.144210  0.469340  1.0  -0.061
  C  C408  1  0.751830  0.530730  0.885670  1.0  -0.0774
  C  C409  1  0.133390  0.493310  0.403070  1.0  0.6412
  C  C410  1  0.293930  0.674870  0.530660  1.0  -0.0597
  C  C411  1  0.751830  0.469270  0.354940  1.0  -0.0755
  C  C412  1  0.158920  0.514100  0.354310  1.0  -0.0696
  C  C413  1  0.322370  0.722390  0.214700  1.0  -0.0948
  C  C414  1  0.179410  0.371280  0.879140  1.0  -0.0465
  C  C415  1  0.203220  0.486780  0.676340  1.0  -0.0575
  C  C416  1  0.179410  0.371280  0.492140  1.0  -0.0461
  C  C417  1  0.322370  0.214700  0.722390  1.0  -0.0949
  C  C418  1  0.453010  0.244620  0.489250  1.0  -0.0339
  C  C419  1  0.282820  0.752630  0.247360  1.0  0.0296
  C  C420  1  0.274470  0.816670  0.508180  1.0  -0.029
  C  C421  1  0.322370  0.214700  0.492310  1.0  -0.0947
  C  C422  1  0.203220  0.189560  0.513220  1.0  -0.0583
  C  C423  1  0.293930  0.530660  0.855790  1.0  -0.0639
  C  C424  1  0.203220  0.676340  0.486780  1.0  -0.058
  C  C425  1  0.179410  0.879140  0.371280  1.0  -0.0471
  C  C426  1  0.841080  0.840210  0.354310  1.0  -0.0648
  C  C427  1  0.322370  0.277610  0.492310  1.0  -0.0951
  C  C428  1  0.796780  0.513220  0.323660  1.0  -0.0576
  C  C429  1  0.796780  0.189560  0.513220  1.0  -0.0555
  C  C430  1  0.158920  0.159790  0.514100  1.0  -0.0684
  C  C431  1  0.322370  0.492310  0.277610  1.0  -0.095
  C  C432  1  0.203220  0.810440  0.323660  1.0  -0.0568
  C  C433  1  0.453010  0.510750  0.755370  1.0  -0.0409
  C  C434  1  0.453010  0.755370  0.244620  1.0  -0.039
  C  C435  1  0.179410  0.492140  0.120860  1.0  -0.0466
  C  C436  1  0.455790  0.693880  0.505190  1.0  -0.0908
  C  C437  1  0.590430  0.490620  0.275640  1.0  0.0147
  C  C438  1  0.706070  0.855790  0.530660  1.0  -0.0624
  O  O439  1  0.105450  0.483020  0.966040  1.0  -0.8368
  O  O440  1  0.850000  0.414650  0.945330  1.0  -0.5858
  O  O441  1  0.077190  0.581030  0.099650  1.0  -0.5839
  O  O442  1  0.228340  0.462210  0.000000  1.0  -0.6041
  O  O443  1  0.228340  0.000000  0.537790  1.0  -0.6005
  O  O444  1  0.105450  0.516980  0.033960  1.0  -0.8352
  O  O445  1  0.228340  0.000000  0.462210  1.0  -0.6018
  O  O446  1  0.894550  0.516980  0.033960  1.0  -0.834
  O  O447  1  0.150000  0.585350  0.530680  1.0  -0.5868
  O  O448  1  0.077190  0.518620  0.418970  1.0  -0.585
  O  O449  1  0.150000  0.054670  0.469320  1.0  -0.5869
  O  O450  1  0.894550  0.966040  0.483020  1.0  -0.8362
  O  O451  1  0.077190  0.900350  0.481380  1.0  -0.5865
  O  O452  1  0.150000  0.414650  0.945330  1.0  -0.5858
  O  O453  1  0.000000  0.033970  0.473740  1.0  -0.9617
  O  O454  1  0.000000  0.473740  0.439770  1.0  -0.963
  O  O455  1  0.077190  0.099650  0.581030  1.0  -0.5862
  O  O456  1  0.894550  0.033960  0.516980  1.0  -0.8356
  O  O457  1  0.000000  0.439770  0.473740  1.0  -0.9625
  O  O458  1  0.922810  0.581030  0.481380  1.0  -0.5856
  O  O459  1  0.909030  0.407010  0.000000  1.0  -0.5922
  O  O460  1  0.771660  0.462210  0.000000  1.0  -0.6051
  O  O461  1  0.000000  0.473740  0.033970  1.0  -0.9648
  O  O462  1  0.922810  0.418970  0.518620  1.0  -0.5848
  O  O463  1  0.909030  0.000000  0.592990  1.0  -0.5914
  O  O464  1  0.922810  0.099650  0.518620  1.0  -0.5863
  O  O465  1  0.922810  0.518620  0.099650  1.0  -0.5871
  O  O466  1  0.909030  0.592990  0.592990  1.0  -0.5946
  O  O467  1  0.150000  0.945330  0.414650  1.0  -0.5865
  O  O468  1  0.000000  0.966030  0.526260  1.0  -0.9629
  O  O469  1  0.922810  0.481380  0.581030  1.0  -0.5872
  O  O470  1  0.000000  0.526260  0.966030  1.0  -0.9627
  O  O471  1  0.771660  0.000000  0.537790  1.0  -0.6003
  O  O472  1  0.077190  0.481380  0.581030  1.0  -0.5866
  O  O473  1  0.850000  0.530680  0.945330  1.0  -0.5878
  O  O474  1  0.850000  0.469320  0.414650  1.0  -0.5875
  O  O475  1  0.850000  0.469320  0.054670  1.0  -0.5872
  O  O476  1  0.922810  0.418970  0.900350  1.0  -0.5863
  O  O477  1  0.850000  0.054670  0.585350  1.0  -0.5879
  O  O478  1  0.105450  0.483020  0.516980  1.0  -0.8357
  O  O479  1  0.090970  0.407010  0.000000  1.0  -0.5913
  O  O480  1  0.000000  0.966030  0.439770  1.0  -0.9615
  O  O481  1  0.909030  0.592990  0.000000  1.0  -0.595
  O  O482  1  0.922810  0.900350  0.481380  1.0  -0.5864
  O  O483  1  0.105450  0.033960  0.516980  1.0  -0.8367
  O  O484  1  0.850000  0.414650  0.469320  1.0  -0.5862
  O  O485  1  0.922810  0.518620  0.418970  1.0  -0.5854
  O  O486  1  0.090970  0.592990  0.000000  1.0  -0.5939
  O  O487  1  0.150000  0.530680  0.945330  1.0  -0.588
  O  O488  1  0.922810  0.481380  0.900350  1.0  -0.5866
  O  O489  1  0.077190  0.518620  0.099650  1.0  -0.5866
  O  O490  1  0.077190  0.481380  0.900350  1.0  -0.5865
  O  O491  1  0.105450  0.516980  0.483020  1.0  -0.8367
  O  O492  1  0.150000  0.585350  0.054670  1.0  -0.5861
  O  O493  1  0.150000  0.945330  0.530680  1.0  -0.5882
  O  O494  1  0.894550  0.483020  0.966040  1.0  -0.8355
  O  O495  1  0.150000  0.054670  0.585350  1.0  -0.5885
  O  O496  1  0.000000  0.560230  0.526260  1.0  -0.9614
  O  O497  1  0.894550  0.516980  0.483020  1.0  -0.8353
  O  O498  1  0.850000  0.585350  0.530680  1.0  -0.586
  O  O499  1  0.894550  0.483020  0.516980  1.0  -0.8345
  O  O500  1  0.077190  0.418970  0.900350  1.0  -0.5859
  O  O501  1  0.922810  0.099650  0.581030  1.0  -0.5864
  O  O502  1  0.771660  0.537790  0.537790  1.0  -0.6039
  O  O503  1  0.077190  0.099650  0.518620  1.0  -0.5861
  O  O504  1  0.077190  0.418970  0.518620  1.0  -0.5845
  O  O505  1  0.150000  0.469320  0.054670  1.0  -0.5872
  O  O506  1  0.000000  0.526260  0.560230  1.0  -0.9634
  O  O507  1  0.771660  0.537790  0.000000  1.0  -0.6042
  O  O508  1  0.090970  0.592990  0.592990  1.0  -0.5942
  O  O509  1  0.850000  0.945330  0.530680  1.0  -0.5883
  O  O510  1  0.077190  0.900350  0.418970  1.0  -0.5867
  O  O511  1  0.228340  0.537790  0.537790  1.0  -0.6042
  O  O512  1  0.000000  0.560230  0.033970  1.0  -0.9614
  O  O513  1  0.090970  0.000000  0.407010  1.0  -0.5897
  O  O514  1  0.150000  0.530680  0.585350  1.0  -0.5874
  O  O515  1  0.228340  0.537790  0.000000  1.0  -0.6046
  O  O516  1  0.771660  0.000000  0.462210  1.0  -0.6029
  O  O517  1  0.850000  0.585350  0.054670  1.0  -0.5857
  O  O518  1  0.909030  0.407010  0.407010  1.0  -0.5922
  O  O519  1  0.090970  0.407010  0.407010  1.0  -0.5913
  O  O520  1  0.909030  0.000000  0.407010  1.0  -0.5913
  O  O521  1  0.922810  0.581030  0.099650  1.0  -0.5845
  O  O522  1  0.850000  0.945330  0.414650  1.0  -0.5871
  O  O523  1  0.090970  0.000000  0.592990  1.0  -0.592
  O  O524  1  0.771660  0.462210  0.462210  1.0  -0.6053
  O  O525  1  0.150000  0.414650  0.469320  1.0  -0.5858
  O  O526  1  0.850000  0.530680  0.585350  1.0  -0.5876
  O  O527  1  0.077190  0.581030  0.481380  1.0  -0.5848
  O  O528  1  0.150000  0.469320  0.414650  1.0  -0.5876
  O  O529  1  0.850000  0.054670  0.469320  1.0  -0.5869
  O  O530  1  0.228340  0.462210  0.462210  1.0  -0.6045
  O  O531  1  0.105450  0.966040  0.483020  1.0  -0.8376
  O  O532  1  0.000000  0.033970  0.560230  1.0  -0.9626
  O  O533  1  0.000000  0.439770  0.966030  1.0  -0.9622
  O  O534  1  0.922810  0.900350  0.418970  1.0  -0.5866
