# generated using pymatgen
data_Zr3H28C48(NO3)4
_symmetry_space_group_name_H-M   'P 1'
_cell_length_a   16.58130000
_cell_length_b   16.58130000
_cell_length_c   40.86810000
_cell_angle_alpha   78.29470000
_cell_angle_beta   78.29470000
_cell_angle_gamma   89.99800000
_symmetry_Int_Tables_number   1
_chemical_formula_structural   Zr3H28C48(NO3)4
_chemical_formula_sum   'Zr12 H112 C192 N16 O48'
_cell_volume   10763.86353171
_cell_formula_units_Z   4
loop_
 _symmetry_equiv_pos_site_id
 _symmetry_equiv_pos_as_xyz
  1  'x, y, z'
loop_
 _atom_site_type_symbol
 _atom_site_label
 _atom_site_symmetry_multiplicity
 _atom_site_fract_x
 _atom_site_fract_y
 _atom_site_fract_z
 _atom_site_occupancy
 _atom_site_charge
  Zr  Zr1  1  0.093880  0.343880  0.312240  1.0  2.0211
  Zr  Zr2  1  0.018480  0.481520  0.250000  1.0  1.9866
  Zr  Zr3  1  0.231520  0.268480  0.250000  1.0  1.9818
  Zr  Zr4  1  0.768480  0.518480  0.750000  1.0  1.984
  Zr  Zr5  1  0.981520  0.518480  0.750000  1.0  1.9818
  Zr  Zr6  1  0.981520  0.731520  0.750000  1.0  1.9845
  Zr  Zr7  1  0.156120  0.406120  0.187760  1.0  2.0165
  Zr  Zr8  1  0.906120  0.656120  0.687760  1.0  2.0198
  Zr  Zr9  1  0.843880  0.593880  0.812240  1.0  2.0214
  Zr  Zr10  1  0.768480  0.731520  0.750000  1.0  1.9866
  Zr  Zr11  1  0.018480  0.268480  0.250000  1.0  1.984
  Zr  Zr12  1  0.231520  0.481520  0.250000  1.0  1.9845
  H  H13  1  0.680700  0.420700  0.665200  1.0  0.1055
  H  H14  1  0.888300  0.288800  0.938200  1.0  0.1028
  H  H15  1  0.207500  0.368600  0.394800  1.0  0.1026
  H  H16  1  0.414100  0.654100  0.165200  1.0  0.1044
  H  H17  1  0.013300  0.015400  0.969200  1.0  0.2173
  H  H18  1  0.792500  0.763400  0.605200  1.0  0.101
  H  H19  1  0.517500  0.015400  0.969200  1.0  0.2199
  H  H20  1  0.351400  0.866300  0.121000  1.0  0.1046
  H  H21  1  0.792500  0.631400  0.605200  1.0  0.1025
  H  H22  1  0.515400  0.017500  0.469200  1.0  0.2207
  H  H23  1  0.273000  0.173500  0.438200  1.0  0.1019
  H  H24  1  0.214900  0.030100  0.469200  1.0  0.1157
  H  H25  1  0.482500  0.984600  0.030800  1.0  0.2185
  H  H26  1  0.815900  0.500700  0.469200  1.0  0.1169
  H  H27  1  0.319300  0.085900  0.334800  1.0  0.1045
  H  H28  1  0.263400  0.602300  0.105200  1.0  0.1038
  H  H29  1  0.487300  0.472400  0.379000  1.0  0.1034
  H  H30  1  0.319300  0.579300  0.334800  1.0  0.1058
  H  H31  1  0.571400  0.500000  0.500000  1.0  0.2276
  H  H32  1  0.079300  0.819300  0.834800  1.0  0.1057
  H  H33  1  0.785100  0.969900  0.530800  1.0  0.1141
  H  H34  1  0.273000  0.388300  0.438200  1.0  0.1057
  H  H35  1  0.366300  0.527600  0.621000  1.0  0.1029
  H  H36  1  0.428600  0.500000  0.500000  1.0  0.2272
  H  H37  1  0.617400  0.399100  0.621200  1.0  0.1175
  H  H38  1  0.261400  0.979700  0.621200  1.0  0.1173
  H  H39  1  0.788800  0.173500  0.438200  1.0  0.1023
  H  H40  1  0.102300  0.631400  0.605200  1.0  0.1039
  H  H41  1  0.999300  0.285100  0.030800  1.0  0.1153
  H  H42  1  0.999300  0.684100  0.030800  1.0  0.1175
  H  H43  1  0.648600  0.987300  0.879000  1.0  0.1039
  H  H44  1  0.868600  0.397700  0.894800  1.0  0.105
  H  H45  1  0.515400  0.513300  0.469200  1.0  0.2178
  H  H46  1  0.027600  0.866300  0.121000  1.0  0.1028
  H  H47  1  0.888300  0.773000  0.938200  1.0  0.1054
  H  H48  1  0.920700  0.180700  0.165200  1.0  0.1057
  H  H49  1  0.673500  0.773000  0.938200  1.0  0.1015
  H  H50  1  0.633700  0.148600  0.379000  1.0  0.1041
  H  H51  1  0.366300  0.851400  0.621000  1.0  0.105
  H  H52  1  0.207500  0.236600  0.394800  1.0  0.1011
  H  H53  1  0.414100  0.180700  0.165200  1.0  0.1043
  H  H54  1  0.585900  0.819300  0.834800  1.0  0.1043
  H  H55  1  0.845900  0.085900  0.334800  1.0  0.1044
  H  H56  1  0.382600  0.600900  0.378800  1.0  0.1176
  H  H57  1  0.382600  0.020300  0.378800  1.0  0.1166
  H  H58  1  0.154100  0.420700  0.665200  1.0  0.1047
  H  H59  1  0.986700  0.984600  0.030800  1.0  0.2185
  H  H60  1  0.111700  0.227000  0.061800  1.0  0.1054
  H  H61  1  0.000700  0.714900  0.969200  1.0  0.115
  H  H62  1  0.738600  0.600900  0.378800  1.0  0.116
  H  H63  1  0.920700  0.654100  0.165200  1.0  0.1051
  H  H64  1  0.102300  0.763400  0.605200  1.0  0.1038
  H  H65  1  0.484600  0.982500  0.530800  1.0  0.2191
  H  H66  1  0.815900  0.030100  0.469200  1.0  0.1162
  H  H67  1  0.100900  0.238600  0.878800  1.0  0.1136
  H  H68  1  0.897700  0.368600  0.394800  1.0  0.1035
  H  H69  1  0.899100  0.117400  0.121200  1.0  0.1194
  H  H70  1  0.512700  0.527600  0.621000  1.0  0.1033
  H  H71  1  0.520300  0.238600  0.878800  1.0  0.1164
  H  H72  1  0.184100  0.969900  0.530800  1.0  0.1165
  H  H73  1  0.500000  0.071400  0.000000  1.0  0.2277
  H  H74  1  0.479700  0.117400  0.121200  1.0  0.1158
  H  H75  1  0.261400  0.399100  0.621200  1.0  0.1138
  H  H76  1  0.154100  0.914100  0.665200  1.0  0.1047
  H  H77  1  0.530100  0.315900  0.969200  1.0  0.1154
  H  H78  1  0.530100  0.714900  0.969200  1.0  0.1157
  H  H79  1  0.680700  0.914100  0.665200  1.0  0.1047
  H  H80  1  0.972400  0.987300  0.879000  1.0  0.1025
  H  H81  1  0.000000  0.071400  0.000000  1.0  0.2264
  H  H82  1  0.263400  0.292500  0.105200  1.0  0.1018
  H  H83  1  0.351400  0.012700  0.121000  1.0  0.1021
  H  H84  1  0.111700  0.711200  0.061800  1.0  0.1031
  H  H85  1  0.100900  0.882600  0.878800  1.0  0.1187
  H  H86  1  0.571400  0.000000  0.500000  1.0  0.2274
  H  H87  1  0.326500  0.227000  0.061800  1.0  0.1026
  H  H88  1  0.027600  0.012700  0.121000  1.0  0.1027
  H  H89  1  0.500000  0.928600  0.000000  1.0  0.2293
  H  H90  1  0.326500  0.711200  0.061800  1.0  0.1034
  H  H91  1  0.897700  0.236600  0.394800  1.0  0.105
  H  H92  1  0.633700  0.472400  0.379000  1.0  0.1026
  H  H93  1  0.484600  0.486700  0.530800  1.0  0.2176
  H  H94  1  0.131400  0.602300  0.105200  1.0  0.1041
  H  H95  1  0.736600  0.397700  0.894800  1.0  0.104
  H  H96  1  0.727000  0.611700  0.561800  1.0  0.1063
  H  H97  1  0.972400  0.133700  0.879000  1.0  0.0999
  H  H98  1  0.211200  0.611700  0.561800  1.0  0.1022
  H  H99  1  0.520300  0.882600  0.878800  1.0  0.1165
  H  H100  1  0.131400  0.292500  0.105200  1.0  0.1039
  H  H101  1  0.469900  0.684100  0.030800  1.0  0.1156
  H  H102  1  0.785100  0.499300  0.530800  1.0  0.1142
  H  H103  1  0.617400  0.979700  0.621200  1.0  0.1175
  H  H104  1  0.788800  0.388300  0.438200  1.0  0.103
  H  H105  1  0.845900  0.579300  0.334800  1.0  0.1049
  H  H106  1  0.512700  0.851400  0.621000  1.0  0.1052
  H  H107  1  0.585900  0.345900  0.834800  1.0  0.1044
  H  H108  1  0.000000  0.928600  0.000000  1.0  0.2287
  H  H109  1  0.000700  0.315900  0.969200  1.0  0.1173
  H  H110  1  0.079300  0.345900  0.834800  1.0  0.1052
  H  H111  1  0.899100  0.761400  0.121200  1.0  0.1137
  H  H112  1  0.868600  0.707500  0.894800  1.0  0.1045
  H  H113  1  0.214900  0.500700  0.469200  1.0  0.1148
  H  H114  1  0.673500  0.288800  0.938200  1.0  0.1017
  H  H115  1  0.184100  0.499300  0.530800  1.0  0.1168
  H  H116  1  0.727000  0.826500  0.561800  1.0  0.1025
  H  H117  1  0.648600  0.133700  0.879000  1.0  0.1042
  H  H118  1  0.469900  0.285100  0.030800  1.0  0.1151
  H  H119  1  0.736600  0.707500  0.894800  1.0  0.1022
  H  H120  1  0.738600  0.020300  0.378800  1.0  0.1161
  H  H121  1  0.479700  0.761400  0.121200  1.0  0.1166
  H  H122  1  0.428600  0.000000  0.500000  1.0  0.2278
  H  H123  1  0.487300  0.148600  0.379000  1.0  0.1043
  H  H124  1  0.211200  0.826500  0.561800  1.0  0.1034
  C  C125  1  0.927190  0.782690  0.917220  1.0  -0.1393
  C  C126  1  0.027150  0.242650  0.139100  1.0  -0.1429
  C  C127  1  0.407680  0.748380  0.087440  1.0  0.0372
  C  C128  1  0.956740  0.721440  0.832520  1.0  0.7385
  C  C129  1  0.751620  0.092320  0.412560  1.0  0.0379
  C  C130  1  0.243460  0.415560  0.391480  1.0  -0.0554
  C  C131  1  0.002320  0.178220  0.938560  1.0  -0.1046
  C  C132  1  0.745800  0.983400  0.516800  1.0  -0.1118
  C  C133  1  0.527680  0.187780  0.972440  1.0  0.1413
  C  C134  1  0.692960  0.365060  0.891480  1.0  -0.0604
  C  C135  1  0.397390  0.500890  0.571220  1.0  0.1313
  C  C136  1  0.616780  0.940880  0.561440  1.0  -0.1052
  C  C137  1  0.383220  0.502320  0.438560  1.0  -0.1051
  C  C138  1  0.531390  0.500890  0.571220  1.0  0.1332
  C  C139  1  0.309430  0.103330  0.355940  1.0  -0.0533
  C  C140  1  0.002320  0.883220  0.938560  1.0  -0.1045
  C  C141  1  0.043260  0.553960  0.167480  1.0  0.733
  C  C142  1  0.620880  0.091180  0.897040  1.0  -0.1725
  C  C143  1  0.834630  0.103330  0.355940  1.0  -0.0583
  C  C144  1  0.947010  0.152010  0.117980  1.0  -0.1386
  C  C145  1  0.000890  0.897390  0.071220  1.0  0.1306
  C  C146  1  0.959270  0.665370  0.144060  1.0  -0.0566
  C  C147  1  0.072810  0.217310  0.082780  1.0  -0.1378
  C  C148  1  0.199910  0.844410  0.582780  1.0  -0.1427
  C  C149  1  0.927190  0.300090  0.917220  1.0  -0.1384
  C  C150  1  0.000890  0.031390  0.071220  1.0  0.1326
  C  C151  1  0.335820  0.092320  0.412560  1.0  0.0387
  C  C152  1  0.312220  0.500120  0.527560  1.0  0.1394
  C  C153  1  0.915560  0.743460  0.891480  1.0  -0.0547
  C  C154  1  0.959270  0.190570  0.144060  1.0  -0.0574
  C  C155  1  0.017920  0.988220  0.102960  1.0  -0.174
  C  C156  1  0.165370  0.896670  0.644060  1.0  -0.0587
  C  C157  1  0.000200  0.262600  0.983200  1.0  -0.1186
  C  C158  1  0.997680  0.821780  0.061440  1.0  -0.1049
  C  C159  1  0.435010  0.152010  0.117980  1.0  -0.1366
  C  C160  1  0.655590  0.782690  0.917220  1.0  -0.1383
  C  C161  1  0.483400  0.245800  0.016800  1.0  -0.1167
  C  C162  1  0.312220  0.972320  0.527560  1.0  0.1409
  C  C163  1  0.440880  0.116780  0.061440  1.0  -0.1054
  C  C164  1  0.997680  0.116780  0.061440  1.0  -0.1055
  C  C165  1  0.053960  0.543260  0.667480  1.0  0.7304
  C  C166  1  0.488220  0.517920  0.602960  1.0  -0.1732
  C  C167  1  0.134940  0.807040  0.608520  1.0  -0.0631
  C  C168  1  0.602610  0.499110  0.428780  1.0  0.1315
  C  C169  1  0.602610  0.072110  0.428780  1.0  0.1298
  C  C170  1  0.865060  0.415560  0.391480  1.0  -0.0533
  C  C171  1  0.745800  0.499800  0.516800  1.0  -0.1177
  C  C172  1  0.527680  0.839780  0.972440  1.0  0.1379
  C  C173  1  0.742650  0.833750  0.639100  1.0  -0.1402
  C  C174  1  0.468610  0.499110  0.428780  1.0  0.1332
  C  C175  1  0.995120  0.251620  0.912560  1.0  0.0375
  C  C176  1  0.488220  0.879120  0.602960  1.0  -0.172
  C  C177  1  0.559120  0.883220  0.938560  1.0  -0.1056
  C  C178  1  0.321780  0.497680  0.561440  1.0  -0.1047
  C  C179  1  0.289260  0.553960  0.167480  1.0  0.7349
  C  C180  1  0.347990  0.064990  0.382020  1.0  -0.1392
  C  C181  1  0.084440  0.256540  0.108520  1.0  -0.0541
  C  C182  1  0.134940  0.584440  0.608520  1.0  -0.0542
  C  C183  1  0.717310  0.844410  0.582780  1.0  -0.1423
  C  C184  1  0.339780  0.499880  0.472440  1.0  0.1381
  C  C185  1  0.999110  0.102610  0.928780  1.0  0.1298
  C  C186  1  0.666250  0.757350  0.860900  1.0  -0.1422
  C  C187  1  0.564990  0.847990  0.882020  1.0  -0.1414
  C  C188  1  0.000120  0.812220  0.027560  1.0  0.1399
  C  C189  1  0.052990  0.269990  0.882020  1.0  -0.1355
  C  C190  1  0.742650  0.527150  0.639100  1.0  -0.1441
  C  C191  1  0.027150  0.618250  0.139100  1.0  -0.141
  C  C192  1  0.335820  0.495120  0.412560  1.0  0.0379
  C  C193  1  0.687780  0.499880  0.472440  1.0  0.1416
  C  C194  1  0.040730  0.334630  0.855940  1.0  -0.057
  C  C195  1  0.564990  0.269990  0.882020  1.0  -0.1408
  C  C196  1  0.221440  0.456740  0.332520  1.0  0.7365
  C  C197  1  0.000120  0.160220  0.027560  1.0  0.1373
  C  C198  1  0.230010  0.447010  0.617980  1.0  -0.1361
  C  C199  1  0.999800  0.245800  0.016800  1.0  -0.1207
  C  C200  1  0.664180  0.504880  0.587440  1.0  0.0368
  C  C201  1  0.834630  0.540730  0.355940  1.0  -0.0597
  C  C202  1  0.072810  0.699910  0.082780  1.0  -0.1386
  C  C203  1  0.778560  0.789260  0.667480  1.0  0.7332
  C  C204  1  0.408820  0.879120  0.602960  1.0  -0.1767
  C  C205  1  0.778560  0.543260  0.667480  1.0  0.7359
  C  C206  1  0.982080  0.011780  0.897040  1.0  -0.1729
  C  C207  1  0.800090  0.155590  0.417220  1.0  -0.143
  C  C208  1  0.756540  0.807040  0.608520  1.0  -0.0522
  C  C209  1  0.396670  0.190570  0.144060  1.0  -0.0531
  C  C210  1  0.652010  0.935010  0.617980  1.0  -0.1384
  C  C211  1  0.756540  0.584440  0.608520  1.0  -0.0558
  C  C212  1  0.678220  0.059120  0.438560  1.0  -0.1041
  C  C213  1  0.237400  0.499800  0.516800  1.0  -0.1185
  C  C214  1  0.572110  0.102610  0.928780  1.0  0.1286
  C  C215  1  0.307040  0.256540  0.108520  1.0  -0.0523
  C  C216  1  0.397390  0.927890  0.571220  1.0  0.1294
  C  C217  1  0.946040  0.456740  0.332520  1.0  0.729
  C  C218  1  0.660220  0.972320  0.527560  1.0  0.1377
  C  C219  1  0.257350  0.472850  0.360900  1.0  -0.1424
  C  C220  1  0.956740  0.446040  0.832520  1.0  0.732
  C  C221  1  0.516600  0.754200  0.983200  1.0  -0.1139
  C  C222  1  0.999880  0.839780  0.972440  1.0  0.1374
  C  C223  1  0.559120  0.178220  0.938560  1.0  -0.1052
  C  C224  1  0.053960  0.789260  0.667480  1.0  0.7304
  C  C225  1  0.321780  0.940880  0.561440  1.0  -0.1057
  C  C226  1  0.660220  0.500120  0.527560  1.0  0.1379
  C  C227  1  0.333750  0.242650  0.139100  1.0  -0.1408
  C  C228  1  0.655590  0.300090  0.917220  1.0  -0.1395
  C  C229  1  0.710740  0.446040  0.832520  1.0  0.7327
  C  C230  1  0.084440  0.634940  0.108520  1.0  -0.0535
  C  C231  1  0.307040  0.634940  0.108520  1.0  -0.0614
  C  C232  1  0.915560  0.365060  0.891480  1.0  -0.0524
  C  C233  1  0.257350  0.166250  0.360900  1.0  -0.1409
  C  C234  1  0.237400  0.983400  0.516800  1.0  -0.1164
  C  C235  1  0.040730  0.809430  0.855940  1.0  -0.0571
  C  C236  1  0.678220  0.502320  0.438560  1.0  -0.1046
  C  C237  1  0.344410  0.699910  0.082780  1.0  -0.1402
  C  C238  1  0.004880  0.164180  0.087440  1.0  0.0367
  C  C239  1  0.865060  0.192960  0.391480  1.0  -0.0633
  C  C240  1  0.282690  0.155590  0.417220  1.0  -0.1421
  C  C241  1  0.435010  0.730010  0.117980  1.0  -0.1369
  C  C242  1  0.762600  0.016600  0.483200  1.0  -0.1143
  C  C243  1  0.347990  0.552990  0.382020  1.0  -0.1334
  C  C244  1  0.616780  0.497680  0.561440  1.0  -0.1043
  C  C245  1  0.407680  0.164180  0.087440  1.0  0.0375
  C  C246  1  0.664180  0.907680  0.587440  1.0  0.038
  C  C247  1  0.017920  0.908820  0.102960  1.0  -0.1688
  C  C248  1  0.603330  0.334630  0.855940  1.0  -0.0547
  C  C249  1  0.004880  0.748380  0.087440  1.0  0.0377
  C  C250  1  0.972850  0.757350  0.860900  1.0  -0.1439
  C  C251  1  0.999110  0.968610  0.928780  1.0  0.1319
  C  C252  1  0.717310  0.572810  0.582780  1.0  -0.1411
  C  C253  1  0.472320  0.160220  0.027560  1.0  0.1377
  C  C254  1  0.687780  0.027680  0.472440  1.0  0.1423
  C  C255  1  0.118250  0.527150  0.639100  1.0  -0.1404
  C  C256  1  0.468610  0.072110  0.428780  1.0  0.1284
  C  C257  1  0.982080  0.091180  0.897040  1.0  -0.1692
  C  C258  1  0.531390  0.927890  0.571220  1.0  0.1288
  C  C259  1  0.592320  0.835820  0.912560  1.0  0.0375
  C  C260  1  0.379120  0.908820  0.102960  1.0  -0.1762
  C  C261  1  0.483400  0.737400  0.016800  1.0  -0.1179
  C  C262  1  0.289260  0.278560  0.167480  1.0  0.735
  C  C263  1  0.946040  0.210740  0.332520  1.0  0.7317
  C  C264  1  0.947010  0.730010  0.117980  1.0  -0.1386
  C  C265  1  0.408820  0.517920  0.602960  1.0  -0.1704
  C  C266  1  0.383220  0.059120  0.438560  1.0  -0.1049
  C  C267  1  0.427890  0.031390  0.071220  1.0  0.1282
  C  C268  1  0.995120  0.835820  0.912560  1.0  0.0383
  C  C269  1  0.199910  0.572810  0.582780  1.0  -0.1416
  C  C270  1  0.052990  0.847990  0.882020  1.0  -0.1357
  C  C271  1  0.800090  0.427190  0.417220  1.0  -0.1423
  C  C272  1  0.710740  0.721440  0.832520  1.0  0.735
  C  C273  1  0.230010  0.935010  0.617980  1.0  -0.1375
  C  C274  1  0.511780  0.482080  0.397040  1.0  -0.1745
  C  C275  1  0.339780  0.027680  0.472440  1.0  0.1371
  C  C276  1  0.333750  0.618250  0.139100  1.0  -0.1403
  C  C277  1  0.572110  0.968610  0.928780  1.0  0.1276
  C  C278  1  0.762600  0.500200  0.483200  1.0  -0.1159
  C  C279  1  0.282690  0.427190  0.417220  1.0  -0.1421
  C  C280  1  0.248380  0.504880  0.587440  1.0  0.0373
  C  C281  1  0.769990  0.552990  0.382020  1.0  -0.1353
  C  C282  1  0.999880  0.187780  0.972440  1.0  0.1403
  C  C283  1  0.118250  0.833750  0.639100  1.0  -0.1399
  C  C284  1  0.254200  0.016600  0.483200  1.0  -0.1132
  C  C285  1  0.692960  0.743460  0.891480  1.0  -0.052
  C  C286  1  0.690570  0.896670  0.644060  1.0  -0.0544
  C  C287  1  0.603330  0.809430  0.855940  1.0  -0.0517
  C  C288  1  0.881750  0.166250  0.360900  1.0  -0.1412
  C  C289  1  0.972850  0.381750  0.860900  1.0  -0.1408
  C  C290  1  0.511780  0.120880  0.397040  1.0  -0.1739
  C  C291  1  0.396670  0.665370  0.144060  1.0  -0.0568
  C  C292  1  0.690570  0.459270  0.644060  1.0  -0.0603
  C  C293  1  0.043260  0.278560  0.167480  1.0  0.7393
  C  C294  1  0.248380  0.907680  0.587440  1.0  0.0377
  C  C295  1  0.243460  0.192960  0.391480  1.0  -0.0519
  C  C296  1  0.221440  0.210740  0.332520  1.0  0.7325
  C  C297  1  0.666250  0.381750  0.860900  1.0  -0.1408
  C  C298  1  0.769990  0.064990  0.382020  1.0  -0.1409
  C  C299  1  0.000200  0.754200  0.983200  1.0  -0.1179
  C  C300  1  0.591180  0.120880  0.397040  1.0  -0.1751
  C  C301  1  0.620880  0.011780  0.897040  1.0  -0.1685
  C  C302  1  0.516600  0.262600  0.983200  1.0  -0.118
  C  C303  1  0.751620  0.495120  0.412560  1.0  0.0364
  C  C304  1  0.591180  0.482080  0.397040  1.0  -0.1678
  C  C305  1  0.254200  0.500200  0.483200  1.0  -0.1158
  C  C306  1  0.165370  0.459270  0.644060  1.0  -0.0584
  C  C307  1  0.881750  0.472850  0.360900  1.0  -0.1397
  C  C308  1  0.999800  0.737400  0.016800  1.0  -0.1195
  C  C309  1  0.592320  0.251620  0.912560  1.0  0.0373
  C  C310  1  0.652010  0.447010  0.617980  1.0  -0.1369
  C  C311  1  0.309430  0.540730  0.355940  1.0  -0.0609
  C  C312  1  0.344410  0.217310  0.082780  1.0  -0.1392
  C  C313  1  0.379120  0.988220  0.102960  1.0  -0.1726
  C  C314  1  0.440880  0.821780  0.061440  1.0  -0.1047
  C  C315  1  0.472320  0.812220  0.027560  1.0  0.1405
  C  C316  1  0.427890  0.897390  0.071220  1.0  0.1289
  N  N317  1  0.500000  0.124400  0.000000  1.0  -0.2492
  N  N318  1  0.500000  0.875600  0.000000  1.0  -0.2505
  N  N319  1  0.000000  0.124400  0.000000  1.0  -0.2441
  N  N320  1  0.624400  0.500000  0.500000  1.0  -0.2469
  N  N321  1  0.994150  0.974050  0.051900  1.0  -0.2676
  N  N322  1  0.474050  0.953950  0.551900  1.0  -0.2673
  N  N323  1  0.453950  0.974050  0.051900  1.0  -0.2671
  N  N324  1  0.375600  0.000000  0.500000  1.0  -0.251
  N  N325  1  0.624400  0.000000  0.500000  1.0  -0.2518
  N  N326  1  0.546050  0.025950  0.948100  1.0  -0.2667
  N  N327  1  0.005850  0.025950  0.948100  1.0  -0.2672
  N  N328  1  0.375600  0.500000  0.500000  1.0  -0.246
  N  N329  1  0.525950  0.046050  0.448100  1.0  -0.2666
  N  N330  1  0.474050  0.494150  0.551900  1.0  -0.2686
  N  N331  1  0.000000  0.875600  0.000000  1.0  -0.2457
  N  N332  1  0.525950  0.505850  0.448100  1.0  -0.2667
  O  O333  1  0.839700  0.592330  0.658860  1.0  -0.6197
  O  O334  1  0.264500  0.392210  0.215580  1.0  -0.9168
  O  O335  1  0.861500  0.701720  0.777000  1.0  -0.8845
  O  O336  1  0.907670  0.660300  0.841140  1.0  -0.6202
  O  O337  1  0.798280  0.638500  0.723000  1.0  -0.885
  O  O338  1  0.745170  0.792690  0.697620  1.0  -0.7054
  O  O339  1  0.892210  0.764500  0.715580  1.0  -0.9158
  O  O340  1  0.839700  0.748810  0.658860  1.0  -0.6195
  O  O341  1  0.998560  0.251190  0.341140  1.0  -0.6191
  O  O342  1  0.107790  0.480080  0.284420  1.0  -0.9083
  O  O343  1  0.057210  0.509690  0.697620  1.0  -0.7065
  O  O344  1  0.138500  0.478720  0.223000  1.0  -0.8838
  O  O345  1  0.751190  0.660300  0.841140  1.0  -0.6195
  O  O346  1  0.021280  0.361500  0.277000  1.0  -0.8839
  O  O347  1  0.138500  0.298280  0.223000  1.0  -0.8857
  O  O348  1  0.019920  0.392210  0.215580  1.0  -0.8898
  O  O349  1  0.092330  0.339700  0.158860  1.0  -0.6195
  O  O350  1  0.707310  0.754830  0.802380  1.0  -0.7073
  O  O351  1  0.009690  0.557210  0.197620  1.0  -0.706
  O  O352  1  0.248810  0.339700  0.158860  1.0  -0.6198
  O  O353  1  0.990310  0.442790  0.802380  1.0  -0.7082
  O  O354  1  0.892210  0.519920  0.715580  1.0  -0.9061
  O  O355  1  0.292690  0.557210  0.197620  1.0  -0.709
  O  O356  1  0.057210  0.792690  0.697620  1.0  -0.7065
  O  O357  1  0.107790  0.235500  0.284420  1.0  -0.9142
  O  O358  1  0.861500  0.521280  0.777000  1.0  -0.8846
  O  O359  1  0.254830  0.207310  0.302380  1.0  -0.7058
  O  O360  1  0.292690  0.245170  0.197620  1.0  -0.7065
  O  O361  1  0.942790  0.207310  0.302380  1.0  -0.7073
  O  O362  1  0.160300  0.407670  0.341140  1.0  -0.6193
  O  O363  1  0.001440  0.592330  0.658860  1.0  -0.6213
  O  O364  1  0.745170  0.509690  0.697620  1.0  -0.7109
  O  O365  1  0.254830  0.490310  0.302380  1.0  -0.7109
  O  O366  1  0.907670  0.498560  0.841140  1.0  -0.6235
  O  O367  1  0.978720  0.638500  0.723000  1.0  -0.8857
  O  O368  1  0.735500  0.607790  0.784420  1.0  -0.9207
  O  O369  1  0.998560  0.407670  0.341140  1.0  -0.6215
  O  O370  1  0.009690  0.245170  0.197620  1.0  -0.7093
  O  O371  1  0.092330  0.501440  0.158860  1.0  -0.6221
  O  O372  1  0.248810  0.501440  0.158860  1.0  -0.6229
  O  O373  1  0.751190  0.498560  0.841140  1.0  -0.6208
  O  O374  1  0.980080  0.607790  0.784420  1.0  -0.887
  O  O375  1  0.201720  0.361500  0.277000  1.0  -0.8861
  O  O376  1  0.160300  0.251190  0.341140  1.0  -0.6187
  O  O377  1  0.990310  0.754830  0.802380  1.0  -0.7106
  O  O378  1  0.942790  0.490310  0.302380  1.0  -0.7076
  O  O379  1  0.707310  0.442790  0.802380  1.0  -0.7081
  O  O380  1  0.001440  0.748810  0.658860  1.0  -0.6196
