# generated using pymatgen
data_Zr3H28(C11O4)4
_symmetry_space_group_name_H-M   'P 1'
_cell_length_a   39.38750000
_cell_length_b   39.38750000
_cell_length_c   16.48290000
_cell_angle_alpha   90.00000000
_cell_angle_beta   90.00000000
_cell_angle_gamma   120.00000000
_symmetry_Int_Tables_number   1
_chemical_formula_structural   Zr3H28(C11O4)4
_chemical_formula_sum   'Zr18 H168 C264 O96'
_cell_volume   22145.27551779
_cell_formula_units_Z   6
loop_
 _symmetry_equiv_pos_site_id
 _symmetry_equiv_pos_as_xyz
  1  'x, y, z'
loop_
 _atom_site_type_symbol
 _atom_site_label
 _atom_site_symmetry_multiplicity
 _atom_site_fract_x
 _atom_site_fract_y
 _atom_site_fract_z
 _atom_site_occupancy
 _atom_site_charge
  Zr  Zr1  1  0.000440  0.457140  0.896840  1.0  1.8047
  Zr  Zr2  1  0.000620  0.542800  0.896880  1.0  1.8191
  Zr  Zr3  1  0.000360  0.456760  0.099920  1.0  1.8064
  Zr  Zr4  1  0.000480  0.542950  0.100520  1.0  1.8023
  Zr  Zr5  1  0.059990  0.529690  0.999270  1.0  1.752
  Zr  Zr6  1  0.940760  0.470230  0.999070  1.0  1.7633
  Zr  Zr7  1  0.457460  0.457680  0.102580  1.0  1.807
  Zr  Zr8  1  0.543260  0.543220  0.103220  1.0  1.8098
  Zr  Zr9  1  0.457280  0.457460  0.899280  1.0  1.8182
  Zr  Zr10  1  0.543470  0.543380  0.899420  1.0  1.8041
  Zr  Zr11  1  0.470960  0.530410  0.000920  1.0  1.7693
  Zr  Zr12  1  0.530230  0.470650  0.001010  1.0  1.7646
  Zr  Zr13  1  0.456810  0.999790  0.099080  1.0  1.821
  Zr  Zr14  1  0.542200  0.999770  0.101090  1.0  1.8155
  Zr  Zr15  1  0.456980  0.999230  0.895810  1.0  1.8213
  Zr  Zr16  1  0.543130  0.999150  0.897070  1.0  1.8022
  Zr  Zr17  1  0.529800  0.058940  0.996510  1.0  1.7649
  Zr  Zr18  1  0.469980  0.939850  0.998220  1.0  1.7648
  H  H19  1  0.167260  0.506900  0.573730  1.0  0.1279
  H  H20  1  0.167160  0.507460  0.429010  1.0  0.1276
  H  H21  1  0.338460  0.505460  0.571050  1.0  0.1227
  H  H22  1  0.338310  0.505980  0.426450  1.0  0.1283
  H  H23  1  0.249850  0.499070  0.781130  1.0  0.1361
  H  H24  1  0.249670  0.501470  0.218940  1.0  0.1342
  H  H25  1  0.222650  0.550750  0.201980  1.0  0.1319
  H  H26  1  0.169670  0.548270  0.119620  1.0  0.1275
  H  H27  1  0.085710  0.446200  0.253770  1.0  0.1257
  H  H28  1  0.138990  0.448620  0.333950  1.0  0.1287
  H  H29  1  0.304900  0.446270  0.328360  1.0  0.1263
  H  H30  1  0.356250  0.444110  0.248620  1.0  0.1308
  H  H31  1  0.379780  0.550350  0.125410  1.0  0.1235
  H  H32  1  0.328500  0.552520  0.206420  1.0  0.1319
  H  H33  1  0.307960  0.446520  0.665630  1.0  0.1305
  H  H34  1  0.359660  0.444780  0.744740  1.0  0.1319
  H  H35  1  0.377610  0.547070  0.877790  1.0  0.1296
  H  H36  1  0.326550  0.548860  0.796890  1.0  0.1313
  H  H37  1  0.223030  0.549550  0.798910  1.0  0.1305
  H  H38  1  0.169990  0.547530  0.880480  1.0  0.1275
  H  H39  1  0.086030  0.445050  0.747360  1.0  0.1272
  H  H40  1  0.139310  0.447100  0.667900  1.0  0.1246
  H  H41  1  0.493480  0.660600  0.574120  1.0  0.1281
  H  H42  1  0.493680  0.660990  0.429430  1.0  0.1291
  H  H43  1  0.496580  0.834130  0.575970  1.0  0.1275
  H  H44  1  0.496640  0.834400  0.430810  1.0  0.1266
  H  H45  1  0.500650  0.749550  0.783820  1.0  0.1378
  H  H46  1  0.500090  0.750170  0.221680  1.0  0.1376
  H  H47  1  0.448920  0.672120  0.208260  1.0  0.1303
  H  H48  1  0.451410  0.621400  0.125950  1.0  0.1251
  H  H49  1  0.556680  0.643490  0.251520  1.0  0.1325
  H  H50  1  0.554180  0.694290  0.332610  1.0  0.1256
  H  H51  1  0.554800  0.860770  0.330930  1.0  0.1271
  H  H52  1  0.557890  0.913380  0.246280  1.0  0.1329
  H  H53  1  0.452720  0.829400  0.121670  1.0  0.1257
  H  H54  1  0.449680  0.776920  0.207330  1.0  0.1295
  H  H55  1  0.555070  0.860310  0.673190  1.0  0.1274
  H  H56  1  0.558030  0.913450  0.754780  1.0  0.1287
  H  H57  1  0.453810  0.829850  0.883800  1.0  0.1287
  H  H58  1  0.450990  0.777010  0.800340  1.0  0.1306
  H  H59  1  0.450570  0.672810  0.800220  1.0  0.131
  H  H60  1  0.452650  0.621750  0.881360  1.0  0.1255
  H  H61  1  0.554890  0.640170  0.747370  1.0  0.1244
  H  H62  1  0.552850  0.691570  0.668440  1.0  0.1273
  H  H63  1  0.337550  0.833770  0.571480  1.0  0.1239
  H  H64  1  0.337030  0.833720  0.426420  1.0  0.1291
  H  H65  1  0.167580  0.659860  0.573080  1.0  0.1293
  H  H66  1  0.167290  0.659630  0.428360  1.0  0.1276
  H  H67  1  0.249970  0.749550  0.781190  1.0  0.1399
  H  H68  1  0.248840  0.748810  0.218730  1.0  0.1353
  H  H69  1  0.326360  0.776470  0.203510  1.0  0.1288
  H  H70  1  0.375950  0.829290  0.118720  1.0  0.1249
  H  H71  1  0.354090  0.912710  0.243690  1.0  0.1266
  H  H72  1  0.304400  0.859750  0.327540  1.0  0.1265
  H  H73  1  0.138620  0.690220  0.333190  1.0  0.1281
  H  H74  1  0.085620  0.639340  0.252610  1.0  0.1286
  H  H75  1  0.170020  0.621530  0.119410  1.0  0.127
  H  H76  1  0.222790  0.672230  0.202030  1.0  0.1319
  H  H77  1  0.139410  0.691390  0.667550  1.0  0.1278
  H  H78  1  0.086170  0.640320  0.747320  1.0  0.1259
  H  H79  1  0.170130  0.621810  0.880460  1.0  0.1289
  H  H80  1  0.223150  0.672690  0.798570  1.0  0.1296
  H  H81  1  0.326550  0.776960  0.797900  1.0  0.1283
  H  H82  1  0.376590  0.829760  0.881440  1.0  0.1294
  H  H83  1  0.357050  0.913620  0.750690  1.0  0.1253
  H  H84  1  0.306770  0.860520  0.669090  1.0  0.127
  H  H85  1  0.835860  0.497060  0.572910  1.0  0.1275
  H  H86  1  0.835960  0.496990  0.427820  1.0  0.1251
  H  H87  1  0.664130  0.497640  0.572070  1.0  0.1281
  H  H88  1  0.664320  0.497740  0.427060  1.0  0.1276
  H  H89  1  0.752050  0.501930  0.781200  1.0  0.1361
  H  H90  1  0.752490  0.501930  0.218750  1.0  0.1386
  H  H91  1  0.778820  0.451980  0.201850  1.0  0.1308
  H  H92  1  0.831100  0.454480  0.116850  1.0  0.1275
  H  H93  1  0.915870  0.557710  0.246780  1.0  0.1331
  H  H94  1  0.863330  0.555070  0.329980  1.0  0.1296
  H  H95  1  0.696670  0.556670  0.328380  1.0  0.1275
  H  H96  1  0.646300  0.559290  0.245890  1.0  0.14
  H  H97  1  0.624530  0.453990  0.121070  1.0  0.1268
  H  H98  1  0.674860  0.451410  0.204630  1.0  0.1316
  H  H99  1  0.695610  0.556040  0.671020  1.0  0.1279
  H  H100  1  0.645210  0.558470  0.753740  1.0  0.1346
  H  H101  1  0.624300  0.453630  0.879300  1.0  0.1254
  H  H102  1  0.674660  0.451230  0.795440  1.0  0.1327
  H  H103  1  0.778770  0.452270  0.798330  1.0  0.1301
  H  H104  1  0.831190  0.454890  0.882920  1.0  0.1296
  H  H105  1  0.915670  0.558290  0.752990  1.0  0.1337
  H  H106  1  0.862960  0.555530  0.670190  1.0  0.1294
  H  H107  1  0.501130  0.337510  0.571200  1.0  0.1305
  H  H108  1  0.501520  0.337730  0.426230  1.0  0.1316
  H  H109  1  0.503540  0.166760  0.570990  1.0  0.1256
  H  H110  1  0.503480  0.166760  0.426390  1.0  0.1285
  H  H111  1  0.496540  0.248890  0.779760  1.0  0.1368
  H  H112  1  0.497460  0.249420  0.217700  1.0  0.1367
  H  H113  1  0.547560  0.326170  0.201790  1.0  0.1319
  H  H114  1  0.545410  0.376360  0.117630  1.0  0.1263
  H  H115  1  0.441290  0.356840  0.245510  1.0  0.1325
  H  H116  1  0.443600  0.306510  0.327800  1.0  0.1284
  H  H117  1  0.443550  0.139100  0.329100  1.0  0.1273
  H  H118  1  0.442140  0.085950  0.248960  1.0  0.1266
  H  H119  1  0.547400  0.170030  0.124630  1.0  0.1267
  H  H120  1  0.548830  0.222900  0.205820  1.0  0.1333
  H  H121  1  0.443950  0.138860  0.668300  1.0  0.1243
  H  H122  1  0.442950  0.085750  0.747400  1.0  0.1272
  H  H123  1  0.547770  0.169750  0.872980  1.0  0.1258
  H  H124  1  0.548800  0.222830  0.792520  1.0  0.1293
  H  H125  1  0.545640  0.324790  0.796650  1.0  0.1294
  H  H126  1  0.543470  0.374770  0.880550  1.0  0.1265
  H  H127  1  0.440790  0.357310  0.749700  1.0  0.1286
  H  H128  1  0.442930  0.306660  0.667520  1.0  0.1301
  H  H129  1  0.661300  0.166780  0.573920  1.0  0.1278
  H  H130  1  0.661040  0.167050  0.429230  1.0  0.1288
  H  H131  1  0.834680  0.337370  0.574130  1.0  0.1242
  H  H132  1  0.834450  0.337520  0.429040  1.0  0.1288
  H  H133  1  0.750750  0.248720  0.782850  1.0  0.1366
  H  H134  1  0.749550  0.249990  0.220430  1.0  0.1355
  H  H135  1  0.671900  0.223280  0.206360  1.0  0.1315
  H  H136  1  0.621040  0.170280  0.123600  1.0  0.1255
  H  H137  1  0.641920  0.086530  0.250000  1.0  0.1324
  H  H138  1  0.692790  0.139520  0.331440  1.0  0.1279
  H  H139  1  0.860470  0.305220  0.329370  1.0  0.1266
  H  H140  1  0.913380  0.355060  0.245810  1.0  0.126
  H  H141  1  0.829950  0.377240  0.121740  1.0  0.1237
  H  H142  1  0.777150  0.327470  0.206350  1.0  0.1296
  H  H143  1  0.861710  0.306220  0.671140  1.0  0.1274
  H  H144  1  0.914790  0.356550  0.752780  1.0  0.1297
  H  H145  1  0.830810  0.375860  0.883620  1.0  0.1336
  H  H146  1  0.778020  0.325680  0.800230  1.0  0.1297
  H  H147  1  0.673390  0.221700  0.798860  1.0  0.1304
  H  H148  1  0.622010  0.168420  0.879120  1.0  0.1279
  H  H149  1  0.641300  0.084860  0.746460  1.0  0.1294
  H  H150  1  0.692960  0.138460  0.668140  1.0  0.1268
  H  H151  1  0.948910  0.474250  0.834170  1.0  0.3361
  H  H152  1  0.053470  0.595110  0.998920  1.0  0.3684
  H  H153  1  0.949520  0.474610  0.164150  1.0  0.2314
  H  H154  1  0.053670  0.457950  0.998780  1.0  0.3614
  H  H155  1  0.983680  0.596300  0.935170  1.0  0.4567
  H  H156  1  0.002300  0.606430  0.143840  1.0  0.3458
  H  H157  1  0.015390  0.535250  0.250040  1.0  0.3688
  H  H158  1  0.994150  0.469990  0.250820  1.0  0.4241
  H  H159  1  0.002400  0.394510  0.136540  1.0  0.336
  H  H160  1  0.002170  0.395710  0.848670  1.0  0.2564
  H  H161  1  0.999160  0.435770  0.747970  1.0  0.2699
  H  H162  1  0.999510  0.562000  0.748020  1.0  0.4573
  H  H163  1  0.526000  0.474540  0.165820  1.0  0.3427
  H  H164  1  0.542860  0.595710  0.001080  1.0  0.3672
  H  H165  1  0.525690  0.474150  0.836490  1.0  0.2543
  H  H166  1  0.405320  0.458940  0.000410  1.0  0.3438
  H  H167  1  0.614150  0.596340  0.066610  1.0  0.4626
  H  H168  1  0.605610  0.607210  0.859710  1.0  0.3422
  H  H169  1  0.532280  0.522050  0.748870  1.0  0.3709
  H  H170  1  0.466080  0.480640  0.750110  1.0  0.3561
  H  H171  1  0.393240  0.395530  0.859430  1.0  0.3302
  H  H172  1  0.393920  0.396290  0.149460  1.0  0.2559
  H  H173  1  0.436820  0.435910  0.251100  1.0  0.2621
  H  H174  1  0.563620  0.562200  0.252190  1.0  0.4548
  H  H175  1  0.473520  0.948270  0.163200  1.0  0.3296
  H  H176  1  0.595060  0.052270  0.999080  1.0  0.3697
  H  H177  1  0.474790  0.948350  0.832760  1.0  0.3636
  H  H178  1  0.458050  0.052720  0.997020  1.0  0.3487
  H  H179  1  0.595800  0.982720  0.064580  1.0  0.4489
  H  H180  1  0.606640  0.000480  0.855930  1.0  0.3457
  H  H181  1  0.536130  0.012970  0.746490  1.0  0.4126
  H  H182  1  0.478250  0.011050  0.745610  1.0  0.3954
  H  H183  1  0.394790  0.000710  0.855550  1.0  0.3383
  H  H184  1  0.394990  0.001270  0.145190  1.0  0.2512
  H  H185  1  0.434820  0.998240  0.247620  1.0  0.2599
  H  H186  1  0.560430  0.998670  0.250700  1.0  0.4576
  C  C187  1  0.218650  0.500330  0.674750  1.0  -0.0869
  C  C188  1  0.250160  0.500040  0.715400  1.0  -0.1001
  C  C189  1  0.281440  0.499720  0.673740  1.0  -0.0458
  C  C190  1  0.281390  0.500520  0.586850  1.0  0.0244
  C  C191  1  0.249940  0.500580  0.543840  1.0  0.068
  C  C192  1  0.218980  0.501090  0.587820  1.0  0.0273
  C  C193  1  0.190010  0.504000  0.543390  1.0  -0.1154
  C  C194  1  0.189940  0.504330  0.458570  1.0  -0.1098
  C  C195  1  0.218860  0.501800  0.413180  1.0  0.028
  C  C196  1  0.249890  0.500990  0.456280  1.0  0.0661
  C  C197  1  0.312820  0.502970  0.541520  1.0  -0.132
  C  C198  1  0.312760  0.503340  0.456770  1.0  -0.0887
  C  C199  1  0.281310  0.501380  0.412370  1.0  0.0131
  C  C200  1  0.281300  0.501420  0.325540  1.0  -0.0888
  C  C201  1  0.250000  0.501960  0.284700  1.0  -0.1009
  C  C202  1  0.218430  0.501710  0.326190  1.0  -0.0844
  C  C203  1  0.312910  0.499990  0.275320  1.0  0.0481
  C  C204  1  0.185280  0.500430  0.276260  1.0  0.0275
  C  C205  1  0.185630  0.499000  0.725240  1.0  0.0055
  C  C206  1  0.313380  0.498330  0.723280  1.0  0.0298
  C  C207  1  0.192830  0.527800  0.213750  1.0  -0.1168
  C  C208  1  0.162180  0.526260  0.166230  1.0  -0.0603
  C  C209  1  0.122600  0.497130  0.179200  1.0  -0.0396
  C  C210  1  0.115320  0.469420  0.241230  1.0  -0.0755
  C  C211  1  0.146010  0.470860  0.288090  1.0  -0.1079
  C  C212  1  0.321240  0.469340  0.284700  1.0  -0.1095
  C  C213  1  0.350720  0.468070  0.238440  1.0  -0.0742
  C  C214  1  0.372720  0.497140  0.180070  1.0  -0.0953
  C  C215  1  0.363760  0.527380  0.169430  1.0  -0.0683
  C  C216  1  0.334290  0.528690  0.216040  1.0  -0.1234
  C  C217  1  0.323300  0.468880  0.711190  1.0  -0.068
  C  C218  1  0.353070  0.467860  0.757250  1.0  -0.0727
  C  C219  1  0.373690  0.495860  0.818630  1.0  -0.0349
  C  C220  1  0.363000  0.524820  0.831680  1.0  -0.0678
  C  C221  1  0.333470  0.525950  0.785060  1.0  -0.1181
  C  C222  1  0.193200  0.526580  0.787300  1.0  -0.117
  C  C223  1  0.162520  0.525330  0.834320  1.0  -0.0572
  C  C224  1  0.122920  0.496260  0.821300  1.0  -0.0305
  C  C225  1  0.115650  0.468250  0.759930  1.0  -0.079
  C  C226  1  0.146350  0.469430  0.713550  1.0  -0.1063
  C  C227  1  0.499800  0.717900  0.676540  1.0  -0.0954
  C  C228  1  0.499920  0.749360  0.718070  1.0  -0.0759
  C  C229  1  0.500530  0.781280  0.677370  1.0  -0.0849
  C  C230  1  0.500290  0.781240  0.590370  1.0  0.029
  C  C231  1  0.500170  0.749940  0.546520  1.0  0.0692
  C  C232  1  0.499360  0.718080  0.589660  1.0  0.0242
  C  C233  1  0.496560  0.686460  0.544470  1.0  -0.1237
  C  C234  1  0.496600  0.686650  0.459740  1.0  -0.1058
  C  C235  1  0.499270  0.718400  0.415290  1.0  0.0204
  C  C236  1  0.500100  0.750070  0.458970  1.0  0.0648
  C  C237  1  0.498640  0.810880  0.545700  1.0  -0.0856
  C  C238  1  0.498620  0.811030  0.460750  1.0  -0.0888
  C  C239  1  0.500130  0.781490  0.415590  1.0  0.0214
  C  C240  1  0.500120  0.781670  0.328570  1.0  -0.085
  C  C241  1  0.499520  0.749910  0.287440  1.0  -0.1111
  C  C242  1  0.499570  0.718490  0.328520  1.0  -0.0912
  C  C243  1  0.501480  0.814530  0.277680  1.0  0.0359
  C  C244  1  0.500920  0.686900  0.278400  1.0  0.0565
  C  C245  1  0.501020  0.685950  0.726210  1.0  0.0391
  C  C246  1  0.502240  0.814300  0.728310  1.0  0.0156
  C  C247  1  0.472580  0.666090  0.218150  1.0  -0.1185
  C  C248  1  0.474090  0.636990  0.170770  1.0  -0.0711
  C  C249  1  0.504200  0.627870  0.181630  1.0  -0.0934
  C  C250  1  0.532870  0.649240  0.241120  1.0  -0.0712
  C  C251  1  0.531380  0.678350  0.288180  1.0  -0.1072
  C  C252  1  0.532100  0.853590  0.286070  1.0  -0.1098
  C  C253  1  0.534010  0.883780  0.236670  1.0  -0.0671
  C  C254  1  0.505610  0.876080  0.176150  1.0  -0.0967
  C  C255  1  0.475320  0.836830  0.166870  1.0  -0.0629
  C  C256  1  0.473420  0.806630  0.216450  1.0  -0.1171
  C  C257  1  0.532570  0.853360  0.718390  1.0  -0.1059
  C  C258  1  0.534330  0.883940  0.766140  1.0  -0.0722
  C  C259  1  0.506070  0.876710  0.826940  1.0  -0.0485
  C  C260  1  0.476270  0.837270  0.838270  1.0  -0.0623
  C  C261  1  0.474500  0.806720  0.790000  1.0  -0.112
  C  C262  1  0.473490  0.665910  0.788300  1.0  -0.1134
  C  C263  1  0.474790  0.636470  0.835060  1.0  -0.0646
  C  C264  1  0.503820  0.625920  0.821690  1.0  -0.0383
  C  C265  1  0.531720  0.646620  0.760150  1.0  -0.0724
  C  C266  1  0.530540  0.676210  0.714080  1.0  -0.1062
  C  C267  1  0.281410  0.781130  0.674230  1.0  -0.0971
  C  C268  1  0.250260  0.749220  0.715440  1.0  -0.076
  C  C269  1  0.218760  0.717590  0.674480  1.0  -0.094
  C  C270  1  0.219040  0.717520  0.587550  1.0  0.0223
  C  C271  1  0.249790  0.749330  0.543780  1.0  0.0567
  C  C272  1  0.281140  0.780840  0.587110  1.0  0.016
  C  C273  1  0.312130  0.810410  0.541760  1.0  -0.1156
  C  C274  1  0.311860  0.810360  0.456810  1.0  -0.0837
  C  C275  1  0.280660  0.780630  0.412190  1.0  0.0124
  C  C276  1  0.249590  0.749200  0.456110  1.0  0.0615
  C  C277  1  0.190160  0.685680  0.542900  1.0  -0.1136
  C  C278  1  0.189990  0.685530  0.458100  1.0  -0.1136
  C  C279  1  0.218680  0.717230  0.412900  1.0  0.0482
  C  C280  1  0.218110  0.717020  0.325940  1.0  -0.0874
  C  C281  1  0.249340  0.748630  0.284480  1.0  -0.0798
  C  C282  1  0.280500  0.780690  0.325160  1.0  -0.0799
  C  C283  1  0.185140  0.684980  0.275910  1.0  0.0122
  C  C284  1  0.311750  0.813730  0.273990  1.0  0.0397
  C  C285  1  0.313030  0.814290  0.724870  1.0  0.0181
  C  C286  1  0.185730  0.685790  0.724820  1.0  0.0145
  C  C287  1  0.332160  0.806120  0.212840  1.0  -0.11
  C  C288  1  0.360580  0.836530  0.163780  1.0  -0.073
  C  C289  1  0.369450  0.875760  0.173460  1.0  -0.0996
  C  C290  1  0.348450  0.883170  0.233760  1.0  -0.0682
  C  C291  1  0.320040  0.852750  0.282660  1.0  -0.1102
  C  C292  1  0.145810  0.675110  0.287400  1.0  -0.1051
  C  C293  1  0.115280  0.645830  0.240280  1.0  -0.0739
  C  C294  1  0.122760  0.625450  0.178390  1.0  -0.0374
  C  C295  1  0.162390  0.636020  0.165850  1.0  -0.0635
  C  C296  1  0.192910  0.665230  0.213550  1.0  -0.1179
  C  C297  1  0.146460  0.676110  0.713220  1.0  -0.1061
  C  C298  1  0.115780  0.646700  0.759830  1.0  -0.0743
  C  C299  1  0.123060  0.626030  0.821350  1.0  -0.0296
  C  C300  1  0.162660  0.636510  0.834220  1.0  -0.0629
  C  C301  1  0.193320  0.665840  0.786990  1.0  -0.1123
  C  C302  1  0.333000  0.806720  0.787090  1.0  -0.1139
  C  C303  1  0.361810  0.837270  0.835450  1.0  -0.0618
  C  C304  1  0.371780  0.876790  0.823810  1.0  -0.0506
  C  C305  1  0.351030  0.884060  0.762370  1.0  -0.0762
  C  C306  1  0.322140  0.853470  0.714540  1.0  -0.0648
  C  C307  1  0.783630  0.501790  0.674600  1.0  -0.0834
  C  C308  1  0.751880  0.501410  0.715450  1.0  -0.0806
  C  C309  1  0.720600  0.501790  0.674230  1.0  -0.0811
  C  C310  1  0.720850  0.501780  0.587220  1.0  0.063
  C  C311  1  0.752430  0.502110  0.543810  1.0  0.0542
  C  C312  1  0.783510  0.501660  0.587540  1.0  0.0167
  C  C313  1  0.812830  0.499540  0.542720  1.0  -0.0867
  C  C314  1  0.812890  0.499490  0.457770  1.0  -0.0854
  C  C315  1  0.783650  0.501590  0.412640  1.0  0.0165
  C  C316  1  0.752510  0.502110  0.456140  1.0  0.0584
  C  C317  1  0.689620  0.499930  0.542140  1.0  -0.0872
  C  C318  1  0.689720  0.499980  0.457260  1.0  -0.1034
  C  C319  1  0.721060  0.501860  0.412490  1.0  0.0213
  C  C320  1  0.721000  0.501950  0.325520  1.0  -0.0862
  C  C321  1  0.752240  0.501420  0.284500  1.0  -0.0981
  C  C322  1  0.783870  0.501630  0.325550  1.0  -0.0755
  C  C323  1  0.689440  0.503340  0.274850  1.0  0.0388
  C  C324  1  0.816700  0.502740  0.274610  1.0  0.0214
  C  C325  1  0.816500  0.503110  0.725630  1.0  0.02
  C  C326  1  0.688830  0.502940  0.724790  1.0  0.0202
  C  C327  1  0.808680  0.475170  0.212200  1.0  -0.119
  C  C328  1  0.838910  0.476770  0.162960  1.0  -0.0598
  C  C329  1  0.878510  0.506250  0.173830  1.0  -0.0552
  C  C330  1  0.886210  0.534260  0.235570  1.0  -0.0703
  C  C331  1  0.855960  0.532650  0.284370  1.0  -0.106
  C  C332  1  0.680910  0.533880  0.283830  1.0  -0.1109
  C  C333  1  0.652080  0.535500  0.235740  1.0  -0.0751
  C  C334  1  0.630890  0.506870  0.175950  1.0  -0.1106
  C  C335  1  0.640010  0.476720  0.165860  1.0  -0.0654
  C  C336  1  0.668860  0.475110  0.214160  1.0  -0.1156
  C  C337  1  0.680010  0.533280  0.715700  1.0  -0.1109
  C  C338  1  0.651150  0.534780  0.763940  1.0  -0.0782
  C  C339  1  0.630200  0.506250  0.824090  1.0  -0.0943
  C  C340  1  0.639570  0.476270  0.834240  1.0  -0.0645
  C  C341  1  0.668450  0.474780  0.785750  1.0  -0.1158
  C  C342  1  0.808590  0.475540  0.787940  1.0  -0.1135
  C  C343  1  0.838900  0.477210  0.836930  1.0  -0.0612
  C  C344  1  0.878460  0.506740  0.825830  1.0  -0.0364
  C  C345  1  0.886050  0.534800  0.764310  1.0  -0.0751
  C  C346  1  0.855710  0.533130  0.715780  1.0  -0.1057
  C  C347  1  0.496440  0.280540  0.673030  1.0  -0.051
  C  C348  1  0.497190  0.249350  0.714010  1.0  -0.0989
  C  C349  1  0.497560  0.218090  0.672730  1.0  -0.0839
  C  C350  1  0.497860  0.218510  0.585910  1.0  0.0124
  C  C351  1  0.497020  0.249450  0.542500  1.0  0.0668
  C  C352  1  0.496890  0.280700  0.586060  1.0  0.0266
  C  C353  1  0.498880  0.312080  0.541160  1.0  -0.1187
  C  C354  1  0.499140  0.312230  0.456260  1.0  -0.092
  C  C355  1  0.497380  0.280990  0.411330  1.0  0.0183
  C  C356  1  0.497170  0.249560  0.454970  1.0  0.0615
  C  C357  1  0.500580  0.189570  0.541070  1.0  -0.0871
  C  C358  1  0.500560  0.189580  0.456380  1.0  -0.086
  C  C359  1  0.497940  0.218600  0.411620  1.0  0.0142
  C  C360  1  0.497690  0.218260  0.324880  1.0  -0.0528
  C  C361  1  0.497920  0.249790  0.283460  1.0  -0.1101
  C  C362  1  0.497460  0.281110  0.324300  1.0  -0.0875
  C  C363  1  0.496710  0.185360  0.275220  1.0  0.0518
  C  C364  1  0.496330  0.312750  0.273370  1.0  0.0193
  C  C365  1  0.495020  0.312070  0.723730  1.0  0.0548
  C  C366  1  0.496880  0.185240  0.722490  1.0  0.0401
  C  C367  1  0.524240  0.332680  0.211780  1.0  -0.1079
  C  C368  1  0.522840  0.361540  0.163090  1.0  -0.0596
  C  C369  1  0.493260  0.371530  0.173820  1.0  -0.0503
  C  C370  1  0.464850  0.350770  0.234560  1.0  -0.0582
  C  C371  1  0.466240  0.321870  0.282780  1.0  -0.106
  C  C372  1  0.466560  0.146150  0.285100  1.0  -0.1061
  C  C373  1  0.465730  0.115630  0.238720  1.0  -0.0713
  C  C374  1  0.494720  0.123260  0.179840  1.0  -0.0905
  C  C375  1  0.524490  0.162640  0.169030  1.0  -0.0748
  C  C376  1  0.525380  0.193120  0.215710  1.0  -0.1246
  C  C377  1  0.466970  0.145980  0.712310  1.0  -0.1059
  C  C378  1  0.466380  0.115450  0.758200  1.0  -0.068
  C  C379  1  0.495380  0.122980  0.817100  1.0  -0.1049
  C  C380  1  0.524880  0.162430  0.828530  1.0  -0.0677
  C  C381  1  0.525530  0.192990  0.782240  1.0  -0.1191
  C  C382  1  0.522580  0.331610  0.785920  1.0  -0.1092
  C  C383  1  0.521180  0.360440  0.834410  1.0  -0.0679
  C  C384  1  0.492020  0.370940  0.822810  1.0  -0.0133
  C  C385  1  0.463990  0.350770  0.761190  1.0  -0.0633
  C  C386  1  0.465300  0.321710  0.713210  1.0  -0.0676
  C  C387  1  0.718890  0.217820  0.675760  1.0  -0.0923
  C  C388  1  0.750440  0.249260  0.717120  1.0  -0.098
  C  C389  1  0.782270  0.280680  0.676240  1.0  -0.1079
  C  C390  1  0.781920  0.280770  0.589120  1.0  0.0134
  C  C391  1  0.750470  0.249520  0.545460  1.0  0.0726
  C  C392  1  0.718800  0.218460  0.588870  1.0  0.0285
  C  C393  1  0.687030  0.189610  0.543970  1.0  -0.122
  C  C394  1  0.686840  0.189790  0.459200  1.0  -0.0859
  C  C395  1  0.718370  0.218860  0.414310  1.0  0.0543
  C  C396  1  0.750250  0.249700  0.457820  1.0  0.0727
  C  C397  1  0.811360  0.312030  0.544110  1.0  -0.0913
  C  C398  1  0.811210  0.312140  0.459150  1.0  -0.0908
  C  C399  1  0.781530  0.281060  0.414210  1.0  0.0128
  C  C400  1  0.781480  0.281270  0.327180  1.0  -0.0804
  C  C401  1  0.749470  0.250210  0.286200  1.0  -0.0771
  C  C402  1  0.718040  0.218700  0.327380  1.0  -0.089
  C  C403  1  0.814450  0.312720  0.276320  1.0  0.0365
  C  C404  1  0.686110  0.185800  0.277140  1.0  0.0281
  C  C405  1  0.687010  0.184570  0.725500  1.0  0.0212
  C  C406  1  0.815400  0.312260  0.727120  1.0  0.0147
  C  C407  1  0.665560  0.193500  0.216440  1.0  -0.1121
  C  C408  1  0.636360  0.162990  0.168710  1.0  -0.0705
  C  C409  1  0.626820  0.123630  0.179510  1.0  -0.0995
  C  C410  1  0.647900  0.116150  0.239490  1.0  -0.0751
  C  C411  1  0.677090  0.146620  0.286880  1.0  -0.1056
  C  C412  1  0.853460  0.320990  0.284820  1.0  -0.1104
  C  C413  1  0.883850  0.349500  0.236110  1.0  -0.0695
  C  C414  1  0.876410  0.370610  0.176120  1.0  -0.0951
  C  C415  1  0.837200  0.361790  0.166610  1.0  -0.0632
  C  C416  1  0.806810  0.333260  0.215540  1.0  -0.1115
  C  C417  1  0.854620  0.321490  0.716730  1.0  -0.0675
  C  C418  1  0.885200  0.350420  0.764570  1.0  -0.0735
  C  C419  1  0.877910  0.371170  0.825990  1.0  -0.0552
  C  C420  1  0.838350  0.361090  0.837660  1.0  -0.0493
  C  C421  1  0.807800  0.332190  0.789390  1.0  -0.116
  C  C422  1  0.666667  0.191920  0.787060  1.0  -0.1232
  C  C423  1  0.636990  0.161080  0.833300  1.0  -0.0625
  C  C424  1  0.626570  0.121510  0.820040  1.0  -0.042
  C  C425  1  0.647640  0.114440  0.759160  1.0  -0.07
  C  C426  1  0.677400  0.145320  0.713490  1.0  -0.105
  C  C427  1  0.091370  0.495280  0.866950  1.0  0.6438
  C  C428  1  0.909800  0.507480  0.871900  1.0  0.6435
  C  C429  1  0.091510  0.595540  0.867190  1.0  0.6496
  C  C430  1  0.909460  0.401930  0.871650  1.0  0.6581
  C  C431  1  0.909580  0.402620  0.127100  1.0  0.6213
  C  C432  1  0.091360  0.595190  0.131850  1.0  0.6384
  C  C433  1  0.909780  0.507090  0.127230  1.0  0.6603
  C  C434  1  0.091140  0.495820  0.132640  1.0  0.6453
  C  C435  1  0.405020  0.496040  0.132290  1.0  0.6483
  C  C436  1  0.598450  0.507680  0.127880  1.0  0.6533
  C  C437  1  0.505440  0.595910  0.133150  1.0  0.6502
  C  C438  1  0.492740  0.402290  0.128040  1.0  0.6627
  C  C439  1  0.491700  0.401390  0.869950  1.0  0.506
  C  C440  1  0.504910  0.595490  0.867530  1.0  0.6335
  C  C441  1  0.597900  0.507130  0.872730  1.0  0.6402
  C  C442  1  0.404070  0.495180  0.865510  1.0  0.5048
  C  C443  1  0.494160  0.090600  0.130600  1.0  0.4795
  C  C444  1  0.506690  0.909080  0.126720  1.0  0.6326
  C  C445  1  0.594840  0.090390  0.130540  1.0  0.639
  C  C446  1  0.401610  0.908950  0.124640  1.0  0.6264
  C  C447  1  0.402360  0.908340  0.869690  1.0  0.6553
  C  C448  1  0.595830  0.089920  0.865320  1.0  0.6385
  C  C449  1  0.506920  0.908250  0.872240  1.0  0.653
  C  C450  1  0.494820  0.089810  0.864880  1.0  0.659
  O  O451  1  0.055540  0.468580  0.848310  1.0  -0.596
  O  O452  1  0.099450  0.521050  0.924620  1.0  -0.5882
  O  O453  1  0.945660  0.534200  0.853810  1.0  -0.5836
  O  O454  1  0.901580  0.480800  0.927630  1.0  -0.5768
  O  O455  1  0.055710  0.586480  0.848640  1.0  -0.6013
  O  O456  1  0.099550  0.577840  0.924850  1.0  -0.5911
  O  O457  1  0.945320  0.410960  0.853430  1.0  -0.5973
  O  O458  1  0.901410  0.420570  0.927340  1.0  -0.5857
  O  O459  1  0.999670  0.459640  0.768600  1.0  -0.5965
  O  O460  1  0.001360  0.404020  0.904990  1.0  -0.6374
  O  O461  1  0.999680  0.538490  0.768930  1.0  -0.6019
  O  O462  1  0.003590  0.597960  0.896260  1.0  -0.599
  O  O463  1  0.035730  0.517550  0.881680  1.0  -0.7979
  O  O464  1  0.966050  0.482810  0.882650  1.0  -0.8789
  O  O465  1  0.945350  0.411680  0.145720  1.0  -0.6035
  O  O466  1  0.901380  0.420840  0.070910  1.0  -0.5711
  O  O467  1  0.055540  0.586160  0.149940  1.0  -0.5927
  O  O468  1  0.099510  0.577650  0.074070  1.0  -0.5883
  O  O469  1  0.945650  0.533830  0.145150  1.0  -0.5914
  O  O470  1  0.901540  0.480530  0.071190  1.0  -0.5791
  O  O471  1  0.055270  0.469280  0.151260  1.0  -0.5949
  O  O472  1  0.099360  0.521230  0.074260  1.0  -0.5962
  O  O473  1  0.999810  0.450290  0.227310  1.0  -0.654
  O  O474  1  0.000930  0.403970  0.081680  1.0  -0.6474
  O  O475  1  0.997870  0.544400  0.228630  1.0  -0.6374
  O  O476  1  0.001740  0.596940  0.087930  1.0  -0.6568
  O  O477  1  0.966420  0.482920  0.115330  1.0  -0.8533
  O  O478  1  0.035200  0.517210  0.116620  1.0  -0.8299
  O  O479  1  0.964600  0.432640  0.998430  1.0  -0.8181
  O  O480  1  0.035390  0.566380  0.998920  1.0  -0.8919
  O  O481  1  0.035460  0.468450  0.998610  1.0  -0.9005
  O  O482  1  0.964890  0.531660  0.998780  1.0  -0.7731
  O  O483  1  0.413910  0.469230  0.151180  1.0  -0.5879
  O  O484  1  0.422790  0.521860  0.074930  1.0  -0.5802
  O  O485  1  0.589470  0.534420  0.146490  1.0  -0.5807
  O  O486  1  0.579860  0.480980  0.072420  1.0  -0.5783
  O  O487  1  0.532070  0.586840  0.152030  1.0  -0.5988
  O  O488  1  0.479810  0.578480  0.075410  1.0  -0.5795
  O  O489  1  0.465930  0.411340  0.145890  1.0  -0.5864
  O  O490  1  0.519630  0.420950  0.072770  1.0  -0.5907
  O  O491  1  0.460350  0.459740  0.230870  1.0  -0.5992
  O  O492  1  0.403320  0.404720  0.093320  1.0  -0.6655
  O  O493  1  0.539870  0.538790  0.231170  1.0  -0.5921
  O  O494  1  0.595490  0.598340  0.103770  1.0  -0.6058
  O  O495  1  0.482890  0.518100  0.118390  1.0  -0.7997
  O  O496  1  0.517510  0.483190  0.117330  1.0  -0.8806
  O  O497  1  0.465540  0.411430  0.852960  1.0  -0.6154
  O  O498  1  0.521080  0.419770  0.931690  1.0  -0.5861
  O  O499  1  0.531390  0.586130  0.848720  1.0  -0.5952
  O  O500  1  0.479440  0.578150  0.925650  1.0  -0.6085
  O  O501  1  0.588690  0.533670  0.853790  1.0  -0.5928
  O  O502  1  0.579700  0.480770  0.929030  1.0  -0.5801
  O  O503  1  0.413740  0.468700  0.848660  1.0  -0.606
  O  O504  1  0.421890  0.523770  0.928770  1.0  -0.6191
  O  O505  1  0.455880  0.453730  0.771130  1.0  -0.6336
  O  O506  1  0.403560  0.404700  0.914790  1.0  -0.6177
  O  O507  1  0.548580  0.548600  0.771670  1.0  -0.6388
  O  O508  1  0.596370  0.596920  0.915050  1.0  -0.6657
  O  O509  1  0.517330  0.483120  0.884620  1.0  -0.8524
  O  O510  1  0.482920  0.517920  0.883320  1.0  -0.748
  O  O511  1  0.468840  0.433210  0.000750  1.0  -0.8128
  O  O512  1  0.532230  0.566980  0.001180  1.0  -0.8946
  O  O513  1  0.433990  0.469270  0.000660  1.0  -0.9094
  O  O514  1  0.567770  0.532050  0.001250  1.0  -0.7787
  O  O515  1  0.467820  0.054570  0.148410  1.0  -0.5974
  O  O516  1  0.522690  0.101500  0.067140  1.0  -0.6245
  O  O517  1  0.533350  0.944880  0.145130  1.0  -0.581
  O  O518  1  0.480210  0.900730  0.070570  1.0  -0.5796
  O  O519  1  0.585710  0.054700  0.149750  1.0  -0.599
  O  O520  1  0.577520  0.098460  0.072170  1.0  -0.5873
  O  O521  1  0.410560  0.944760  0.142740  1.0  -0.582
  O  O522  1  0.420150  0.900680  0.069270  1.0  -0.5755
  O  O523  1  0.458990  0.999220  0.227390  1.0  -0.6088
  O  O524  1  0.403800  0.000840  0.089130  1.0  -0.6604
  O  O525  1  0.537220  0.999150  0.228900  1.0  -0.6496
  O  O526  1  0.597260  0.002560  0.103440  1.0  -0.5988
  O  O527  1  0.517140  0.035200  0.114520  1.0  -0.7987
  O  O528  1  0.482210  0.965290  0.114520  1.0  -0.8753
  O  O529  1  0.411470  0.944160  0.851190  1.0  -0.5911
  O  O530  1  0.420750  0.900330  0.925940  1.0  -0.5875
  O  O531  1  0.586730  0.054060  0.847360  1.0  -0.5935
  O  O532  1  0.577990  0.098090  0.922240  1.0  -0.5912
  O  O533  1  0.533820  0.944000  0.853970  1.0  -0.5914
  O  O534  1  0.480190  0.900300  0.927610  1.0  -0.5897
  O  O535  1  0.468640  0.054010  0.845410  1.0  -0.5863
  O  O536  1  0.520290  0.098120  0.923070  1.0  -0.5925
  O  O537  1  0.451440  0.996240  0.768020  1.0  -0.6211
  O  O538  1  0.404220  0.000220  0.911010  1.0  -0.6412
  O  O539  1  0.545290  0.995730  0.769230  1.0  -0.6374
  O  O540  1  0.596970  0.000280  0.911520  1.0  -0.6645
  O  O541  1  0.483090  0.965230  0.881640  1.0  -0.8643
  O  O542  1  0.517600  0.034040  0.879370  1.0  -0.815
  O  O543  1  0.432510  0.963770  0.997610  1.0  -0.81
  O  O544  1  0.566330  0.034210  0.998610  1.0  -0.8913
  O  O545  1  0.468580  0.034550  0.997040  1.0  -0.9088
  O  O546  1  0.531400  0.963840  0.999560  1.0  -0.7593
