# generated using pymatgen
data_Zn6Cr3H60C90N6O43
_symmetry_space_group_name_H-M   'P 1'
_cell_length_a   19.23430000
_cell_length_b   19.23430000
_cell_length_c   36.00900000
_cell_angle_alpha   90.00000000
_cell_angle_beta   90.00000000
_cell_angle_gamma   120.00000000
_symmetry_Int_Tables_number   1
_chemical_formula_structural   Zn6Cr3H60C90N6O43
_chemical_formula_sum   'Zn12 Cr6 H120 C180 N12 O86'
_cell_volume   11537.04173119
_cell_formula_units_Z   2
loop_
 _symmetry_equiv_pos_site_id
 _symmetry_equiv_pos_as_xyz
  1  'x, y, z'
loop_
 _atom_site_type_symbol
 _atom_site_label
 _atom_site_symmetry_multiplicity
 _atom_site_fract_x
 _atom_site_fract_y
 _atom_site_fract_z
 _atom_site_occupancy
 _atom_site_charge
  Zn  Zn1  1  0.046100  0.523050  0.034490  1.0  0.9151
  Zn  Zn2  1  0.476950  0.523050  0.034490  1.0  0.9151
  Zn  Zn3  1  0.476950  0.953900  0.034490  1.0  0.9155
  Zn  Zn4  1  0.953900  0.476950  0.534490  1.0  0.9159
  Zn  Zn5  1  0.523050  0.476950  0.534490  1.0  0.9155
  Zn  Zn6  1  0.523050  0.046100  0.534490  1.0  0.9148
  Zn  Zn7  1  0.523050  0.046100  0.965510  1.0  0.916
  Zn  Zn8  1  0.523050  0.476950  0.965510  1.0  0.9151
  Zn  Zn9  1  0.953900  0.476950  0.965510  1.0  0.9138
  Zn  Zn10  1  0.476950  0.953900  0.465510  1.0  0.9154
  Zn  Zn11  1  0.476950  0.523050  0.465510  1.0  0.9141
  Zn  Zn12  1  0.046100  0.523050  0.465510  1.0  0.9157
  Cr  Cr13  1  0.448090  0.724040  0.250000  1.0  1.4759
  Cr  Cr14  1  0.275960  0.724040  0.250000  1.0  1.4298
  Cr  Cr15  1  0.275960  0.551910  0.250000  1.0  1.4486
  Cr  Cr16  1  0.551910  0.275960  0.750000  1.0  1.4491
  Cr  Cr17  1  0.724040  0.275960  0.750000  1.0  1.4501
  Cr  Cr18  1  0.724040  0.448090  0.750000  1.0  1.4465
  H  H19  1  0.282200  0.922400  0.919900  1.0  0.1002
  H  H20  1  0.909900  0.555000  0.593000  1.0  0.0735
  H  H21  1  0.232200  0.964600  0.882900  1.0  0.1104
  H  H22  1  0.674800  0.142300  0.847700  1.0  0.1126
  H  H23  1  0.077600  0.359800  0.919900  1.0  0.1097
  H  H24  1  0.445000  0.354900  0.593000  1.0  0.0807
  H  H25  1  0.857700  0.532500  0.847700  1.0  0.1153
  H  H26  1  0.245900  0.330300  0.851200  1.0  0.1057
  H  H27  1  0.936500  0.760200  0.347300  1.0  0.1128
  H  H28  1  0.640200  0.717800  0.919900  1.0  0.108
  H  H29  1  0.645100  0.090100  0.593000  1.0  0.0793
  H  H30  1  0.467500  0.325200  0.847700  1.0  0.112
  H  H31  1  0.669700  0.915600  0.851200  1.0  0.1054
  H  H32  1  0.717800  0.077600  0.419900  1.0  0.1071
  H  H33  1  0.090100  0.445000  0.093000  1.0  0.0795
  H  H34  1  0.325200  0.857700  0.347700  1.0  0.1125
  H  H35  1  0.915600  0.245900  0.351200  1.0  0.1086
  H  H36  1  0.176300  0.936500  0.847300  1.0  0.1102
  H  H37  1  0.922400  0.640200  0.419900  1.0  0.0984
  H  H38  1  0.555000  0.645100  0.093000  1.0  0.0789
  H  H39  1  0.964600  0.732400  0.382900  1.0  0.111
  H  H40  1  0.142300  0.467500  0.347700  1.0  0.1126
  H  H41  1  0.359800  0.282200  0.419900  1.0  0.1106
  H  H42  1  0.354900  0.909900  0.093000  1.0  0.0794
  H  H43  1  0.532500  0.674800  0.347700  1.0  0.1138
  H  H44  1  0.330300  0.084400  0.351200  1.0  0.1039
  H  H45  1  0.922400  0.282200  0.080100  1.0  0.1084
  H  H46  1  0.555000  0.909900  0.407000  1.0  0.0814
  H  H47  1  0.142300  0.674800  0.152300  1.0  0.1124
  H  H48  1  0.754100  0.084400  0.148800  1.0  0.1054
  H  H49  1  0.063500  0.823700  0.652700  1.0  0.1155
  H  H50  1  0.359800  0.077600  0.080100  1.0  0.1074
  H  H51  1  0.354900  0.445000  0.407000  1.0  0.0794
  H  H52  1  0.532500  0.857700  0.152300  1.0  0.1126
  H  H53  1  0.330300  0.245900  0.148800  1.0  0.1099
  H  H54  1  0.717800  0.640200  0.080100  1.0  0.1085
  H  H55  1  0.090100  0.645100  0.407000  1.0  0.0731
  H  H56  1  0.325200  0.467500  0.152300  1.0  0.113
  H  H57  1  0.915600  0.669700  0.148800  1.0  0.1099
  H  H58  1  0.077600  0.717800  0.580100  1.0  0.0993
  H  H59  1  0.445000  0.090100  0.907000  1.0  0.0735
  H  H60  1  0.035400  0.767800  0.617100  1.0  0.1115
  H  H61  1  0.857700  0.325200  0.652300  1.0  0.1123
  H  H62  1  0.640200  0.922400  0.580100  1.0  0.1089
  H  H63  1  0.645100  0.555000  0.907000  1.0  0.0809
  H  H64  1  0.467500  0.142300  0.652300  1.0  0.1144
  H  H65  1  0.669700  0.754100  0.648800  1.0  0.1072
  H  H66  1  0.282200  0.359800  0.580100  1.0  0.1076
  H  H67  1  0.909900  0.354900  0.907000  1.0  0.0792
  H  H68  1  0.674800  0.532500  0.652300  1.0  0.1131
  H  H69  1  0.084400  0.330300  0.648800  1.0  0.1087
  H  H70  1  0.760200  0.823700  0.652700  1.0  0.1164
  H  H71  1  0.717800  0.077600  0.080100  1.0  0.0991
  H  H72  1  0.090100  0.445000  0.407000  1.0  0.0731
  H  H73  1  0.767800  0.035400  0.117100  1.0  0.1102
  H  H74  1  0.325200  0.857700  0.152300  1.0  0.1148
  H  H75  1  0.922400  0.640200  0.080100  1.0  0.0999
  H  H76  1  0.555000  0.645100  0.407000  1.0  0.0808
  H  H77  1  0.964600  0.732400  0.117100  1.0  0.1123
  H  H78  1  0.142300  0.467500  0.152300  1.0  0.1159
  H  H79  1  0.063500  0.239800  0.652700  1.0  0.1184
  H  H80  1  0.359800  0.282200  0.080100  1.0  0.0997
  H  H81  1  0.354900  0.909900  0.407000  1.0  0.0731
  H  H82  1  0.267600  0.232200  0.117100  1.0  0.1096
  H  H83  1  0.532500  0.674800  0.152300  1.0  0.1145
  H  H84  1  0.239800  0.176300  0.152700  1.0  0.1176
  H  H85  1  0.282200  0.922400  0.580100  1.0  0.1082
  H  H86  1  0.909900  0.555000  0.907000  1.0  0.0811
  H  H87  1  0.674800  0.142300  0.652300  1.0  0.115
  H  H88  1  0.084400  0.754100  0.648800  1.0  0.1113
  H  H89  1  0.823700  0.063500  0.152700  1.0  0.1177
  H  H90  1  0.077600  0.359800  0.580100  1.0  0.0993
  H  H91  1  0.445000  0.354900  0.907000  1.0  0.0737
  H  H92  1  0.035400  0.267600  0.617100  1.0  0.1106
  H  H93  1  0.857700  0.532500  0.652300  1.0  0.1136
  H  H94  1  0.936500  0.760200  0.152700  1.0  0.1176
  H  H95  1  0.640200  0.717800  0.580100  1.0  0.1
  H  H96  1  0.645100  0.090100  0.907000  1.0  0.0729
  H  H97  1  0.732400  0.767800  0.617100  1.0  0.1103
  H  H98  1  0.467500  0.325200  0.652300  1.0  0.1141
  H  H99  1  0.077600  0.717800  0.919900  1.0  0.1087
  H  H100  1  0.445000  0.090100  0.593000  1.0  0.0812
  H  H101  1  0.857700  0.325200  0.847700  1.0  0.1143
  H  H102  1  0.245900  0.915600  0.851200  1.0  0.1069
  H  H103  1  0.936500  0.176300  0.347300  1.0  0.1147
  H  H104  1  0.640200  0.922400  0.919900  1.0  0.0992
  H  H105  1  0.645100  0.555000  0.593000  1.0  0.0729
  H  H106  1  0.732400  0.964600  0.882900  1.0  0.1118
  H  H107  1  0.467500  0.142300  0.847700  1.0  0.1124
  H  H108  1  0.239800  0.063500  0.347300  1.0  0.1108
  H  H109  1  0.282200  0.359800  0.919900  1.0  0.0984
  H  H110  1  0.909900  0.354900  0.593000  1.0  0.0738
  H  H111  1  0.232200  0.267600  0.882900  1.0  0.1117
  H  H112  1  0.674800  0.532500  0.847700  1.0  0.115
  H  H113  1  0.176300  0.239800  0.847300  1.0  0.1162
  H  H114  1  0.922400  0.282200  0.419900  1.0  0.0988
  H  H115  1  0.555000  0.909900  0.093000  1.0  0.0735
  H  H116  1  0.964600  0.232200  0.382900  1.0  0.1103
  H  H117  1  0.142300  0.674800  0.347700  1.0  0.1122
  H  H118  1  0.359800  0.077600  0.419900  1.0  0.1002
  H  H119  1  0.354900  0.445000  0.093000  1.0  0.074
  H  H120  1  0.267600  0.035400  0.382900  1.0  0.1091
  H  H121  1  0.532500  0.857700  0.347700  1.0  0.114
  H  H122  1  0.760200  0.936500  0.847300  1.0  0.1137
  H  H123  1  0.717800  0.640200  0.419900  1.0  0.1088
  H  H124  1  0.090100  0.645100  0.093000  1.0  0.0734
  H  H125  1  0.325200  0.467500  0.347700  1.0  0.1151
  H  H126  1  0.915600  0.669700  0.351200  1.0  0.1118
  H  H127  1  0.764300  0.235700  0.999700  1.0  0.1038
  H  H128  1  0.764300  0.528600  0.999700  1.0  0.1038
  H  H129  1  0.471400  0.235700  0.999700  1.0  0.1051
  H  H130  1  0.235700  0.764300  0.499700  1.0  0.1052
  H  H131  1  0.235700  0.471400  0.499700  1.0  0.1035
  H  H132  1  0.528600  0.764300  0.499700  1.0  0.1036
  H  H133  1  0.235700  0.764300  0.000300  1.0  0.1039
  H  H134  1  0.528600  0.764300  0.000300  1.0  0.1041
  H  H135  1  0.235700  0.471400  0.000300  1.0  0.1036
  H  H136  1  0.764300  0.235700  0.500300  1.0  0.1039
  H  H137  1  0.471400  0.235700  0.500300  1.0  0.1039
  H  H138  1  0.764300  0.528600  0.500300  1.0  0.1051
  C  C139  1  0.101900  0.493100  0.394950  1.0  0.1723
  C  C140  1  0.794100  0.077700  0.135400  1.0  -0.0674
  C  C141  1  0.567000  0.721300  0.959090  1.0  -0.0962
  C  C142  1  0.902130  0.357630  0.023440  1.0  0.6965
  C  C143  1  0.373000  0.505500  0.140700  1.0  -0.175
  C  C144  1  0.378800  0.129700  0.429200  1.0  -0.1877
  C  C145  1  0.506900  0.608800  0.394950  1.0  0.1738
  C  C146  1  0.922300  0.716400  0.135400  1.0  -0.069
  C  C147  1  0.278700  0.845700  0.959090  1.0  -0.0962
  C  C148  1  0.642370  0.544500  0.023440  1.0  0.6962
  C  C149  1  0.494500  0.867500  0.140700  1.0  -0.1755
  C  C150  1  0.870300  0.249100  0.429200  1.0  -0.1869
  C  C151  1  0.391200  0.898100  0.394950  1.0  0.1707
  C  C152  1  0.283600  0.205900  0.135400  1.0  -0.0679
  C  C153  1  0.154300  0.433000  0.959090  1.0  -0.097
  C  C154  1  0.455500  0.097870  0.023440  1.0  0.6952
  C  C155  1  0.132500  0.627000  0.140700  1.0  -0.1768
  C  C156  1  0.750900  0.621200  0.429200  1.0  -0.1253
  C  C157  1  0.898100  0.506900  0.894950  1.0  0.1741
  C  C158  1  0.433000  0.278700  0.459090  1.0  -0.0951
  C  C159  1  0.097870  0.642370  0.523440  1.0  0.6957
  C  C160  1  0.627000  0.494500  0.640700  1.0  -0.1757
  C  C161  1  0.621200  0.870300  0.929200  1.0  -0.1862
  C  C162  1  0.493100  0.391200  0.894950  1.0  0.1725
  C  C163  1  0.077700  0.283600  0.635400  1.0  -0.0703
  C  C164  1  0.721300  0.154300  0.459090  1.0  -0.0957
  C  C165  1  0.357630  0.455500  0.523440  1.0  0.6959
  C  C166  1  0.505500  0.132500  0.640700  1.0  -0.1612
  C  C167  1  0.129700  0.750900  0.929200  1.0  -0.1242
  C  C168  1  0.608800  0.101900  0.894950  1.0  0.1721
  C  C169  1  0.716400  0.794100  0.635400  1.0  -0.0678
  C  C170  1  0.845700  0.567000  0.459090  1.0  -0.1008
  C  C171  1  0.544500  0.902130  0.523440  1.0  0.6958
  C  C172  1  0.867500  0.373000  0.640700  1.0  -0.1753
  C  C173  1  0.249100  0.378800  0.929200  1.0  -0.1876
  C  C174  1  0.493100  0.101900  0.605050  1.0  0.1755
  C  C175  1  0.721300  0.567000  0.040910  1.0  -0.098
  C  C176  1  0.357630  0.902130  0.976560  1.0  0.6943
  C  C177  1  0.505500  0.373000  0.859300  1.0  -0.1761
  C  C178  1  0.129700  0.378800  0.570800  1.0  -0.1896
  C  C179  1  0.608800  0.506900  0.605050  1.0  0.1706
  C  C180  1  0.716400  0.922300  0.864600  1.0  -0.0653
  C  C181  1  0.845700  0.278700  0.040910  1.0  -0.095
  C  C182  1  0.544500  0.642370  0.976560  1.0  0.6971
  C  C183  1  0.867500  0.494500  0.859300  1.0  -0.1654
  C  C184  1  0.249100  0.870300  0.570800  1.0  -0.1243
  C  C185  1  0.898100  0.391200  0.605050  1.0  0.1708
  C  C186  1  0.205900  0.283600  0.864600  1.0  -0.0675
  C  C187  1  0.433000  0.154300  0.040910  1.0  -0.0999
  C  C188  1  0.097870  0.455500  0.976560  1.0  0.6963
  C  C189  1  0.627000  0.132500  0.859300  1.0  -0.1754
  C  C190  1  0.621200  0.750900  0.570800  1.0  -0.189
  C  C191  1  0.506900  0.898100  0.105050  1.0  0.1707
  C  C192  1  0.922300  0.205900  0.364600  1.0  -0.0673
  C  C193  1  0.278700  0.433000  0.540910  1.0  -0.0972
  C  C194  1  0.642370  0.097870  0.476560  1.0  0.6956
  C  C195  1  0.494500  0.627000  0.359300  1.0  -0.1629
  C  C196  1  0.870300  0.621200  0.070800  1.0  -0.1899
  C  C197  1  0.391200  0.493100  0.105050  1.0  0.1708
  C  C198  1  0.283600  0.077700  0.364600  1.0  -0.0692
  C  C199  1  0.154300  0.721300  0.540910  1.0  -0.1002
  C  C200  1  0.455500  0.357630  0.476560  1.0  0.6968
  C  C201  1  0.132500  0.505500  0.359300  1.0  -0.1746
  C  C202  1  0.750900  0.129700  0.070800  1.0  -0.1872
  C  C203  1  0.101900  0.608800  0.105050  1.0  0.1712
  C  C204  1  0.567000  0.845700  0.540910  1.0  -0.0959
  C  C205  1  0.902130  0.544500  0.476560  1.0  0.6951
  C  C206  1  0.373000  0.867500  0.359300  1.0  -0.1761
  C  C207  1  0.378800  0.249100  0.070800  1.0  -0.1874
  C  C208  1  0.898100  0.506900  0.605050  1.0  0.1724
  C  C209  1  0.205900  0.922300  0.864600  1.0  -0.0697
  C  C210  1  0.433000  0.278700  0.040910  1.0  -0.0991
  C  C211  1  0.097870  0.642370  0.976560  1.0  0.696
  C  C212  1  0.627000  0.494500  0.859300  1.0  -0.1696
  C  C213  1  0.621200  0.870300  0.570800  1.0  -0.1312
  C  C214  1  0.493100  0.391200  0.605050  1.0  0.1771
  C  C215  1  0.721300  0.154300  0.040910  1.0  -0.0987
  C  C216  1  0.357630  0.455500  0.976560  1.0  0.6952
  C  C217  1  0.505500  0.132500  0.859300  1.0  -0.1756
  C  C218  1  0.129700  0.750900  0.570800  1.0  -0.1866
  C  C219  1  0.608800  0.101900  0.605050  1.0  0.1767
  C  C220  1  0.845700  0.567000  0.040910  1.0  -0.0985
  C  C221  1  0.544500  0.902130  0.976560  1.0  0.6959
  C  C222  1  0.867500  0.373000  0.859300  1.0  -0.164
  C  C223  1  0.249100  0.378800  0.570800  1.0  -0.1285
  C  C224  1  0.101900  0.493100  0.105050  1.0  0.1768
  C  C225  1  0.567000  0.721300  0.540910  1.0  -0.0988
  C  C226  1  0.902130  0.357630  0.476560  1.0  0.6957
  C  C227  1  0.373000  0.505500  0.359300  1.0  -0.1649
  C  C228  1  0.378800  0.129700  0.070800  1.0  -0.1207
  C  C229  1  0.506900  0.608800  0.105050  1.0  0.1768
  C  C230  1  0.922300  0.716400  0.364600  1.0  -0.069
  C  C231  1  0.278700  0.845700  0.540910  1.0  -0.1
  C  C232  1  0.642370  0.544500  0.476560  1.0  0.696
  C  C233  1  0.494500  0.867500  0.359300  1.0  -0.1657
  C  C234  1  0.870300  0.249100  0.070800  1.0  -0.1269
  C  C235  1  0.391200  0.898100  0.105050  1.0  0.1779
  C  C236  1  0.154300  0.433000  0.540910  1.0  -0.1
  C  C237  1  0.455500  0.097870  0.476560  1.0  0.6938
  C  C238  1  0.132500  0.627000  0.359300  1.0  -0.1767
  C  C239  1  0.750900  0.621200  0.070800  1.0  -0.1305
  C  C240  1  0.506900  0.898100  0.394950  1.0  0.1774
  C  C241  1  0.278700  0.433000  0.959090  1.0  -0.1005
  C  C242  1  0.642370  0.097870  0.023440  1.0  0.6956
  C  C243  1  0.494500  0.627000  0.140700  1.0  -0.1651
  C  C244  1  0.870300  0.621200  0.429200  1.0  -0.1877
  C  C245  1  0.391200  0.493100  0.394950  1.0  0.176
  C  C246  1  0.154300  0.721300  0.959090  1.0  -0.1
  C  C247  1  0.455500  0.357630  0.023440  1.0  0.6957
  C  C248  1  0.132500  0.505500  0.140700  1.0  -0.1703
  C  C249  1  0.750900  0.129700  0.429200  1.0  -0.1299
  C  C250  1  0.101900  0.608800  0.394950  1.0  0.1727
  C  C251  1  0.567000  0.845700  0.959090  1.0  -0.099
  C  C252  1  0.902130  0.544500  0.023440  1.0  0.694
  C  C253  1  0.373000  0.867500  0.140700  1.0  -0.167
  C  C254  1  0.378800  0.249100  0.429200  1.0  -0.1317
  C  C255  1  0.493100  0.101900  0.894950  1.0  0.1729
  C  C256  1  0.077700  0.794100  0.635400  1.0  -0.071
  C  C257  1  0.721300  0.567000  0.459090  1.0  -0.101
  C  C258  1  0.357630  0.902130  0.523440  1.0  0.6956
  C  C259  1  0.505500  0.373000  0.640700  1.0  -0.1682
  C  C260  1  0.129700  0.378800  0.929200  1.0  -0.1316
  C  C261  1  0.608800  0.506900  0.894950  1.0  0.1765
  C  C262  1  0.845700  0.278700  0.459090  1.0  -0.099
  C  C263  1  0.544500  0.642370  0.523440  1.0  0.6946
  C  C264  1  0.867500  0.494500  0.640700  1.0  -0.1769
  C  C265  1  0.249100  0.870300  0.929200  1.0  -0.1879
  C  C266  1  0.898100  0.391200  0.894950  1.0  0.1758
  C  C267  1  0.433000  0.154300  0.459090  1.0  -0.0974
  C  C268  1  0.097870  0.455500  0.523440  1.0  0.696
  C  C269  1  0.627000  0.132500  0.640700  1.0  -0.1613
  C  C270  1  0.621200  0.750900  0.929200  1.0  -0.1286
  C  C271  1  0.175750  0.824250  0.587500  1.0  0.2618
  C  C272  1  0.175750  0.351500  0.587500  1.0  0.2635
  C  C273  1  0.648500  0.824250  0.587500  1.0  0.2593
  C  C274  1  0.824250  0.175750  0.087500  1.0  0.2639
  C  C275  1  0.824250  0.648500  0.087500  1.0  0.2576
  C  C276  1  0.351500  0.175750  0.087500  1.0  0.2613
  C  C277  1  0.824250  0.175750  0.412500  1.0  0.2636
  C  C278  1  0.351500  0.175750  0.412500  1.0  0.2581
  C  C279  1  0.824250  0.648500  0.412500  1.0  0.259
  C  C280  1  0.175750  0.824250  0.912500  1.0  0.2582
  C  C281  1  0.648500  0.824250  0.912500  1.0  0.2639
  C  C282  1  0.175750  0.351500  0.912500  1.0  0.261
  C  C283  1  0.852140  0.426070  0.841390  1.0  -0.1112
  C  C284  1  0.449000  0.224500  0.476350  1.0  0.0113
  C  C285  1  0.573930  0.426070  0.841390  1.0  -0.1163
  C  C286  1  0.775500  0.224500  0.476350  1.0  0.0059
  C  C287  1  0.573930  0.147860  0.841390  1.0  -0.1078
  C  C288  1  0.775500  0.551000  0.476350  1.0  0.0136
  C  C289  1  0.147860  0.573930  0.341390  1.0  -0.1089
  C  C290  1  0.551000  0.775500  0.976350  1.0  0.0067
  C  C291  1  0.426070  0.573930  0.341390  1.0  -0.1097
  C  C292  1  0.224500  0.775500  0.976350  1.0  0.0068
  C  C293  1  0.426070  0.852140  0.341390  1.0  -0.1142
  C  C294  1  0.224500  0.449000  0.976350  1.0  0.0068
  C  C295  1  0.426070  0.852140  0.158610  1.0  -0.1158
  C  C296  1  0.224500  0.449000  0.523650  1.0  0.0078
  C  C297  1  0.426070  0.573930  0.158610  1.0  -0.1151
  C  C298  1  0.224500  0.775500  0.523650  1.0  0.0123
  C  C299  1  0.147860  0.573930  0.158610  1.0  -0.1172
  C  C300  1  0.551000  0.775500  0.523650  1.0  0.0108
  C  C301  1  0.573930  0.147860  0.658610  1.0  -0.1098
  C  C302  1  0.775500  0.551000  0.023650  1.0  0.0114
  C  C303  1  0.573930  0.426070  0.658610  1.0  -0.1174
  C  C304  1  0.775500  0.224500  0.023650  1.0  0.0078
  C  C305  1  0.852140  0.426070  0.658610  1.0  -0.1094
  C  C306  1  0.449000  0.224500  0.023650  1.0  0.0123
  C  C307  1  0.406020  0.812040  0.196200  1.0  0.7173
  C  C308  1  0.187960  0.593980  0.196200  1.0  0.7202
  C  C309  1  0.406020  0.593980  0.196200  1.0  0.7092
  C  C310  1  0.593980  0.187960  0.696200  1.0  0.7164
  C  C311  1  0.812040  0.406020  0.696200  1.0  0.7068
  C  C312  1  0.593980  0.406020  0.696200  1.0  0.7202
  C  C313  1  0.812040  0.406020  0.803800  1.0  0.7215
  C  C314  1  0.593980  0.187960  0.803800  1.0  0.7015
  C  C315  1  0.593980  0.406020  0.803800  1.0  0.7207
  C  C316  1  0.187960  0.593980  0.303800  1.0  0.706
  C  C317  1  0.406020  0.812040  0.303800  1.0  0.7171
  C  C318  1  0.406020  0.593980  0.303800  1.0  0.722
  N  N319  1  0.911580  0.455790  0.912950  1.0  -0.2804
  N  N320  1  0.544210  0.455790  0.912950  1.0  -0.2748
  N  N321  1  0.544210  0.088420  0.912950  1.0  -0.2733
  N  N322  1  0.088420  0.544210  0.412950  1.0  -0.2728
  N  N323  1  0.455790  0.544210  0.412950  1.0  -0.2803
  N  N324  1  0.455790  0.911580  0.412950  1.0  -0.2753
  N  N325  1  0.455790  0.911580  0.087050  1.0  -0.276
  N  N326  1  0.455790  0.544210  0.087050  1.0  -0.2762
  N  N327  1  0.088420  0.544210  0.087050  1.0  -0.2756
  N  N328  1  0.544210  0.088420  0.587050  1.0  -0.2824
  N  N329  1  0.544210  0.455790  0.587050  1.0  -0.2761
  N  N330  1  0.911580  0.455790  0.587050  1.0  -0.2727
  O  O331  1  0.630130  0.113320  0.991280  1.0  -0.5862
  O  O332  1  0.444930  0.406030  0.042420  1.0  -0.6103
  O  O333  1  0.340600  0.797880  0.210030  1.0  -0.6389
  O  O334  1  0.886680  0.516810  0.991280  1.0  -0.5869
  O  O335  1  0.593970  0.038900  0.042420  1.0  -0.6128
  O  O336  1  0.202120  0.542720  0.210030  1.0  -0.6385
  O  O337  1  0.483190  0.369870  0.991280  1.0  -0.5854
  O  O338  1  0.961100  0.555070  0.042420  1.0  -0.6125
  O  O339  1  0.457280  0.659400  0.210030  1.0  -0.6409
  O  O340  1  0.369870  0.886680  0.491280  1.0  -0.5872
  O  O341  1  0.555070  0.593970  0.542420  1.0  -0.6114
  O  O342  1  0.659400  0.202120  0.710030  1.0  -0.6379
  O  O343  1  0.113320  0.483190  0.491280  1.0  -0.587
  O  O344  1  0.406030  0.961100  0.542420  1.0  -0.6214
  O  O345  1  0.797880  0.457280  0.710030  1.0  -0.6304
  O  O346  1  0.516810  0.630130  0.491280  1.0  -0.5846
  O  O347  1  0.038900  0.444930  0.542420  1.0  -0.611
  O  O348  1  0.542720  0.340600  0.710030  1.0  -0.64
  O  O349  1  0.113320  0.630130  0.008720  1.0  -0.5852
  O  O350  1  0.406030  0.444930  0.957580  1.0  -0.6126
  O  O351  1  0.797880  0.340600  0.789970  1.0  -0.6381
  O  O352  1  0.516810  0.886680  0.008720  1.0  -0.5869
  O  O353  1  0.038900  0.593970  0.957580  1.0  -0.6182
  O  O354  1  0.542720  0.202120  0.789970  1.0  -0.6313
  O  O355  1  0.369870  0.483190  0.008720  1.0  -0.586
  O  O356  1  0.555070  0.961100  0.957580  1.0  -0.6127
  O  O357  1  0.659400  0.457280  0.789970  1.0  -0.6401
  O  O358  1  0.886680  0.369870  0.508720  1.0  -0.5852
  O  O359  1  0.593970  0.555070  0.457580  1.0  -0.6179
  O  O360  1  0.202120  0.659400  0.289970  1.0  -0.6333
  O  O361  1  0.483190  0.113320  0.508720  1.0  -0.5864
  O  O362  1  0.961100  0.406030  0.457580  1.0  -0.6111
  O  O363  1  0.457280  0.797880  0.289970  1.0  -0.6393
  O  O364  1  0.630130  0.516810  0.508720  1.0  -0.5874
  O  O365  1  0.444930  0.038900  0.457580  1.0  -0.6134
  O  O366  1  0.340600  0.542720  0.289970  1.0  -0.6376
  O  O367  1  0.369870  0.886680  0.008720  1.0  -0.5867
  O  O368  1  0.555070  0.593970  0.957580  1.0  -0.6149
  O  O369  1  0.659400  0.202120  0.789970  1.0  -0.6316
  O  O370  1  0.113320  0.483190  0.008720  1.0  -0.5858
  O  O371  1  0.406030  0.961100  0.957580  1.0  -0.6133
  O  O372  1  0.797880  0.457280  0.789970  1.0  -0.6388
  O  O373  1  0.516810  0.630130  0.008720  1.0  -0.5841
  O  O374  1  0.038900  0.444930  0.957580  1.0  -0.6181
  O  O375  1  0.542720  0.340600  0.789970  1.0  -0.6318
  O  O376  1  0.630130  0.113320  0.508720  1.0  -0.5859
  O  O377  1  0.444930  0.406030  0.457580  1.0  -0.6189
  O  O378  1  0.340600  0.797880  0.289970  1.0  -0.6313
  O  O379  1  0.886680  0.516810  0.508720  1.0  -0.5863
  O  O380  1  0.593970  0.038900  0.457580  1.0  -0.6167
  O  O381  1  0.202120  0.542720  0.289970  1.0  -0.6305
  O  O382  1  0.483190  0.369870  0.508720  1.0  -0.5843
  O  O383  1  0.961100  0.555070  0.457580  1.0  -0.612
  O  O384  1  0.457280  0.659400  0.289970  1.0  -0.6404
  O  O385  1  0.886680  0.369870  0.991280  1.0  -0.5846
  O  O386  1  0.593970  0.555070  0.042420  1.0  -0.6153
  O  O387  1  0.202120  0.659400  0.210030  1.0  -0.6333
  O  O388  1  0.483190  0.113320  0.991280  1.0  -0.5862
  O  O389  1  0.961100  0.406030  0.042420  1.0  -0.6153
  O  O390  1  0.457280  0.797880  0.210030  1.0  -0.6317
  O  O391  1  0.630130  0.516810  0.991280  1.0  -0.5863
  O  O392  1  0.444930  0.038900  0.042420  1.0  -0.6171
  O  O393  1  0.340600  0.542720  0.210030  1.0  -0.6303
  O  O394  1  0.113320  0.630130  0.491280  1.0  -0.5852
  O  O395  1  0.406030  0.444930  0.542420  1.0  -0.6155
  O  O396  1  0.797880  0.340600  0.710030  1.0  -0.6301
  O  O397  1  0.516810  0.886680  0.491280  1.0  -0.5868
  O  O398  1  0.038900  0.593970  0.542420  1.0  -0.6107
  O  O399  1  0.542720  0.202120  0.710030  1.0  -0.6385
  O  O400  1  0.369870  0.483190  0.491280  1.0  -0.5857
  O  O401  1  0.555070  0.961100  0.542420  1.0  -0.6215
  O  O402  1  0.659400  0.457280  0.710030  1.0  -0.6313
  O  O403  1  0.302900  0.151450  0.382900  1.0  -0.234
  O  O404  1  0.848550  0.151450  0.382900  1.0  -0.2376
  O  O405  1  0.848550  0.697100  0.382900  1.0  -0.241
  O  O406  1  0.697100  0.848550  0.882900  1.0  -0.2365
  O  O407  1  0.151450  0.848550  0.882900  1.0  -0.2397
  O  O408  1  0.151450  0.302900  0.882900  1.0  -0.2324
  O  O409  1  0.151450  0.302900  0.617100  1.0  -0.2356
  O  O410  1  0.151450  0.848550  0.617100  1.0  -0.2432
  O  O411  1  0.697100  0.848550  0.617100  1.0  -0.2358
  O  O412  1  0.848550  0.697100  0.117100  1.0  -0.2329
  O  O413  1  0.848550  0.151450  0.117100  1.0  -0.2368
  O  O414  1  0.302900  0.151450  0.117100  1.0  -0.2399
  O  O415  1  0.333333  0.666667  0.250000  1.0  -1.0274
  O  O416  1  0.666667  0.333333  0.750000  1.0  -1.0274
