# generated using pymatgen
data_ZnC4
_symmetry_space_group_name_H-M   'P 1'
_cell_length_a   7.93880000
_cell_length_b   7.93880000
_cell_length_c   7.93880000
_cell_angle_alpha   60.00000000
_cell_angle_beta   60.00000000
_cell_angle_gamma   60.00000000
_symmetry_Int_Tables_number   1
_chemical_formula_structural   ZnC4
_chemical_formula_sum   'Zn2 C8'
_cell_volume   353.79328459
_cell_formula_units_Z   2
loop_
 _symmetry_equiv_pos_site_id
 _symmetry_equiv_pos_as_xyz
  1  'x, y, z'
loop_
 _atom_site_type_symbol
 _atom_site_label
 _atom_site_symmetry_multiplicity
 _atom_site_fract_x
 _atom_site_fract_y
 _atom_site_fract_z
 _atom_site_occupancy
 _atom_site_charge
  Zn  Zn1  1  0.375000  0.875000  0.875000  1.0  0.7214
  Zn  Zn2  1  0.625000  0.125000  0.125000  1.0  0.7214
  C  C3  1  0.527600  0.417200  0.027600  1.0  -0.1779
  C  C4  1  0.472400  0.972400  0.972400  1.0  -0.1811
  C  C5  1  0.527600  0.027600  0.417200  1.0  -0.1828
  C  C6  1  0.472400  0.582800  0.972400  1.0  -0.1779
  C  C7  1  0.082800  0.972400  0.972400  1.0  -0.1822
  C  C8  1  0.527600  0.027600  0.027600  1.0  -0.1821
  C  C9  1  0.472400  0.972400  0.582800  1.0  -0.1804
  C  C10  1  0.917200  0.027600  0.027600  1.0  -0.1783
