# generated using pymatgen
data_Zn6Cr3H60C90N6O37
_symmetry_space_group_name_H-M   'P 1'
_cell_length_a   19.27700000
_cell_length_b   19.27700000
_cell_length_c   36.02300000
_cell_angle_alpha   90.00000000
_cell_angle_beta   90.00000000
_cell_angle_gamma   120.00000000
_symmetry_Int_Tables_number   1
_chemical_formula_structural   Zn6Cr3H60C90N6O37
_chemical_formula_sum   'Zn12 Cr6 H120 C180 N12 O74'
_cell_volume   11592.82832375
_cell_formula_units_Z   2
loop_
 _symmetry_equiv_pos_site_id
 _symmetry_equiv_pos_as_xyz
  1  'x, y, z'
loop_
 _atom_site_type_symbol
 _atom_site_label
 _atom_site_symmetry_multiplicity
 _atom_site_fract_x
 _atom_site_fract_y
 _atom_site_fract_z
 _atom_site_occupancy
 _atom_site_charge
  Zn  Zn1  1  0.522980  0.045950  0.534440  1.0  0.9203
  Zn  Zn2  1  0.954050  0.477020  0.534440  1.0  0.9201
  Zn  Zn3  1  0.522980  0.477020  0.534440  1.0  0.9197
  Zn  Zn4  1  0.477020  0.954050  0.034440  1.0  0.9202
  Zn  Zn5  1  0.045950  0.522980  0.034440  1.0  0.9199
  Zn  Zn6  1  0.477020  0.522980  0.034440  1.0  0.9198
  Zn  Zn7  1  0.045950  0.522980  0.465560  1.0  0.9199
  Zn  Zn8  1  0.477020  0.954050  0.465560  1.0  0.9201
  Zn  Zn9  1  0.477020  0.522980  0.465560  1.0  0.9199
  Zn  Zn10  1  0.954050  0.477020  0.965560  1.0  0.9202
  Zn  Zn11  1  0.522980  0.045950  0.965560  1.0  0.9203
  Zn  Zn12  1  0.522980  0.477020  0.965560  1.0  0.9197
  Cr  Cr13  1  0.276080  0.552160  0.250000  1.0  1.429
  Cr  Cr14  1  0.447840  0.723920  0.250000  1.0  1.445
  Cr  Cr15  1  0.276080  0.723920  0.250000  1.0  1.4699
  Cr  Cr16  1  0.723920  0.447840  0.750000  1.0  1.4696
  Cr  Cr17  1  0.552160  0.276080  0.750000  1.0  1.4443
  Cr  Cr18  1  0.723920  0.276080  0.750000  1.0  1.4322
  H  H19  1  0.141300  0.673900  0.152300  1.0  0.121
  H  H20  1  0.897300  0.308300  0.408100  1.0  0.1134
  H  H21  1  0.555800  0.644300  0.093400  1.0  0.0902
  H  H22  1  0.326100  0.467400  0.152300  1.0  0.1216
  H  H23  1  0.691700  0.589000  0.408100  1.0  0.1117
  H  H24  1  0.355700  0.911500  0.093400  1.0  0.0883
  H  H25  1  0.532600  0.858700  0.152300  1.0  0.1213
  H  H26  1  0.411000  0.102700  0.408100  1.0  0.1127
  H  H27  1  0.088500  0.444200  0.093400  1.0  0.0883
  H  H28  1  0.858700  0.326100  0.652300  1.0  0.1209
  H  H29  1  0.102700  0.691700  0.908100  1.0  0.1096
  H  H30  1  0.444200  0.355700  0.593400  1.0  0.0894
  H  H31  1  0.673900  0.532600  0.652300  1.0  0.1206
  H  H32  1  0.308300  0.411000  0.908100  1.0  0.1094
  H  H33  1  0.644300  0.088500  0.593400  1.0  0.0891
  H  H34  1  0.467400  0.141300  0.652300  1.0  0.1221
  H  H35  1  0.589000  0.897300  0.908100  1.0  0.1106
  H  H36  1  0.911500  0.555800  0.593400  1.0  0.0889
  H  H37  1  0.673900  0.141300  0.847700  1.0  0.1209
  H  H38  1  0.308300  0.897300  0.591900  1.0  0.1093
  H  H39  1  0.644300  0.555800  0.906600  1.0  0.0876
  H  H40  1  0.467400  0.326100  0.847700  1.0  0.1193
  H  H41  1  0.589000  0.691700  0.591900  1.0  0.1127
  H  H42  1  0.911500  0.355700  0.906600  1.0  0.0881
  H  H43  1  0.858700  0.532600  0.847700  1.0  0.1215
  H  H44  1  0.102700  0.411000  0.591900  1.0  0.1122
  H  H45  1  0.444200  0.088500  0.906600  1.0  0.0881
  H  H46  1  0.326100  0.858700  0.347700  1.0  0.1207
  H  H47  1  0.691700  0.102700  0.091900  1.0  0.11
  H  H48  1  0.355700  0.444200  0.406600  1.0  0.0899
  H  H49  1  0.532600  0.673900  0.347700  1.0  0.1193
  H  H50  1  0.411000  0.308300  0.091900  1.0  0.1118
  H  H51  1  0.088500  0.644300  0.406600  1.0  0.0899
  H  H52  1  0.141300  0.467400  0.347700  1.0  0.1217
  H  H53  1  0.897300  0.589000  0.091900  1.0  0.1081
  H  H54  1  0.555800  0.911500  0.406600  1.0  0.0895
  H  H55  1  0.858700  0.326100  0.847700  1.0  0.1213
  H  H56  1  0.102700  0.691700  0.591900  1.0  0.1067
  H  H57  1  0.444200  0.355700  0.906600  1.0  0.0895
  H  H58  1  0.673900  0.532600  0.847700  1.0  0.1211
  H  H59  1  0.308300  0.411000  0.591900  1.0  0.1102
  H  H60  1  0.644300  0.088500  0.906600  1.0  0.0897
  H  H61  1  0.467400  0.141300  0.847700  1.0  0.1196
  H  H62  1  0.589000  0.897300  0.591900  1.0  0.1119
  H  H63  1  0.911500  0.555800  0.906600  1.0  0.0895
  H  H64  1  0.141300  0.673900  0.347700  1.0  0.1209
  H  H65  1  0.897300  0.308300  0.091900  1.0  0.1121
  H  H66  1  0.555800  0.644300  0.406600  1.0  0.0881
  H  H67  1  0.326100  0.467400  0.347700  1.0  0.1206
  H  H68  1  0.691700  0.589000  0.091900  1.0  0.1097
  H  H69  1  0.355700  0.911500  0.406600  1.0  0.088
  H  H70  1  0.532600  0.858700  0.347700  1.0  0.1203
  H  H71  1  0.411000  0.102700  0.091900  1.0  0.1129
  H  H72  1  0.088500  0.444200  0.406600  1.0  0.0882
  H  H73  1  0.326100  0.858700  0.152300  1.0  0.1202
  H  H74  1  0.691700  0.102700  0.408100  1.0  0.1089
  H  H75  1  0.355700  0.444200  0.093400  1.0  0.0893
  H  H76  1  0.532600  0.673900  0.152300  1.0  0.1216
  H  H77  1  0.411000  0.308300  0.408100  1.0  0.1103
  H  H78  1  0.088500  0.644300  0.093400  1.0  0.0894
  H  H79  1  0.141300  0.467400  0.152300  1.0  0.1216
  H  H80  1  0.897300  0.589000  0.408100  1.0  0.1097
  H  H81  1  0.555800  0.911500  0.093400  1.0  0.0895
  H  H82  1  0.673900  0.141300  0.652300  1.0  0.1213
  H  H83  1  0.308300  0.897300  0.908100  1.0  0.1114
  H  H84  1  0.644300  0.555800  0.593400  1.0  0.0878
  H  H85  1  0.467400  0.326100  0.652300  1.0  0.1211
  H  H86  1  0.589000  0.691700  0.908100  1.0  0.112
  H  H87  1  0.911500  0.355700  0.593400  1.0  0.0881
  H  H88  1  0.858700  0.532600  0.652300  1.0  0.1217
  H  H89  1  0.102700  0.411000  0.908100  1.0  0.1125
  H  H90  1  0.444200  0.088500  0.593400  1.0  0.0904
  H  H91  1  0.761450  0.238550  0.499300  1.0  0.1148
  H  H92  1  0.761450  0.522900  0.499300  1.0  0.1151
  H  H93  1  0.477100  0.238550  0.499300  1.0  0.1147
  H  H94  1  0.238550  0.761450  0.999300  1.0  0.1154
  H  H95  1  0.238550  0.477100  0.999300  1.0  0.1146
  H  H96  1  0.522900  0.761450  0.999300  1.0  0.1149
  H  H97  1  0.238550  0.761450  0.500700  1.0  0.1151
  H  H98  1  0.522900  0.761450  0.500700  1.0  0.1156
  H  H99  1  0.238550  0.477100  0.500700  1.0  0.1149
  H  H100  1  0.761450  0.238550  0.000700  1.0  0.1151
  H  H101  1  0.477100  0.238550  0.000700  1.0  0.1156
  H  H102  1  0.761450  0.522900  0.000700  1.0  0.1149
  H  H103  1  0.700100  0.885390  0.635070  1.0  0.122
  H  H104  1  0.663660  0.776810  0.641940  1.0  0.1213
  H  H105  1  0.598190  0.818770  0.654300  1.0  0.1162
  H  H106  1  0.146440  0.764520  0.650540  1.0  0.1235
  H  H107  1  0.136600  0.849770  0.632600  1.0  0.1053
  H  H108  1  0.235980  0.866680  0.648160  1.0  0.1347
  H  H109  1  0.163660  0.289860  0.633170  1.0  0.1191
  H  H110  1  0.123530  0.356740  0.645790  1.0  0.1285
  H  H111  1  0.231830  0.391450  0.652340  1.0  0.117
  H  H112  1  0.336340  0.113150  0.141940  1.0  0.1204
  H  H113  1  0.299900  0.185290  0.135070  1.0  0.1106
  H  H114  1  0.401810  0.220580  0.154300  1.0  0.1164
  H  H115  1  0.876470  0.233220  0.145790  1.0  0.1266
  H  H116  1  0.836340  0.126190  0.133170  1.0  0.12
  H  H117  1  0.768170  0.159620  0.152340  1.0  0.1132
  H  H118  1  0.863400  0.713160  0.132600  1.0  0.1091
  H  H119  1  0.853560  0.618080  0.150540  1.0  0.1255
  H  H120  1  0.764020  0.630710  0.148160  1.0  0.1336
  H  H121  1  0.777510  0.664710  0.358250  1.0  0.1212
  H  H122  1  0.817650  0.597820  0.345630  1.0  0.1146
  H  H123  1  0.885820  0.699420  0.364800  1.0  0.1206
  H  H124  1  0.790590  0.195780  0.345060  1.0  0.1293
  H  H125  1  0.800430  0.110540  0.363000  1.0  0.1177
  H  H126  1  0.889960  0.212700  0.360620  1.0  0.1258
  H  H127  1  0.355690  0.122830  0.354400  1.0  0.1289
  H  H128  1  0.392130  0.231410  0.347530  1.0  0.1121
  H  H129  1  0.290220  0.164780  0.366760  1.0  0.1099
  H  H130  1  0.199570  0.310110  0.863000  1.0  0.1215
  H  H131  1  0.209410  0.405200  0.845060  1.0  0.1269
  H  H132  1  0.110040  0.322740  0.860620  1.0  0.1264
  H  H133  1  0.182350  0.780180  0.845630  1.0  0.1175
  H  H134  1  0.222490  0.887200  0.858250  1.0  0.1222
  H  H135  1  0.114180  0.813600  0.864800  1.0  0.1068
  H  H136  1  0.607870  0.839280  0.847530  1.0  0.1112
  H  H137  1  0.644310  0.767140  0.854400  1.0  0.1283
  H  H138  1  0.709780  0.874560  0.866760  1.0  0.115
  C  C139  1  0.846300  0.569000  0.040490  1.0  -0.1113
  C  C140  1  0.143800  0.410200  0.578200  1.0  -0.0443
  C  C141  1  0.507500  0.608300  0.105290  1.0  0.1843
  C  C142  1  0.868600  0.373800  0.859270  1.0  -0.154
  C  C143  1  0.098060  0.455500  0.523400  1.0  0.7026
  C  C144  1  0.431000  0.277300  0.040490  1.0  -0.1114
  C  C145  1  0.589800  0.733600  0.578200  1.0  -0.0503
  C  C146  1  0.391700  0.899200  0.105290  1.0  0.1865
  C  C147  1  0.626200  0.494800  0.859270  1.0  -0.1567
  C  C148  1  0.544500  0.642560  0.523400  1.0  0.7026
  C  C149  1  0.722700  0.153700  0.040490  1.0  -0.1116
  C  C150  1  0.266400  0.856200  0.578200  1.0  -0.0524
  C  C151  1  0.100800  0.492500  0.105290  1.0  0.1847
  C  C152  1  0.505200  0.131400  0.859270  1.0  -0.1542
  C  C153  1  0.357440  0.901940  0.523400  1.0  0.7023
  C  C154  1  0.153700  0.431000  0.540490  1.0  -0.1133
  C  C155  1  0.856200  0.589800  0.078200  1.0  -0.0539
  C  C156  1  0.492500  0.391700  0.605290  1.0  0.1854
  C  C157  1  0.131400  0.626200  0.359270  1.0  -0.1572
  C  C158  1  0.901940  0.544500  0.023400  1.0  0.7019
  C  C159  1  0.569000  0.722700  0.540490  1.0  -0.1107
  C  C160  1  0.410200  0.266400  0.078200  1.0  -0.0814
  C  C161  1  0.608300  0.100800  0.605290  1.0  0.1852
  C  C162  1  0.373800  0.505200  0.359270  1.0  -0.1582
  C  C163  1  0.455500  0.357440  0.023400  1.0  0.7032
  C  C164  1  0.277300  0.846300  0.540490  1.0  -0.112
  C  C165  1  0.733600  0.143800  0.078200  1.0  -0.0546
  C  C166  1  0.899200  0.507500  0.605290  1.0  0.1851
  C  C167  1  0.494800  0.868600  0.359270  1.0  -0.1548
  C  C168  1  0.642560  0.098060  0.023400  1.0  0.7029
  C  C169  1  0.569000  0.846300  0.959510  1.0  -0.112
  C  C170  1  0.410200  0.143800  0.421800  1.0  -0.0477
  C  C171  1  0.608300  0.507500  0.894710  1.0  0.1851
  C  C172  1  0.373800  0.868600  0.140730  1.0  -0.1552
  C  C173  1  0.455500  0.098060  0.476600  1.0  0.7019
  C  C174  1  0.277300  0.431000  0.959510  1.0  -0.1153
  C  C175  1  0.733600  0.589800  0.421800  1.0  -0.0657
  C  C176  1  0.899200  0.391700  0.894710  1.0  0.1848
  C  C177  1  0.494800  0.626200  0.140730  1.0  -0.1582
  C  C178  1  0.642560  0.544500  0.476600  1.0  0.7025
  C  C179  1  0.153700  0.722700  0.959510  1.0  -0.111
  C  C180  1  0.856200  0.266400  0.421800  1.0  -0.0784
  C  C181  1  0.492500  0.100800  0.894710  1.0  0.1872
  C  C182  1  0.131400  0.505200  0.140730  1.0  -0.158
  C  C183  1  0.901940  0.357440  0.476600  1.0  0.703
  C  C184  1  0.431000  0.153700  0.459510  1.0  -0.1122
  C  C185  1  0.589800  0.856200  0.921800  1.0  -0.0529
  C  C186  1  0.391700  0.492500  0.394710  1.0  0.1861
  C  C187  1  0.626200  0.131400  0.640730  1.0  -0.155
  C  C188  1  0.544500  0.901940  0.976600  1.0  0.7035
  C  C189  1  0.722700  0.569000  0.459510  1.0  -0.1122
  C  C190  1  0.266400  0.410200  0.921800  1.0  -0.0952
  C  C191  1  0.100800  0.608300  0.394710  1.0  0.1849
  C  C192  1  0.505200  0.373800  0.640730  1.0  -0.1569
  C  C193  1  0.357440  0.455500  0.976600  1.0  0.702
  C  C194  1  0.846300  0.277300  0.459510  1.0  -0.1141
  C  C195  1  0.143800  0.733600  0.921800  1.0  -0.0795
  C  C196  1  0.507500  0.899200  0.394710  1.0  0.1856
  C  C197  1  0.868600  0.494800  0.640730  1.0  -0.1587
  C  C198  1  0.098060  0.642560  0.976600  1.0  0.703
  C  C199  1  0.153700  0.431000  0.959510  1.0  -0.1146
  C  C200  1  0.856200  0.589800  0.421800  1.0  -0.0785
  C  C201  1  0.492500  0.391700  0.894710  1.0  0.188
  C  C202  1  0.131400  0.626200  0.140730  1.0  -0.1577
  C  C203  1  0.901940  0.544500  0.476600  1.0  0.7017
  C  C204  1  0.569000  0.722700  0.959510  1.0  -0.1117
  C  C205  1  0.410200  0.266400  0.421800  1.0  -0.0505
  C  C206  1  0.608300  0.100800  0.894710  1.0  0.1872
  C  C207  1  0.373800  0.505200  0.140730  1.0  -0.1584
  C  C208  1  0.455500  0.357440  0.476600  1.0  0.7032
  C  C209  1  0.277300  0.846300  0.959510  1.0  -0.1113
  C  C210  1  0.733600  0.143800  0.421800  1.0  -0.0922
  C  C211  1  0.899200  0.507500  0.894710  1.0  0.1861
  C  C212  1  0.494800  0.868600  0.140730  1.0  -0.1554
  C  C213  1  0.642560  0.098060  0.476600  1.0  0.7026
  C  C214  1  0.846300  0.569000  0.459510  1.0  -0.1124
  C  C215  1  0.143800  0.410200  0.921800  1.0  -0.075
  C  C216  1  0.507500  0.608300  0.394710  1.0  0.1853
  C  C217  1  0.868600  0.373800  0.640730  1.0  -0.1567
  C  C218  1  0.098060  0.455500  0.976600  1.0  0.7033
  C  C219  1  0.431000  0.277300  0.459510  1.0  -0.1115
  C  C220  1  0.589800  0.733600  0.921800  1.0  -0.0475
  C  C221  1  0.391700  0.899200  0.394710  1.0  0.1881
  C  C222  1  0.626200  0.494800  0.640730  1.0  -0.1562
  C  C223  1  0.544500  0.642560  0.976600  1.0  0.7029
  C  C224  1  0.722700  0.153700  0.459510  1.0  -0.1143
  C  C225  1  0.266400  0.856200  0.921800  1.0  -0.0634
  C  C226  1  0.100800  0.492500  0.394710  1.0  0.1867
  C  C227  1  0.505200  0.131400  0.640730  1.0  -0.1569
  C  C228  1  0.357440  0.901940  0.976600  1.0  0.7023
  C  C229  1  0.431000  0.153700  0.040490  1.0  -0.1121
  C  C230  1  0.589800  0.856200  0.578200  1.0  -0.0809
  C  C231  1  0.391700  0.492500  0.105290  1.0  0.1868
  C  C232  1  0.626200  0.131400  0.859270  1.0  -0.1547
  C  C233  1  0.544500  0.901940  0.523400  1.0  0.7031
  C  C234  1  0.722700  0.569000  0.040490  1.0  -0.1126
  C  C235  1  0.266400  0.410200  0.578200  1.0  -0.0527
  C  C236  1  0.100800  0.608300  0.105290  1.0  0.1872
  C  C237  1  0.505200  0.373800  0.859270  1.0  -0.1562
  C  C238  1  0.357440  0.455500  0.523400  1.0  0.7019
  C  C239  1  0.846300  0.277300  0.040490  1.0  -0.1118
  C  C240  1  0.143800  0.733600  0.578200  1.0  -0.0524
  C  C241  1  0.507500  0.899200  0.105290  1.0  0.1873
  C  C242  1  0.868600  0.494800  0.859270  1.0  -0.158
  C  C243  1  0.098060  0.642560  0.523400  1.0  0.7028
  C  C244  1  0.569000  0.846300  0.540490  1.0  -0.1113
  C  C245  1  0.410200  0.143800  0.078200  1.0  -0.0484
  C  C246  1  0.608300  0.507500  0.605290  1.0  0.1869
  C  C247  1  0.373800  0.868600  0.359270  1.0  -0.1555
  C  C248  1  0.455500  0.098060  0.023400  1.0  0.7022
  C  C249  1  0.277300  0.431000  0.540490  1.0  -0.1122
  C  C250  1  0.733600  0.589800  0.078200  1.0  -0.0514
  C  C251  1  0.899200  0.391700  0.605290  1.0  0.1855
  C  C252  1  0.494800  0.626200  0.359270  1.0  -0.1553
  C  C253  1  0.642560  0.544500  0.023400  1.0  0.7028
  C  C254  1  0.153700  0.722700  0.540490  1.0  -0.1107
  C  C255  1  0.856200  0.266400  0.078200  1.0  -0.0445
  C  C256  1  0.492500  0.100800  0.605290  1.0  0.1883
  C  C257  1  0.131400  0.505200  0.359270  1.0  -0.1557
  C  C258  1  0.901940  0.357440  0.023400  1.0  0.7029
  C  C259  1  0.194300  0.805700  0.904700  1.0  0.0677
  C  C260  1  0.774750  0.225250  0.023710  1.0  0.0077
  C  C261  1  0.194300  0.388600  0.904700  1.0  0.0667
  C  C262  1  0.774750  0.549500  0.023710  1.0  0.0078
  C  C263  1  0.611400  0.805700  0.904700  1.0  0.0615
  C  C264  1  0.450500  0.225250  0.023710  1.0  0.0091
  C  C265  1  0.805700  0.194300  0.404700  1.0  0.0666
  C  C266  1  0.225250  0.774750  0.523710  1.0  0.0074
  C  C267  1  0.805700  0.611400  0.404700  1.0  0.0679
  C  C268  1  0.225250  0.450500  0.523710  1.0  0.008
  C  C269  1  0.388600  0.194300  0.404700  1.0  0.0594
  C  C270  1  0.549500  0.774750  0.523710  1.0  0.0098
  C  C271  1  0.805700  0.194300  0.095300  1.0  0.0617
  C  C272  1  0.225250  0.774750  0.976290  1.0  0.0107
  C  C273  1  0.388600  0.194300  0.095300  1.0  0.0648
  C  C274  1  0.549500  0.774750  0.976290  1.0  0.0104
  C  C275  1  0.805700  0.611400  0.095300  1.0  0.0613
  C  C276  1  0.225250  0.450500  0.976290  1.0  0.0077
  C  C277  1  0.194300  0.805700  0.595300  1.0  0.0599
  C  C278  1  0.774750  0.225250  0.476290  1.0  0.007
  C  C279  1  0.611400  0.805700  0.595300  1.0  0.0661
  C  C280  1  0.450500  0.225250  0.476290  1.0  0.0101
  C  C281  1  0.194300  0.388600  0.595300  1.0  0.0608
  C  C282  1  0.774750  0.549500  0.476290  1.0  0.0107
  C  C283  1  0.812700  0.406350  0.803620  1.0  0.7347
  C  C284  1  0.593650  0.406350  0.803620  1.0  0.732
  C  C285  1  0.593650  0.187300  0.803620  1.0  0.7263
  C  C286  1  0.187300  0.593650  0.303620  1.0  0.7333
  C  C287  1  0.406350  0.593650  0.303620  1.0  0.732
  C  C288  1  0.406350  0.812700  0.303620  1.0  0.728
  C  C289  1  0.406350  0.812700  0.196380  1.0  0.728
  C  C290  1  0.406350  0.593650  0.196380  1.0  0.7343
  C  C291  1  0.187300  0.593650  0.196380  1.0  0.7311
  C  C292  1  0.593650  0.187300  0.696380  1.0  0.729
  C  C293  1  0.593650  0.406350  0.696380  1.0  0.7319
  C  C294  1  0.812700  0.406350  0.696380  1.0  0.7324
  C  C295  1  0.645400  0.822700  0.634000  1.0  -0.4199
  C  C296  1  0.146800  0.573400  0.158640  1.0  -0.1045
  C  C297  1  0.177300  0.822700  0.634000  1.0  -0.4419
  C  C298  1  0.426600  0.573400  0.158640  1.0  -0.1017
  C  C299  1  0.177300  0.354600  0.634000  1.0  -0.3847
  C  C300  1  0.426600  0.853200  0.158640  1.0  -0.1054
  C  C301  1  0.354600  0.177300  0.134000  1.0  -0.422
  C  C302  1  0.853200  0.426600  0.658640  1.0  -0.1048
  C  C303  1  0.822700  0.177300  0.134000  1.0  -0.3868
  C  C304  1  0.573400  0.426600  0.658640  1.0  -0.1082
  C  C305  1  0.822700  0.645400  0.134000  1.0  -0.4433
  C  C306  1  0.573400  0.146800  0.658640  1.0  -0.1008
  C  C307  1  0.822700  0.645400  0.366000  1.0  -0.4165
  C  C308  1  0.573400  0.146800  0.841360  1.0  -0.104
  C  C309  1  0.822700  0.177300  0.366000  1.0  -0.4118
  C  C310  1  0.573400  0.426600  0.841360  1.0  -0.1023
  C  C311  1  0.354600  0.177300  0.366000  1.0  -0.3751
  C  C312  1  0.853200  0.426600  0.841360  1.0  -0.1045
  C  C313  1  0.177300  0.354600  0.866000  1.0  -0.4117
  C  C314  1  0.426600  0.853200  0.341360  1.0  -0.1004
  C  C315  1  0.177300  0.822700  0.866000  1.0  -0.4171
  C  C316  1  0.426600  0.573400  0.341360  1.0  -0.1056
  C  C317  1  0.645400  0.822700  0.866000  1.0  -0.3763
  C  C318  1  0.146800  0.573400  0.341360  1.0  -0.1039
  N  N319  1  0.543950  0.087900  0.912870  1.0  -0.3193
  N  N320  1  0.912100  0.456050  0.912870  1.0  -0.3192
  N  N321  1  0.543950  0.456050  0.912870  1.0  -0.3192
  N  N322  1  0.456050  0.912100  0.412870  1.0  -0.3195
  N  N323  1  0.087900  0.543950  0.412870  1.0  -0.3191
  N  N324  1  0.456050  0.543950  0.412870  1.0  -0.3189
  N  N325  1  0.087900  0.543950  0.087130  1.0  -0.319
  N  N326  1  0.456050  0.912100  0.087130  1.0  -0.3194
  N  N327  1  0.456050  0.543950  0.087130  1.0  -0.3195
  N  N328  1  0.912100  0.456050  0.587130  1.0  -0.3188
  N  N329  1  0.543950  0.087900  0.587130  1.0  -0.3199
  N  N330  1  0.543950  0.456050  0.587130  1.0  -0.3187
  O  O331  1  0.406590  0.961270  0.957630  1.0  -0.6149
  O  O332  1  0.202010  0.543100  0.289910  1.0  -0.637
  O  O333  1  0.113390  0.629860  0.491360  1.0  -0.5848
  O  O334  1  0.038730  0.445320  0.957630  1.0  -0.6134
  O  O335  1  0.456900  0.658910  0.289910  1.0  -0.6365
  O  O336  1  0.370140  0.483530  0.491360  1.0  -0.5865
  O  O337  1  0.554680  0.593410  0.957630  1.0  -0.6135
  O  O338  1  0.341090  0.797990  0.289910  1.0  -0.6318
  O  O339  1  0.516470  0.886610  0.491360  1.0  -0.5863
  O  O340  1  0.593410  0.038730  0.457630  1.0  -0.6139
  O  O341  1  0.797990  0.456900  0.789910  1.0  -0.64
  O  O342  1  0.886610  0.370140  0.991360  1.0  -0.5851
  O  O343  1  0.961270  0.554680  0.457630  1.0  -0.6144
  O  O344  1  0.543100  0.341090  0.789910  1.0  -0.6383
  O  O345  1  0.629860  0.516470  0.991360  1.0  -0.5856
  O  O346  1  0.445320  0.406590  0.457630  1.0  -0.6142
  O  O347  1  0.658910  0.202010  0.789910  1.0  -0.636
  O  O348  1  0.483530  0.113390  0.991360  1.0  -0.5871
  O  O349  1  0.961270  0.406590  0.042370  1.0  -0.6138
  O  O350  1  0.543100  0.202010  0.710090  1.0  -0.6322
  O  O351  1  0.629860  0.113390  0.508640  1.0  -0.5867
  O  O352  1  0.445320  0.038730  0.042370  1.0  -0.6145
  O  O353  1  0.658910  0.456900  0.710090  1.0  -0.637
  O  O354  1  0.483530  0.370140  0.508640  1.0  -0.5847
  O  O355  1  0.593410  0.554680  0.042370  1.0  -0.6138
  O  O356  1  0.797990  0.341090  0.710090  1.0  -0.6323
  O  O357  1  0.886610  0.516470  0.508640  1.0  -0.586
  O  O358  1  0.038730  0.593410  0.542370  1.0  -0.6143
  O  O359  1  0.456900  0.797990  0.210090  1.0  -0.6317
  O  O360  1  0.370140  0.886610  0.008640  1.0  -0.5868
  O  O361  1  0.554680  0.961270  0.542370  1.0  -0.6147
  O  O362  1  0.341090  0.543100  0.210090  1.0  -0.6365
  O  O363  1  0.516470  0.629860  0.008640  1.0  -0.5851
  O  O364  1  0.406590  0.445320  0.542370  1.0  -0.6143
  O  O365  1  0.202010  0.658910  0.210090  1.0  -0.6387
  O  O366  1  0.113390  0.483530  0.008640  1.0  -0.5868
  O  O367  1  0.593410  0.038730  0.042370  1.0  -0.6141
  O  O368  1  0.797990  0.456900  0.710090  1.0  -0.6369
  O  O369  1  0.886610  0.370140  0.508640  1.0  -0.5853
  O  O370  1  0.961270  0.554680  0.042370  1.0  -0.6145
  O  O371  1  0.543100  0.341090  0.710090  1.0  -0.6324
  O  O372  1  0.629860  0.516470  0.508640  1.0  -0.5863
  O  O373  1  0.445320  0.406590  0.042370  1.0  -0.6143
  O  O374  1  0.658910  0.202010  0.710090  1.0  -0.6356
  O  O375  1  0.483530  0.113390  0.508640  1.0  -0.5868
  O  O376  1  0.406590  0.961270  0.542370  1.0  -0.615
  O  O377  1  0.202010  0.543100  0.210090  1.0  -0.6332
  O  O378  1  0.113390  0.629860  0.008640  1.0  -0.5851
  O  O379  1  0.038730  0.445320  0.542370  1.0  -0.6135
  O  O380  1  0.456900  0.658910  0.210090  1.0  -0.633
  O  O381  1  0.370140  0.483530  0.008640  1.0  -0.5863
  O  O382  1  0.554680  0.593410  0.542370  1.0  -0.6143
  O  O383  1  0.341090  0.797990  0.210090  1.0  -0.6352
  O  O384  1  0.516470  0.886610  0.008640  1.0  -0.5868
  O  O385  1  0.038730  0.593410  0.957630  1.0  -0.6136
  O  O386  1  0.456900  0.797990  0.289910  1.0  -0.6362
  O  O387  1  0.370140  0.886610  0.491360  1.0  -0.587
  O  O388  1  0.554680  0.961270  0.957630  1.0  -0.6143
  O  O389  1  0.341090  0.543100  0.289910  1.0  -0.6364
  O  O390  1  0.516470  0.629860  0.491360  1.0  -0.5848
  O  O391  1  0.406590  0.445320  0.957630  1.0  -0.6141
  O  O392  1  0.202010  0.658910  0.289910  1.0  -0.6417
  O  O393  1  0.113390  0.483530  0.491360  1.0  -0.586
  O  O394  1  0.961270  0.406590  0.457630  1.0  -0.6137
  O  O395  1  0.543100  0.202010  0.789910  1.0  -0.6351
  O  O396  1  0.629860  0.113390  0.991360  1.0  -0.5865
  O  O397  1  0.445320  0.038730  0.457630  1.0  -0.6143
  O  O398  1  0.658910  0.456900  0.789910  1.0  -0.6329
  O  O399  1  0.483530  0.370140  0.991360  1.0  -0.5845
  O  O400  1  0.593410  0.554680  0.457630  1.0  -0.6133
  O  O401  1  0.797990  0.341090  0.789910  1.0  -0.6358
  O  O402  1  0.886610  0.516470  0.991360  1.0  -0.5867
  O  O403  1  0.666667  0.333333  0.750000  1.0  -1.0613
  O  O404  1  0.333333  0.666667  0.250000  1.0  -1.0613
