# generated using pymatgen
data_ZnC4
_symmetry_space_group_name_H-M   'P 1'
_cell_length_a   8.21690000
_cell_length_b   8.21690000
_cell_length_c   13.17050000
_cell_angle_alpha   90.00000000
_cell_angle_beta   90.00000000
_cell_angle_gamma   120.00000000
_symmetry_Int_Tables_number   1
_chemical_formula_structural   ZnC4
_chemical_formula_sum   'Zn4 C16'
_cell_volume   770.10314610
_cell_formula_units_Z   4
loop_
 _symmetry_equiv_pos_site_id
 _symmetry_equiv_pos_as_xyz
  1  'x, y, z'
loop_
 _atom_site_type_symbol
 _atom_site_label
 _atom_site_symmetry_multiplicity
 _atom_site_fract_x
 _atom_site_fract_y
 _atom_site_fract_z
 _atom_site_occupancy
 _atom_site_charge
  Zn  Zn1  1  0.666667  0.333333  0.416970  1.0  0.8154
  Zn  Zn2  1  0.333333  0.666667  0.916970  1.0  0.8154
  Zn  Zn3  1  0.666667  0.333333  0.083030  1.0  0.8173
  Zn  Zn4  1  0.333333  0.666667  0.583030  1.0  0.8173
  C  C5  1  0.540000  0.460000  0.015000  1.0  -0.2455
  C  C6  1  0.920000  0.460000  0.485000  1.0  -0.2442
  C  C7  1  0.460000  0.540000  0.515000  1.0  -0.2435
  C  C8  1  0.460000  0.920000  0.985000  1.0  -0.2448
  C  C9  1  0.666667  0.333333  0.205000  1.0  -0.0825
  C  C10  1  0.540000  0.080000  0.015000  1.0  -0.2443
  C  C11  1  0.080000  0.540000  0.985000  1.0  -0.2456
  C  C12  1  0.460000  0.540000  0.985000  1.0  -0.2434
  C  C13  1  0.540000  0.080000  0.485000  1.0  -0.2443
  C  C14  1  0.666667  0.333333  0.295000  1.0  -0.0825
  C  C15  1  0.920000  0.460000  0.015000  1.0  -0.2441
  C  C16  1  0.333333  0.666667  0.705000  1.0  -0.0825
  C  C17  1  0.333333  0.666667  0.795000  1.0  -0.0825
  C  C18  1  0.080000  0.540000  0.515000  1.0  -0.245
  C  C19  1  0.460000  0.920000  0.515000  1.0  -0.2445
  C  C20  1  0.540000  0.460000  0.485000  1.0  -0.2462
