# generated using pymatgen
data_Zn6Cr3H36C72N6O43
_symmetry_space_group_name_H-M   'P 1'
_cell_length_a   19.03060000
_cell_length_b   19.03060000
_cell_length_c   36.24450000
_cell_angle_alpha   90.00000000
_cell_angle_beta   90.00000000
_cell_angle_gamma   120.00000000
_symmetry_Int_Tables_number   1
_chemical_formula_structural   Zn6Cr3H36C72N6O43
_chemical_formula_sum   'Zn12 Cr6 H72 C144 N12 O86'
_cell_volume   11367.83356915
_cell_formula_units_Z   2
loop_
 _symmetry_equiv_pos_site_id
 _symmetry_equiv_pos_as_xyz
  1  'x, y, z'
loop_
 _atom_site_type_symbol
 _atom_site_label
 _atom_site_symmetry_multiplicity
 _atom_site_fract_x
 _atom_site_fract_y
 _atom_site_fract_z
 _atom_site_occupancy
 _atom_site_charge
  Zn  Zn1  1  0.519990  0.480000  0.963400  1.0  0.9275
  Zn  Zn2  1  0.480010  0.520000  0.463400  1.0  0.9274
  Zn  Zn3  1  0.519990  0.039980  0.963400  1.0  0.9282
  Zn  Zn4  1  0.480010  0.960020  0.036600  1.0  0.9282
  Zn  Zn5  1  0.960010  0.480000  0.963400  1.0  0.9274
  Zn  Zn6  1  0.480010  0.960020  0.463400  1.0  0.9282
  Zn  Zn7  1  0.480010  0.520000  0.036600  1.0  0.9274
  Zn  Zn8  1  0.519990  0.039980  0.536600  1.0  0.928
  Zn  Zn9  1  0.519990  0.480000  0.536600  1.0  0.9274
  Zn  Zn10  1  0.039990  0.520000  0.463400  1.0  0.9274
  Zn  Zn11  1  0.960010  0.480000  0.536600  1.0  0.9274
  Zn  Zn12  1  0.039990  0.520000  0.036600  1.0  0.9273
  Cr  Cr13  1  0.724830  0.275170  0.750000  1.0  1.4489
  Cr  Cr14  1  0.449660  0.724830  0.250000  1.0  1.4499
  Cr  Cr15  1  0.275170  0.550340  0.250000  1.0  1.4468
  Cr  Cr16  1  0.275170  0.724830  0.250000  1.0  1.4471
  Cr  Cr17  1  0.724830  0.449660  0.750000  1.0  1.4478
  Cr  Cr18  1  0.550340  0.275170  0.750000  1.0  1.4469
  H  H19  1  0.261200  0.872100  0.912100  1.0  0.1247
  H  H20  1  0.872100  0.261200  0.412100  1.0  0.1249
  H  H21  1  0.127900  0.738800  0.587900  1.0  0.1246
  H  H22  1  0.738800  0.127900  0.412100  1.0  0.1245
  H  H23  1  0.535100  0.673200  0.346700  1.0  0.1174
  H  H24  1  0.084100  0.440800  0.405300  1.0  0.0908
  H  H25  1  0.673200  0.535100  0.846700  1.0  0.1177
  H  H26  1  0.738800  0.610900  0.087900  1.0  0.1255
  H  H27  1  0.673200  0.138100  0.846700  1.0  0.1171
  H  H28  1  0.261200  0.389100  0.912100  1.0  0.1255
  H  H29  1  0.440800  0.084100  0.905300  1.0  0.0914
  H  H30  1  0.138100  0.464900  0.346700  1.0  0.1186
  H  H31  1  0.356700  0.915900  0.094700  1.0  0.0909
  H  H32  1  0.084100  0.643300  0.094700  1.0  0.0898
  H  H33  1  0.559200  0.643300  0.094700  1.0  0.0895
  H  H34  1  0.610900  0.872100  0.912100  1.0  0.1246
  H  H35  1  0.915900  0.559200  0.905300  1.0  0.0908
  H  H36  1  0.127900  0.738800  0.912100  1.0  0.1249
  H  H37  1  0.326800  0.861900  0.153300  1.0  0.117
  H  H38  1  0.326800  0.464900  0.153300  1.0  0.1174
  H  H39  1  0.326800  0.464900  0.346700  1.0  0.1174
  H  H40  1  0.326800  0.861900  0.346700  1.0  0.117
  H  H41  1  0.138100  0.673200  0.153300  1.0  0.1176
  H  H42  1  0.138100  0.673200  0.346700  1.0  0.1177
  H  H43  1  0.643300  0.559200  0.594700  1.0  0.0904
  H  H44  1  0.084100  0.643300  0.405300  1.0  0.0901
  H  H45  1  0.440800  0.356700  0.905300  1.0  0.09
  H  H46  1  0.356700  0.915900  0.405300  1.0  0.0911
  H  H47  1  0.861900  0.326800  0.653300  1.0  0.1169
  H  H48  1  0.738800  0.610900  0.412100  1.0  0.1256
  H  H49  1  0.673200  0.138100  0.653300  1.0  0.1168
  H  H50  1  0.464900  0.138100  0.846700  1.0  0.1184
  H  H51  1  0.084100  0.440800  0.094700  1.0  0.0903
  H  H52  1  0.535100  0.673200  0.153300  1.0  0.1171
  H  H53  1  0.861900  0.326800  0.846700  1.0  0.1172
  H  H54  1  0.738800  0.127900  0.087900  1.0  0.1244
  H  H55  1  0.872100  0.261200  0.087900  1.0  0.1233
  H  H56  1  0.610900  0.738800  0.587900  1.0  0.1244
  H  H57  1  0.610900  0.738800  0.912100  1.0  0.1249
  H  H58  1  0.915900  0.356700  0.905300  1.0  0.0898
  H  H59  1  0.915900  0.356700  0.594700  1.0  0.0893
  H  H60  1  0.356700  0.440800  0.405300  1.0  0.091
  H  H61  1  0.559200  0.915900  0.094700  1.0  0.0909
  H  H62  1  0.389100  0.261200  0.412100  1.0  0.1249
  H  H63  1  0.559200  0.643300  0.405300  1.0  0.0898
  H  H64  1  0.872100  0.610900  0.087900  1.0  0.1252
  H  H65  1  0.464900  0.326800  0.653300  1.0  0.1173
  H  H66  1  0.535100  0.861900  0.346700  1.0  0.1181
  H  H67  1  0.440800  0.084100  0.594700  1.0  0.091
  H  H68  1  0.610900  0.872100  0.587900  1.0  0.1247
  H  H69  1  0.389100  0.127900  0.087900  1.0  0.1246
  H  H70  1  0.643300  0.084100  0.594700  1.0  0.0909
  H  H71  1  0.673200  0.535100  0.653300  1.0  0.1175
  H  H72  1  0.389100  0.127900  0.412100  1.0  0.1246
  H  H73  1  0.643300  0.084100  0.905300  1.0  0.0913
  H  H74  1  0.261200  0.872100  0.587900  1.0  0.1244
  H  H75  1  0.535100  0.861900  0.153300  1.0  0.1178
  H  H76  1  0.440800  0.356700  0.594700  1.0  0.0895
  H  H77  1  0.915900  0.559200  0.594700  1.0  0.0905
  H  H78  1  0.861900  0.535100  0.846700  1.0  0.1198
  H  H79  1  0.872100  0.610900  0.412100  1.0  0.1251
  H  H80  1  0.261200  0.389100  0.587900  1.0  0.1256
  H  H81  1  0.138100  0.464900  0.153300  1.0  0.1187
  H  H82  1  0.861900  0.535100  0.653300  1.0  0.1195
  H  H83  1  0.127900  0.389100  0.912100  1.0  0.1256
  H  H84  1  0.127900  0.389100  0.587900  1.0  0.1254
  H  H85  1  0.464900  0.326800  0.846700  1.0  0.1171
  H  H86  1  0.389100  0.261200  0.087900  1.0  0.125
  H  H87  1  0.559200  0.915900  0.405300  1.0  0.0912
  H  H88  1  0.643300  0.559200  0.905300  1.0  0.0907
  H  H89  1  0.356700  0.440800  0.094700  1.0  0.0906
  H  H90  1  0.464900  0.138100  0.653300  1.0  0.1185
  C  C91  1  0.903990  0.510550  0.606570  1.0  0.1703
  C  C92  1  0.592600  0.759080  0.568860  1.0  -0.1645
  C  C93  1  0.510550  0.903990  0.393430  1.0  0.1718
  C  C94  1  0.393440  0.489450  0.106570  1.0  0.1715
  C  C95  1  0.838200  0.561370  0.036360  1.0  0.0489
  C  C96  1  0.427950  0.855900  0.340400  1.0  -0.109
  C  C97  1  0.503160  0.375320  0.858160  1.0  -0.131
  C  C98  1  0.624680  0.127840  0.641840  1.0  -0.1293
  C  C99  1  0.496840  0.624680  0.141840  1.0  -0.1337
  C  C100  1  0.096010  0.606560  0.393430  1.0  0.1718
  C  C101  1  0.355570  0.457360  0.520910  1.0  0.7057
  C  C102  1  0.592600  0.833520  0.568860  1.0  -0.1651
  C  C103  1  0.489450  0.096010  0.606570  1.0  0.1729
  C  C104  1  0.542640  0.898210  0.520910  1.0  0.7049
  C  C105  1  0.355570  0.457360  0.979090  1.0  0.7064
  C  C106  1  0.375320  0.503160  0.358160  1.0  -0.1326
  C  C107  1  0.542640  0.898210  0.979090  1.0  0.7047
  C  C108  1  0.101790  0.644430  0.979090  1.0  0.7041
  C  C109  1  0.503160  0.375320  0.641840  1.0  -0.1297
  C  C110  1  0.561370  0.838200  0.536360  1.0  0.0471
  C  C111  1  0.457360  0.355570  0.479090  1.0  0.7034
  C  C112  1  0.606560  0.096010  0.893430  1.0  0.1736
  C  C113  1  0.572050  0.427950  0.840400  1.0  -0.1098
  C  C114  1  0.101790  0.644430  0.520910  1.0  0.7025
  C  C115  1  0.457360  0.101790  0.020910  1.0  0.7052
  C  C116  1  0.127840  0.624680  0.358160  1.0  -0.1318
  C  C117  1  0.898210  0.355570  0.479090  1.0  0.7038
  C  C118  1  0.240920  0.407400  0.568860  1.0  -0.1624
  C  C119  1  0.438630  0.276830  0.463640  1.0  0.0482
  C  C120  1  0.510550  0.606560  0.393430  1.0  0.1709
  C  C121  1  0.375320  0.872160  0.358160  1.0  -0.1303
  C  C122  1  0.572050  0.144100  0.659600  1.0  -0.1103
  C  C123  1  0.375320  0.872160  0.141840  1.0  -0.1314
  C  C124  1  0.510550  0.606560  0.106570  1.0  0.172
  C  C125  1  0.898210  0.355570  0.020910  1.0  0.7035
  C  C126  1  0.276830  0.438630  0.963640  1.0  0.0486
  C  C127  1  0.166480  0.759080  0.931140  1.0  -0.1687
  C  C128  1  0.438630  0.276830  0.036360  1.0  0.0481
  C  C129  1  0.489450  0.393440  0.893430  1.0  0.1726
  C  C130  1  0.503160  0.127840  0.858160  1.0  -0.1308
  C  C131  1  0.375320  0.503160  0.141840  1.0  -0.1332
  C  C132  1  0.166480  0.407400  0.931140  1.0  -0.1655
  C  C133  1  0.489450  0.096010  0.893430  1.0  0.1735
  C  C134  1  0.407240  0.814480  0.196610  1.0  0.7125
  C  C135  1  0.096010  0.606560  0.106570  1.0  0.1719
  C  C136  1  0.644430  0.542640  0.479090  1.0  0.702
  C  C137  1  0.496840  0.624680  0.358160  1.0  -0.1319
  C  C138  1  0.161800  0.438630  0.536360  1.0  0.0474
  C  C139  1  0.427950  0.855900  0.159600  1.0  -0.1102
  C  C140  1  0.166480  0.407400  0.568860  1.0  -0.167
  C  C141  1  0.838200  0.561370  0.463640  1.0  0.0482
  C  C142  1  0.127840  0.624680  0.141840  1.0  -0.1322
  C  C143  1  0.393440  0.489450  0.393430  1.0  0.1707
  C  C144  1  0.510550  0.903990  0.106570  1.0  0.1723
  C  C145  1  0.814480  0.407240  0.803390  1.0  0.7177
  C  C146  1  0.592600  0.833520  0.931140  1.0  -0.1679
  C  C147  1  0.496840  0.872160  0.358160  1.0  -0.1308
  C  C148  1  0.096010  0.489450  0.393430  1.0  0.1718
  C  C149  1  0.457360  0.101790  0.479090  1.0  0.7056
  C  C150  1  0.606560  0.510550  0.606570  1.0  0.1704
  C  C151  1  0.572050  0.427950  0.659600  1.0  -0.1114
  C  C152  1  0.833520  0.240920  0.431140  1.0  -0.1689
  C  C153  1  0.185520  0.592760  0.196610  1.0  0.7167
  C  C154  1  0.759080  0.592600  0.068860  1.0  -0.1658
  C  C155  1  0.592760  0.185520  0.696610  1.0  0.7126
  C  C156  1  0.723170  0.161800  0.463640  1.0  0.0481
  C  C157  1  0.240920  0.407400  0.931140  1.0  -0.1638
  C  C158  1  0.407400  0.166480  0.068860  1.0  -0.1651
  C  C159  1  0.457360  0.355570  0.020910  1.0  0.7034
  C  C160  1  0.872160  0.375320  0.858160  1.0  -0.1315
  C  C161  1  0.833520  0.592600  0.431140  1.0  -0.166
  C  C162  1  0.872160  0.496840  0.641840  1.0  -0.1356
  C  C163  1  0.427950  0.572050  0.340400  1.0  -0.1105
  C  C164  1  0.407240  0.814480  0.303390  1.0  0.7128
  C  C165  1  0.144100  0.572050  0.159600  1.0  -0.1113
  C  C166  1  0.855900  0.427950  0.659600  1.0  -0.1115
  C  C167  1  0.606560  0.096010  0.606570  1.0  0.1717
  C  C168  1  0.592600  0.759080  0.931140  1.0  -0.1665
  C  C169  1  0.438630  0.161800  0.463640  1.0  0.0479
  C  C170  1  0.127840  0.503160  0.358160  1.0  -0.1329
  C  C171  1  0.561370  0.723170  0.536360  1.0  0.047
  C  C172  1  0.759080  0.166480  0.431140  1.0  -0.1691
  C  C173  1  0.872160  0.375320  0.641840  1.0  -0.1312
  C  C174  1  0.561370  0.723170  0.963640  1.0  0.049
  C  C175  1  0.723170  0.561370  0.463640  1.0  0.0491
  C  C176  1  0.101790  0.457360  0.520910  1.0  0.7036
  C  C177  1  0.503160  0.127840  0.641840  1.0  -0.1296
  C  C178  1  0.898210  0.542640  0.479090  1.0  0.7057
  C  C179  1  0.903990  0.510550  0.893430  1.0  0.1712
  C  C180  1  0.407240  0.592760  0.196610  1.0  0.7186
  C  C181  1  0.624680  0.496840  0.641840  1.0  -0.1341
  C  C182  1  0.644430  0.542640  0.020910  1.0  0.7015
  C  C183  1  0.624680  0.127840  0.858160  1.0  -0.1303
  C  C184  1  0.838200  0.276830  0.463640  1.0  0.0479
  C  C185  1  0.393440  0.903990  0.106570  1.0  0.1715
  C  C186  1  0.407400  0.240920  0.431140  1.0  -0.1658
  C  C187  1  0.355570  0.898210  0.520910  1.0  0.7052
  C  C188  1  0.407400  0.240920  0.068860  1.0  -0.1651
  C  C189  1  0.393440  0.903990  0.393430  1.0  0.1716
  C  C190  1  0.838200  0.276830  0.036360  1.0  0.0477
  C  C191  1  0.407240  0.592760  0.303390  1.0  0.7178
  C  C192  1  0.606560  0.510550  0.893430  1.0  0.1717
  C  C193  1  0.276830  0.838200  0.536360  1.0  0.0466
  C  C194  1  0.240920  0.833520  0.568860  1.0  -0.1703
  C  C195  1  0.814480  0.407240  0.696610  1.0  0.7181
  C  C196  1  0.898210  0.542640  0.020910  1.0  0.7047
  C  C197  1  0.592760  0.407240  0.803390  1.0  0.7169
  C  C198  1  0.723170  0.561370  0.036360  1.0  0.0474
  C  C199  1  0.161800  0.438630  0.963640  1.0  0.0476
  C  C200  1  0.903990  0.393440  0.893430  1.0  0.1715
  C  C201  1  0.592760  0.185520  0.803390  1.0  0.7119
  C  C202  1  0.624680  0.496840  0.858160  1.0  -0.135
  C  C203  1  0.759080  0.166480  0.068860  1.0  -0.1673
  C  C204  1  0.161800  0.723170  0.536360  1.0  0.0481
  C  C205  1  0.127840  0.503160  0.141840  1.0  -0.1325
  C  C206  1  0.438630  0.161800  0.036360  1.0  0.0461
  C  C207  1  0.161800  0.723170  0.963640  1.0  0.0481
  C  C208  1  0.855900  0.427950  0.840400  1.0  -0.1104
  C  C209  1  0.592760  0.407240  0.696610  1.0  0.7166
  C  C210  1  0.144100  0.572050  0.340400  1.0  -0.1098
  C  C211  1  0.101790  0.457360  0.979090  1.0  0.7027
  C  C212  1  0.276830  0.838200  0.963640  1.0  0.0483
  C  C213  1  0.489450  0.393440  0.606570  1.0  0.1719
  C  C214  1  0.903990  0.393440  0.606570  1.0  0.1695
  C  C215  1  0.644430  0.101790  0.020910  1.0  0.7052
  C  C216  1  0.276830  0.438630  0.536360  1.0  0.0469
  C  C217  1  0.427950  0.572050  0.159600  1.0  -0.1112
  C  C218  1  0.355570  0.898210  0.979090  1.0  0.7053
  C  C219  1  0.833520  0.592600  0.068860  1.0  -0.1661
  C  C220  1  0.872160  0.496840  0.858160  1.0  -0.1346
  C  C221  1  0.166480  0.759080  0.568860  1.0  -0.171
  C  C222  1  0.572050  0.144100  0.840400  1.0  -0.1085
  C  C223  1  0.407400  0.166480  0.431140  1.0  -0.1669
  C  C224  1  0.723170  0.161800  0.036360  1.0  0.0462
  C  C225  1  0.644430  0.101790  0.479090  1.0  0.7052
  C  C226  1  0.240920  0.833520  0.931140  1.0  -0.1703
  C  C227  1  0.542640  0.644430  0.520910  1.0  0.7028
  C  C228  1  0.759080  0.592600  0.431140  1.0  -0.1664
  C  C229  1  0.185520  0.592760  0.303390  1.0  0.7167
  C  C230  1  0.833520  0.240920  0.068860  1.0  -0.1666
  C  C231  1  0.542640  0.644430  0.979090  1.0  0.7026
  C  C232  1  0.561370  0.838200  0.963640  1.0  0.0476
  C  C233  1  0.096010  0.489450  0.106570  1.0  0.171
  C  C234  1  0.496840  0.872160  0.141840  1.0  -0.1307
  N  N235  1  0.540880  0.459120  0.911030  1.0  -0.2521
  N  N236  1  0.459120  0.918240  0.411030  1.0  -0.2513
  N  N237  1  0.459120  0.918240  0.088970  1.0  -0.2531
  N  N238  1  0.540880  0.081760  0.911030  1.0  -0.2505
  N  N239  1  0.081760  0.540880  0.088970  1.0  -0.253
  N  N240  1  0.459120  0.540880  0.088970  1.0  -0.2516
  N  N241  1  0.918240  0.459120  0.588970  1.0  -0.2528
  N  N242  1  0.918240  0.459120  0.911030  1.0  -0.2516
  N  N243  1  0.540880  0.459120  0.588970  1.0  -0.2532
  N  N244  1  0.459120  0.540880  0.411030  1.0  -0.2524
  N  N245  1  0.081760  0.540880  0.411030  1.0  -0.2512
  N  N246  1  0.540880  0.081760  0.588970  1.0  -0.2531
  O  O247  1  0.889530  0.518140  0.988570  1.0  -0.5807
  O  O248  1  0.371390  0.481860  0.488570  1.0  -0.5809
  O  O249  1  0.889530  0.518140  0.511430  1.0  -0.5796
  O  O250  1  0.799550  0.458610  0.710380  1.0  -0.6354
  O  O251  1  0.598990  0.552470  0.042800  1.0  -0.5962
  O  O252  1  0.110470  0.628610  0.488570  1.0  -0.5802
  O  O253  1  0.799550  0.458610  0.789620  1.0  -0.6352
  O  O254  1  0.659060  0.200450  0.710380  1.0  -0.6367
  O  O255  1  0.458610  0.799550  0.210380  1.0  -0.6372
  O  O256  1  0.340940  0.799550  0.210380  1.0  -0.6361
  O  O257  1  0.518140  0.889530  0.488570  1.0  -0.5793
  O  O258  1  0.457640  0.228820  0.484490  1.0  -0.1255
  O  O259  1  0.200450  0.659060  0.210380  1.0  -0.6385
  O  O260  1  0.771180  0.228820  0.015510  1.0  -0.1247
  O  O261  1  0.541390  0.340940  0.789620  1.0  -0.6369
  O  O262  1  0.628610  0.518140  0.511430  1.0  -0.5795
  O  O263  1  0.518140  0.628610  0.488570  1.0  -0.5799
  O  O264  1  0.481860  0.110470  0.511430  1.0  -0.5799
  O  O265  1  0.628610  0.110470  0.511430  1.0  -0.5796
  O  O266  1  0.628610  0.110470  0.988570  1.0  -0.5801
  O  O267  1  0.228820  0.771180  0.984490  1.0  -0.1253
  O  O268  1  0.333333  0.666667  0.250000  1.0  -1.0341
  O  O269  1  0.200450  0.659060  0.289620  1.0  -0.6381
  O  O270  1  0.457640  0.228820  0.015510  1.0  -0.124
  O  O271  1  0.518140  0.889530  0.011430  1.0  -0.5791
  O  O272  1  0.340940  0.799550  0.289620  1.0  -0.6357
  O  O273  1  0.458610  0.799550  0.289620  1.0  -0.6365
  O  O274  1  0.110470  0.628610  0.011430  1.0  -0.5786
  O  O275  1  0.046520  0.447530  0.957200  1.0  -0.596
  O  O276  1  0.598990  0.552470  0.457200  1.0  -0.5959
  O  O277  1  0.371390  0.481860  0.011430  1.0  -0.58
  O  O278  1  0.659060  0.200450  0.789620  1.0  -0.6361
  O  O279  1  0.889530  0.371390  0.988570  1.0  -0.5796
  O  O280  1  0.666667  0.333333  0.750000  1.0  -1.0341
  O  O281  1  0.447530  0.401010  0.457200  1.0  -0.5941
  O  O282  1  0.481860  0.110470  0.988570  1.0  -0.5811
  O  O283  1  0.340940  0.541390  0.289620  1.0  -0.6345
  O  O284  1  0.110470  0.481860  0.011430  1.0  -0.5796
  O  O285  1  0.598990  0.046520  0.042800  1.0  -0.5968
  O  O286  1  0.046520  0.447530  0.542800  1.0  -0.5955
  O  O287  1  0.542360  0.771180  0.515510  1.0  -0.1264
  O  O288  1  0.771180  0.228820  0.484490  1.0  -0.1262
  O  O289  1  0.953480  0.401010  0.042800  1.0  -0.595
  O  O290  1  0.799550  0.340940  0.789620  1.0  -0.6338
  O  O291  1  0.953480  0.552470  0.042800  1.0  -0.5958
  O  O292  1  0.799550  0.340940  0.710380  1.0  -0.6341
  O  O293  1  0.552470  0.953480  0.542800  1.0  -0.5955
  O  O294  1  0.771180  0.542360  0.484490  1.0  -0.1261
  O  O295  1  0.481860  0.371390  0.988570  1.0  -0.5794
  O  O296  1  0.200450  0.541390  0.210380  1.0  -0.6353
  O  O297  1  0.541390  0.340940  0.710380  1.0  -0.6366
  O  O298  1  0.447530  0.046520  0.042800  1.0  -0.5969
  O  O299  1  0.458610  0.659060  0.289620  1.0  -0.6362
  O  O300  1  0.371390  0.889530  0.488570  1.0  -0.5799
  O  O301  1  0.371390  0.889530  0.011430  1.0  -0.579
  O  O302  1  0.481860  0.371390  0.511430  1.0  -0.579
  O  O303  1  0.541390  0.200450  0.710380  1.0  -0.6357
  O  O304  1  0.458610  0.659060  0.210380  1.0  -0.637
  O  O305  1  0.447530  0.046520  0.457200  1.0  -0.5966
  O  O306  1  0.541390  0.200450  0.789620  1.0  -0.6355
  O  O307  1  0.200450  0.541390  0.289620  1.0  -0.6347
  O  O308  1  0.401010  0.953480  0.957200  1.0  -0.5958
  O  O309  1  0.228820  0.457640  0.515510  1.0  -0.1242
  O  O310  1  0.953480  0.552470  0.457200  1.0  -0.5965
  O  O311  1  0.889530  0.371390  0.511430  1.0  -0.5792
  O  O312  1  0.518140  0.628610  0.011430  1.0  -0.5786
  O  O313  1  0.659060  0.458610  0.789620  1.0  -0.6362
  O  O314  1  0.046520  0.598990  0.957200  1.0  -0.5954
  O  O315  1  0.628610  0.518140  0.988570  1.0  -0.5804
  O  O316  1  0.659060  0.458610  0.710380  1.0  -0.6362
  O  O317  1  0.552470  0.953480  0.957200  1.0  -0.5952
  O  O318  1  0.228820  0.457640  0.984490  1.0  -0.1251
  O  O319  1  0.552470  0.598990  0.957200  1.0  -0.5968
  O  O320  1  0.598990  0.046520  0.457200  1.0  -0.5961
  O  O321  1  0.953480  0.401010  0.457200  1.0  -0.5956
  O  O322  1  0.110470  0.481860  0.488570  1.0  -0.5804
  O  O323  1  0.046520  0.598990  0.542800  1.0  -0.5956
  O  O324  1  0.340940  0.541390  0.210380  1.0  -0.6351
  O  O325  1  0.771180  0.542360  0.015510  1.0  -0.1246
  O  O326  1  0.542360  0.771180  0.984490  1.0  -0.1271
  O  O327  1  0.401010  0.447530  0.542800  1.0  -0.595
  O  O328  1  0.228820  0.771180  0.515510  1.0  -0.1263
  O  O329  1  0.401010  0.447530  0.957200  1.0  -0.5962
  O  O330  1  0.447530  0.401010  0.042800  1.0  -0.5938
  O  O331  1  0.552470  0.598990  0.542800  1.0  -0.5969
  O  O332  1  0.401010  0.953480  0.542800  1.0  -0.5955
