# generated using pymatgen
data_Zn4H27(C3O)16
_symmetry_space_group_name_H-M   'P 1'
_cell_length_a   24.99960000
_cell_length_b   24.99960000
_cell_length_c   24.99960000
_cell_angle_alpha   109.47100000
_cell_angle_beta   109.47100000
_cell_angle_gamma   109.47100000
_symmetry_Int_Tables_number   1
_chemical_formula_structural   Zn4H27(C3O)16
_chemical_formula_sum   'Zn16 H108 C192 O64'
_cell_volume   12027.65151648
_cell_formula_units_Z   4
loop_
 _symmetry_equiv_pos_site_id
 _symmetry_equiv_pos_as_xyz
  1  'x, y, z'
loop_
 _atom_site_type_symbol
 _atom_site_label
 _atom_site_symmetry_multiplicity
 _atom_site_fract_x
 _atom_site_fract_y
 _atom_site_fract_z
 _atom_site_occupancy
 _atom_site_charge
  Zn  Zn1  1  0.927980  0.421010  0.180610  1.0  1.0221
  Zn  Zn2  1  0.819390  0.740400  0.247370  1.0  1.0181
  Zn  Zn3  1  0.506970  0.759600  0.578990  1.0  1.0654
  Zn  Zn4  1  0.759600  0.078990  0.006970  1.0  1.0619
  Zn  Zn5  1  0.993030  0.572020  0.252630  1.0  1.0256
  Zn  Zn6  1  0.000000  0.500000  0.338260  1.0  1.1118
  Zn  Zn7  1  0.838260  0.000000  0.000000  1.0  1.1094
  Zn  Zn8  1  0.572020  0.752630  0.493030  1.0  1.0237
  Zn  Zn9  1  0.421010  0.680610  0.427980  1.0  1.0217
  Zn  Zn10  1  0.078990  0.506970  0.259600  1.0  1.0634
  Zn  Zn11  1  0.680610  0.927980  0.921010  1.0  1.0189
  Zn  Zn12  1  0.740400  0.747370  0.319390  1.0  1.0206
  Zn  Zn13  1  0.661740  0.661740  0.161740  1.0  1.1092
  Zn  Zn14  1  0.500000  0.838260  0.500000  1.0  1.1096
  Zn  Zn15  1  0.752630  0.993030  0.072020  1.0  1.0239
  Zn  Zn16  1  0.747370  0.819390  0.240400  1.0  1.0197
  H  H17  1  0.512900  0.062500  0.378600  1.0  0.1551
  H  H18  1  0.540700  0.746400  0.889300  1.0  0.1213
  H  H19  1  0.406600  0.431300  0.740700  1.0  0.1373
  H  H20  1  0.948600  0.358400  0.589000  1.0  0.1326
  H  H21  1  0.621400  0.183900  0.634300  1.0  0.1493
  H  H22  1  0.644800  0.485100  0.021100  1.0  0.1283
  H  H23  1  0.389300  0.540700  0.246400  1.0  0.1213
  H  H24  1  0.357100  0.651400  0.610700  1.0  0.1209
  H  H25  1  0.276300  0.078300  0.347800  1.0  0.1246
  H  H26  1  0.855200  0.876300  0.840300  1.0  0.1286
  H  H27  1  0.338900  0.301800  0.105700  1.0  0.126
  H  H28  1  0.431300  0.240700  0.906600  1.0  0.1339
  H  H29  1  0.485100  0.521100  0.144800  1.0  0.1295
  H  H30  1  0.670200  0.843700  0.751100  1.0  0.115
  H  H31  1  0.894300  0.696100  0.733200  1.0  0.1272
  H  H32  1  0.161400  0.310900  0.928900  1.0  0.1256
  H  H33  1  0.673500  0.829800  0.080900  1.0  0.1153
  H  H34  1  0.189100  0.850500  0.118000  1.0  0.1281
  H  H35  1  0.907400  0.656300  0.326500  1.0  0.1169
  H  H36  1  0.183900  0.134300  0.121400  1.0  0.1515
  H  H37  1  0.590200  0.230600  0.641600  1.0  0.1306
  H  H38  1  0.909800  0.551400  0.640400  1.0  0.1314
  H  H39  1  0.834100  0.524700  0.593400  1.0  0.1297
  H  H40  1  0.605700  0.338900  0.801800  1.0  0.1257
  H  H41  1  0.651400  0.110700  0.857100  1.0  0.1215
  H  H42  1  0.140400  0.909800  0.051400  1.0  0.1327
  H  H43  1  0.521100  0.644800  0.985100  1.0  0.1275
  H  H44  1  0.665900  0.259300  0.690600  1.0  0.1345
  H  H45  1  0.359600  0.411000  0.769400  1.0  0.1315
  H  H46  1  0.068700  0.975300  0.809400  1.0  0.1356
  H  H47  1  0.302000  0.223700  0.071500  1.0  0.1242
  H  H48  1  0.975300  0.309400  0.568700  1.0  0.1371
  H  H49  1  0.159700  0.536000  0.514900  1.0  0.1276
  H  H50  1  0.062500  0.878600  0.012900  1.0  0.1494
  H  H51  1  0.618000  0.189100  0.350500  1.0  0.1277
  H  H52  1  0.524700  0.093400  0.334100  1.0  0.1334
  H  H53  1  0.089000  0.948600  0.858400  1.0  0.129
  H  H54  1  0.251100  0.670200  0.343700  1.0  0.1162
  H  H55  1  0.536000  0.014900  0.659700  1.0  0.1292
  H  H56  1  0.847800  0.276300  0.578300  1.0  0.1267
  H  H57  1  0.233200  0.894300  0.196100  1.0  0.1245
  H  H58  1  0.071100  0.882000  0.732500  1.0  0.1274
  H  H59  1  0.848600  0.705700  0.459300  1.0  0.1212
  H  H60  1  0.919100  0.248900  0.092600  1.0  0.1155
  H  H61  1  0.826500  0.907400  0.156300  1.0  0.1155
  H  H62  1  0.338600  0.267500  0.149500  1.0  0.1285
  H  H63  1  0.705700  0.959300  0.348600  1.0  0.1213
  H  H64  1  0.696100  0.233200  0.394300  1.0  0.1265
  H  H65  1  0.142900  0.753600  0.294300  1.0  0.1219
  H  H66  1  0.959300  0.848600  0.205700  1.0  0.1206
  H  H67  1  0.656300  0.826500  0.407400  1.0  0.1146
  H  H68  1  0.301800  0.605700  0.838900  1.0  0.1251
  H  H69  1  0.462900  0.161100  0.766800  1.0  0.1257
  H  H70  1  0.310900  0.428900  0.661400  1.0  0.1283
  H  H71  1  0.269400  0.359600  0.911000  1.0  0.1319
  H  H72  1  0.551400  0.140400  0.409800  1.0  0.1327
  H  H73  1  0.078300  0.847800  0.776300  1.0  0.1245
  H  H74  1  0.358400  0.089000  0.448600  1.0  0.1334
  H  H75  1  0.340300  0.855200  0.376300  1.0  0.128
  H  H76  1  0.269500  0.421700  0.698000  1.0  0.1237
  H  H77  1  0.161100  0.266800  0.962900  1.0  0.1246
  H  H78  1  0.649500  0.338600  0.767500  1.0  0.1277
  H  H79  1  0.746400  0.389300  0.040700  1.0  0.1209
  H  H80  1  0.267500  0.649500  0.838600  1.0  0.1288
  H  H81  1  0.753600  0.794300  0.642900  1.0  0.121
  H  H82  1  0.428900  0.161400  0.810900  1.0  0.1284
  H  H83  1  0.803900  0.198200  0.537100  1.0  0.1275
  H  H84  1  0.882000  0.232500  0.571100  1.0  0.1234
  H  H85  1  0.978900  0.964000  0.123700  1.0  0.1306
  H  H86  1  0.049600  0.987100  0.865700  1.0  0.1555
  H  H87  1  0.571500  0.302000  0.723700  1.0  0.1215
  H  H88  1  0.421700  0.198000  0.769500  1.0  0.1234
  H  H89  1  0.037100  0.803900  0.698200  1.0  0.1251
  H  H90  1  0.309400  0.068700  0.475300  1.0  0.135
  H  H91  1  0.437500  0.450400  0.816100  1.0  0.1465
  H  H92  1  0.230500  0.928500  0.152200  1.0  0.1265
  H  H93  1  0.794300  0.142900  0.253600  1.0  0.1204
  H  H94  1  0.198200  0.037100  0.303900  1.0  0.1262
  H  H95  1  0.876300  0.340300  0.355200  1.0  0.1278
  H  H96  1  0.093400  0.834100  0.024700  1.0  0.1395
  H  H97  1  0.878600  0.512900  0.562500  1.0  0.157
  H  H98  1  0.259300  0.190600  0.165900  1.0  0.1355
  H  H99  1  0.316100  0.437500  0.950400  1.0  0.1496
  H  H100  1  0.141600  0.590200  0.730600  1.0  0.1325
  H  H101  1  0.411000  0.269400  0.859600  1.0  0.13
  H  H102  1  0.623700  0.978900  0.464000  1.0  0.1285
  H  H103  1  0.964000  0.623700  0.478900  1.0  0.1293
  H  H104  1  0.240700  0.406600  0.931300  1.0  0.135
  H  H105  1  0.843700  0.251100  0.170200  1.0  0.1169
  H  H106  1  0.592600  0.919100  0.748900  1.0  0.1168
  H  H107  1  0.450400  0.316100  0.937500  1.0  0.1484
  H  H108  1  0.110700  0.357100  0.151400  1.0  0.122
  H  H109  1  0.014900  0.159700  0.036000  1.0  0.1298
  H  H110  1  0.198000  0.269500  0.921700  1.0  0.1252
  H  H111  1  0.232500  0.071100  0.382000  1.0  0.1287
  H  H112  1  0.190600  0.665900  0.759300  1.0  0.1332
  H  H113  1  0.134300  0.621400  0.683900  1.0  0.1448
  H  H114  1  0.580900  0.673500  0.329800  1.0  0.1152
  H  H115  1  0.223700  0.571500  0.802000  1.0  0.1261
  H  H116  1  0.652200  0.230500  0.428500  1.0  0.1246
  H  H117  1  0.248900  0.592600  0.419100  1.0  0.1163
  H  H118  1  0.230600  0.141600  0.090200  1.0  0.1333
  H  H119  1  0.266800  0.462900  0.661100  1.0  0.125
  H  H120  1  0.365700  0.049600  0.487100  1.0  0.1522
  H  H121  1  0.829800  0.580900  0.173500  1.0  0.1155
  H  H122  1  0.928500  0.652200  0.730500  1.0  0.1236
  H  H123  1  0.987100  0.365700  0.549600  1.0  0.1564
  H  H124  1  0.850500  0.618000  0.689100  1.0  0.1284
  C  C125  1  0.541940  0.600840  0.236700  1.0  -0.1504
  C  C126  1  0.958000  0.251500  0.092900  1.0  0.0239
  C  C127  1  0.259000  0.593800  0.571800  1.0  -0.0073
  C  C128  1  0.142660  0.208460  0.094200  1.0  0.0426
  C  C129  1  0.718500  0.853100  0.341400  1.0  0.6688
  C  C130  1  0.451100  0.186900  0.794800  1.0  -0.3759
  C  C131  1  0.048900  0.843700  0.735800  1.0  -0.38
  C  C132  1  0.684600  0.887560  0.372560  1.0  -0.1204
  C  C133  1  0.267400  0.360100  0.076500  1.0  -0.0495
  C  C134  1  0.011700  0.377100  0.158600  1.0  0.6665
  C  C135  1  0.660300  0.144400  0.397100  1.0  0.0603
  C  C136  1  0.543500  0.098700  0.378000  1.0  -0.3987
  C  C137  1  0.706500  0.841400  0.748500  1.0  0.024
  C  C138  1  0.687200  0.428200  0.022000  1.0  -0.0085
  C  C139  1  0.622000  0.220700  0.665500  1.0  -0.3995
  C  C140  1  0.865100  0.907100  0.158600  1.0  0.0237
  C  C141  1  0.297600  0.401300  0.010500  1.0  0.0441
  C  C142  1  0.670300  0.043900  0.416000  1.0  -0.0683
  C  C143  1  0.055200  0.956500  0.834500  1.0  -0.3954
  C  C144  1  0.015000  0.312040  0.127440  1.0  -0.119
  C  C145  1  0.291540  0.934200  0.385740  1.0  0.0426
  C  C146  1  0.905800  0.614260  0.548460  1.0  0.043
  C  C147  1  0.212900  0.603700  0.702400  1.0  0.0433
  C  C148  1  0.355600  0.515900  0.752700  1.0  0.0613
  C  C149  1  0.247300  0.263200  0.102900  1.0  0.0625
  C  C150  1  0.488300  0.646900  0.365400  1.0  0.6676
  C  C151  1  0.428200  0.556000  0.244000  1.0  -0.0053
  C  C152  1  0.841400  0.718500  0.353100  1.0  0.6688
  C  C153  1  0.628500  0.733300  0.101400  1.0  0.736
  C  C154  1  0.144400  0.897100  0.160300  1.0  0.0617
  C  C155  1  0.593800  0.071800  0.759000  1.0  -0.0067
  C  C156  1  0.522000  0.687200  0.928200  1.0  -0.0089
  C  C157  1  0.897100  0.660300  0.644400  1.0  0.0637
  C  C158  1  0.781500  0.122900  0.134600  1.0  0.6685
  C  C159  1  0.015000  0.198540  0.059340  1.0  -0.034
  C  C160  1  0.309100  0.592700  0.732600  1.0  -0.0482
  C  C161  1  0.878000  0.543500  0.598700  1.0  -0.3972
  C  C162  1  0.334500  0.055200  0.456500  1.0  -0.3955
  C  C163  1  0.184200  0.756000  0.312000  1.0  -0.0062
  C  C164  1  0.510500  0.297600  0.901300  1.0  0.0402
  C  C165  1  0.235800  0.048900  0.343700  1.0  -0.3762
  C  C166  1  0.658600  0.011700  0.877100  1.0  0.669
  C  C167  1  0.287100  0.989500  0.390800  1.0  0.0374
  C  C168  1  0.665200  0.978000  0.406200  1.0  -0.007
  C  C169  1  0.071800  0.315800  0.127800  1.0  -0.0054
  C  C170  1  0.187960  0.702960  0.315400  1.0  -0.1184
  C  C171  1  0.315800  0.627800  0.571800  1.0  -0.0043
  C  C172  1  0.428200  0.522000  0.187200  1.0  -0.0078
  C  C173  1  0.254300  0.584000  0.627900  1.0  -0.0712
  C  C174  1  0.885740  0.291540  0.434200  1.0  0.0518
  C  C175  1  0.756000  0.812000  0.684200  1.0  -0.0067
  C  C176  1  0.989500  0.890800  0.787100  1.0  0.0408
  C  C177  1  0.485000  0.612440  0.297040  1.0  -0.1208
  C  C178  1  0.860800  0.301460  0.316460  1.0  -0.0341
  C  C179  1  0.603700  0.202400  0.712900  1.0  0.0436
  C  C180  1  0.797040  0.485000  0.112440  1.0  -0.1189
  C  C181  1  0.313100  0.264200  0.107900  1.0  -0.3801
  C  C182  1  0.899160  0.941100  0.135860  1.0  -0.1505
  C  C183  1  0.955660  0.940660  0.139200  1.0  -0.0347
  C  C184  1  0.812800  0.834800  0.741000  1.0  -0.0065
  C  C185  1  0.940660  0.639200  0.455660  1.0  -0.0335
  C  C186  1  0.871500  0.972900  0.104800  1.0  0.7324
  C  C187  1  0.604800  0.871500  0.472900  1.0  0.7353
  C  C188  1  0.635860  0.899160  0.441100  1.0  -0.1535
  C  C189  1  0.778600  0.195400  0.368200  1.0  0.3717
  C  C190  1  0.956500  0.334500  0.555200  1.0  -0.3962
  C  C191  1  0.584000  0.127900  0.754300  1.0  -0.0726
  C  C192  1  0.898600  0.131900  0.027100  1.0  0.7319
  C  C193  1  0.592900  0.958000  0.751500  1.0  0.0243
  C  C194  1  0.614260  0.048460  0.405800  1.0  0.0516
  C  C195  1  0.139900  0.907300  0.216400  1.0  -0.0508
  C  C196  1  0.872560  0.684600  0.387560  1.0  -0.1181
  C  C197  1  0.634600  0.781500  0.622900  1.0  0.668
  C  C198  1  0.984100  0.839700  0.736800  1.0  0.0601
  C  C199  1  0.896300  0.609200  0.598700  1.0  0.0397
  C  C200  1  0.944000  0.872200  0.188000  1.0  -0.0045
  C  C201  1  0.410400  0.631800  0.827200  1.0  0.3663
  C  C202  1  0.401300  0.444800  0.779300  1.0  -0.3982
  C  C203  1  0.195400  0.868200  0.278600  1.0  0.3674
  C  C204  1  0.279300  0.401300  0.944800  1.0  -0.3983
  C  C205  1  0.327200  0.410400  0.131800  1.0  0.3708
  C  C206  1  0.232600  0.309100  0.092700  1.0  -0.0496
  C  C207  1  0.401300  0.510500  0.797600  1.0  0.0377
  C  C208  1  0.245700  0.873600  0.329700  1.0  -0.071
  C  C209  1  0.872200  0.688000  0.444000  1.0  -0.0063
  C  C210  1  0.098700  0.878000  0.043500  1.0  -0.398
  C  C211  1  0.294800  0.451100  0.686900  1.0  -0.3765
  C  C212  1  0.527100  0.898600  0.631900  1.0  0.732
  C  C213  1  0.864140  0.305240  0.263300  1.0  -0.1511
  C  C214  1  0.958060  0.194760  0.058900  1.0  -0.1512
  C  C215  1  0.972900  0.604800  0.371500  1.0  0.7325
  C  C216  1  0.626400  0.372100  0.956100  1.0  -0.0708
  C  C217  1  0.208460  0.594200  0.642660  1.0  0.043
  C  C218  1  0.251500  0.592900  0.458000  1.0  0.0232
  C  C219  1  0.601400  0.628500  0.233300  1.0  0.7326
  C  C220  1  0.559340  0.015000  0.698540  1.0  -0.0347
  C  C221  1  0.377100  0.658600  0.511700  1.0  0.6699
  C  C222  1  0.721400  0.089600  0.416800  1.0  0.3659
  C  C223  1  0.834800  0.241000  0.312800  1.0  -0.0081
  C  C224  1  0.190900  0.923500  0.283600  1.0  -0.0488
  C  C225  1  0.544340  0.683540  0.985000  1.0  -0.0318
  C  C226  1  0.241000  0.812800  0.334800  1.0  -0.007
  C  C227  1  0.634900  0.793500  0.042000  1.0  0.025
  C  C228  1  0.627440  0.015000  0.812040  1.0  -0.1199
  C  C229  1  0.048460  0.905800  0.114260  1.0  0.0502
  C  C230  1  0.793500  0.542000  0.134900  1.0  0.0229
  C  C231  1  0.941100  0.635860  0.399160  1.0  -0.1501
  C  C232  1  0.444800  0.279300  0.901300  1.0  -0.3982
  C  C233  1  0.736700  0.541940  0.100840  1.0  -0.1511
  C  C234  1  0.733300  0.601400  0.128500  1.0  0.7322
  C  C235  1  0.556000  0.744000  0.928200  1.0  -0.0057
  C  C236  1  0.205200  0.892100  0.156300  1.0  -0.376
  C  C237  1  0.683540  0.485000  0.044340  1.0  -0.0345
  C  C238  1  0.594200  0.142660  0.708460  1.0  0.0423
  C  C239  1  0.248500  0.706500  0.341400  1.0  0.0267
  C  C240  1  0.515900  0.252700  0.855600  1.0  0.0607
  C  C241  1  0.368100  0.766700  0.395200  1.0  0.7332
  C  C242  1  0.592700  0.232600  0.809100  1.0  -0.0501
  C  C243  1  0.763300  0.864140  0.805240  1.0  -0.1539
  C  C244  1  0.600840  0.736700  0.041940  1.0  -0.154
  C  C245  1  0.127900  0.254300  0.084000  1.0  -0.0712
  C  C246  1  0.906200  0.665200  0.478000  1.0  -0.0078
  C  C247  1  0.892100  0.656300  0.705200  1.0  -0.3783
  C  C248  1  0.172800  0.304600  0.083200  1.0  0.3695
  C  C249  1  0.841400  0.248500  0.206500  1.0  0.0236
  C  C250  1  0.122900  0.634600  0.281500  1.0  0.6666
  C  C251  1  0.558900  0.958060  0.694760  1.0  -0.1515
  C  C252  1  0.360100  0.576500  0.767400  1.0  -0.0508
  C  C253  1  0.873600  0.829700  0.745700  1.0  -0.0683
  C  C254  1  0.978000  0.906200  0.165200  1.0  -0.0074
  C  C255  1  0.612440  0.797040  0.985000  1.0  -0.1199
  C  C256  1  0.607900  0.313100  0.764200  1.0  -0.3756
  C  C257  1  0.194760  0.558900  0.458060  1.0  -0.1515
  C  C258  1  0.198540  0.559340  0.515000  1.0  -0.034
  C  C259  1  0.816460  0.860800  0.801460  1.0  -0.0329
  C  C260  1  0.916000  0.670300  0.543900  1.0  -0.0707
  C  C261  1  0.923500  0.783600  0.690900  1.0  -0.0512
  C  C262  1  0.688000  0.944000  0.372200  1.0  -0.0066
  C  C263  1  0.263200  0.602900  0.747300  1.0  0.0616
  C  C264  1  0.702960  0.815400  0.687960  1.0  -0.1203
  C  C265  1  0.071800  0.259000  0.093800  1.0  -0.0061
  C  C266  1  0.372100  0.456100  0.126400  1.0  -0.0706
  C  C267  1  0.865400  0.488300  0.146900  1.0  0.6682
  C  C268  1  0.202400  0.212900  0.103700  1.0  0.0416
  C  C269  1  0.576500  0.267400  0.860100  1.0  -0.0502
  C  C270  1  0.812000  0.184200  0.256000  1.0  -0.0047
  C  C271  1  0.098700  0.896300  0.109200  1.0  0.0397
  C  C272  1  0.783600  0.190900  0.423500  1.0  -0.0493
  C  C273  1  0.236800  0.984100  0.339700  1.0  0.067
  C  C274  1  0.264200  0.607900  0.813100  1.0  -0.3792
  C  C275  1  0.716400  0.139900  0.407300  1.0  -0.0505
  C  C276  1  0.631800  0.327200  0.910400  1.0  0.3645
  C  C277  1  0.451540  0.565800  0.857340  1.0  0.0428
  C  C278  1  0.252700  0.355600  0.015900  1.0  0.0618
  C  C279  1  0.609200  0.098700  0.396300  1.0  0.0407
  C  C280  1  0.868200  0.778600  0.695400  1.0  0.3695
  C  C281  1  0.304600  0.583200  0.672800  1.0  0.3657
  C  C282  1  0.627800  0.071800  0.815800  1.0  -0.0048
  C  C283  1  0.934200  0.885740  0.791540  1.0  0.0457
  C  C284  1  0.089600  0.916800  0.221400  1.0  0.3704
  C  C285  1  0.357340  0.451540  0.065800  1.0  0.0423
  C  C286  1  0.887560  0.872560  0.184600  1.0  -0.1205
  C  C287  1  0.312040  0.627440  0.515000  1.0  -0.1195
  C  C288  1  0.744000  0.428200  0.056000  1.0  -0.0026
  C  C289  1  0.301460  0.816460  0.360800  1.0  -0.0343
  C  C290  1  0.815400  0.187960  0.202960  1.0  -0.1191
  C  C291  1  0.583200  0.172800  0.804600  1.0  0.3721
  C  C292  1  0.456100  0.626400  0.872100  1.0  -0.0687
  C  C293  1  0.843700  0.235800  0.548900  1.0  -0.3789
  C  C294  1  0.485000  0.544340  0.183540  1.0  -0.0342
  C  C295  1  0.766700  0.895200  0.868100  1.0  0.7369
  C  C296  1  0.220700  0.165500  0.122000  1.0  -0.3972
  C  C297  1  0.853100  0.841400  0.218500  1.0  0.669
  C  C298  1  0.565800  0.357340  0.951540  1.0  0.0524
  C  C299  1  0.658600  0.865100  0.407100  1.0  0.0239
  C  C300  1  0.907300  0.716400  0.639900  1.0  -0.0506
  C  C301  1  0.639200  0.955660  0.440660  1.0  -0.0334
  C  C302  1  0.305240  0.763300  0.364140  1.0  -0.151
  C  C303  1  0.916800  0.721400  0.589600  1.0  0.3696
  C  C304  1  0.839700  0.236800  0.484100  1.0  0.0626
  C  C305  1  0.895200  0.368100  0.266700  1.0  0.7321
  C  C306  1  0.907100  0.658600  0.365100  1.0  0.0228
  C  C307  1  0.890800  0.287100  0.489500  1.0  0.0398
  C  C308  1  0.131900  0.527100  0.398600  1.0  0.7308
  C  C309  1  0.656300  0.205200  0.392100  1.0  -0.3772
  C  C310  1  0.602900  0.247300  0.763200  1.0  0.062
  C  C311  1  0.646900  0.865400  0.988300  1.0  0.6684
  C  C312  1  0.186900  0.294800  0.951100  1.0  -0.3765
  C  C313  1  0.165500  0.622000  0.720700  1.0  -0.3959
  C  C314  1  0.829700  0.245700  0.373600  1.0  -0.0695
  C  C315  1  0.542000  0.634900  0.293500  1.0  0.0289
  C  C316  1  0.043900  0.916000  0.170300  1.0  -0.0706
  O  O317  1  0.699620  0.067880  0.926360  1.0  -0.5733
  O  O318  1  0.573700  0.158500  0.844600  1.0  -0.504
  O  O319  1  0.637400  0.957470  0.872070  1.0  -0.5998
  O  O320  1  0.679930  0.914600  0.042530  1.0  -0.5969
  O  O321  1  0.067880  0.426360  0.199620  1.0  -0.5705
  O  O322  1  0.426360  0.699620  0.567880  1.0  -0.5729
  O  O323  1  0.830850  0.985800  0.116650  1.0  -0.6349
  O  O324  1  0.862600  0.734670  0.320070  1.0  -0.5937
  O  O325  1  0.130850  0.514200  0.345050  1.0  -0.6339
  O  O326  1  0.084800  0.926300  0.270900  1.0  -0.5066
  O  O327  1  0.686100  0.341500  0.915200  1.0  -0.5023
  O  O328  1  0.821900  0.935700  0.918800  1.0  -0.5852
  O  O329  1  0.372070  0.637400  0.457470  1.0  -0.5972
  O  O330  1  0.000000  0.500000  0.262620  1.0  -1.2201
  O  O331  1  0.800380  0.726740  0.368260  1.0  -0.5721
  O  O332  1  0.729100  0.155400  0.313900  1.0  -0.5014
  O  O333  1  0.868260  0.800380  0.226740  1.0  -0.5702
  O  O334  1  0.734670  0.820070  0.362600  1.0  -0.5935
  O  O335  1  0.883350  0.369150  0.214200  1.0  -0.6348
  O  O336  1  0.858480  0.432120  0.131740  1.0  -0.5689
  O  O337  1  0.654950  0.669150  0.285800  1.0  -0.6341
  O  O338  1  0.500000  0.762620  0.500000  1.0  -1.2206
  O  O339  1  0.415200  0.686100  0.841500  1.0  -0.4986
  O  O340  1  0.926300  0.770900  0.584800  1.0  -0.5043
  O  O341  1  0.432120  0.631740  0.358480  1.0  -0.5718
  O  O342  1  0.765330  0.127930  0.085400  1.0  -0.5957
  O  O343  1  0.158500  0.344600  0.073700  1.0  -0.5044
  O  O344  1  0.341500  0.415200  0.186100  1.0  -0.5039
  O  O345  1  0.127930  0.585400  0.265330  1.0  -0.5938
  O  O346  1  0.585400  0.765330  0.627930  1.0  -0.5904
  O  O347  1  0.542530  0.679930  0.414600  1.0  -0.5967
  O  O348  1  0.418800  0.821900  0.435700  1.0  -0.5837
  O  O349  1  0.678100  0.596900  0.113800  1.0  -0.5838
  O  O350  1  0.613800  0.678100  0.096900  1.0  -0.585
  O  O351  1  0.914600  0.542530  0.179930  1.0  -0.5993
  O  O352  1  0.516900  0.903100  0.581200  1.0  -0.58
  O  O353  1  0.770900  0.084800  0.426300  1.0  -0.4986
  O  O354  1  0.985800  0.616650  0.330850  1.0  -0.6366
  O  O355  1  0.155400  0.813900  0.229100  1.0  -0.4986
  O  O356  1  0.886200  0.983100  0.064300  1.0  -0.5802
  O  O357  1  0.369150  0.714200  0.383350  1.0  -0.6341
  O  O358  1  0.669150  0.785800  0.154950  1.0  -0.638
  O  O359  1  0.641520  0.773260  0.573640  1.0  -0.5706
  O  O360  1  0.714200  0.883350  0.869150  1.0  -0.6369
  O  O361  1  0.762620  0.000000  0.000000  1.0  -1.2198
  O  O362  1  0.957470  0.372070  0.137400  1.0  -0.5993
  O  O363  1  0.564300  0.886200  0.483100  1.0  -0.5811
  O  O364  1  0.983100  0.564300  0.386200  1.0  -0.5821
  O  O365  1  0.903100  0.081200  0.016900  1.0  -0.5809
  O  O366  1  0.935700  0.418800  0.321900  1.0  -0.5836
  O  O367  1  0.073640  0.641520  0.273260  1.0  -0.5719
  O  O368  1  0.773260  0.073640  0.141520  1.0  -0.575
  O  O369  1  0.631740  0.858480  0.932120  1.0  -0.5721
  O  O370  1  0.514200  0.845050  0.630850  1.0  -0.636
  O  O371  1  0.344600  0.573700  0.658500  1.0  -0.5062
  O  O372  1  0.785800  0.654950  0.169150  1.0  -0.636
  O  O373  1  0.081200  0.516900  0.403100  1.0  -0.5797
  O  O374  1  0.726740  0.868260  0.300380  1.0  -0.5692
  O  O375  1  0.737380  0.737380  0.237380  1.0  -1.2204
  O  O376  1  0.845050  0.130850  0.014200  1.0  -0.6344
  O  O377  1  0.596900  0.613800  0.178100  1.0  -0.5827
  O  O378  1  0.820070  0.862600  0.234670  1.0  -0.5934
  O  O379  1  0.813900  0.729100  0.655400  1.0  -0.4967
  O  O380  1  0.616650  0.830850  0.485800  1.0  -0.6362
