# generated using pymatgen
data_MnH3(CO2)3
_symmetry_space_group_name_H-M   'P 1'
_cell_length_a   8.54710000
_cell_length_b   9.04960000
_cell_length_c   12.00460000
_cell_angle_alpha   90.00000000
_cell_angle_beta   90.00000000
_cell_angle_gamma   90.00000000
_symmetry_Int_Tables_number   1
_chemical_formula_structural   MnH3(CO2)3
_chemical_formula_sum   'Mn4 H12 C12 O24'
_cell_volume   928.52983397
_cell_formula_units_Z   4
loop_
 _symmetry_equiv_pos_site_id
 _symmetry_equiv_pos_as_xyz
  1  'x, y, z'
loop_
 _atom_site_type_symbol
 _atom_site_label
 _atom_site_symmetry_multiplicity
 _atom_site_fract_x
 _atom_site_fract_y
 _atom_site_fract_z
 _atom_site_occupancy
 _atom_site_charge
  Mn  Mn1  1  0.749660  0.750000  0.250000  1.0  1.0389
  Mn  Mn2  1  0.249660  0.250000  0.250000  1.0  1.0389
  Mn  Mn3  1  0.750340  0.750000  0.750000  1.0  1.0395
  Mn  Mn4  1  0.250340  0.250000  0.750000  1.0  1.0395
  H  H5  1  0.919400  0.064700  0.731600  1.0  0.0416
  H  H6  1  0.080600  0.935300  0.268400  1.0  0.0416
  H  H7  1  0.250000  0.206400  0.000000  1.0  0.0407
  H  H8  1  0.580600  0.064700  0.268400  1.0  0.0413
  H  H9  1  0.419400  0.564700  0.768400  1.0  0.0412
  H  H10  1  0.580600  0.435300  0.231600  1.0  0.0413
  H  H11  1  0.750000  0.706400  0.500000  1.0  0.0407
  H  H12  1  0.919400  0.435300  0.768400  1.0  0.0412
  H  H13  1  0.080600  0.564700  0.231600  1.0  0.0419
  H  H14  1  0.250000  0.293600  0.500000  1.0  0.0424
  H  H15  1  0.750000  0.793600  0.000000  1.0  0.0424
  H  H16  1  0.419400  0.935300  0.731600  1.0  0.0408
  C  C17  1  0.250000  0.190900  0.500000  1.0  0.7338
  C  C18  1  0.517600  0.484320  0.282780  1.0  0.7413
  C  C19  1  0.482400  0.515680  0.717220  1.0  0.7423
  C  C20  1  0.750000  0.690900  0.000000  1.0  0.7338
  C  C21  1  0.017600  0.515680  0.282780  1.0  0.7419
  C  C22  1  0.750000  0.809100  0.500000  1.0  0.7337
  C  C23  1  0.517600  0.015680  0.217220  1.0  0.7426
  C  C24  1  0.017600  0.984320  0.217220  1.0  0.7424
  C  C25  1  0.982400  0.484320  0.717220  1.0  0.7415
  C  C26  1  0.482400  0.984320  0.782780  1.0  0.7366
  C  C27  1  0.982400  0.015680  0.782780  1.0  0.7413
  C  C28  1  0.250000  0.309100  0.000000  1.0  0.7337
  O  O29  1  0.245570  0.130000  0.592130  1.0  -0.5599
  O  O30  1  0.097100  0.083730  0.819170  1.0  -0.5749
  O  O31  1  0.444160  0.111700  0.808330  1.0  -0.555
  O  O32  1  0.902900  0.916270  0.180830  1.0  -0.5757
  O  O33  1  0.944160  0.888300  0.808330  1.0  -0.5554
  O  O34  1  0.097100  0.416270  0.680830  1.0  -0.5756
  O  O35  1  0.055840  0.388300  0.308330  1.0  -0.5549
  O  O36  1  0.745570  0.630000  0.907870  1.0  -0.5602
  O  O37  1  0.245570  0.370000  0.907870  1.0  -0.56
  O  O38  1  0.597100  0.916270  0.819170  1.0  -0.5748
  O  O39  1  0.055840  0.111700  0.191670  1.0  -0.5536
  O  O40  1  0.754430  0.870000  0.407870  1.0  -0.5599
  O  O41  1  0.902900  0.583730  0.319170  1.0  -0.5751
  O  O42  1  0.555840  0.888300  0.191670  1.0  -0.5549
  O  O43  1  0.745570  0.870000  0.592130  1.0  -0.5604
  O  O44  1  0.597100  0.583730  0.680830  1.0  -0.5753
  O  O45  1  0.254430  0.130000  0.407870  1.0  -0.56
  O  O46  1  0.402900  0.083730  0.180830  1.0  -0.575
  O  O47  1  0.944160  0.611700  0.691670  1.0  -0.5535
  O  O48  1  0.254430  0.370000  0.092130  1.0  -0.5602
  O  O49  1  0.402900  0.416270  0.319170  1.0  -0.575
  O  O50  1  0.444160  0.388300  0.691670  1.0  -0.555
  O  O51  1  0.754430  0.630000  0.092130  1.0  -0.5597
  O  O52  1  0.555840  0.611700  0.308330  1.0  -0.5548
