# generated using pymatgen
data_MnH3(CO2)3
_symmetry_space_group_name_H-M   'P 1'
_cell_length_a   8.56110000
_cell_length_b   9.04260000
_cell_length_c   12.02040000
_cell_angle_alpha   90.00000000
_cell_angle_beta   90.00000000
_cell_angle_gamma   90.00000000
_symmetry_Int_Tables_number   1
_chemical_formula_structural   MnH3(CO2)3
_chemical_formula_sum   'Mn4 H12 C12 O24'
_cell_volume   930.55449222
_cell_formula_units_Z   4
loop_
 _symmetry_equiv_pos_site_id
 _symmetry_equiv_pos_as_xyz
  1  'x, y, z'
loop_
 _atom_site_type_symbol
 _atom_site_label
 _atom_site_symmetry_multiplicity
 _atom_site_fract_x
 _atom_site_fract_y
 _atom_site_fract_z
 _atom_site_occupancy
 _atom_site_charge
  Mn  Mn1  1  0.248500  0.250000  0.250000  1.0  1.0469
  Mn  Mn2  1  0.751500  0.750000  0.750000  1.0  1.0475
  Mn  Mn3  1  0.748500  0.750000  0.250000  1.0  1.0469
  Mn  Mn4  1  0.251500  0.250000  0.750000  1.0  1.0475
  H  H5  1  0.079100  0.564600  0.230900  1.0  0.0388
  H  H6  1  0.079100  0.935400  0.269100  1.0  0.038
  H  H7  1  0.420900  0.935400  0.730900  1.0  0.0372
  H  H8  1  0.579100  0.064600  0.269100  1.0  0.0384
  H  H9  1  0.750000  0.794300  0.000000  1.0  0.0411
  H  H10  1  0.750000  0.705700  0.500000  1.0  0.0396
  H  H11  1  0.250000  0.294300  0.500000  1.0  0.0411
  H  H12  1  0.920900  0.435400  0.769100  1.0  0.0375
  H  H13  1  0.920900  0.064600  0.730900  1.0  0.0385
  H  H14  1  0.579100  0.435400  0.230900  1.0  0.0378
  H  H15  1  0.250000  0.205700  0.000000  1.0  0.0396
  H  H16  1  0.420900  0.564600  0.769100  1.0  0.0376
  C  C17  1  0.016400  0.984460  0.217760  1.0  0.7412
  C  C18  1  0.016400  0.515540  0.282240  1.0  0.7405
  C  C19  1  0.983600  0.484460  0.717760  1.0  0.7406
  C  C20  1  0.516400  0.015540  0.217760  1.0  0.7378
  C  C21  1  0.250000  0.191400  0.500000  1.0  0.7351
  C  C22  1  0.250000  0.308600  0.000000  1.0  0.7352
  C  C23  1  0.983600  0.015540  0.782240  1.0  0.7393
  C  C24  1  0.750000  0.808600  0.500000  1.0  0.7352
  C  C25  1  0.483600  0.515540  0.717760  1.0  0.7414
  C  C26  1  0.750000  0.691400  0.000000  1.0  0.7351
  C  C27  1  0.483600  0.984460  0.782240  1.0  0.7395
  C  C28  1  0.516400  0.484460  0.282240  1.0  0.7358
  O  O29  1  0.753560  0.630860  0.091870  1.0  -0.5594
  O  O30  1  0.555170  0.610920  0.307920  1.0  -0.5547
  O  O31  1  0.598220  0.583310  0.681590  1.0  -0.5746
  O  O32  1  0.555170  0.889080  0.192080  1.0  -0.555
  O  O33  1  0.444830  0.110920  0.807920  1.0  -0.555
  O  O34  1  0.253560  0.369140  0.091870  1.0  -0.5605
  O  O35  1  0.901780  0.916690  0.181590  1.0  -0.5744
  O  O36  1  0.246440  0.369140  0.908130  1.0  -0.5604
  O  O37  1  0.598220  0.916690  0.818410  1.0  -0.5742
  O  O38  1  0.444830  0.389080  0.692080  1.0  -0.555
  O  O39  1  0.746440  0.630860  0.908130  1.0  -0.5592
  O  O40  1  0.055170  0.110920  0.192080  1.0  -0.5536
  O  O41  1  0.401780  0.083310  0.181590  1.0  -0.5743
  O  O42  1  0.944830  0.889080  0.807920  1.0  -0.5553
  O  O43  1  0.098220  0.416690  0.681590  1.0  -0.5751
  O  O44  1  0.098220  0.083310  0.818410  1.0  -0.5735
  O  O45  1  0.246440  0.130860  0.591870  1.0  -0.5596
  O  O46  1  0.253560  0.130860  0.408130  1.0  -0.5589
  O  O47  1  0.746440  0.869140  0.591870  1.0  -0.5607
  O  O48  1  0.901780  0.583310  0.318410  1.0  -0.5741
  O  O49  1  0.055170  0.389080  0.307920  1.0  -0.555
  O  O50  1  0.753560  0.869140  0.408130  1.0  -0.5602
  O  O51  1  0.401780  0.416690  0.318410  1.0  -0.5747
  O  O52  1  0.944830  0.610920  0.692080  1.0  -0.5536
