# generated using pymatgen
data_MnH3(CO2)3
_symmetry_space_group_name_H-M   'P 1'
_cell_length_a   8.52200000
_cell_length_b   9.05400000
_cell_length_c   11.98770000
_cell_angle_alpha   90.00000000
_cell_angle_beta   90.00000000
_cell_angle_gamma   90.00000000
_symmetry_Int_Tables_number   1
_chemical_formula_structural   MnH3(CO2)3
_chemical_formula_sum   'Mn4 H12 C12 O24'
_cell_volume   924.94921029
_cell_formula_units_Z   4
loop_
 _symmetry_equiv_pos_site_id
 _symmetry_equiv_pos_as_xyz
  1  'x, y, z'
loop_
 _atom_site_type_symbol
 _atom_site_label
 _atom_site_symmetry_multiplicity
 _atom_site_fract_x
 _atom_site_fract_y
 _atom_site_fract_z
 _atom_site_occupancy
 _atom_site_charge
  Mn  Mn1  1  0.248660  0.250000  0.750000  1.0  1.0453
  Mn  Mn2  1  0.751340  0.750000  0.250000  1.0  1.0446
  Mn  Mn3  1  0.251340  0.250000  0.250000  1.0  1.0446
  Mn  Mn4  1  0.748660  0.750000  0.750000  1.0  1.0453
  H  H5  1  0.582800  0.064300  0.268000  1.0  0.047
  H  H6  1  0.417200  0.564300  0.768000  1.0  0.0465
  H  H7  1  0.417200  0.935700  0.732000  1.0  0.0472
  H  H8  1  0.917200  0.064300  0.732000  1.0  0.0465
  H  H9  1  0.582800  0.435700  0.232000  1.0  0.0475
  H  H10  1  0.250000  0.207400  0.000000  1.0  0.0445
  H  H11  1  0.250000  0.292600  0.500000  1.0  0.0452
  H  H12  1  0.082800  0.935700  0.268000  1.0  0.0466
  H  H13  1  0.750000  0.792600  0.000000  1.0  0.0452
  H  H14  1  0.750000  0.707400  0.500000  1.0  0.0445
  H  H15  1  0.917200  0.435700  0.768000  1.0  0.0476
  H  H16  1  0.082800  0.564300  0.232000  1.0  0.0467
  C  C17  1  0.750000  0.689900  0.000000  1.0  0.7251
  C  C18  1  0.250000  0.310100  0.000000  1.0  0.725
  C  C19  1  0.019330  0.984570  0.216790  1.0  0.7456
  C  C20  1  0.480670  0.515430  0.716790  1.0  0.7415
  C  C21  1  0.519330  0.015430  0.216790  1.0  0.7462
  C  C22  1  0.480670  0.984570  0.783210  1.0  0.7422
  C  C23  1  0.980670  0.484570  0.716790  1.0  0.7448
  C  C24  1  0.519330  0.484570  0.283210  1.0  0.7445
  C  C25  1  0.019330  0.515430  0.283210  1.0  0.745
  C  C26  1  0.750000  0.810100  0.500000  1.0  0.725
  C  C27  1  0.250000  0.189900  0.500000  1.0  0.7251
  C  C28  1  0.980670  0.015430  0.783210  1.0  0.7447
  O  O29  1  0.244000  0.371130  0.907610  1.0  -0.5629
  O  O30  1  0.904150  0.583910  0.320090  1.0  -0.5752
  O  O31  1  0.256000  0.128870  0.407610  1.0  -0.5627
  O  O32  1  0.095850  0.083910  0.820090  1.0  -0.5748
  O  O33  1  0.256000  0.371130  0.092390  1.0  -0.5621
  O  O34  1  0.095850  0.416090  0.679910  1.0  -0.5759
  O  O35  1  0.756000  0.628870  0.092390  1.0  -0.5613
  O  O36  1  0.556910  0.612280  0.308680  1.0  -0.5611
  O  O37  1  0.756000  0.871130  0.407610  1.0  -0.563
  O  O38  1  0.904150  0.916090  0.179910  1.0  -0.576
  O  O39  1  0.443090  0.112280  0.808680  1.0  -0.5614
  O  O40  1  0.744000  0.871130  0.592390  1.0  -0.562
  O  O41  1  0.404150  0.416090  0.320090  1.0  -0.5757
  O  O42  1  0.443090  0.387720  0.691320  1.0  -0.5612
  O  O43  1  0.556910  0.887720  0.191320  1.0  -0.5609
  O  O44  1  0.595850  0.583910  0.679910  1.0  -0.5755
  O  O45  1  0.943090  0.887720  0.808680  1.0  -0.5615
  O  O46  1  0.744000  0.628870  0.907610  1.0  -0.5627
  O  O47  1  0.244000  0.128870  0.592390  1.0  -0.5613
  O  O48  1  0.595850  0.916090  0.820090  1.0  -0.5756
  O  O49  1  0.943090  0.612280  0.691320  1.0  -0.5599
  O  O50  1  0.056910  0.387720  0.308680  1.0  -0.5609
  O  O51  1  0.404150  0.083910  0.179910  1.0  -0.5756
  O  O52  1  0.056910  0.112280  0.191320  1.0  -0.56
