# generated using pymatgen
data_MnH3(CO2)3
_symmetry_space_group_name_H-M   'P 1'
_cell_length_a   8.53890000
_cell_length_b   9.05170000
_cell_length_c   11.99890000
_cell_angle_alpha   90.00000000
_cell_angle_beta   90.00000000
_cell_angle_gamma   90.00000000
_symmetry_Int_Tables_number   1
_chemical_formula_structural   MnH3(CO2)3
_chemical_formula_sum   'Mn4 H12 C12 O24'
_cell_volume   927.41371284
_cell_formula_units_Z   4
loop_
 _symmetry_equiv_pos_site_id
 _symmetry_equiv_pos_as_xyz
  1  'x, y, z'
loop_
 _atom_site_type_symbol
 _atom_site_label
 _atom_site_symmetry_multiplicity
 _atom_site_fract_x
 _atom_site_fract_y
 _atom_site_fract_z
 _atom_site_occupancy
 _atom_site_charge
  Mn  Mn1  1  0.249730  0.250000  0.750000  1.0  1.0394
  Mn  Mn2  1  0.250270  0.250000  0.250000  1.0  1.0387
  Mn  Mn3  1  0.749730  0.750000  0.750000  1.0  1.0394
  Mn  Mn4  1  0.750270  0.750000  0.250000  1.0  1.0387
  H  H5  1  0.418600  0.935600  0.731800  1.0  0.0454
  H  H6  1  0.581400  0.435600  0.231800  1.0  0.0459
  H  H7  1  0.250000  0.293100  0.500000  1.0  0.0448
  H  H8  1  0.918600  0.435600  0.768200  1.0  0.0454
  H  H9  1  0.418600  0.564400  0.768200  1.0  0.0457
  H  H10  1  0.750000  0.706900  0.500000  1.0  0.0433
  H  H11  1  0.750000  0.793100  0.000000  1.0  0.0448
  H  H12  1  0.250000  0.206900  0.000000  1.0  0.0433
  H  H13  1  0.081400  0.935600  0.268200  1.0  0.0461
  H  H14  1  0.581400  0.064400  0.268200  1.0  0.0452
  H  H15  1  0.918600  0.064400  0.731800  1.0  0.046
  H  H16  1  0.081400  0.564400  0.231800  1.0  0.046
  C  C17  1  0.981850  0.484620  0.717040  1.0  0.7379
  C  C18  1  0.481850  0.515380  0.717040  1.0  0.7373
  C  C19  1  0.518150  0.015380  0.217040  1.0  0.7393
  C  C20  1  0.518150  0.484620  0.282960  1.0  0.7375
  C  C21  1  0.750000  0.690300  0.000000  1.0  0.7341
  C  C22  1  0.018150  0.515380  0.282960  1.0  0.7381
  C  C23  1  0.018150  0.984620  0.217040  1.0  0.7386
  C  C24  1  0.481850  0.984620  0.782960  1.0  0.7369
  C  C25  1  0.250000  0.190300  0.500000  1.0  0.7341
  C  C26  1  0.981850  0.015380  0.782960  1.0  0.7378
  C  C27  1  0.750000  0.809700  0.500000  1.0  0.734
  C  C28  1  0.250000  0.309700  0.000000  1.0  0.734
  O  O29  1  0.596740  0.916220  0.819490  1.0  -0.5748
  O  O30  1  0.403260  0.083780  0.180510  1.0  -0.5746
  O  O31  1  0.744940  0.870330  0.592340  1.0  -0.5572
  O  O32  1  0.556270  0.888120  0.191640  1.0  -0.5609
  O  O33  1  0.096740  0.416220  0.680510  1.0  -0.5746
  O  O34  1  0.755060  0.870330  0.407660  1.0  -0.5565
  O  O35  1  0.443730  0.388120  0.691640  1.0  -0.561
  O  O36  1  0.255060  0.370330  0.092340  1.0  -0.557
  O  O37  1  0.744940  0.629670  0.907660  1.0  -0.5568
  O  O38  1  0.244940  0.129670  0.592340  1.0  -0.5567
  O  O39  1  0.096740  0.083780  0.819490  1.0  -0.5745
  O  O40  1  0.056270  0.111880  0.191640  1.0  -0.5598
  O  O41  1  0.255060  0.129670  0.407660  1.0  -0.5566
  O  O42  1  0.903260  0.916220  0.180510  1.0  -0.575
  O  O43  1  0.403260  0.416220  0.319490  1.0  -0.5748
  O  O44  1  0.943730  0.888120  0.808360  1.0  -0.5615
  O  O45  1  0.443730  0.111880  0.808360  1.0  -0.5613
  O  O46  1  0.755060  0.629670  0.092340  1.0  -0.5565
  O  O47  1  0.244940  0.370330  0.907660  1.0  -0.5566
  O  O48  1  0.056270  0.388120  0.308360  1.0  -0.561
  O  O49  1  0.556270  0.611880  0.308360  1.0  -0.5611
  O  O50  1  0.943730  0.611880  0.691640  1.0  -0.5597
  O  O51  1  0.596740  0.583780  0.680510  1.0  -0.5747
  O  O52  1  0.903260  0.583780  0.319490  1.0  -0.5743
