# generated using pymatgen
data_Zn4H6C12N6O7
_symmetry_space_group_name_H-M   'P 1'
_cell_length_a   14.20890000
_cell_length_b   14.20890000
_cell_length_c   14.20890000
_cell_angle_alpha   60.00000000
_cell_angle_beta   60.00000000
_cell_angle_gamma   60.00000000
_symmetry_Int_Tables_number   1
_chemical_formula_structural   Zn4H6C12N6O7
_chemical_formula_sum   'Zn8 H12 C24 N12 O14'
_cell_volume   2028.45966081
_cell_formula_units_Z   2
loop_
 _symmetry_equiv_pos_site_id
 _symmetry_equiv_pos_as_xyz
  1  'x, y, z'
loop_
 _atom_site_type_symbol
 _atom_site_label
 _atom_site_symmetry_multiplicity
 _atom_site_fract_x
 _atom_site_fract_y
 _atom_site_fract_z
 _atom_site_occupancy
 _atom_site_charge
  Zn  Zn1  1  0.193970  0.193970  0.418090  1.0  0.8887
  Zn  Zn2  1  0.193970  0.418090  0.193970  1.0  0.8851
  Zn  Zn3  1  0.418090  0.193970  0.193970  1.0  0.8852
  Zn  Zn4  1  0.806330  0.806330  0.806330  1.0  1.0475
  Zn  Zn5  1  0.806330  0.581010  0.806330  1.0  1.0477
  Zn  Zn6  1  0.806330  0.806330  0.581010  1.0  1.048
  Zn  Zn7  1  0.193970  0.193970  0.193970  1.0  0.8897
  Zn  Zn8  1  0.581010  0.806330  0.806330  1.0  1.0468
  H  H9  1  0.025900  0.337100  0.610300  1.0  0.0824
  H  H10  1  0.026700  0.025900  0.610300  1.0  0.0805
  H  H11  1  0.026700  0.610300  0.337100  1.0  0.0819
  H  H12  1  0.610300  0.337100  0.026700  1.0  0.0813
  H  H13  1  0.026700  0.337100  0.025900  1.0  0.0818
  H  H14  1  0.610300  0.025900  0.337100  1.0  0.0805
  H  H15  1  0.025900  0.610300  0.026700  1.0  0.0812
  H  H16  1  0.337100  0.025900  0.026700  1.0  0.0817
  H  H17  1  0.337100  0.026700  0.610300  1.0  0.0816
  H  H18  1  0.337100  0.610300  0.025900  1.0  0.0813
  H  H19  1  0.610300  0.026700  0.025900  1.0  0.0799
  H  H20  1  0.025900  0.026700  0.337100  1.0  0.0801
  C  C21  1  0.570300  0.929700  0.929700  1.0  0.6112
  C  C22  1  0.041000  0.040600  0.532200  1.0  0.0595
  C  C23  1  0.532200  0.040600  0.386200  1.0  0.0609
  C  C24  1  0.570300  0.929700  0.570300  1.0  0.6107
  C  C25  1  0.999900  0.999900  0.500100  1.0  0.0548
  C  C26  1  0.570300  0.570300  0.929700  1.0  0.6105
  C  C27  1  0.500100  0.999900  0.999900  1.0  0.0554
  C  C28  1  0.040600  0.386200  0.532200  1.0  0.0572
  C  C29  1  0.040600  0.041000  0.386200  1.0  0.0594
  C  C30  1  0.386200  0.040600  0.041000  1.0  0.0622
  C  C31  1  0.929700  0.929700  0.570300  1.0  0.6085
  C  C32  1  0.532200  0.041000  0.040600  1.0  0.0614
  C  C33  1  0.041000  0.532200  0.386200  1.0  0.0584
  C  C34  1  0.999900  0.500100  0.500100  1.0  0.0546
  C  C35  1  0.500100  0.999900  0.500100  1.0  0.0539
  C  C36  1  0.386200  0.532200  0.040600  1.0  0.06
  C  C37  1  0.929700  0.570300  0.929700  1.0  0.6117
  C  C38  1  0.999900  0.500100  0.999900  1.0  0.0566
  C  C39  1  0.532200  0.386200  0.041000  1.0  0.0591
  C  C40  1  0.041000  0.386200  0.040600  1.0  0.0583
  C  C41  1  0.040600  0.532200  0.041000  1.0  0.0576
  C  C42  1  0.929700  0.570300  0.570300  1.0  0.6112
  C  C43  1  0.500100  0.500100  0.999900  1.0  0.0581
  C  C44  1  0.386200  0.041000  0.532200  1.0  0.0622
  N  N45  1  0.101200  0.101400  0.447200  1.0  -0.2477
  N  N46  1  0.101200  0.350200  0.101400  1.0  -0.2513
  N  N47  1  0.350200  0.447200  0.101400  1.0  -0.2459
  N  N48  1  0.101400  0.447200  0.101200  1.0  -0.2473
  N  N49  1  0.101400  0.101200  0.350200  1.0  -0.2477
  N  N50  1  0.447200  0.350200  0.101200  1.0  -0.2501
  N  N51  1  0.350200  0.101400  0.101200  1.0  -0.2491
  N  N52  1  0.447200  0.101200  0.101400  1.0  -0.2456
  N  N53  1  0.101200  0.447200  0.350200  1.0  -0.2485
  N  N54  1  0.350200  0.101200  0.447200  1.0  -0.2482
  N  N55  1  0.447200  0.101400  0.350200  1.0  -0.2473
  N  N56  1  0.101400  0.350200  0.447200  1.0  -0.2519
  O  O57  1  0.534100  0.895500  0.674300  1.0  -0.6609
  O  O58  1  0.896100  0.534100  0.674300  1.0  -0.6633
  O  O59  1  0.896100  0.674300  0.895500  1.0  -0.664
  O  O60  1  0.534100  0.674300  0.896100  1.0  -0.665
  O  O61  1  0.895500  0.674300  0.534100  1.0  -0.6639
  O  O62  1  0.674300  0.895500  0.896100  1.0  -0.6604
  O  O63  1  0.674300  0.896100  0.534100  1.0  -0.66
  O  O64  1  0.534100  0.896100  0.895500  1.0  -0.6602
  O  O65  1  0.250000  0.250000  0.250000  1.0  -1.2322
  O  O66  1  0.895500  0.896100  0.674300  1.0  -0.6605
  O  O67  1  0.895500  0.534100  0.896100  1.0  -0.6618
  O  O68  1  0.896100  0.895500  0.534100  1.0  -0.6605
  O  O69  1  0.674300  0.534100  0.895500  1.0  -0.6596
  O  O70  1  0.750000  0.750000  0.750000  1.0  -1.2732
