# generated using pymatgen
data_Fe9H72C144N12(Cl3O13)2
_symmetry_space_group_name_H-M   'P 1'
_cell_length_a   31.26940000
_cell_length_b   31.26940000
_cell_length_c   16.95360000
_cell_angle_alpha   90.00000000
_cell_angle_beta   90.00000000
_cell_angle_gamma   120.00000000
_symmetry_Int_Tables_number   1
_chemical_formula_structural   Fe9H72C144N12(Cl3O13)2
_chemical_formula_sum   'Fe9 H72 C144 N12 Cl6 O26'
_cell_volume   14355.94084326
_cell_formula_units_Z   1
loop_
 _symmetry_equiv_pos_site_id
 _symmetry_equiv_pos_as_xyz
  1  'x, y, z'
loop_
 _atom_site_type_symbol
 _atom_site_label
 _atom_site_symmetry_multiplicity
 _atom_site_fract_x
 _atom_site_fract_y
 _atom_site_fract_z
 _atom_site_occupancy
 _atom_site_charge
  Fe  Fe1  1  0.298930  0.701070  0.500000  1.0  1.2122
  Fe  Fe2  1  0.298930  0.597870  0.500000  1.0  1.2068
  Fe  Fe3  1  0.402130  0.701070  0.500000  1.0  1.2142
  Fe  Fe4  1  0.701070  0.298930  0.500000  1.0  1.2125
  Fe  Fe5  1  0.701070  0.402130  0.500000  1.0  1.2081
  Fe  Fe6  1  0.597870  0.298930  0.500000  1.0  1.2113
  Fe  Fe7  1  0.000000  0.500000  0.000000  1.0  0.9849
  Fe  Fe8  1  0.500000  0.500000  0.000000  1.0  0.9848
  Fe  Fe9  1  0.500000  0.000000  0.000000  1.0  0.9849
  H  H10  1  0.196870  0.528090  0.318080  1.0  0.1069
  H  H11  1  0.134170  0.497090  0.211680  1.0  0.1125
  H  H12  1  0.471910  0.668790  0.318080  1.0  0.1069
  H  H13  1  0.502910  0.637090  0.211680  1.0  0.1106
  H  H14  1  0.331210  0.803130  0.318080  1.0  0.1051
  H  H15  1  0.362910  0.865830  0.211680  1.0  0.1105
  H  H16  1  0.803130  0.471910  0.318080  1.0  0.1067
  H  H17  1  0.865830  0.502910  0.211680  1.0  0.1132
  H  H18  1  0.528090  0.331210  0.318080  1.0  0.1068
  H  H19  1  0.497090  0.362910  0.211680  1.0  0.1105
  H  H20  1  0.668790  0.196870  0.318080  1.0  0.1058
  H  H21  1  0.637090  0.134170  0.211680  1.0  0.1104
  H  H22  1  0.528090  0.196870  0.681920  1.0  0.1054
  H  H23  1  0.497090  0.134170  0.788320  1.0  0.1122
  H  H24  1  0.668790  0.471910  0.681920  1.0  0.1071
  H  H25  1  0.637090  0.502910  0.788320  1.0  0.1101
  H  H26  1  0.803130  0.331210  0.681920  1.0  0.1064
  H  H27  1  0.865830  0.362910  0.788320  1.0  0.1122
  H  H28  1  0.471910  0.803130  0.681920  1.0  0.1057
  H  H29  1  0.502910  0.865830  0.788320  1.0  0.1116
  H  H30  1  0.331210  0.528090  0.681920  1.0  0.1054
  H  H31  1  0.362910  0.497090  0.788320  1.0  0.1107
  H  H32  1  0.196870  0.668790  0.681920  1.0  0.1067
  H  H33  1  0.134170  0.637090  0.788320  1.0  0.1119
  H  H34  1  0.803130  0.471910  0.681920  1.0  0.1063
  H  H35  1  0.865830  0.502910  0.788320  1.0  0.1136
  H  H36  1  0.528090  0.331210  0.681920  1.0  0.106
  H  H37  1  0.497090  0.362910  0.788320  1.0  0.1107
  H  H38  1  0.668790  0.196870  0.681920  1.0  0.106
  H  H39  1  0.637090  0.134170  0.788320  1.0  0.1103
  H  H40  1  0.196870  0.528090  0.681920  1.0  0.1068
  H  H41  1  0.134170  0.497090  0.788320  1.0  0.1125
  H  H42  1  0.471910  0.668790  0.681920  1.0  0.1069
  H  H43  1  0.502910  0.637090  0.788320  1.0  0.1105
  H  H44  1  0.331210  0.803130  0.681920  1.0  0.1052
  H  H45  1  0.362910  0.865830  0.788320  1.0  0.1103
  H  H46  1  0.471910  0.803130  0.318080  1.0  0.1058
  H  H47  1  0.502910  0.865830  0.211680  1.0  0.1117
  H  H48  1  0.331210  0.528090  0.318080  1.0  0.1059
  H  H49  1  0.362910  0.497090  0.211680  1.0  0.1102
  H  H50  1  0.196870  0.668790  0.318080  1.0  0.1071
  H  H51  1  0.134170  0.637090  0.211680  1.0  0.1118
  H  H52  1  0.528090  0.196870  0.318080  1.0  0.1052
  H  H53  1  0.497090  0.134170  0.211680  1.0  0.1121
  H  H54  1  0.668790  0.471910  0.318080  1.0  0.1071
  H  H55  1  0.637090  0.502910  0.211680  1.0  0.1104
  H  H56  1  0.803130  0.331210  0.318080  1.0  0.1065
  H  H57  1  0.865830  0.362910  0.211680  1.0  0.1122
  H  H58  1  0.187570  0.593790  0.077080  1.0  0.1126
  H  H59  1  0.049370  0.524690  0.295180  1.0  0.1126
  H  H60  1  0.406210  0.593790  0.077080  1.0  0.1132
  H  H61  1  0.475310  0.524690  0.295180  1.0  0.1135
  H  H62  1  0.406210  0.812430  0.077080  1.0  0.1143
  H  H63  1  0.475310  0.950630  0.295180  1.0  0.1121
  H  H64  1  0.812430  0.406210  0.077080  1.0  0.1136
  H  H65  1  0.950630  0.475310  0.295180  1.0  0.1125
  H  H66  1  0.593790  0.406210  0.077080  1.0  0.1125
  H  H67  1  0.524690  0.475310  0.295180  1.0  0.1122
  H  H68  1  0.593790  0.187570  0.077080  1.0  0.1132
  H  H69  1  0.524690  0.049370  0.295180  1.0  0.1123
  H  H70  1  0.593790  0.187570  0.922920  1.0  0.1129
  H  H71  1  0.524690  0.049370  0.704820  1.0  0.1093
  H  H72  1  0.593790  0.406210  0.922920  1.0  0.1121
  H  H73  1  0.524690  0.475310  0.704820  1.0  0.1085
  H  H74  1  0.812430  0.406210  0.922920  1.0  0.1134
  H  H75  1  0.950630  0.475310  0.704820  1.0  0.1096
  H  H76  1  0.406210  0.812430  0.922920  1.0  0.1133
  H  H77  1  0.475310  0.950630  0.704820  1.0  0.1087
  H  H78  1  0.406210  0.593790  0.922920  1.0  0.1133
  H  H79  1  0.475310  0.524690  0.704820  1.0  0.1102
  H  H80  1  0.187570  0.593790  0.922920  1.0  0.1122
  H  H81  1  0.049370  0.524690  0.704820  1.0  0.1091
  C  C82  1  0.183770  0.552490  0.295380  1.0  -0.0617
  C  C83  1  0.147970  0.534590  0.234680  1.0  -0.1411
  C  C84  1  0.447510  0.631290  0.295380  1.0  -0.0636
  C  C85  1  0.465410  0.613390  0.234680  1.0  -0.143
  C  C86  1  0.368710  0.816230  0.295380  1.0  -0.0612
  C  C87  1  0.386610  0.852030  0.234680  1.0  -0.1403
  C  C88  1  0.816230  0.447510  0.295380  1.0  -0.0625
  C  C89  1  0.852030  0.465410  0.234680  1.0  -0.1392
  C  C90  1  0.552490  0.368710  0.295380  1.0  -0.0612
  C  C91  1  0.534590  0.386610  0.234680  1.0  -0.1414
  C  C92  1  0.631290  0.183770  0.295380  1.0  -0.0622
  C  C93  1  0.613390  0.147970  0.234680  1.0  -0.1432
  C  C94  1  0.552490  0.183770  0.704620  1.0  -0.0617
  C  C95  1  0.534590  0.147970  0.765320  1.0  -0.1413
  C  C96  1  0.631290  0.447510  0.704620  1.0  -0.0625
  C  C97  1  0.613390  0.465410  0.765320  1.0  -0.1416
  C  C98  1  0.816230  0.368710  0.704620  1.0  -0.0628
  C  C99  1  0.852030  0.386610  0.765320  1.0  -0.1419
  C  C100  1  0.447510  0.816230  0.704620  1.0  -0.0633
  C  C101  1  0.465410  0.852030  0.765320  1.0  -0.1421
  C  C102  1  0.368710  0.552490  0.704620  1.0  -0.0619
  C  C103  1  0.386610  0.534590  0.765320  1.0  -0.1403
  C  C104  1  0.183770  0.631290  0.704620  1.0  -0.0638
  C  C105  1  0.147970  0.613390  0.765320  1.0  -0.1437
  C  C106  1  0.816230  0.447510  0.704620  1.0  -0.0624
  C  C107  1  0.852030  0.465410  0.765320  1.0  -0.1391
  C  C108  1  0.552490  0.368710  0.704620  1.0  -0.0617
  C  C109  1  0.534590  0.386610  0.765320  1.0  -0.1411
  C  C110  1  0.631290  0.183770  0.704620  1.0  -0.0635
  C  C111  1  0.613390  0.147970  0.765320  1.0  -0.1431
  C  C112  1  0.183770  0.552490  0.704620  1.0  -0.0627
  C  C113  1  0.147970  0.534590  0.765320  1.0  -0.1408
  C  C114  1  0.447510  0.631290  0.704620  1.0  -0.0639
  C  C115  1  0.465410  0.613390  0.765320  1.0  -0.1432
  C  C116  1  0.368710  0.816230  0.704620  1.0  -0.0617
  C  C117  1  0.386610  0.852030  0.765320  1.0  -0.1412
  C  C118  1  0.447510  0.816230  0.295380  1.0  -0.0618
  C  C119  1  0.465410  0.852030  0.234680  1.0  -0.1425
  C  C120  1  0.368710  0.552490  0.295380  1.0  -0.0613
  C  C121  1  0.386610  0.534590  0.234680  1.0  -0.1395
  C  C122  1  0.183770  0.631290  0.295380  1.0  -0.0639
  C  C123  1  0.147970  0.613390  0.234680  1.0  -0.1433
  C  C124  1  0.552490  0.183770  0.295380  1.0  -0.0615
  C  C125  1  0.534590  0.147970  0.234680  1.0  -0.1406
  C  C126  1  0.631290  0.447510  0.295380  1.0  -0.0622
  C  C127  1  0.613390  0.465410  0.234680  1.0  -0.1408
  C  C128  1  0.816230  0.368710  0.295380  1.0  -0.0619
  C  C129  1  0.852030  0.386610  0.234680  1.0  -0.1423
  C  C130  1  0.238770  0.619390  0.392780  1.0  0.6889
  C  C131  1  0.201970  0.600990  0.326880  1.0  -0.095
  C  C132  1  0.129770  0.564890  0.204380  1.0  -0.0204
  C  C133  1  0.090370  0.545190  0.141880  1.0  -0.1009
  C  C134  1  0.104370  0.552190  0.063080  1.0  0.2041
  C  C135  1  0.154370  0.577190  0.039880  1.0  0.079
  C  C136  1  0.040570  0.520290  0.163880  1.0  0.2064
  C  C137  1  0.025970  0.512990  0.242680  1.0  -0.0362
  C  C138  1  0.380610  0.619390  0.392780  1.0  0.6885
  C  C139  1  0.399010  0.600990  0.326880  1.0  -0.095
  C  C140  1  0.435110  0.564890  0.204380  1.0  -0.0225
  C  C141  1  0.454810  0.545190  0.141880  1.0  -0.1002
  C  C142  1  0.447810  0.552190  0.063080  1.0  0.2039
  C  C143  1  0.422810  0.577190  0.039880  1.0  0.0794
  C  C144  1  0.479710  0.520290  0.163880  1.0  0.2077
  C  C145  1  0.487010  0.512990  0.242680  1.0  -0.0402
  C  C146  1  0.380610  0.761230  0.392780  1.0  0.6873
  C  C147  1  0.399010  0.798030  0.326880  1.0  -0.0952
  C  C148  1  0.435110  0.870230  0.204380  1.0  -0.0191
  C  C149  1  0.454810  0.909630  0.141880  1.0  -0.1001
  C  C150  1  0.447810  0.895630  0.063080  1.0  0.2056
  C  C151  1  0.422810  0.845630  0.039880  1.0  0.0785
  C  C152  1  0.479710  0.959430  0.163880  1.0  0.2059
  C  C153  1  0.487010  0.974030  0.242680  1.0  -0.0355
  C  C154  1  0.761230  0.380610  0.392780  1.0  0.6881
  C  C155  1  0.798030  0.399010  0.326880  1.0  -0.0953
  C  C156  1  0.870230  0.435110  0.204380  1.0  -0.0223
  C  C157  1  0.909630  0.454810  0.141880  1.0  -0.1003
  C  C158  1  0.895630  0.447810  0.063080  1.0  0.2048
  C  C159  1  0.845630  0.422810  0.039880  1.0  0.0794
  C  C160  1  0.959430  0.479710  0.163880  1.0  0.2064
  C  C161  1  0.974030  0.487010  0.242680  1.0  -0.0382
  C  C162  1  0.619390  0.380610  0.392780  1.0  0.6884
  C  C163  1  0.600990  0.399010  0.326880  1.0  -0.0953
  C  C164  1  0.564890  0.435110  0.204380  1.0  -0.0201
  C  C165  1  0.545190  0.454810  0.141880  1.0  -0.101
  C  C166  1  0.552190  0.447810  0.063080  1.0  0.205
  C  C167  1  0.577190  0.422810  0.039880  1.0  0.0795
  C  C168  1  0.520290  0.479710  0.163880  1.0  0.2085
  C  C169  1  0.512990  0.487010  0.242680  1.0  -0.0381
  C  C170  1  0.619390  0.238770  0.392780  1.0  0.6875
  C  C171  1  0.600990  0.201970  0.326880  1.0  -0.0951
  C  C172  1  0.564890  0.129770  0.204380  1.0  -0.0194
  C  C173  1  0.545190  0.090370  0.141880  1.0  -0.1002
  C  C174  1  0.552190  0.104370  0.063080  1.0  0.2046
  C  C175  1  0.577190  0.154370  0.039880  1.0  0.0774
  C  C176  1  0.520290  0.040570  0.163880  1.0  0.2066
  C  C177  1  0.512990  0.025970  0.242680  1.0  -0.0359
  C  C178  1  0.619390  0.238770  0.607220  1.0  0.6878
  C  C179  1  0.600990  0.201970  0.673120  1.0  -0.0951
  C  C180  1  0.564890  0.129770  0.795620  1.0  -0.0191
  C  C181  1  0.545190  0.090370  0.858120  1.0  -0.0999
  C  C182  1  0.552190  0.104370  0.936920  1.0  0.2032
  C  C183  1  0.577190  0.154370  0.960120  1.0  0.0772
  C  C184  1  0.520290  0.040570  0.836120  1.0  0.2063
  C  C185  1  0.512990  0.025970  0.757320  1.0  -0.0343
  C  C186  1  0.619390  0.380610  0.607220  1.0  0.6887
  C  C187  1  0.600990  0.399010  0.673120  1.0  -0.0954
  C  C188  1  0.564890  0.435110  0.795620  1.0  -0.0199
  C  C189  1  0.545190  0.454810  0.858120  1.0  -0.1006
  C  C190  1  0.552190  0.447810  0.936920  1.0  0.2035
  C  C191  1  0.577190  0.422810  0.960120  1.0  0.0785
  C  C192  1  0.520290  0.479710  0.836120  1.0  0.2084
  C  C193  1  0.512990  0.487010  0.757320  1.0  -0.0389
  C  C194  1  0.761230  0.380610  0.607220  1.0  0.6884
  C  C195  1  0.798030  0.399010  0.673120  1.0  -0.0953
  C  C196  1  0.870230  0.435110  0.795620  1.0  -0.0221
  C  C197  1  0.909630  0.454810  0.858120  1.0  -0.0999
  C  C198  1  0.895630  0.447810  0.936920  1.0  0.2033
  C  C199  1  0.845630  0.422810  0.960120  1.0  0.0786
  C  C200  1  0.959430  0.479710  0.836120  1.0  0.2064
  C  C201  1  0.974030  0.487010  0.757320  1.0  -0.0359
  C  C202  1  0.380610  0.761230  0.607220  1.0  0.6876
  C  C203  1  0.399010  0.798030  0.673120  1.0  -0.0953
  C  C204  1  0.435110  0.870230  0.795620  1.0  -0.0189
  C  C205  1  0.454810  0.909630  0.858120  1.0  -0.0997
  C  C206  1  0.447810  0.895630  0.936920  1.0  0.2041
  C  C207  1  0.422810  0.845630  0.960120  1.0  0.0774
  C  C208  1  0.479710  0.959430  0.836120  1.0  0.2062
  C  C209  1  0.487010  0.974030  0.757320  1.0  -0.0346
  C  C210  1  0.380610  0.619390  0.607220  1.0  0.6888
  C  C211  1  0.399010  0.600990  0.673120  1.0  -0.0951
  C  C212  1  0.435110  0.564890  0.795620  1.0  -0.0223
  C  C213  1  0.454810  0.545190  0.858120  1.0  -0.0999
  C  C214  1  0.447810  0.552190  0.936920  1.0  0.2024
  C  C215  1  0.422810  0.577190  0.960120  1.0  0.0795
  C  C216  1  0.479710  0.520290  0.836120  1.0  0.2083
  C  C217  1  0.487010  0.512990  0.757320  1.0  -0.0386
  C  C218  1  0.238770  0.619390  0.607220  1.0  0.6892
  C  C219  1  0.201970  0.600990  0.673120  1.0  -0.0951
  C  C220  1  0.129770  0.564890  0.795620  1.0  -0.0201
  C  C221  1  0.090370  0.545190  0.858120  1.0  -0.1006
  C  C222  1  0.104370  0.552190  0.936920  1.0  0.2028
  C  C223  1  0.154370  0.577190  0.960120  1.0  0.0786
  C  C224  1  0.040570  0.520290  0.836120  1.0  0.2068
  C  C225  1  0.025970  0.512990  0.757320  1.0  -0.0348
  N  N226  1  0.072570  0.536290  0.000000  1.0  -0.4538
  N  N227  1  0.463710  0.536290  0.000000  1.0  -0.4519
  N  N228  1  0.463710  0.927430  0.000000  1.0  -0.4518
  N  N229  1  0.927430  0.463710  0.000000  1.0  -0.4521
  N  N230  1  0.536290  0.463710  0.000000  1.0  -0.4539
  N  N231  1  0.536290  0.072570  0.000000  1.0  -0.4534
  N  N232  1  0.000000  0.500000  0.113580  1.0  -0.3914
  N  N233  1  0.500000  0.500000  0.113580  1.0  -0.391
  N  N234  1  0.500000  0.000000  0.113580  1.0  -0.3914
  N  N235  1  0.500000  0.000000  0.886420  1.0  -0.3913
  N  N236  1  0.500000  0.500000  0.886420  1.0  -0.3909
  N  N237  1  0.000000  0.500000  0.886420  1.0  -0.3913
  Cl  Cl238  1  0.000000  0.573600  0.000000  1.0  -0.4598
  Cl  Cl239  1  0.426400  0.426400  0.000000  1.0  -0.4312
  Cl  Cl240  1  0.573600  0.000000  0.000000  1.0  -0.4631
  Cl  Cl241  1  0.000000  0.426400  0.000000  1.0  -0.4471
  Cl  Cl242  1  0.573600  0.573600  0.000000  1.0  -0.4309
  Cl  Cl243  1  0.426400  0.000000  0.000000  1.0  -0.454
  O  O244  1  0.253570  0.663090  0.419880  1.0  -0.6011
  O  O245  1  0.336910  0.590490  0.419880  1.0  -0.6002
  O  O246  1  0.409510  0.746430  0.419880  1.0  -0.5993
  O  O247  1  0.746430  0.336910  0.419880  1.0  -0.6004
  O  O248  1  0.663090  0.409510  0.419880  1.0  -0.5995
  O  O249  1  0.590490  0.253570  0.419880  1.0  -0.6006
  O  O250  1  0.663090  0.253570  0.580120  1.0  -0.5984
  O  O251  1  0.590490  0.336910  0.580120  1.0  -0.6002
  O  O252  1  0.746430  0.409510  0.580120  1.0  -0.5996
  O  O253  1  0.336910  0.746430  0.580120  1.0  -0.5996
  O  O254  1  0.409510  0.663090  0.580120  1.0  -0.5991
  O  O255  1  0.253570  0.590490  0.580120  1.0  -0.599
  O  O256  1  0.746430  0.336910  0.580120  1.0  -0.5995
  O  O257  1  0.663090  0.409510  0.580120  1.0  -0.5992
  O  O258  1  0.590490  0.253570  0.580120  1.0  -0.6
  O  O259  1  0.253570  0.663090  0.580120  1.0  -0.6005
  O  O260  1  0.336910  0.590490  0.580120  1.0  -0.5994
  O  O261  1  0.409510  0.746430  0.580120  1.0  -0.5986
  O  O262  1  0.336910  0.746430  0.419880  1.0  -0.6
  O  O263  1  0.409510  0.663090  0.419880  1.0  -0.6
  O  O264  1  0.253570  0.590490  0.419880  1.0  -0.5997
  O  O265  1  0.663090  0.253570  0.419880  1.0  -0.5994
  O  O266  1  0.590490  0.336910  0.419880  1.0  -0.6008
  O  O267  1  0.746430  0.409510  0.419880  1.0  -0.5999
  O  O268  1  0.333333  0.666667  0.500000  1.0  -1.0961
  O  O269  1  0.666667  0.333333  0.500000  1.0  -1.0961
