# generated using pymatgen
data_MnH3(CO2)3
_symmetry_space_group_name_H-M   'P 1'
_cell_length_a   8.53030000
_cell_length_b   9.05310000
_cell_length_c   11.99180000
_cell_angle_alpha   90.00000000
_cell_angle_beta   90.00000000
_cell_angle_gamma   90.00000000
_symmetry_Int_Tables_number   1
_chemical_formula_structural   MnH3(CO2)3
_chemical_formula_sum   'Mn4 H12 C12 O24'
_cell_volume   926.07465676
_cell_formula_units_Z   4
loop_
 _symmetry_equiv_pos_site_id
 _symmetry_equiv_pos_as_xyz
  1  'x, y, z'
loop_
 _atom_site_type_symbol
 _atom_site_label
 _atom_site_symmetry_multiplicity
 _atom_site_fract_x
 _atom_site_fract_y
 _atom_site_fract_z
 _atom_site_occupancy
 _atom_site_charge
  Mn  Mn1  1  0.249160  0.250000  0.750000  1.0  1.0425
  Mn  Mn2  1  0.250840  0.250000  0.250000  1.0  1.0418
  Mn  Mn3  1  0.750840  0.750000  0.250000  1.0  1.0418
  Mn  Mn4  1  0.749160  0.750000  0.750000  1.0  1.0425
  H  H5  1  0.417800  0.564500  0.768000  1.0  0.0457
  H  H6  1  0.082200  0.935500  0.268000  1.0  0.0458
  H  H7  1  0.082200  0.564500  0.232000  1.0  0.0454
  H  H8  1  0.250000  0.292600  0.500000  1.0  0.0432
  H  H9  1  0.750000  0.707400  0.500000  1.0  0.0421
  H  H10  1  0.917800  0.064500  0.732000  1.0  0.0455
  H  H11  1  0.417800  0.935500  0.732000  1.0  0.0453
  H  H12  1  0.582200  0.064500  0.268000  1.0  0.045
  H  H13  1  0.917800  0.435500  0.768000  1.0  0.0457
  H  H14  1  0.250000  0.207400  0.000000  1.0  0.0421
  H  H15  1  0.750000  0.792600  0.000000  1.0  0.0432
  H  H16  1  0.582200  0.435500  0.232000  1.0  0.0456
  C  C17  1  0.750000  0.689900  0.000000  1.0  0.7363
  C  C18  1  0.981220  0.015550  0.783120  1.0  0.7418
  C  C19  1  0.518780  0.015550  0.216880  1.0  0.7393
  C  C20  1  0.250000  0.310100  0.000000  1.0  0.7362
  C  C21  1  0.518780  0.484450  0.283120  1.0  0.7402
  C  C22  1  0.018780  0.984450  0.216880  1.0  0.7429
  C  C23  1  0.981220  0.484450  0.716880  1.0  0.742
  C  C24  1  0.018780  0.515550  0.283120  1.0  0.7423
  C  C25  1  0.750000  0.810100  0.500000  1.0  0.7362
  C  C26  1  0.250000  0.189900  0.500000  1.0  0.7363
  C  C27  1  0.481220  0.515550  0.716880  1.0  0.7427
  C  C28  1  0.481220  0.984450  0.783120  1.0  0.741
  O  O29  1  0.755450  0.870830  0.407680  1.0  -0.5592
  O  O30  1  0.744550  0.870830  0.592320  1.0  -0.56
  O  O31  1  0.596230  0.583870  0.680190  1.0  -0.5752
  O  O32  1  0.903770  0.583870  0.319810  1.0  -0.5749
  O  O33  1  0.903770  0.916130  0.180190  1.0  -0.5761
  O  O34  1  0.096230  0.416130  0.680190  1.0  -0.576
  O  O35  1  0.556520  0.612100  0.308560  1.0  -0.5629
  O  O36  1  0.096230  0.083870  0.819810  1.0  -0.5754
  O  O37  1  0.244550  0.129170  0.592320  1.0  -0.5591
  O  O38  1  0.443480  0.112100  0.808560  1.0  -0.5632
  O  O39  1  0.255450  0.370830  0.092320  1.0  -0.5597
  O  O40  1  0.244550  0.370830  0.907680  1.0  -0.5595
  O  O41  1  0.056520  0.112100  0.191440  1.0  -0.5619
  O  O42  1  0.943480  0.612100  0.691440  1.0  -0.5618
  O  O43  1  0.443480  0.387900  0.691440  1.0  -0.563
  O  O44  1  0.056520  0.387900  0.308560  1.0  -0.5629
  O  O45  1  0.556520  0.887900  0.191440  1.0  -0.5629
  O  O46  1  0.744550  0.629170  0.907680  1.0  -0.5593
  O  O47  1  0.943480  0.887900  0.808560  1.0  -0.5634
  O  O48  1  0.596230  0.916130  0.819810  1.0  -0.5757
  O  O49  1  0.403770  0.083870  0.180190  1.0  -0.5753
  O  O50  1  0.255450  0.129170  0.407680  1.0  -0.5589
  O  O51  1  0.403770  0.416130  0.319810  1.0  -0.5758
  O  O52  1  0.755450  0.629170  0.092320  1.0  -0.5587
