# generated using pymatgen
data_MnH3(CO2)3
_symmetry_space_group_name_H-M   'P 1'
_cell_length_a   8.51640000
_cell_length_b   9.05620000
_cell_length_c   11.97720000
_cell_angle_alpha   90.00000000
_cell_angle_beta   90.00000000
_cell_angle_gamma   90.00000000
_symmetry_Int_Tables_number   1
_chemical_formula_structural   MnH3(CO2)3
_chemical_formula_sum   'Mn4 H12 C12 O24'
_cell_volume   923.75618231
_cell_formula_units_Z   4
loop_
 _symmetry_equiv_pos_site_id
 _symmetry_equiv_pos_as_xyz
  1  'x, y, z'
loop_
 _atom_site_type_symbol
 _atom_site_label
 _atom_site_symmetry_multiplicity
 _atom_site_fract_x
 _atom_site_fract_y
 _atom_site_fract_z
 _atom_site_occupancy
 _atom_site_charge
  Mn  Mn1  1  0.251860  0.250000  0.250000  1.0  1.0438
  Mn  Mn2  1  0.751860  0.750000  0.250000  1.0  1.0438
  Mn  Mn3  1  0.748140  0.750000  0.750000  1.0  1.0446
  Mn  Mn4  1  0.248140  0.250000  0.750000  1.0  1.0446
  H  H5  1  0.750000  0.707600  0.500000  1.0  0.0444
  H  H6  1  0.750000  0.792400  0.000000  1.0  0.0455
  H  H7  1  0.583500  0.435800  0.232300  1.0  0.0407
  H  H8  1  0.250000  0.292400  0.500000  1.0  0.0455
  H  H9  1  0.916500  0.064200  0.732300  1.0  0.041
  H  H10  1  0.083500  0.935800  0.267700  1.0  0.0405
  H  H11  1  0.250000  0.207600  0.000000  1.0  0.0444
  H  H12  1  0.083500  0.564200  0.232300  1.0  0.041
  H  H13  1  0.416500  0.935800  0.732300  1.0  0.0404
  H  H14  1  0.583500  0.064200  0.267700  1.0  0.0406
  H  H15  1  0.416500  0.564200  0.767700  1.0  0.041
  H  H16  1  0.916500  0.435800  0.767700  1.0  0.0406
  C  C17  1  0.480140  0.515340  0.716570  1.0  0.7452
  C  C18  1  0.519860  0.015340  0.216570  1.0  0.7465
  C  C19  1  0.019860  0.984660  0.216570  1.0  0.7459
  C  C20  1  0.750000  0.689700  0.000000  1.0  0.723
  C  C21  1  0.519860  0.484660  0.283430  1.0  0.7449
  C  C22  1  0.250000  0.189700  0.500000  1.0  0.723
  C  C23  1  0.480140  0.984660  0.783430  1.0  0.7442
  C  C24  1  0.250000  0.310300  0.000000  1.0  0.723
  C  C25  1  0.980140  0.484660  0.716570  1.0  0.7451
  C  C26  1  0.750000  0.810300  0.500000  1.0  0.723
  C  C27  1  0.980140  0.015340  0.783430  1.0  0.7451
  C  C28  1  0.019860  0.515340  0.283430  1.0  0.7454
  O  O29  1  0.256450  0.128470  0.407500  1.0  -0.557
  O  O30  1  0.904520  0.916100  0.179620  1.0  -0.5748
  O  O31  1  0.095480  0.083900  0.820380  1.0  -0.5745
  O  O32  1  0.404520  0.416100  0.320380  1.0  -0.575
  O  O33  1  0.557300  0.612290  0.308830  1.0  -0.5613
  O  O34  1  0.442700  0.387710  0.691170  1.0  -0.5613
  O  O35  1  0.256450  0.371530  0.092500  1.0  -0.5565
  O  O36  1  0.942700  0.612290  0.691170  1.0  -0.5601
  O  O37  1  0.095480  0.416100  0.679620  1.0  -0.5743
  O  O38  1  0.743550  0.628470  0.907500  1.0  -0.5568
  O  O39  1  0.057300  0.112290  0.191170  1.0  -0.5603
  O  O40  1  0.595480  0.583900  0.679620  1.0  -0.5749
  O  O41  1  0.243550  0.128470  0.592500  1.0  -0.5554
  O  O42  1  0.243550  0.371530  0.907500  1.0  -0.557
  O  O43  1  0.057300  0.387710  0.308830  1.0  -0.5609
  O  O44  1  0.942700  0.887710  0.808830  1.0  -0.5615
  O  O45  1  0.743550  0.871530  0.592500  1.0  -0.5562
  O  O46  1  0.904520  0.583900  0.320380  1.0  -0.574
  O  O47  1  0.756450  0.628470  0.092500  1.0  -0.5556
  O  O48  1  0.404520  0.083900  0.179620  1.0  -0.5751
  O  O49  1  0.557300  0.887710  0.191170  1.0  -0.5611
  O  O50  1  0.595480  0.916100  0.820380  1.0  -0.5743
  O  O51  1  0.442700  0.112290  0.808830  1.0  -0.5616
  O  O52  1  0.756450  0.871530  0.407500  1.0  -0.5573
