# generated using pymatgen
data_CuH12C18(N3O2)2
_symmetry_space_group_name_H-M   'P 1'
_cell_length_a   9.86010000
_cell_length_b   12.73070000
_cell_length_c   17.64780000
_cell_angle_alpha   90.00000000
_cell_angle_beta   90.00000000
_cell_angle_gamma   90.00000000
_symmetry_Int_Tables_number   1
_chemical_formula_structural   CuH12C18(N3O2)2
_chemical_formula_sum   'Cu4 H48 C72 N24 O16'
_cell_volume   2215.25730284
_cell_formula_units_Z   4
loop_
 _symmetry_equiv_pos_site_id
 _symmetry_equiv_pos_as_xyz
  1  'x, y, z'
loop_
 _atom_site_type_symbol
 _atom_site_label
 _atom_site_symmetry_multiplicity
 _atom_site_fract_x
 _atom_site_fract_y
 _atom_site_fract_z
 _atom_site_occupancy
 _atom_site_charge
  Cu  Cu1  1  0.000000  0.250000  0.160080  1.0  0.8114
  Cu  Cu2  1  0.500000  0.750000  0.660080  1.0  0.8115
  Cu  Cu3  1  0.500000  0.250000  0.339920  1.0  0.8113
  Cu  Cu4  1  0.000000  0.750000  0.839920  1.0  0.8113
  H  H5  1  0.579100  0.199300  0.017300  1.0  0.1242
  H  H6  1  0.369800  0.678000  0.817400  1.0  0.122
  H  H7  1  0.630200  0.822000  0.817400  1.0  0.1227
  H  H8  1  0.638900  0.526700  0.693500  1.0  0.1066
  H  H9  1  0.420900  0.300700  0.017300  1.0  0.124
  H  H10  1  0.036400  0.619600  0.416500  1.0  0.1315
  H  H11  1  0.861100  0.026700  0.193500  1.0  0.1059
  H  H12  1  0.607200  0.502500  0.487000  1.0  0.1034
  H  H13  1  0.780700  0.922100  0.887000  1.0  0.1219
  H  H14  1  0.130200  0.178000  0.317400  1.0  0.1225
  H  H15  1  0.869800  0.322000  0.317400  1.0  0.1218
  H  H16  1  0.536400  0.380400  0.916500  1.0  0.1311
  H  H17  1  0.392800  0.997500  0.487000  1.0  0.1037
  H  H18  1  0.892800  0.002500  0.987000  1.0  0.1038
  H  H19  1  0.219300  0.577900  0.887000  1.0  0.1222
  H  H20  1  0.138900  0.473300  0.193500  1.0  0.1068
  H  H21  1  0.107200  0.497500  0.987000  1.0  0.1033
  H  H22  1  0.463600  0.119600  0.916500  1.0  0.1313
  H  H23  1  0.079100  0.800700  0.517300  1.0  0.1234
  H  H24  1  0.361100  0.973300  0.693500  1.0  0.1064
  H  H25  1  0.719300  0.422100  0.387000  1.0  0.122
  H  H26  1  0.920900  0.699300  0.517300  1.0  0.1237
  H  H27  1  0.280700  0.077900  0.387000  1.0  0.1219
  H  H28  1  0.963600  0.880400  0.416500  1.0  0.131
  H  H29  1  0.638900  0.026700  0.306500  1.0  0.107
  H  H30  1  0.579100  0.699300  0.982700  1.0  0.1228
  H  H31  1  0.138900  0.973300  0.806500  1.0  0.107
  H  H32  1  0.780700  0.422100  0.113000  1.0  0.1218
  H  H33  1  0.036400  0.119600  0.583500  1.0  0.131
  H  H34  1  0.463600  0.619600  0.083500  1.0  0.1312
  H  H35  1  0.861100  0.526700  0.806500  1.0  0.1063
  H  H36  1  0.630200  0.322000  0.182600  1.0  0.1227
  H  H37  1  0.536400  0.880400  0.083500  1.0  0.1311
  H  H38  1  0.392800  0.497500  0.513000  1.0  0.104
  H  H39  1  0.130200  0.678000  0.682600  1.0  0.1226
  H  H40  1  0.719300  0.922100  0.613000  1.0  0.122
  H  H41  1  0.869800  0.822000  0.682600  1.0  0.1219
  H  H42  1  0.361100  0.473300  0.306500  1.0  0.1064
  H  H43  1  0.369800  0.178000  0.182600  1.0  0.1222
  H  H44  1  0.420900  0.800700  0.982700  1.0  0.1232
  H  H45  1  0.607200  0.002500  0.513000  1.0  0.1035
  H  H46  1  0.963600  0.380400  0.583500  1.0  0.1313
  H  H47  1  0.892800  0.502500  0.013000  1.0  0.1039
  H  H48  1  0.219300  0.077900  0.113000  1.0  0.1222
  H  H49  1  0.107200  0.997500  0.013000  1.0  0.1037
  H  H50  1  0.079100  0.300700  0.482700  1.0  0.1229
  H  H51  1  0.920900  0.199300  0.482700  1.0  0.1231
  H  H52  1  0.280700  0.577900  0.613000  1.0  0.122
  C  C53  1  0.739800  0.979000  0.913300  1.0  -0.1874
  C  C54  1  0.886000  0.515100  0.392700  1.0  0.1731
  C  C55  1  0.194600  0.473200  0.972700  1.0  -0.0112
  C  C56  1  0.448500  0.403800  0.930800  1.0  -0.1499
  C  C57  1  0.069400  0.126300  0.298600  1.0  0.156
  C  C58  1  0.076300  0.457400  0.232700  1.0  0.2458
  C  C59  1  0.923700  0.042600  0.232700  1.0  0.2459
  C  C60  1  0.321400  0.835300  0.575000  1.0  0.6854
  C  C61  1  0.948500  0.596200  0.430800  1.0  -0.1492
  C  C62  1  0.114000  0.984900  0.392700  1.0  0.1723
  C  C63  1  0.379500  0.357000  0.990700  1.0  -0.082
  C  C64  1  0.747600  0.109300  0.012300  1.0  -0.1197
  C  C65  1  0.752400  0.609300  0.512300  1.0  -0.1208
  C  C66  1  0.805400  0.026800  0.972700  1.0  -0.0103
  C  C67  1  0.678600  0.664700  0.575000  1.0  0.6846
  C  C68  1  0.051500  0.903800  0.430800  1.0  -0.1508
  C  C69  1  0.551500  0.096200  0.930800  1.0  -0.152
  C  C70  1  0.614000  0.015100  0.892700  1.0  0.1724
  C  C71  1  0.247600  0.890700  0.512300  1.0  -0.1196
  C  C72  1  0.569400  0.873700  0.798600  1.0  0.1557
  C  C73  1  0.252400  0.390700  0.012300  1.0  -0.1211
  C  C74  1  0.879500  0.643000  0.490700  1.0  -0.0793
  C  C75  1  0.423700  0.957400  0.732700  1.0  0.2448
  C  C76  1  0.239800  0.021000  0.413300  1.0  -0.1862
  C  C77  1  0.694600  0.526800  0.472700  1.0  -0.0104
  C  C78  1  0.576300  0.542600  0.732700  1.0  0.2437
  C  C79  1  0.386000  0.484900  0.892700  1.0  0.1728
  C  C80  1  0.260200  0.521000  0.913300  1.0  -0.1864
  C  C81  1  0.178600  0.335300  0.075000  1.0  0.6848
  C  C82  1  0.760200  0.479000  0.413300  1.0  -0.1873
  C  C83  1  0.930600  0.373700  0.298600  1.0  0.156
  C  C84  1  0.821400  0.164700  0.075000  1.0  0.6854
  C  C85  1  0.305400  0.973200  0.472700  1.0  -0.0126
  C  C86  1  0.620500  0.143000  0.990700  1.0  -0.0808
  C  C87  1  0.430600  0.626300  0.798600  1.0  0.1563
  C  C88  1  0.120500  0.857000  0.490700  1.0  -0.0797
  C  C89  1  0.886000  0.015100  0.607300  1.0  0.173
  C  C90  1  0.194600  0.973200  0.027300  1.0  -0.0128
  C  C91  1  0.120500  0.357000  0.509300  1.0  -0.0801
  C  C92  1  0.260200  0.021000  0.086700  1.0  -0.1869
  C  C93  1  0.051500  0.403800  0.569200  1.0  -0.1495
  C  C94  1  0.930600  0.873700  0.701400  1.0  0.1562
  C  C95  1  0.760200  0.979000  0.586700  1.0  -0.1875
  C  C96  1  0.076300  0.957400  0.767300  1.0  0.2457
  C  C97  1  0.239800  0.521000  0.586700  1.0  -0.1872
  C  C98  1  0.178600  0.835300  0.925000  1.0  0.6848
  C  C99  1  0.247600  0.390700  0.487700  1.0  -0.12
  C  C100  1  0.430600  0.126300  0.201400  1.0  0.1566
  C  C101  1  0.576300  0.042600  0.267300  1.0  0.2451
  C  C102  1  0.423700  0.457400  0.267300  1.0  0.2439
  C  C103  1  0.923700  0.542600  0.767300  1.0  0.2467
  C  C104  1  0.620500  0.643000  0.009300  1.0  -0.0796
  C  C105  1  0.386000  0.984900  0.107300  1.0  0.1733
  C  C106  1  0.879500  0.143000  0.509300  1.0  -0.083
  C  C107  1  0.114000  0.484900  0.607300  1.0  0.1727
  C  C108  1  0.694600  0.026800  0.527300  1.0  -0.0115
  C  C109  1  0.569400  0.373700  0.201400  1.0  0.1559
  C  C110  1  0.448500  0.903800  0.069200  1.0  -0.1508
  C  C111  1  0.614000  0.515100  0.107300  1.0  0.1724
  C  C112  1  0.821400  0.664700  0.925000  1.0  0.6857
  C  C113  1  0.678600  0.164700  0.425000  1.0  0.6851
  C  C114  1  0.321400  0.335300  0.425000  1.0  0.6853
  C  C115  1  0.551500  0.596200  0.069200  1.0  -0.1494
  C  C116  1  0.305400  0.473200  0.527300  1.0  -0.0107
  C  C117  1  0.948500  0.096200  0.569200  1.0  -0.149
  C  C118  1  0.069400  0.626300  0.701400  1.0  0.1563
  C  C119  1  0.752400  0.109300  0.487700  1.0  -0.1218
  C  C120  1  0.252400  0.890700  0.987700  1.0  -0.1222
  C  C121  1  0.379500  0.857000  0.009300  1.0  -0.0835
  C  C122  1  0.747600  0.609300  0.987700  1.0  -0.12
  C  C123  1  0.739800  0.479000  0.086700  1.0  -0.1871
  C  C124  1  0.805400  0.526800  0.027300  1.0  -0.0109
  N  N125  1  0.952700  0.468100  0.329400  1.0  0.153
  N  N126  1  0.047300  0.031900  0.329400  1.0  0.1507
  N  N127  1  0.007800  0.364000  0.237400  1.0  -0.3771
  N  N128  1  0.507800  0.636000  0.737400  1.0  -0.3757
  N  N129  1  0.952900  0.977400  0.287700  1.0  -0.389
  N  N130  1  0.547300  0.968100  0.829400  1.0  0.1534
  N  N131  1  0.047100  0.522600  0.287700  1.0  -0.3895
  N  N132  1  0.452900  0.022600  0.787700  1.0  -0.3889
  N  N133  1  0.547100  0.477400  0.787700  1.0  -0.3894
  N  N134  1  0.492200  0.864000  0.737400  1.0  -0.3776
  N  N135  1  0.992200  0.136000  0.237400  1.0  -0.3762
  N  N136  1  0.452700  0.531900  0.829400  1.0  0.1511
  N  N137  1  0.492200  0.364000  0.262600  1.0  -0.3762
  N  N138  1  0.452900  0.522600  0.212300  1.0  -0.3897
  N  N139  1  0.047100  0.022600  0.712300  1.0  -0.391
  N  N140  1  0.547300  0.468100  0.170600  1.0  0.153
  N  N141  1  0.007800  0.864000  0.762600  1.0  -0.3758
  N  N142  1  0.047300  0.531900  0.670600  1.0  0.1516
  N  N143  1  0.952900  0.477400  0.712300  1.0  -0.3896
  N  N144  1  0.992200  0.636000  0.762600  1.0  -0.3751
  N  N145  1  0.952700  0.968100  0.670600  1.0  0.1531
  N  N146  1  0.507800  0.136000  0.262600  1.0  -0.3747
  N  N147  1  0.547100  0.977400  0.212300  1.0  -0.3898
  N  N148  1  0.452700  0.031900  0.170600  1.0  0.1518
  O  O149  1  0.948700  0.148100  0.080410  1.0  -0.5812
  O  O150  1  0.448700  0.851900  0.580410  1.0  -0.5809
  O  O151  1  0.258700  0.775900  0.617900  1.0  -0.6274
  O  O152  1  0.741300  0.724100  0.617900  1.0  -0.6296
  O  O153  1  0.051300  0.351900  0.080410  1.0  -0.5818
  O  O154  1  0.758700  0.224100  0.117900  1.0  -0.6286
  O  O155  1  0.551300  0.648100  0.580410  1.0  -0.5825
  O  O156  1  0.241300  0.275900  0.117900  1.0  -0.6281
  O  O157  1  0.551300  0.148100  0.419590  1.0  -0.5826
  O  O158  1  0.758700  0.724100  0.882100  1.0  -0.6292
  O  O159  1  0.241300  0.775900  0.882100  1.0  -0.629
  O  O160  1  0.448700  0.351900  0.419590  1.0  -0.5817
  O  O161  1  0.948700  0.648100  0.919590  1.0  -0.5814
  O  O162  1  0.051300  0.851900  0.919590  1.0  -0.5822
  O  O163  1  0.258700  0.275900  0.382100  1.0  -0.6284
  O  O164  1  0.741300  0.224100  0.382100  1.0  -0.6299
