# generated using pymatgen
data_Fe6Co3H72C144(N6O13)2
_symmetry_space_group_name_H-M   'P 1'
_cell_length_a   31.13420000
_cell_length_b   31.13420000
_cell_length_c   16.90890000
_cell_angle_alpha   90.00000000
_cell_angle_beta   90.00000000
_cell_angle_gamma   120.00000000
_symmetry_Int_Tables_number   1
_chemical_formula_structural   Fe6Co3H72C144(N6O13)2
_chemical_formula_sum   'Fe6 Co3 H72 C144 N12 O26'
_cell_volume   14194.54281867
_cell_formula_units_Z   1
loop_
 _symmetry_equiv_pos_site_id
 _symmetry_equiv_pos_as_xyz
  1  'x, y, z'
loop_
 _atom_site_type_symbol
 _atom_site_label
 _atom_site_symmetry_multiplicity
 _atom_site_fract_x
 _atom_site_fract_y
 _atom_site_fract_z
 _atom_site_occupancy
 _atom_site_charge
  Fe  Fe1  1  0.297790  0.702210  0.500000  1.0  1.1684
  Fe  Fe2  1  0.297790  0.595590  0.500000  1.0  1.1635
  Fe  Fe3  1  0.404410  0.702210  0.500000  1.0  1.1703
  Fe  Fe4  1  0.702210  0.297790  0.500000  1.0  1.1685
  Fe  Fe5  1  0.702210  0.404410  0.500000  1.0  1.165
  Fe  Fe6  1  0.595590  0.297790  0.500000  1.0  1.1679
  Co  Co7  1  0.000000  0.500000  0.000000  1.0  0.7625
  Co  Co8  1  0.500000  0.500000  0.000000  1.0  0.7625
  Co  Co9  1  0.500000  0.000000  0.000000  1.0  0.7625
  H  H10  1  0.196400  0.527850  0.318440  1.0  0.1072
  H  H11  1  0.133700  0.496850  0.212040  1.0  0.1123
  H  H12  1  0.472150  0.668550  0.318440  1.0  0.1071
  H  H13  1  0.503150  0.636850  0.212040  1.0  0.113
  H  H14  1  0.331450  0.803600  0.318440  1.0  0.1055
  H  H15  1  0.363150  0.866300  0.212040  1.0  0.1115
  H  H16  1  0.803600  0.472150  0.318440  1.0  0.1071
  H  H17  1  0.866300  0.503150  0.212040  1.0  0.1133
  H  H18  1  0.527850  0.331450  0.318440  1.0  0.107
  H  H19  1  0.496850  0.363150  0.212040  1.0  0.1124
  H  H20  1  0.668550  0.196400  0.318440  1.0  0.1062
  H  H21  1  0.636850  0.133700  0.212040  1.0  0.1114
  H  H22  1  0.527850  0.196400  0.681560  1.0  0.1057
  H  H23  1  0.496850  0.133700  0.787960  1.0  0.1113
  H  H24  1  0.668550  0.472150  0.681560  1.0  0.1075
  H  H25  1  0.636850  0.503150  0.787960  1.0  0.1129
  H  H26  1  0.803600  0.331450  0.681560  1.0  0.1067
  H  H27  1  0.866300  0.363150  0.787960  1.0  0.113
  H  H28  1  0.472150  0.803600  0.681560  1.0  0.106
  H  H29  1  0.503150  0.866300  0.787960  1.0  0.1105
  H  H30  1  0.331450  0.527850  0.681560  1.0  0.1057
  H  H31  1  0.363150  0.496850  0.787960  1.0  0.1125
  H  H32  1  0.196400  0.668550  0.681560  1.0  0.1071
  H  H33  1  0.133700  0.636850  0.787960  1.0  0.1132
  H  H34  1  0.803600  0.472150  0.681560  1.0  0.1069
  H  H35  1  0.866300  0.503150  0.787960  1.0  0.1134
  H  H36  1  0.527850  0.331450  0.681560  1.0  0.1063
  H  H37  1  0.496850  0.363150  0.787960  1.0  0.1124
  H  H38  1  0.668550  0.196400  0.681560  1.0  0.1063
  H  H39  1  0.636850  0.133700  0.787960  1.0  0.1111
  H  H40  1  0.196400  0.527850  0.681560  1.0  0.1071
  H  H41  1  0.133700  0.496850  0.787960  1.0  0.112
  H  H42  1  0.472150  0.668550  0.681560  1.0  0.1072
  H  H43  1  0.503150  0.636850  0.787960  1.0  0.1127
  H  H44  1  0.331450  0.803600  0.681560  1.0  0.1055
  H  H45  1  0.363150  0.866300  0.787960  1.0  0.111
  H  H46  1  0.472150  0.803600  0.318440  1.0  0.1062
  H  H47  1  0.503150  0.866300  0.212040  1.0  0.111
  H  H48  1  0.331450  0.527850  0.318440  1.0  0.1062
  H  H49  1  0.363150  0.496850  0.212040  1.0  0.1123
  H  H50  1  0.196400  0.668550  0.318440  1.0  0.1074
  H  H51  1  0.133700  0.636850  0.212040  1.0  0.1133
  H  H52  1  0.527850  0.196400  0.318440  1.0  0.1055
  H  H53  1  0.496850  0.133700  0.212040  1.0  0.1115
  H  H54  1  0.668550  0.472150  0.318440  1.0  0.1074
  H  H55  1  0.636850  0.503150  0.212040  1.0  0.1132
  H  H56  1  0.803600  0.331450  0.318440  1.0  0.1068
  H  H57  1  0.866300  0.363150  0.212040  1.0  0.113
  H  H58  1  0.187100  0.593550  0.077440  1.0  0.1137
  H  H59  1  0.048900  0.524450  0.295540  1.0  0.1112
  H  H60  1  0.406450  0.593550  0.077440  1.0  0.1137
  H  H61  1  0.475550  0.524450  0.295540  1.0  0.1116
  H  H62  1  0.406450  0.812900  0.077440  1.0  0.1151
  H  H63  1  0.475550  0.951100  0.295540  1.0  0.1106
  H  H64  1  0.812900  0.406450  0.077440  1.0  0.1142
  H  H65  1  0.951100  0.475550  0.295540  1.0  0.1112
  H  H66  1  0.593550  0.406450  0.077440  1.0  0.1137
  H  H67  1  0.524450  0.475550  0.295540  1.0  0.1109
  H  H68  1  0.593550  0.187100  0.077440  1.0  0.1143
  H  H69  1  0.524450  0.048900  0.295540  1.0  0.1109
  H  H70  1  0.593550  0.187100  0.922560  1.0  0.1139
  H  H71  1  0.524450  0.048900  0.704460  1.0  0.1075
  H  H72  1  0.593550  0.406450  0.922560  1.0  0.113
  H  H73  1  0.524450  0.475550  0.704460  1.0  0.107
  H  H74  1  0.812900  0.406450  0.922560  1.0  0.1137
  H  H75  1  0.951100  0.475550  0.704460  1.0  0.1079
  H  H76  1  0.406450  0.812900  0.922560  1.0  0.1141
  H  H77  1  0.475550  0.951100  0.704460  1.0  0.1069
  H  H78  1  0.406450  0.593550  0.922560  1.0  0.1135
  H  H79  1  0.475550  0.524450  0.704460  1.0  0.1084
  H  H80  1  0.187100  0.593550  0.922560  1.0  0.1131
  H  H81  1  0.048900  0.524450  0.704460  1.0  0.1073
  C  C82  1  0.183300  0.552250  0.295740  1.0  -0.0787
  C  C83  1  0.147500  0.534350  0.235040  1.0  -0.1548
  C  C84  1  0.447750  0.631050  0.295740  1.0  -0.0801
  C  C85  1  0.465650  0.613150  0.235040  1.0  -0.157
  C  C86  1  0.368950  0.816700  0.295740  1.0  -0.0774
  C  C87  1  0.386850  0.852500  0.235040  1.0  -0.1547
  C  C88  1  0.816700  0.447750  0.295740  1.0  -0.0796
  C  C89  1  0.852500  0.465650  0.235040  1.0  -0.1528
  C  C90  1  0.552250  0.368950  0.295740  1.0  -0.0775
  C  C91  1  0.534350  0.386850  0.235040  1.0  -0.1542
  C  C92  1  0.631050  0.183300  0.295740  1.0  -0.0789
  C  C93  1  0.613150  0.147500  0.235040  1.0  -0.1569
  C  C94  1  0.552250  0.183300  0.704260  1.0  -0.0781
  C  C95  1  0.534350  0.147500  0.764960  1.0  -0.1549
  C  C96  1  0.631050  0.447750  0.704260  1.0  -0.0796
  C  C97  1  0.613150  0.465650  0.764960  1.0  -0.1549
  C  C98  1  0.816700  0.368950  0.704260  1.0  -0.0789
  C  C99  1  0.852500  0.386850  0.764960  1.0  -0.1555
  C  C100  1  0.447750  0.816700  0.704260  1.0  -0.0798
  C  C101  1  0.465650  0.852500  0.764960  1.0  -0.156
  C  C102  1  0.368950  0.552250  0.704260  1.0  -0.079
  C  C103  1  0.386850  0.534350  0.764960  1.0  -0.1534
  C  C104  1  0.183300  0.631050  0.704260  1.0  -0.0805
  C  C105  1  0.147500  0.613150  0.764960  1.0  -0.1567
  C  C106  1  0.816700  0.447750  0.704260  1.0  -0.0795
  C  C107  1  0.852500  0.465650  0.764960  1.0  -0.153
  C  C108  1  0.552250  0.368950  0.704260  1.0  -0.0779
  C  C109  1  0.534350  0.386850  0.764960  1.0  -0.1545
  C  C110  1  0.631050  0.183300  0.704260  1.0  -0.0802
  C  C111  1  0.613150  0.147500  0.764960  1.0  -0.1571
  C  C112  1  0.183300  0.552250  0.704260  1.0  -0.0797
  C  C113  1  0.147500  0.534350  0.764960  1.0  -0.1547
  C  C114  1  0.447750  0.631050  0.704260  1.0  -0.0806
  C  C115  1  0.465650  0.613150  0.764960  1.0  -0.1564
  C  C116  1  0.368950  0.816700  0.704260  1.0  -0.078
  C  C117  1  0.386850  0.852500  0.764960  1.0  -0.1553
  C  C118  1  0.447750  0.816700  0.295740  1.0  -0.0783
  C  C119  1  0.465650  0.852500  0.235040  1.0  -0.1566
  C  C120  1  0.368950  0.552250  0.295740  1.0  -0.0785
  C  C121  1  0.386850  0.534350  0.235040  1.0  -0.1534
  C  C122  1  0.183300  0.631050  0.295740  1.0  -0.0805
  C  C123  1  0.147500  0.613150  0.235040  1.0  -0.1561
  C  C124  1  0.552250  0.183300  0.295740  1.0  -0.0779
  C  C125  1  0.534350  0.147500  0.235040  1.0  -0.155
  C  C126  1  0.631050  0.447750  0.295740  1.0  -0.079
  C  C127  1  0.613150  0.465650  0.235040  1.0  -0.1549
  C  C128  1  0.816700  0.368950  0.295740  1.0  -0.0781
  C  C129  1  0.852500  0.386850  0.235040  1.0  -0.1559
  C  C130  1  0.238300  0.619150  0.393140  1.0  0.6969
  C  C131  1  0.201500  0.600750  0.327240  1.0  -0.0912
  C  C132  1  0.129300  0.564650  0.204740  1.0  -0.009
  C  C133  1  0.089900  0.544950  0.142240  1.0  -0.0956
  C  C134  1  0.103900  0.551950  0.063440  1.0  0.163
  C  C135  1  0.153900  0.576950  0.040240  1.0  0.0896
  C  C136  1  0.040100  0.520050  0.164240  1.0  0.1503
  C  C137  1  0.025500  0.512750  0.243040  1.0  -0.0263
  C  C138  1  0.380850  0.619150  0.393140  1.0  0.6967
  C  C139  1  0.399250  0.600750  0.327240  1.0  -0.0912
  C  C140  1  0.435350  0.564650  0.204740  1.0  -0.0096
  C  C141  1  0.455050  0.544950  0.142240  1.0  -0.0955
  C  C142  1  0.448050  0.551950  0.063440  1.0  0.1635
  C  C143  1  0.423050  0.576950  0.040240  1.0  0.0906
  C  C144  1  0.479950  0.520050  0.164240  1.0  0.1505
  C  C145  1  0.487250  0.512750  0.243040  1.0  -0.029
  C  C146  1  0.380850  0.761700  0.393140  1.0  0.6953
  C  C147  1  0.399250  0.798500  0.327240  1.0  -0.091
  C  C148  1  0.435350  0.870700  0.204740  1.0  -0.0079
  C  C149  1  0.455050  0.910100  0.142240  1.0  -0.0951
  C  C150  1  0.448050  0.896100  0.063440  1.0  0.1646
  C  C151  1  0.423050  0.846100  0.040240  1.0  0.0874
  C  C152  1  0.479950  0.959900  0.164240  1.0  0.1509
  C  C153  1  0.487250  0.974500  0.243040  1.0  -0.0267
  C  C154  1  0.761700  0.380850  0.393140  1.0  0.6963
  C  C155  1  0.798500  0.399250  0.327240  1.0  -0.0915
  C  C156  1  0.870700  0.435350  0.204740  1.0  -0.0092
  C  C157  1  0.910100  0.455050  0.142240  1.0  -0.0954
  C  C158  1  0.896100  0.448050  0.063440  1.0  0.1639
  C  C159  1  0.846100  0.423050  0.040240  1.0  0.0898
  C  C160  1  0.959900  0.479950  0.164240  1.0  0.1499
  C  C161  1  0.974500  0.487250  0.243040  1.0  -0.0284
  C  C162  1  0.619150  0.380850  0.393140  1.0  0.6964
  C  C163  1  0.600750  0.399250  0.327240  1.0  -0.0914
  C  C164  1  0.564650  0.435350  0.204740  1.0  -0.0087
  C  C165  1  0.544950  0.455050  0.142240  1.0  -0.0955
  C  C166  1  0.551950  0.448050  0.063440  1.0  0.1633
  C  C167  1  0.576950  0.423050  0.040240  1.0  0.0894
  C  C168  1  0.520050  0.479950  0.164240  1.0  0.1496
  C  C169  1  0.512750  0.487250  0.243040  1.0  -0.0261
  C  C170  1  0.619150  0.238300  0.393140  1.0  0.6954
  C  C171  1  0.600750  0.201500  0.327240  1.0  -0.091
  C  C172  1  0.564650  0.129300  0.204740  1.0  -0.0082
  C  C173  1  0.544950  0.089900  0.142240  1.0  -0.0954
  C  C174  1  0.551950  0.103900  0.063440  1.0  0.1631
  C  C175  1  0.576950  0.153900  0.040240  1.0  0.0873
  C  C176  1  0.520050  0.040100  0.164240  1.0  0.1512
  C  C177  1  0.512750  0.025500  0.243040  1.0  -0.0272
  C  C178  1  0.619150  0.238300  0.606860  1.0  0.6958
  C  C179  1  0.600750  0.201500  0.672760  1.0  -0.0911
  C  C180  1  0.564650  0.129300  0.795260  1.0  -0.008
  C  C181  1  0.544950  0.089900  0.857760  1.0  -0.0957
  C  C182  1  0.551950  0.103900  0.936560  1.0  0.1611
  C  C183  1  0.576950  0.153900  0.959760  1.0  0.0881
  C  C184  1  0.520050  0.040100  0.835760  1.0  0.152
  C  C185  1  0.512750  0.025500  0.756960  1.0  -0.0274
  C  C186  1  0.619150  0.380850  0.606860  1.0  0.6968
  C  C187  1  0.600750  0.399250  0.672760  1.0  -0.0915
  C  C188  1  0.564650  0.435350  0.795260  1.0  -0.0088
  C  C189  1  0.544950  0.455050  0.857760  1.0  -0.0957
  C  C190  1  0.551950  0.448050  0.936560  1.0  0.1611
  C  C191  1  0.576950  0.423050  0.959760  1.0  0.0888
  C  C192  1  0.520050  0.479950  0.835760  1.0  0.1503
  C  C193  1  0.512750  0.487250  0.756960  1.0  -0.0274
  C  C194  1  0.761700  0.380850  0.606860  1.0  0.6964
  C  C195  1  0.798500  0.399250  0.672760  1.0  -0.0916
  C  C196  1  0.870700  0.435350  0.795260  1.0  -0.0092
  C  C197  1  0.910100  0.455050  0.857760  1.0  -0.0957
  C  C198  1  0.896100  0.448050  0.936560  1.0  0.162
  C  C199  1  0.846100  0.423050  0.959760  1.0  0.0899
  C  C200  1  0.959900  0.479950  0.835760  1.0  0.1506
  C  C201  1  0.974500  0.487250  0.756960  1.0  -0.0286
  C  C202  1  0.380850  0.761700  0.606860  1.0  0.6956
  C  C203  1  0.399250  0.798500  0.672760  1.0  -0.0912
  C  C204  1  0.435350  0.870700  0.795260  1.0  -0.0078
  C  C205  1  0.455050  0.910100  0.857760  1.0  -0.0954
  C  C206  1  0.448050  0.896100  0.936560  1.0  0.1626
  C  C207  1  0.423050  0.846100  0.959760  1.0  0.0868
  C  C208  1  0.479950  0.959900  0.835760  1.0  0.1508
  C  C209  1  0.487250  0.974500  0.756960  1.0  -0.0274
  C  C210  1  0.380850  0.619150  0.606860  1.0  0.6969
  C  C211  1  0.399250  0.600750  0.672760  1.0  -0.0913
  C  C212  1  0.435350  0.564650  0.795260  1.0  -0.0095
  C  C213  1  0.455050  0.544950  0.857760  1.0  -0.0958
  C  C214  1  0.448050  0.551950  0.936560  1.0  0.1615
  C  C215  1  0.423050  0.576950  0.959760  1.0  0.0915
  C  C216  1  0.479950  0.520050  0.835760  1.0  0.1504
  C  C217  1  0.487250  0.512750  0.756960  1.0  -0.0281
  C  C218  1  0.238300  0.619150  0.606860  1.0  0.6973
  C  C219  1  0.201500  0.600750  0.672760  1.0  -0.0912
  C  C220  1  0.129300  0.564650  0.795260  1.0  -0.009
  C  C221  1  0.089900  0.544950  0.857760  1.0  -0.0958
  C  C222  1  0.103900  0.551950  0.936560  1.0  0.1608
  C  C223  1  0.153900  0.576950  0.959760  1.0  0.0897
  C  C224  1  0.040100  0.520050  0.835760  1.0  0.1503
  C  C225  1  0.025500  0.512750  0.756960  1.0  -0.0268
  N  N226  1  0.072100  0.536050  0.000000  1.0  -0.4302
  N  N227  1  0.463950  0.536050  0.000000  1.0  -0.4311
  N  N228  1  0.463950  0.927900  0.000000  1.0  -0.4266
  N  N229  1  0.927900  0.463950  0.000000  1.0  -0.431
  N  N230  1  0.536050  0.463950  0.000000  1.0  -0.4299
  N  N231  1  0.536050  0.072100  0.000000  1.0  -0.427
  N  N232  1  0.000000  0.500000  0.113940  1.0  -0.412
  N  N233  1  0.500000  0.500000  0.113940  1.0  -0.412
  N  N234  1  0.500000  0.000000  0.113940  1.0  -0.412
  N  N235  1  0.500000  0.000000  0.886060  1.0  -0.4118
  N  N236  1  0.500000  0.500000  0.886060  1.0  -0.4118
  N  N237  1  0.000000  0.500000  0.886060  1.0  -0.4118
  O  O238  1  0.253100  0.662850  0.420240  1.0  -0.6232
  O  O239  1  0.337150  0.590250  0.420240  1.0  -0.6208
  O  O240  1  0.409750  0.746900  0.420240  1.0  -0.6226
  O  O241  1  0.746900  0.337150  0.420240  1.0  -0.6215
  O  O242  1  0.662850  0.409750  0.420240  1.0  -0.6204
  O  O243  1  0.590250  0.253100  0.420240  1.0  -0.6224
  O  O244  1  0.662850  0.253100  0.579760  1.0  -0.6219
  O  O245  1  0.590250  0.337150  0.579760  1.0  -0.622
  O  O246  1  0.746900  0.409750  0.579760  1.0  -0.6204
  O  O247  1  0.337150  0.746900  0.579760  1.0  -0.6211
  O  O248  1  0.409750  0.662850  0.579760  1.0  -0.621
  O  O249  1  0.253100  0.590250  0.579760  1.0  -0.6194
  O  O250  1  0.746900  0.337150  0.579760  1.0  -0.6206
  O  O251  1  0.662850  0.409750  0.579760  1.0  -0.6198
  O  O252  1  0.590250  0.253100  0.579760  1.0  -0.6219
  O  O253  1  0.253100  0.662850  0.579760  1.0  -0.6226
  O  O254  1  0.337150  0.590250  0.579760  1.0  -0.6201
  O  O255  1  0.409750  0.746900  0.579760  1.0  -0.6217
  O  O256  1  0.337150  0.746900  0.420240  1.0  -0.6216
  O  O257  1  0.409750  0.662850  0.420240  1.0  -0.6223
  O  O258  1  0.253100  0.590250  0.420240  1.0  -0.6201
  O  O259  1  0.662850  0.253100  0.420240  1.0  -0.6228
  O  O260  1  0.590250  0.337150  0.420240  1.0  -0.6225
  O  O261  1  0.746900  0.409750  0.420240  1.0  -0.621
  O  O262  1  0.333333  0.666667  0.500000  1.0  -1.0718
  O  O263  1  0.666667  0.333333  0.500000  1.0  -1.0717
