# generated using pymatgen
data_Zr6H9C25(N5O14)2
_symmetry_space_group_name_H-M   'P 1'
_cell_length_a   19.06970000
_cell_length_b   19.06970000
_cell_length_c   23.53350000
_cell_angle_alpha   112.15400000
_cell_angle_beta   112.15400000
_cell_angle_gamma   93.97150000
_symmetry_Int_Tables_number   1
_chemical_formula_structural   Zr6H9C25(N5O14)2
_chemical_formula_sum   'Zr24 H36 C100 N40 O112'
_cell_volume   7114.50644878
_cell_formula_units_Z   4
loop_
 _symmetry_equiv_pos_site_id
 _symmetry_equiv_pos_as_xyz
  1  'x, y, z'
loop_
 _atom_site_type_symbol
 _atom_site_label
 _atom_site_symmetry_multiplicity
 _atom_site_fract_x
 _atom_site_fract_y
 _atom_site_fract_z
 _atom_site_occupancy
 _atom_site_charge
  Zr  Zr1  1  0.478230  0.096010  0.473800  1.0  2.0438
  Zr  Zr2  1  0.087710  0.354190  0.879480  1.0  1.9341
  Zr  Zr3  1  0.371340  0.239700  0.473280  1.0  2.0422
  Zr  Zr4  1  0.760300  0.628660  0.526720  1.0  2.0429
  Zr  Zr5  1  0.645810  0.912290  0.120520  1.0  1.9358
  Zr  Zr6  1  0.586440  0.839780  0.880700  1.0  1.9221
  Zr  Zr7  1  0.903990  0.521770  0.526200  1.0  2.0445
  Zr  Zr8  1  0.989900  0.639660  0.475360  1.0  2.0027
  Zr  Zr9  1  0.648060  0.016420  0.026720  1.0  2.0437
  Zr  Zr10  1  0.477770  0.879790  0.974940  1.0  2.0481
  Zr  Zr11  1  0.983580  0.351940  0.973280  1.0  2.0461
  Zr  Zr12  1  0.120210  0.522230  0.025060  1.0  2.0463
  Zr  Zr13  1  0.845150  0.747170  0.474940  1.0  2.0446
  Zr  Zr14  1  0.252830  0.154850  0.525060  1.0  2.0431
  Zr  Zr15  1  0.455740  0.209080  0.619300  1.0  1.9223
  Zr  Zr16  1  0.585700  0.735460  0.975360  1.0  2.0057
  Zr  Zr17  1  0.160220  0.413560  0.119300  1.0  1.9209
  Zr  Zr18  1  0.958230  0.724710  0.620520  1.0  1.9342
  Zr  Zr19  1  0.127790  0.245570  0.973800  1.0  2.0502
  Zr  Zr20  1  0.264540  0.414300  0.024640  1.0  2.0063
  Zr  Zr21  1  0.790920  0.544260  0.380700  1.0  1.9202
  Zr  Zr22  1  0.275290  0.041770  0.379480  1.0  1.9352
  Zr  Zr23  1  0.754430  0.872210  0.026200  1.0  2.0398
  Zr  Zr24  1  0.360340  0.010100  0.524640  1.0  2.0048
  H  H25  1  0.027200  0.483000  0.733400  1.0  0.1457
  H  H26  1  0.910100  0.673100  0.020200  1.0  0.1389
  H  H27  1  0.339000  0.119000  0.634600  1.0  0.3897
  H  H28  1  0.881000  0.661000  0.365400  1.0  0.3916
  H  H29  1  0.555900  0.018700  0.096600  1.0  0.3379
  H  H30  1  0.726000  0.268000  0.231400  1.0  0.1364
  H  H31  1  0.244600  0.286600  0.268600  1.0  0.1406
  H  H32  1  0.981300  0.444100  0.903400  1.0  0.3369
  H  H33  1  0.265600  0.545600  0.134600  1.0  0.3875
  H  H34  1  0.169500  0.761100  0.225200  1.0  0.1379
  H  H35  1  0.739700  0.467900  0.449200  1.0  0.3706
  H  H36  1  0.378300  0.945100  0.402800  1.0  0.3469
  H  H37  1  0.731300  0.959500  0.949200  1.0  0.3666
  H  H38  1  0.513300  0.462100  0.227400  1.0  0.1515
  H  H39  1  0.040500  0.268700  0.050800  1.0  0.3688
  H  H40  1  0.732000  0.274000  0.768600  1.0  0.1377
  H  H41  1  0.326900  0.089900  0.979800  1.0  0.1379
  H  H42  1  0.725500  0.792300  0.097200  1.0  0.3432
  H  H43  1  0.532100  0.260300  0.550800  1.0  0.3687
  H  H44  1  0.214100  0.305700  0.725200  1.0  0.1365
  H  H45  1  0.827900  0.790700  0.596600  1.0  0.3379
  H  H46  1  0.515300  0.964100  0.727400  1.0  0.153
  H  H47  1  0.713400  0.755400  0.731400  1.0  0.1365
  H  H48  1  0.238900  0.830500  0.774800  1.0  0.1372
  H  H49  1  0.097100  0.360100  0.520200  1.0  0.1395
  H  H50  1  0.209300  0.172100  0.403400  1.0  0.3367
  H  H51  1  0.054900  0.621700  0.597200  1.0  0.3431
  H  H52  1  0.639900  0.902900  0.479800  1.0  0.1389
  H  H53  1  0.537900  0.486700  0.772600  1.0  0.1513
  H  H54  1  0.207700  0.274500  0.902800  1.0  0.3453
  H  H55  1  0.517000  0.972800  0.266600  1.0  0.1443
  H  H56  1  0.454400  0.734400  0.865400  1.0  0.3882
  H  H57  1  0.043800  0.999600  0.766600  1.0  0.1449
  H  H58  1  0.000400  0.956200  0.233400  1.0  0.1449
  H  H59  1  0.035900  0.484700  0.272600  1.0  0.1504
  H  H60  1  0.694300  0.785900  0.274800  1.0  0.1401
  C  C61  1  0.637440  0.708440  0.169280  1.0  -0.0221
  C  C62  1  0.546500  0.884500  0.503800  1.0  0.0091
  C  C63  1  0.262200  0.159200  0.310600  1.0  0.7522
  C  C64  1  0.230300  0.233900  0.235600  1.0  -0.0548
  C  C65  1  0.907300  0.513100  0.312200  1.0  0.7332
  C  C66  1  0.115500  0.453500  0.496200  1.0  0.0084
  C  C67  1  0.077100  0.517900  0.876600  1.0  0.7581
  C  C68  1  0.612100  0.872700  0.492200  1.0  -0.0896
  C  C69  1  0.869900  0.630500  0.007800  1.0  -0.0876
  C  C70  1  0.266710  0.322910  0.759220  1.0  -0.0485
  C  C71  1  0.369500  0.130100  0.992200  1.0  -0.0857
  C  C72  1  0.623200  0.191800  0.624000  1.0  0.739
  C  C73  1  0.218160  0.789160  0.330720  1.0  -0.0207
  C  C74  1  0.108700  0.049500  0.376600  1.0  0.7605
  C  C75  1  0.524200  0.505600  0.738800  1.0  -0.0946
  C  C76  1  0.830100  0.932500  0.190600  1.0  0.7467
  C  C77  1  0.464500  0.961700  0.234000  1.0  -0.0708
  C  C78  1  0.744700  0.248300  0.264400  1.0  -0.0575
  C  C79  1  0.417900  0.473300  0.252200  1.0  0.1275
  C  C80  1  0.792700  0.630700  0.996200  1.0  0.0091
  C  C81  1  0.749200  0.817800  0.876000  1.0  0.7406
  C  C82  1  0.127300  0.387900  0.507800  1.0  -0.0898
  C  C83  1  0.486900  0.092700  0.687800  1.0  0.7337
  C  C84  1  0.901400  0.298400  0.810600  1.0  0.7539
  C  C85  1  0.210840  0.781840  0.669280  1.0  -0.0228
  C  C86  1  0.939200  0.515800  0.000200  1.0  0.7466
  C  C87  1  0.600300  0.002100  0.873400  1.0  0.7339
  C  C88  1  0.627700  0.808900  0.502200  1.0  0.0497
  C  C89  1  0.621300  0.523100  0.373400  1.0  0.732
  C  C90  1  0.250600  0.380800  0.873800  1.0  0.8001
  C  C91  1  0.343300  0.274700  0.687200  1.0  0.7491
  C  C92  1  0.235400  0.169000  0.247600  1.0  0.0395
  C  C93  1  0.336460  0.816060  0.752520  1.0  0.0251
  C  C94  1  0.997900  0.399700  0.126600  1.0  0.7338
  C  C95  1  0.619200  0.749400  0.126200  1.0  0.7985
  C  C96  1  0.950500  0.891300  0.623400  1.0  0.7589
  C  C97  1  0.766100  0.769700  0.764400  1.0  -0.0572
  C  C98  1  0.748300  0.691700  0.997600  1.0  0.7306
  C  C99  1  0.126800  0.757000  0.626200  1.0  0.7996
  C  C100  1  0.535400  0.016800  0.761200  1.0  -0.0929
  C  C101  1  0.308300  0.251700  0.002400  1.0  0.732
  C  C102  1  0.389500  0.991900  0.309400  1.0  0.7466
  C  C103  1  0.243000  0.873200  0.373800  1.0  0.7986
  C  C104  1  0.535600  0.502600  0.329200  1.0  0.0501
  C  C105  1  0.983200  0.464600  0.238800  1.0  -0.0919
  C  C106  1  0.008100  0.610500  0.690600  1.0  0.747
  C  C107  1  0.034300  0.600700  0.755400  1.0  0.0514
  C  C108  1  0.055900  0.499300  0.497600  1.0  0.7312
  C  C109  1  0.476900  0.378700  0.626600  1.0  0.7326
  C  C110  1  0.751700  0.255300  0.735600  1.0  -0.0592
  C  C111  1  0.067500  0.169900  0.809400  1.0  0.7445
  C  C112  1  0.028900  0.095300  0.744600  1.0  0.0544
  C  C113  1  0.038300  0.535500  0.766000  1.0  -0.0702
  C  C114  1  0.443300  0.124500  0.002200  1.0  0.0507
  C  C115  1  0.677090  0.733290  0.240780  1.0  -0.0477
  C  C116  1  0.497400  0.464400  0.670800  1.0  0.0509
  C  C117  1  0.494400  0.475800  0.261200  1.0  -0.0928
  C  C118  1  0.500700  0.944100  0.502400  1.0  0.7308
  C  C119  1  0.369300  0.207300  0.003800  1.0  0.0077
  C  C120  1  0.784500  0.291500  0.334200  1.0  0.0479
  C  C121  1  0.737800  0.171400  0.252400  1.0  0.0402
  C  C122  1  0.191100  0.372300  0.497800  1.0  0.0504
  C  C123  1  0.828600  0.262200  0.747600  1.0  0.0401
  C  C124  1  0.182200  0.250800  0.124000  1.0  0.7368
  C  C125  1  0.980500  0.977700  0.266000  1.0  -0.0723
  C  C126  1  0.549100  0.654900  0.812200  1.0  0.733
  C  C127  1  0.689000  0.765600  0.499800  1.0  0.7469
  C  C128  1  0.186310  0.742510  0.259220  1.0  -0.0496
  C  C129  1  0.904700  0.971100  0.255400  1.0  0.0525
  C  C130  1  0.725300  0.656700  0.312800  1.0  0.7494
  C  C131  1  0.406100  0.837500  0.812800  1.0  0.7514
  C  C132  1  0.840800  0.737800  0.689400  1.0  0.7511
  C  C133  1  0.701600  0.098600  0.189400  1.0  0.7529
  C  C134  1  0.976900  0.977900  0.664400  1.0  0.0775
  C  C135  1  0.875500  0.556700  0.997800  1.0  0.0492
  C  C136  1  0.484200  0.060800  0.999800  1.0  0.7471
  C  C137  1  0.399300  0.965700  0.244600  1.0  0.0525
  C  C138  1  0.200300  0.207300  0.165800  1.0  0.045
  C  C139  1  0.686460  0.666060  0.252520  1.0  0.0249
  C  C140  1  0.482100  0.922900  0.123400  1.0  0.7598
  C  C141  1  0.162500  0.593900  0.187200  1.0  0.749
  C  C142  1  0.831000  0.764600  0.752400  1.0  0.0385
  C  C143  1  0.526700  0.582100  0.747800  1.0  0.1285
  C  C144  1  0.792700  0.799700  0.834200  1.0  0.0455
  C  C145  1  0.956400  0.423400  0.170800  1.0  0.0487
  C  C146  1  0.234400  0.311000  0.500200  1.0  0.7475
  C  C147  1  0.915700  0.471100  0.247800  1.0  0.1277
  C  C148  1  0.808200  0.376800  0.376000  1.0  0.7368
  C  C149  1  0.257490  0.813690  0.740780  1.0  -0.0507
  C  C150  1  0.576600  0.043600  0.829200  1.0  0.0493
  C  C151  1  0.022300  0.019500  0.734000  1.0  -0.0722
  C  C152  1  0.708500  0.215500  0.665800  1.0  0.0467
  C  C153  1  0.436500  0.937500  0.164400  1.0  0.0755
  C  C154  1  0.528900  0.084300  0.752200  1.0  0.1267
  C  C155  1  0.345100  0.450900  0.187800  1.0  0.7362
  C  C156  1  0.022100  0.023100  0.335600  1.0  0.0727
  C  C157  1  0.333940  0.313540  0.747480  1.0  0.0232
  C  C158  1  0.291560  0.362560  0.830720  1.0  -0.0232
  C  C159  1  0.183940  0.663540  0.247480  1.0  0.0265
  C  C160  1  0.062500  0.563500  0.835600  1.0  0.0746
  N  N161  1  0.400460  0.347460  0.811720  1.0  -0.2503
  N  N162  1  0.895000  0.794000  0.815000  1.0  -0.1819
  N  N163  1  0.486600  0.194600  0.018400  1.0  -0.1913
  N  N164  1  0.972900  0.040900  0.363000  1.0  -0.1262
  N  N165  1  0.900700  0.009900  0.314400  1.0  -0.1547
  N  N166  1  0.412900  0.495900  0.310200  1.0  -0.2806
  N  N167  1  0.173100  0.476700  0.480800  1.0  -0.2373
  N  N168  1  0.054500  0.663700  0.814400  1.0  -0.1608
  N  N169  1  0.959100  0.027100  0.637000  1.0  -0.1258
  N  N170  1  0.206000  0.105000  0.185000  1.0  -0.1757
  N  N171  1  0.622310  0.625710  0.136820  1.0  -0.2334
  N  N172  1  0.359900  0.927900  0.137000  1.0  -0.127
  N  N173  1  0.805400  0.513400  0.981600  1.0  -0.1856
  N  N174  1  0.072100  0.640100  0.863000  1.0  -0.1271
  N  N175  1  0.592500  0.120900  0.856400  1.0  -0.1587
  N  N176  1  0.754100  0.557700  0.980800  1.0  -0.2402
  N  N177  1  0.442300  0.245900  0.019200  1.0  -0.2392
  N  N178  1  0.652540  0.599540  0.188280  1.0  -0.2428
  N  N179  1  0.184600  0.127600  0.134800  1.0  -0.2515
  N  N180  1  0.799800  0.242800  0.365200  1.0  -0.2459
  N  N181  1  0.504100  0.587100  0.689800  1.0  -0.2808
  N  N182  1  0.235490  0.738890  0.363180  1.0  -0.224
  N  N183  1  0.261110  0.764510  0.636820  1.0  -0.2305
  N  N184  1  0.485500  0.513900  0.356400  1.0  -0.1561
  N  N185  1  0.573800  0.781800  0.518400  1.0  -0.18
  N  N186  1  0.214260  0.661260  0.311720  1.0  -0.2371
  N  N187  1  0.757200  0.200200  0.634800  1.0  -0.247
  N  N188  1  0.852700  0.435700  0.189800  1.0  -0.2861
  N  N189  1  0.374290  0.377690  0.863180  1.0  -0.2311
  N  N190  1  0.990100  0.099300  0.685600  1.0  -0.1617
  N  N191  1  0.336300  0.945500  0.185600  1.0  -0.1588
  N  N192  1  0.486100  0.514500  0.643600  1.0  -0.154
  N  N193  1  0.830000  0.229000  0.685000  1.0  -0.1749
  N  N194  1  0.564300  0.147300  0.810200  1.0  -0.2839
  N  N195  1  0.771000  0.170000  0.315000  1.0  -0.1712
  N  N196  1  0.338740  0.785740  0.688280  1.0  -0.2417
  N  N197  1  0.523300  0.826900  0.519200  1.0  -0.2426
  N  N198  1  0.218200  0.426200  0.481600  1.0  -0.1871
  N  N199  1  0.872400  0.815400  0.865200  1.0  -0.253
  N  N200  1  0.879100  0.407500  0.143600  1.0  -0.1606
  O  O201  1  0.183530  0.306530  0.931460  1.0  -0.8916
  O  O202  1  0.279240  0.895240  0.436880  1.0  -0.6309
  O  O203  1  0.177080  0.364480  0.842760  1.0  -0.6348
  O  O204  1  0.898220  0.551420  0.449840  1.0  -0.8355
  O  O205  1  0.443660  0.905460  0.061120  1.0  -0.6598
  O  O206  1  0.956520  0.376520  0.064640  1.0  -0.6411
  O  O207  1  0.305280  0.220080  0.364760  1.0  -0.6929
  O  O208  1  0.776500  0.416700  0.345000  1.0  -0.6081
  O  O209  1  0.094540  0.556340  0.938880  1.0  -0.6617
  O  O210  1  0.023030  0.426630  0.931860  1.0  -0.8901
  O  O211  1  0.198380  0.351580  0.050160  1.0  -0.8344
  O  O212  1  0.282130  0.450930  0.194860  1.0  -0.5986
  O  O213  1  0.778600  0.641000  0.449200  1.0  -0.8082
  O  O214  1  0.438120  0.358120  0.564640  1.0  -0.6406
  O  O215  1  0.767090  0.932490  0.196580  1.0  -0.6031
  O  O216  1  0.563200  0.648800  0.866400  1.0  -0.6666
  O  O217  1  0.841170  0.744770  0.568140  1.0  -0.8881
  O  O218  1  0.359000  0.221400  0.550800  1.0  -0.8107
  O  O219  1  0.623480  0.043480  0.935360  1.0  -0.6397
  O  O220  1  0.224770  0.498970  0.094740  1.0  -0.9687
  O  O221  1  0.173780  0.532780  0.194360  1.0  -0.6309
  O  O222  1  0.071840  0.446840  0.844880  1.0  -0.6077
  O  O223  1  0.241180  0.091380  0.304360  1.0  -0.6367
  O  O224  1  0.084320  0.771720  0.657240  1.0  -0.6335
  O  O225  1  0.275090  0.051890  0.470180  1.0  -0.7868
  O  O226  1  0.210800  0.260400  0.516600  1.0  -0.6298
  O  O227  1  0.592360  0.708360  0.063120  1.0  -0.6326
  O  O228  1  0.079400  0.441800  0.050800  1.0  -0.8096
  O  O229  1  0.345770  0.119970  0.594740  1.0  -0.9651
  O  O230  1  0.789700  0.759100  0.015200  1.0  -0.663
  O  O231  1  0.703820  0.952220  0.075640  1.0  -0.7737
  O  O232  1  0.374930  0.997930  0.431460  1.0  -0.893
  O  O233  1  0.754230  0.718830  0.367260  1.0  -0.6989
  O  O234  1  0.148040  0.023040  0.344880  1.0  -0.6066
  O  O235  1  0.002070  0.625070  0.568540  1.0  -0.8934
  O  O236  1  0.641880  0.561880  0.435360  1.0  -0.6405
  O  O237  1  0.524500  0.993900  0.484800  1.0  -0.6629
  O  O238  1  0.136970  0.601570  0.132740  1.0  -0.6953
  O  O239  1  0.452140  0.020740  0.364280  1.0  -0.6784
  O  O240  1  0.919110  0.442110  0.981620  1.0  -0.6225
  O  O241  1  0.729420  0.588420  0.305640  1.0  -0.6339
  O  O242  1  0.573370  0.976970  0.068140  1.0  -0.8888
  O  O243  1  0.446800  0.032400  0.633600  1.0  -0.6651
  O  O244  1  0.467220  0.826220  0.805640  1.0  -0.6317
  O  O245  1  0.501030  0.775230  0.905260  1.0  -0.9706
  O  O246  1  0.648420  0.801620  0.949840  1.0  -0.8345
  O  O247  1  0.698410  0.935810  0.965020  1.0  -0.9739
  O  O248  1  0.739600  0.789200  0.483400  1.0  -0.6322
  O  O249  1  0.676050  0.669250  0.982700  1.0  -0.6161
  O  O250  1  0.378180  0.126580  0.424360  1.0  -0.7704
  O  O251  1  0.549070  0.717870  0.805140  1.0  -0.5999
  O  O252  1  0.320510  0.985910  0.303420  1.0  -0.6049
  O  O253  1  0.168290  0.445090  0.970180  1.0  -0.7854
  O  O254  1  0.967600  0.553200  0.366400  1.0  -0.6696
  O  O255  1  0.351200  0.436800  0.133600  1.0  -0.6664
  O  O256  1  0.693470  0.816470  0.068540  1.0  -0.8923
  O  O257  1  0.398430  0.863030  0.867260  1.0  -0.6987
  O  O258  1  0.483390  0.220790  0.534980  1.0  -0.9711
  O  O259  1  0.690520  0.105320  0.135240  1.0  -0.6948
  O  O260  1  0.873420  0.621820  0.575640  1.0  -0.7698
  O  O261  1  0.554910  0.831710  0.029820  1.0  -0.787
  O  O262  1  0.837860  0.906460  0.135720  1.0  -0.6766
  O  O263  1  0.047780  0.296180  0.924360  1.0  -0.7761
  O  O264  1  0.597520  0.144320  0.562040  1.0  -0.6458
  O  O265  1  0.071390  0.407590  0.156980  1.0  -0.5898
  O  O266  1  0.894680  0.309480  0.864760  1.0  -0.6932
  O  O267  1  0.499390  0.335590  0.656980  1.0  -0.5873
  O  O268  1  0.837270  0.506070  0.305140  1.0  -0.601
  O  O269  1  0.443350  0.936550  0.517300  1.0  -0.6154
  O  O270  1  0.132540  0.094340  0.438880  1.0  -0.6641
  O  O271  1  0.635520  0.822920  0.157240  1.0  -0.6362
  O  O272  1  0.240900  0.210300  0.984800  1.0  -0.6643
  O  O273  1  0.228280  0.915680  0.342760  1.0  -0.6322
  O  O274  1  0.908620  0.758820  0.695640  1.0  -0.6362
  O  O275  1  0.948110  0.724910  0.529820  1.0  -0.7855
  O  O276  1  0.093540  0.162140  0.864280  1.0  -0.676
  O  O277  1  0.006200  0.555800  0.016600  1.0  -0.6303
  O  O278  1  0.067510  0.232910  0.803420  1.0  -0.604
  O  O279  1  0.687490  0.710490  0.518380  1.0  -0.6227
  O  O280  1  0.557890  0.080890  0.018380  1.0  -0.6232
  O  O281  1  0.779920  0.694720  0.635240  1.0  -0.6941
  O  O282  1  0.686820  0.037020  0.195640  1.0  -0.6374
  O  O283  1  0.779210  0.516610  0.465020  1.0  -0.9696
  O  O284  1  0.411580  0.270580  0.694360  1.0  -0.633
  O  O285  1  0.678300  0.818500  0.845000  1.0  -0.6106
  O  O286  1  0.006100  0.475500  0.515200  1.0  -0.6636
  O  O287  1  0.664410  0.500610  0.343020  1.0  -0.5903
  O  O288  1  0.880030  0.654230  0.405260  1.0  -0.972
  O  O289  1  0.330750  0.323950  0.017300  1.0  -0.6113
  O  O290  1  0.553160  0.928160  0.155120  1.0  -0.607
  O  O291  1  0.281170  0.245770  0.632740  1.0  -0.6991
  O  O292  1  0.785480  0.832280  0.937960  1.0  -0.6433
  O  O293  1  0.448580  0.101780  0.550160  1.0  -0.8346
  O  O294  1  0.167720  0.214520  0.062040  1.0  -0.6438
  O  O295  1  0.962980  0.313180  0.804360  1.0  -0.6371
  O  O296  1  0.976960  0.851960  0.655120  1.0  -0.6045
  O  O297  1  0.905660  0.867460  0.561120  1.0  -0.6607
  O  O298  1  0.444200  0.993800  0.983400  1.0  -0.6321
  O  O299  1  0.181500  0.321700  0.155000  1.0  -0.6112
  O  O300  1  0.289510  0.312510  0.481620  1.0  -0.6222
  O  O301  1  0.493930  0.162730  0.694860  1.0  -0.5982
  O  O302  1  0.064190  0.301590  0.034980  1.0  -0.9681
  O  O303  1  0.979260  0.547860  0.635720  1.0  -0.6744
  O  O304  1  0.291640  0.407640  0.936880  1.0  -0.6332
  O  O305  1  0.063450  0.556650  0.482700  1.0  -0.6152
  O  O306  1  0.255230  0.158830  0.431860  1.0  -0.8899
  O  O307  1  0.583300  0.223500  0.655000  1.0  -0.6096
  O  O308  1  0.014090  0.679490  0.696580  1.0  -0.6031
  O  O309  1  0.558200  0.920600  0.949200  1.0  -0.8093
  O  O310  1  0.855680  0.402480  0.437960  1.0  -0.6428
  O  O311  1  0.592410  0.928610  0.843020  1.0  -0.5912
  O  O312  1  0.104760  0.720760  0.563120  1.0  -0.6264
