# generated using pymatgen
data_Zr3H22C29O16
_symmetry_space_group_name_H-M   'P 1'
_cell_length_a   25.91460000
_cell_length_b   22.80970000
_cell_length_c   19.70650000
_cell_angle_alpha   90.00000000
_cell_angle_beta   90.00000000
_cell_angle_gamma   90.00000000
_symmetry_Int_Tables_number   1
_chemical_formula_structural   Zr3H22C29O16
_chemical_formula_sum   'Zr24 H176 C232 O128'
_cell_volume   11648.59593455
_cell_formula_units_Z   8
loop_
 _symmetry_equiv_pos_site_id
 _symmetry_equiv_pos_as_xyz
  1  'x, y, z'
loop_
 _atom_site_type_symbol
 _atom_site_label
 _atom_site_symmetry_multiplicity
 _atom_site_fract_x
 _atom_site_fract_y
 _atom_site_fract_z
 _atom_site_occupancy
 _atom_site_charge
  Zr  Zr1  1  0.998330  0.072760  0.081630  1.0  1.8085
  Zr  Zr2  1  0.998320  0.927160  0.081670  1.0  1.788
  Zr  Zr3  1  0.998280  0.072590  0.910250  1.0  1.7849
  Zr  Zr4  1  0.998290  0.927370  0.910220  1.0  1.789
  Zr  Zr5  1  0.077200  0.000030  0.996120  1.0  1.7617
  Zr  Zr6  1  0.919680  0.000000  0.996080  1.0  1.7688
  Zr  Zr7  1  0.000750  0.573850  0.582420  1.0  1.8092
  Zr  Zr8  1  0.000800  0.430020  0.582550  1.0  1.813
  Zr  Zr9  1  0.000850  0.573770  0.410010  1.0  1.8083
  Zr  Zr10  1  0.000890  0.429950  0.410040  1.0  1.8097
  Zr  Zr11  1  0.079330  0.501820  0.496350  1.0  1.7665
  Zr  Zr12  1  0.922480  0.501770  0.496180  1.0  1.7608
  Zr  Zr13  1  0.436960  0.999360  0.410550  1.0  1.817
  Zr  Zr14  1  0.562640  0.999280  0.411180  1.0  1.8264
  Zr  Zr15  1  0.436540  0.999420  0.583020  1.0  1.8136
  Zr  Zr16  1  0.562210  0.999370  0.583580  1.0  1.8118
  Zr  Zr17  1  0.499610  0.909380  0.497090  1.0  1.7696
  Zr  Zr18  1  0.499630  0.089120  0.497000  1.0  1.706
  Zr  Zr19  1  0.498760  0.570170  0.083460  1.0  1.804
  Zr  Zr20  1  0.498750  0.425180  0.083460  1.0  1.8146
  Zr  Zr21  1  0.498770  0.570150  0.910810  1.0  1.8029
  Zr  Zr22  1  0.498750  0.425170  0.910840  1.0  1.8105
  Zr  Zr23  1  0.576400  0.497620  0.997140  1.0  1.7608
  Zr  Zr24  1  0.421370  0.497620  0.997140  1.0  1.759
  H  H25  1  0.168770  0.273700  0.172790  1.0  0.1367
  H  H26  1  0.112430  0.208100  0.111120  1.0  0.1275
  H  H27  1  0.209990  0.061640  0.161720  1.0  0.1404
  H  H28  1  0.267900  0.127920  0.224140  1.0  0.1305
  H  H29  1  0.228630  0.365470  0.197300  1.0  0.1225
  H  H30  1  0.285450  0.428620  0.131490  1.0  0.1345
  H  H31  1  0.384510  0.280980  0.090260  1.0  0.1344
  H  H32  1  0.328990  0.218040  0.158150  1.0  0.1426
  H  H33  1  0.359220  0.286080  0.270570  1.0  0.1315
  H  H34  1  0.424730  0.235780  0.337380  1.0  0.1431
  H  H35  1  0.308040  0.119450  0.415500  1.0  0.1298
  H  H36  1  0.243080  0.166130  0.344710  1.0  0.1355
  H  H37  1  0.157660  0.228340  0.305420  1.0  0.1302
  H  H38  1  0.102000  0.294440  0.365370  1.0  0.1329
  H  H39  1  0.223170  0.423850  0.375080  1.0  0.1302
  H  H40  1  0.280700  0.355820  0.314750  1.0  0.1366
  H  H41  1  0.671420  0.773580  0.151660  1.0  0.1449
  H  H42  1  0.615430  0.706950  0.089580  1.0  0.1347
  H  H43  1  0.711190  0.560780  0.147240  1.0  0.1547
  H  H44  1  0.768840  0.627480  0.207380  1.0  0.1303
  H  H45  1  0.728760  0.868600  0.217860  1.0  0.1324
  H  H46  1  0.786080  0.933940  0.153560  1.0  0.1449
  H  H47  1  0.883930  0.787140  0.105290  1.0  0.1292
  H  H48  1  0.828180  0.722350  0.169350  1.0  0.1352
  H  H49  1  0.841270  0.774310  0.299210  1.0  0.1357
  H  H50  1  0.898650  0.713160  0.363200  1.0  0.1323
  H  H51  1  0.778950  0.583290  0.387540  1.0  0.1287
  H  H52  1  0.719780  0.646370  0.323360  1.0  0.1361
  H  H53  1  0.638890  0.709790  0.268370  1.0  0.1279
  H  H54  1  0.571840  0.760880  0.331470  1.0  0.1364
  H  H55  1  0.685810  0.881900  0.406780  1.0  0.1314
  H  H56  1  0.752330  0.834580  0.339230  1.0  0.1346
  H  H57  1  0.640750  0.288760  0.717930  1.0  0.1289
  H  H58  1  0.575480  0.237330  0.652110  1.0  0.1408
  H  H59  1  0.691890  0.117550  0.580430  1.0  0.1296
  H  H60  1  0.756570  0.165450  0.650480  1.0  0.1348
  H  H61  1  0.720520  0.354570  0.668940  1.0  0.1321
  H  H62  1  0.779060  0.419090  0.605680  1.0  0.1337
  H  H63  1  0.899770  0.290050  0.627420  1.0  0.1377
  H  H64  1  0.843070  0.227620  0.690850  1.0  0.1335
  H  H65  1  0.829060  0.278200  0.821110  1.0  0.135
  H  H66  1  0.883910  0.214230  0.887490  1.0  0.1276
  H  H67  1  0.787380  0.066570  0.838050  1.0  0.1444
  H  H68  1  0.730840  0.131180  0.771580  1.0  0.133
  H  H69  1  0.671000  0.223750  0.834390  1.0  0.1354
  H  H70  1  0.614800  0.288470  0.898730  1.0  0.1305
  H  H71  1  0.711340  0.436100  0.848660  1.0  0.1368
  H  H72  1  0.769140  0.371240  0.786180  1.0  0.1291
  H  H73  1  0.159470  0.772740  0.691790  1.0  0.1308
  H  H74  1  0.103090  0.708430  0.630520  1.0  0.1331
  H  H75  1  0.223050  0.577810  0.617380  1.0  0.1301
  H  H76  1  0.281290  0.643940  0.679380  1.0  0.1382
  H  H77  1  0.246830  0.832590  0.652300  1.0  0.1362
  H  H78  1  0.313210  0.878960  0.583610  1.0  0.1292
  H  H79  1  0.428170  0.762380  0.665420  1.0  0.1411
  H  H80  1  0.361290  0.712080  0.729850  1.0  0.1326
  H  H81  1  0.328550  0.778680  0.842460  1.0  0.1335
  H  H82  1  0.383640  0.714230  0.909110  1.0  0.1312
  H  H83  1  0.286020  0.567150  0.860240  1.0  0.1291
  H  H84  1  0.229540  0.631720  0.795740  1.0  0.1327
  H  H85  1  0.170320  0.725140  0.824270  1.0  0.1366
  H  H86  1  0.113260  0.791060  0.884350  1.0  0.1302
  H  H87  1  0.210990  0.937380  0.833720  1.0  0.1417
  H  H88  1  0.269610  0.870820  0.772970  1.0  0.1321
  H  H89  1  0.267870  0.128440  0.768950  1.0  0.1309
  H  H90  1  0.210070  0.062230  0.831590  1.0  0.135
  H  H91  1  0.113050  0.208890  0.883270  1.0  0.1294
  H  H92  1  0.169210  0.274410  0.821200  1.0  0.1355
  H  H93  1  0.329030  0.218460  0.835060  1.0  0.136
  H  H94  1  0.384410  0.281140  0.903450  1.0  0.135
  H  H95  1  0.285690  0.429060  0.862130  1.0  0.1279
  H  H96  1  0.228990  0.366180  0.795840  1.0  0.1312
  H  H97  1  0.280630  0.356220  0.678260  1.0  0.1359
  H  H98  1  0.223050  0.424060  0.617700  1.0  0.1305
  H  H99  1  0.101810  0.294790  0.628460  1.0  0.1281
  H  H100  1  0.157500  0.228900  0.688600  1.0  0.1282
  H  H101  1  0.242740  0.166880  0.648540  1.0  0.1357
  H  H102  1  0.307450  0.119980  0.577570  1.0  0.1263
  H  H103  1  0.424610  0.235750  0.655600  1.0  0.1434
  H  H104  1  0.359360  0.286260  0.722630  1.0  0.1302
  H  H105  1  0.768490  0.626610  0.785660  1.0  0.1316
  H  H106  1  0.710900  0.560180  0.846300  1.0  0.1382
  H  H107  1  0.615710  0.706730  0.904320  1.0  0.1321
  H  H108  1  0.671600  0.773090  0.841740  1.0  0.1342
  H  H109  1  0.828110  0.721160  0.823810  1.0  0.1355
  H  H110  1  0.883870  0.785530  0.888370  1.0  0.1285
  H  H111  1  0.786410  0.932790  0.840490  1.0  0.1431
  H  H112  1  0.729050  0.867840  0.775760  1.0  0.1315
  H  H113  1  0.752360  0.833980  0.654230  1.0  0.1359
  H  H114  1  0.685920  0.881330  0.586600  1.0  0.1311
  H  H115  1  0.571800  0.760480  0.661920  1.0  0.1417
  H  H116  1  0.638790  0.709310  0.725030  1.0  0.1283
  H  H117  1  0.719730  0.645650  0.669890  1.0  0.1357
  H  H118  1  0.778860  0.582810  0.605310  1.0  0.1316
  H  H119  1  0.898380  0.712930  0.629430  1.0  0.1327
  H  H120  1  0.841070  0.773790  0.693890  1.0  0.1336
  H  H121  1  0.756210  0.164960  0.343130  1.0  0.1353
  H  H122  1  0.691250  0.117350  0.413050  1.0  0.1307
  H  H123  1  0.575270  0.237350  0.340750  1.0  0.137
  H  H124  1  0.640790  0.288520  0.275070  1.0  0.129
  H  H125  1  0.843220  0.227090  0.302260  1.0  0.1322
  H  H126  1  0.900010  0.289790  0.365210  1.0  0.1333
  H  H127  1  0.779120  0.418580  0.387240  1.0  0.1336
  H  H128  1  0.720540  0.353850  0.324370  1.0  0.1323
  H  H129  1  0.769460  0.370470  0.206990  1.0  0.1304
  H  H130  1  0.711560  0.435620  0.145060  1.0  0.1492
  H  H131  1  0.614660  0.288310  0.094940  1.0  0.1277
  H  H132  1  0.670980  0.223290  0.158720  1.0  0.1419
  H  H133  1  0.730540  0.130410  0.222200  1.0  0.1311
  H  H134  1  0.787010  0.065380  0.156100  1.0  0.146
  H  H135  1  0.883920  0.212570  0.106150  1.0  0.1275
  H  H136  1  0.829120  0.276970  0.172060  1.0  0.1357
  H  H137  1  0.281400  0.644400  0.313760  1.0  0.137
  H  H138  1  0.223200  0.578020  0.375460  1.0  0.129
  H  H139  1  0.103210  0.708650  0.363040  1.0  0.1336
  H  H140  1  0.159560  0.773220  0.302050  1.0  0.1354
  H  H141  1  0.361180  0.712330  0.263500  1.0  0.1318
  H  H142  1  0.428230  0.762390  0.327870  1.0  0.138
  H  H143  1  0.313650  0.879430  0.409690  1.0  0.1287
  H  H144  1  0.247110  0.833320  0.341020  1.0  0.135
  H  H145  1  0.269570  0.871400  0.220280  1.0  0.1304
  H  H146  1  0.210870  0.937970  0.159640  1.0  0.1363
  H  H147  1  0.112850  0.791730  0.109720  1.0  0.1263
  H  H148  1  0.170040  0.725780  0.169560  1.0  0.1335
  H  H149  1  0.229230  0.632440  0.197450  1.0  0.1328
  H  H150  1  0.285790  0.567630  0.133370  1.0  0.1348
  H  H151  1  0.383800  0.714420  0.084670  1.0  0.1313
  H  H152  1  0.328610  0.779100  0.150880  1.0  0.1425
  H  H153  1  0.928320  0.999960  0.133380  1.0  0.3658
  H  H154  1  0.065170  0.880610  0.996470  1.0  0.2307
  H  H155  1  0.927430  0.999930  0.859170  1.0  0.3575
  H  H156  1  0.065210  0.119380  0.996560  1.0  0.2355
  H  H157  1  0.979760  0.818860  0.050780  1.0  0.3589
  H  H158  1  0.005990  0.818060  0.941980  1.0  0.4253
  H  H159  1  0.027500  0.946630  0.786030  1.0  0.4534
  H  H160  1  0.027350  0.052750  0.786080  1.0  0.4552
  H  H161  1  0.005510  0.181800  0.942680  1.0  0.4279
  H  H162  1  0.979930  0.181230  0.051550  1.0  0.3617
  H  H163  1  0.995420  0.103700  0.206980  1.0  0.3407
  H  H164  1  0.024660  0.953350  0.205140  1.0  0.4582
  H  H165  1  0.928880  0.501870  0.632900  1.0  0.3612
  H  H166  1  0.065180  0.381500  0.496420  1.0  0.3205
  H  H167  1  0.928950  0.501770  0.359510  1.0  0.3676
  H  H168  1  0.065310  0.622150  0.496320  1.0  0.3082
  H  H169  1  0.998750  0.320060  0.553120  1.0  0.4299
  H  H170  1  0.999570  0.319960  0.439330  1.0  0.4178
  H  H171  1  0.029790  0.447680  0.285600  1.0  0.4441
  H  H172  1  0.029760  0.556250  0.285560  1.0  0.4524
  H  H173  1  0.999700  0.683800  0.439060  1.0  0.425
  H  H174  1  0.997830  0.683720  0.552720  1.0  0.4239
  H  H175  1  0.029480  0.556130  0.706930  1.0  0.4541
  H  H176  1  0.029530  0.447930  0.707030  1.0  0.4494
  H  H177  1  0.500010  0.081460  0.360220  1.0  0.3729
  H  H178  1  0.605400  0.926660  0.497070  1.0  0.2816
  H  H179  1  0.499320  0.081920  0.633520  1.0  0.3659
  H  H180  1  0.393810  0.926740  0.496590  1.0  0.278
  H  H181  1  0.659020  0.003860  0.443310  1.0  0.4422
  H  H182  1  0.659500  0.996090  0.556650  1.0  0.4198
  H  H183  1  0.547260  0.966950  0.708270  1.0  0.4546
  H  H184  1  0.451280  0.967100  0.707810  1.0  0.4516
  H  H185  1  0.339600  0.998730  0.553830  1.0  0.4189
  H  H186  1  0.340060  0.000250  0.439910  1.0  0.4512
  H  H187  1  0.454970  0.966950  0.286520  1.0  0.4602
  H  H188  1  0.587360  0.005130  0.285180  1.0  0.3928
  H  H189  1  0.427020  0.497710  0.133850  1.0  0.3531
  H  H190  1  0.563420  0.377120  0.997100  1.0  0.2534
  H  H191  1  0.427070  0.497690  0.860400  1.0  0.3582
  H  H192  1  0.563360  0.618190  0.997070  1.0  0.2472
  H  H193  1  0.499570  0.315060  0.055370  1.0  0.4376
  H  H194  1  0.499170  0.315110  0.939270  1.0  0.4378
  H  H195  1  0.527320  0.442530  0.786500  1.0  0.4523
  H  H196  1  0.527380  0.553170  0.786450  1.0  0.4519
  H  H197  1  0.499420  0.680230  0.939050  1.0  0.4394
  H  H198  1  0.499770  0.680300  0.055460  1.0  0.4386
  H  H199  1  0.527420  0.553350  0.207800  1.0  0.4664
  H  H200  1  0.527370  0.442400  0.207790  1.0  0.4518
  C  C201  1  0.221350  0.206380  0.208410  1.0  0.0421
  C  C202  1  0.178370  0.227510  0.171870  1.0  -0.1294
  C  C203  1  0.146130  0.189890  0.135950  1.0  -0.0836
  C  C204  1  0.156190  0.129580  0.132740  1.0  -0.0662
  C  C205  1  0.201000  0.107960  0.164150  1.0  -0.074
  C  C206  1  0.233500  0.146030  0.201330  1.0  -0.1263
  C  C207  1  0.254630  0.251810  0.248250  1.0  -0.0401
  C  C208  1  0.279000  0.288700  0.191510  1.0  0.027
  C  C209  1  0.296480  0.225200  0.295070  1.0  0.0244
  C  C210  1  0.221780  0.289530  0.296980  1.0  0.013
  C  C211  1  0.263300  0.346590  0.176050  1.0  -0.1203
  C  C212  1  0.294820  0.382550  0.136780  1.0  -0.0904
  C  C213  1  0.340710  0.359970  0.110470  1.0  -0.0032
  C  C214  1  0.350450  0.299650  0.113750  1.0  -0.1027
  C  C215  1  0.318840  0.263850  0.152480  1.0  -0.0189
  C  C216  1  0.347480  0.248120  0.299510  1.0  -0.1163
  C  C217  1  0.385010  0.221200  0.340140  1.0  -0.0643
  C  C218  1  0.371600  0.173050  0.380000  1.0  -0.0204
  C  C219  1  0.319510  0.155900  0.383590  1.0  -0.0976
  C  C220  1  0.282490  0.181740  0.342050  1.0  -0.1155
  C  C221  1  0.172570  0.271280  0.317970  1.0  -0.1197
  C  C222  1  0.140630  0.309230  0.353250  1.0  -0.0924
  C  C223  1  0.157190  0.366040  0.370390  1.0  -0.0631
  C  C224  1  0.208790  0.381330  0.359590  1.0  -0.1054
  C  C225  1  0.241310  0.342530  0.324670  1.0  -0.064
  C  C226  1  0.720070  0.704750  0.192740  1.0  0.0271
  C  C227  1  0.680920  0.727340  0.150750  1.0  -0.013
  C  C228  1  0.648860  0.689420  0.115660  1.0  -0.0805
  C  C229  1  0.657510  0.628930  0.118740  1.0  -0.0064
  C  C230  1  0.702650  0.607260  0.148070  1.0  -0.0902
  C  C231  1  0.734660  0.645440  0.183860  1.0  -0.1081
  C  C232  1  0.743540  0.745450  0.246620  1.0  -0.0422
  C  C233  1  0.775530  0.790070  0.203690  1.0  0.051
  C  C234  1  0.777660  0.711880  0.297890  1.0  0.0214
  C  C235  1  0.700560  0.772720  0.291260  1.0  0.0406
  C  C236  1  0.763010  0.850150  0.195060  1.0  -0.1379
  C  C237  1  0.795150  0.887670  0.156670  1.0  -0.0691
  C  C238  1  0.839960  0.865800  0.125450  1.0  -0.0618
  C  C239  1  0.850170  0.805560  0.129770  1.0  -0.0827
  C  C240  1  0.818280  0.768430  0.167020  1.0  -0.1258
  C  C241  1  0.827000  0.732180  0.315940  1.0  -0.1192
  C  C242  1  0.859940  0.697190  0.353780  1.0  -0.0934
  C  C243  1  0.844310  0.641440  0.376250  1.0  -0.0823
  C  C244  1  0.792660  0.624910  0.368210  1.0  -0.0859
  C  C245  1  0.759160  0.660830  0.330970  1.0  -0.0678
  C  C246  1  0.649750  0.749010  0.295550  1.0  -0.1183
  C  C247  1  0.611260  0.776480  0.334100  1.0  -0.0866
  C  C248  1  0.623510  0.826000  0.372210  1.0  -0.0212
  C  C249  1  0.675250  0.844420  0.375950  1.0  -0.0969
  C  C250  1  0.713200  0.818070  0.336400  1.0  -0.1143
  C  C251  1  0.703270  0.226540  0.696870  1.0  0.0231
  C  C252  1  0.652470  0.249820  0.690780  1.0  -0.1155
  C  C253  1  0.615070  0.222170  0.650650  1.0  -0.0722
  C  C254  1  0.628410  0.172750  0.612940  1.0  -0.0223
  C  C255  1  0.680400  0.154930  0.610860  1.0  -0.1067
  C  C256  1  0.717270  0.181530  0.651930  1.0  -0.1153
  C  C257  1  0.745000  0.254260  0.743040  1.0  -0.0414
  C  C258  1  0.778970  0.289300  0.693060  1.0  0.0162
  C  C259  1  0.777150  0.209980  0.786140  1.0  0.051
  C  C260  1  0.720170  0.293680  0.797050  1.0  0.0258
  C  C261  1  0.760010  0.340660  0.661040  1.0  -0.0697
  C  C262  1  0.793120  0.377370  0.624270  1.0  -0.0868
  C  C263  1  0.844820  0.361380  0.615680  1.0  -0.0785
  C  C264  1  0.860970  0.305540  0.637270  1.0  -0.0938
  C  C265  1  0.828450  0.269780  0.674730  1.0  -0.1187
  C  C266  1  0.819310  0.232080  0.823600  1.0  -0.1141
  C  C267  1  0.850610  0.195450  0.862320  1.0  -0.0971
  C  C268  1  0.840470  0.135210  0.867150  1.0  -0.0646
  C  C269  1  0.796320  0.112870  0.834780  1.0  -0.0721
  C  C270  1  0.764700  0.149920  0.795070  1.0  -0.139
  C  C271  1  0.680520  0.269930  0.837290  1.0  -0.0891
  C  C272  1  0.648420  0.306750  0.873790  1.0  -0.0803
  C  C273  1  0.657380  0.367230  0.873730  1.0  -0.0109
  C  C274  1  0.702670  0.389710  0.845700  1.0  -0.096
  C  C275  1  0.734760  0.352660  0.808520  1.0  -0.1125
  C  C276  1  0.223030  0.710560  0.698890  1.0  0.013
  C  C277  1  0.173980  0.729840  0.678310  1.0  -0.1139
  C  C278  1  0.141600  0.692960  0.642190  1.0  -0.0922
  C  C279  1  0.157590  0.636300  0.623640  1.0  -0.0629
  C  C280  1  0.209090  0.620200  0.633950  1.0  -0.0883
  C  C281  1  0.242030  0.657910  0.669800  1.0  -0.066
  C  C282  1  0.256160  0.746780  0.748890  1.0  -0.0415
  C  C283  1  0.299060  0.773170  0.703480  1.0  0.0257
  C  C284  1  0.279410  0.708630  0.805370  1.0  0.0309
  C  C285  1  0.223100  0.792340  0.788850  1.0  0.045
  C  C286  1  0.286130  0.816810  0.656210  1.0  -0.1172
  C  C287  1  0.323990  0.842540  0.615970  1.0  -0.0878
  C  C288  1  0.375930  0.825170  0.621130  1.0  -0.0075
  C  C289  1  0.388540  0.777100  0.661510  1.0  -0.0865
  C  C290  1  0.350150  0.750180  0.700770  1.0  -0.1112
  C  C291  1  0.318540  0.732690  0.846310  1.0  -0.0831
  C  C292  1  0.349950  0.696030  0.884260  1.0  -0.0998
  C  C293  1  0.340590  0.635580  0.884910  1.0  -0.0023
  C  C294  1  0.295140  0.613420  0.856880  1.0  -0.0972
  C  C295  1  0.263840  0.650250  0.818350  1.0  -0.1133
  C  C296  1  0.179870  0.771350  0.825010  1.0  -0.1112
  C  C297  1  0.147160  0.809170  0.859880  1.0  -0.0921
  C  C298  1  0.157000  0.869540  0.862410  1.0  -0.0577
  C  C299  1  0.202130  0.891020  0.831660  1.0  -0.0777
  C  C300  1  0.235080  0.852760  0.795480  1.0  -0.1307
  C  C301  1  0.221520  0.206990  0.785130  1.0  0.0402
  C  C302  1  0.233600  0.146610  0.792040  1.0  -0.1309
  C  C303  1  0.201200  0.108580  0.829390  1.0  -0.0894
  C  C304  1  0.156570  0.130290  0.861170  1.0  -0.0609
  C  C305  1  0.146620  0.190630  0.858180  1.0  -0.0888
  C  C306  1  0.178750  0.228190  0.822030  1.0  -0.1153
  C  C307  1  0.254680  0.252370  0.745090  1.0  -0.0396
  C  C308  1  0.279190  0.289270  0.801700  1.0  0.0183
  C  C309  1  0.221710  0.290040  0.696480  1.0  0.013
  C  C310  1  0.296390  0.225680  0.698130  1.0  0.0235
  C  C311  1  0.318930  0.264280  0.840800  1.0  -0.0911
  C  C312  1  0.350450  0.299920  0.879840  1.0  -0.0983
  C  C313  1  0.340740  0.360240  0.883320  1.0  -0.0021
  C  C314  1  0.295010  0.382990  0.856760  1.0  -0.093
  C  C315  1  0.263570  0.347180  0.817190  1.0  -0.1206
  C  C316  1  0.241210  0.342940  0.668520  1.0  -0.0797
  C  C317  1  0.208670  0.381620  0.633470  1.0  -0.0866
  C  C318  1  0.157050  0.366310  0.622860  1.0  -0.0653
  C  C319  1  0.140460  0.309610  0.640400  1.0  -0.0888
  C  C320  1  0.172430  0.271770  0.675800  1.0  -0.1082
  C  C321  1  0.282200  0.182330  0.651120  1.0  -0.1163
  C  C322  1  0.319080  0.156370  0.609490  1.0  -0.1036
  C  C323  1  0.371230  0.173280  0.613020  1.0  -0.0066
  C  C324  1  0.384830  0.221360  0.652890  1.0  -0.0659
  C  C325  1  0.347450  0.248390  0.693640  1.0  -0.1155
  C  C326  1  0.719980  0.704060  0.800510  1.0  0.025
  C  C327  1  0.734440  0.644710  0.809350  1.0  -0.1084
  C  C328  1  0.702480  0.606690  0.845450  1.0  -0.0993
  C  C329  1  0.657530  0.628560  0.875070  1.0  -0.0103
  C  C330  1  0.649010  0.689060  0.878060  1.0  -0.0776
  C  C331  1  0.681000  0.726810  0.842660  1.0  -0.0842
  C  C332  1  0.743510  0.744730  0.746680  1.0  -0.0419
  C  C333  1  0.775610  0.789140  0.789720  1.0  0.053
  C  C334  1  0.700540  0.772150  0.702140  1.0  0.0401
  C  C335  1  0.777570  0.711210  0.695310  1.0  0.019
  C  C336  1  0.818300  0.767270  0.826350  1.0  -0.1152
  C  C337  1  0.850200  0.804150  0.863900  1.0  -0.0921
  C  C338  1  0.840110  0.864410  0.868490  1.0  -0.061
  C  C339  1  0.795390  0.886500  0.837220  1.0  -0.0701
  C  C340  1  0.763220  0.849220  0.798580  1.0  -0.1436
  C  C341  1  0.713220  0.817520  0.657030  1.0  -0.1166
  C  C342  1  0.675300  0.843880  0.617430  1.0  -0.092
  C  C343  1  0.623530  0.825530  0.621150  1.0  -0.0074
  C  C344  1  0.611240  0.776030  0.659280  1.0  -0.0796
  C  C345  1  0.649700  0.748520  0.697840  1.0  -0.1174
  C  C346  1  0.759070  0.660180  0.662180  1.0  -0.0675
  C  C347  1  0.792540  0.624430  0.624680  1.0  -0.0853
  C  C348  1  0.844130  0.641120  0.616430  1.0  -0.0762
  C  C349  1  0.859720  0.696850  0.638980  1.0  -0.0948
  C  C350  1  0.826830  0.731670  0.677090  1.0  -0.1193
  C  C351  1  0.703130  0.226110  0.296410  1.0  0.0236
  C  C352  1  0.716950  0.181160  0.341520  1.0  -0.118
  C  C353  1  0.679930  0.154730  0.382520  1.0  -0.0995
  C  C354  1  0.628000  0.172710  0.380230  1.0  -0.0167
  C  C355  1  0.614830  0.222090  0.342370  1.0  -0.0854
  C  C356  1  0.652370  0.249570  0.302310  1.0  -0.115
  C  C357  1  0.744990  0.253580  0.250240  1.0  -0.0419
  C  C358  1  0.779010  0.288620  0.300160  1.0  0.0181
  C  C359  1  0.720320  0.293040  0.196120  1.0  0.0236
  C  C360  1  0.777030  0.209040  0.207320  1.0  0.0496
  C  C361  1  0.828580  0.269250  0.318330  1.0  -0.1189
  C  C362  1  0.861150  0.305170  0.355520  1.0  -0.0924
  C  C363  1  0.844970  0.361020  0.377040  1.0  -0.0838
  C  C364  1  0.793210  0.376860  0.368670  1.0  -0.0889
  C  C365  1  0.760060  0.340010  0.332150  1.0  -0.0702
  C  C366  1  0.734990  0.352010  0.184730  1.0  -0.1116
  C  C367  1  0.702830  0.389230  0.147900  1.0  -0.0899
  C  C368  1  0.657390  0.366930  0.120090  1.0  -0.0082
  C  C369  1  0.648380  0.306450  0.119780  1.0  -0.0881
  C  C370  1  0.680570  0.269460  0.155920  1.0  -0.017
  C  C371  1  0.764460  0.148970  0.198660  1.0  -0.1387
  C  C372  1  0.796040  0.111660  0.159190  1.0  -0.0704
  C  C373  1  0.840260  0.133770  0.126780  1.0  -0.0673
  C  C374  1  0.850540  0.193990  0.131350  1.0  -0.0849
  C  C375  1  0.819260  0.230870  0.169800  1.0  -0.1267
  C  C376  1  0.223110  0.711070  0.294580  1.0  0.0138
  C  C377  1  0.242150  0.658340  0.323450  1.0  -0.0615
  C  C378  1  0.209220  0.620480  0.359120  1.0  -0.0922
  C  C379  1  0.157720  0.636510  0.369490  1.0  -0.0589
  C  C380  1  0.141720  0.693240  0.351280  1.0  -0.0923
  C  C381  1  0.174080  0.730280  0.315340  1.0  -0.1129
  C  C382  1  0.256130  0.747350  0.244510  1.0  -0.0419
  C  C383  1  0.299140  0.773680  0.289830  1.0  0.0379
  C  C384  1  0.222980  0.792950  0.204680  1.0  0.043
  C  C385  1  0.279290  0.709200  0.187930  1.0  0.0327
  C  C386  1  0.350160  0.750500  0.292550  1.0  -0.1113
  C  C387  1  0.388660  0.777280  0.331780  1.0  -0.0888
  C  C388  1  0.376200  0.825380  0.372190  1.0  -0.0073
  C  C389  1  0.324310  0.842970  0.377330  1.0  -0.0906
  C  C390  1  0.286360  0.817390  0.337080  1.0  -0.1119
  C  C391  1  0.234970  0.853360  0.197950  1.0  -0.1293
  C  C392  1  0.201940  0.891630  0.161860  1.0  -0.0867
  C  C393  1  0.156700  0.870180  0.131340  1.0  -0.0605
  C  C394  1  0.146820  0.809830  0.134030  1.0  -0.0846
  C  C395  1  0.179620  0.771990  0.168760  1.0  -0.1187
  C  C396  1  0.263630  0.650850  0.174940  1.0  -0.1117
  C  C397  1  0.294980  0.613880  0.136670  1.0  -0.0902
  C  C398  1  0.340580  0.635880  0.108880  1.0  0.0032
  C  C399  1  0.350010  0.696330  0.109400  1.0  -0.1025
  C  C400  1  0.318530  0.733130  0.147080  1.0  -0.0142
  C  C401  1  0.116120  0.091600  0.101560  1.0  0.6625
  C  C402  1  0.880220  0.904040  0.094990  1.0  0.6515
  C  C403  1  0.116410  0.908320  0.100910  1.0  0.6771
  C  C404  1  0.880340  0.095750  0.095560  1.0  0.6482
  C  C405  1  0.880590  0.097260  0.898440  1.0  0.6629
  C  C406  1  0.116670  0.907720  0.892600  1.0  0.6692
  C  C407  1  0.880410  0.902580  0.899040  1.0  0.6704
  C  C408  1  0.116440  0.092290  0.892140  1.0  0.6637
  C  C409  1  0.118420  0.595890  0.596410  1.0  0.6162
  C  C410  1  0.884050  0.402100  0.589110  1.0  0.6377
  C  C411  1  0.118240  0.407490  0.596330  1.0  0.6208
  C  C412  1  0.883730  0.601110  0.589240  1.0  0.6452
  C  C413  1  0.883870  0.601290  0.403290  1.0  0.6501
  C  C414  1  0.118370  0.407340  0.396640  1.0  0.6211
  C  C415  1  0.884170  0.401880  0.403470  1.0  0.6517
  C  C416  1  0.118540  0.595950  0.396440  1.0  0.6172
  C  C417  1  0.415320  0.866890  0.396630  1.0  0.6337
  C  C418  1  0.588980  0.130850  0.404210  1.0  0.6583
  C  C419  1  0.584140  0.867300  0.396400  1.0  0.6293
  C  C420  1  0.410360  0.130990  0.404320  1.0  0.674
  C  C421  1  0.409850  0.131090  0.588660  1.0  0.6677
  C  C422  1  0.584190  0.866900  0.597010  1.0  0.6399
  C  C423  1  0.589480  0.130800  0.588840  1.0  0.6691
  C  C424  1  0.414930  0.866810  0.596700  1.0  0.6351
  C  C425  1  0.616800  0.590210  0.095610  1.0  0.6477
  C  C426  1  0.381520  0.398740  0.087170  1.0  0.6702
  C  C427  1  0.616700  0.405220  0.095960  1.0  0.6446
  C  C428  1  0.381420  0.596690  0.086640  1.0  0.6737
  C  C429  1  0.381430  0.596530  0.907410  1.0  0.6785
  C  C430  1  0.616690  0.405350  0.898170  1.0  0.6465
  C  C431  1  0.381540  0.398870  0.906900  1.0  0.67
  C  C432  1  0.616800  0.590010  0.898480  1.0  0.649
  O  O433  1  0.069150  0.104460  0.118620  1.0  -0.5914
  O  O434  1  0.128410  0.051740  0.056800  1.0  -0.5694
  O  O435  1  0.927200  0.890760  0.111670  1.0  -0.597
  O  O436  1  0.867950  0.946180  0.053170  1.0  -0.579
  O  O437  1  0.069450  0.895260  0.117990  1.0  -0.5994
  O  O438  1  0.128580  0.948480  0.056530  1.0  -0.5698
  O  O439  1  0.927300  0.108960  0.112150  1.0  -0.592
  O  O440  1  0.867990  0.053830  0.053420  1.0  -0.5791
  O  O441  1  0.996330  0.063390  0.188280  1.0  -0.6482
  O  O442  1  0.002120  0.165300  0.088010  1.0  -0.6366
  O  O443  1  0.993410  0.932760  0.188790  1.0  -0.6344
  O  O444  1  0.002610  0.834590  0.086640  1.0  -0.6332
  O  O445  1  0.045580  0.000020  0.094840  1.0  -0.8028
  O  O446  1  0.952090  0.000000  0.093980  1.0  -0.8906
  O  O447  1  0.927660  0.111620  0.883650  1.0  -0.6095
  O  O448  1  0.868150  0.054110  0.938830  1.0  -0.5855
  O  O449  1  0.069710  0.894160  0.876130  1.0  -0.5942
  O  O450  1  0.128810  0.948530  0.936160  1.0  -0.5713
  O  O451  1  0.927500  0.888190  0.884160  1.0  -0.6136
  O  O452  1  0.868040  0.945910  0.939160  1.0  -0.5843
  O  O453  1  0.069480  0.105770  0.875790  1.0  -0.595
  O  O454  1  0.128690  0.051690  0.935950  1.0  -0.5673
  O  O455  1  0.992710  0.063070  0.803530  1.0  -0.6369
  O  O456  1  0.000530  0.164530  0.897200  1.0  -0.6555
  O  O457  1  0.992720  0.937000  0.803520  1.0  -0.643
  O  O458  1  0.000540  0.835490  0.896670  1.0  -0.6577
  O  O459  1  0.951800  0.999970  0.897960  1.0  -0.8847
  O  O460  1  0.045770  0.999990  0.897000  1.0  -0.8611
  O  O461  1  0.952520  0.084680  0.996020  1.0  -0.8357
  O  O462  1  0.043140  0.916090  0.996040  1.0  -0.8458
  O  O463  1  0.043170  0.083920  0.996060  1.0  -0.851
  O  O464  1  0.952550  0.915290  0.996020  1.0  -0.8341
  O  O465  1  0.071680  0.607350  0.615270  1.0  -0.6162
  O  O466  1  0.130910  0.555040  0.553290  1.0  -0.5596
  O  O467  1  0.930970  0.389140  0.605460  1.0  -0.6096
  O  O468  1  0.871200  0.446380  0.550930  1.0  -0.604
  O  O469  1  0.071540  0.396420  0.615480  1.0  -0.6137
  O  O470  1  0.130840  0.448330  0.553210  1.0  -0.5705
  O  O471  1  0.930650  0.614440  0.605380  1.0  -0.6119
  O  O472  1  0.871060  0.556820  0.551000  1.0  -0.6077
  O  O473  1  0.994460  0.563890  0.688970  1.0  -0.6562
  O  O474  1  0.004280  0.665490  0.597410  1.0  -0.663
  O  O475  1  0.994500  0.440360  0.689050  1.0  -0.6279
  O  O476  1  0.004250  0.338430  0.597960  1.0  -0.6731
  O  O477  1  0.048690  0.501940  0.595810  1.0  -0.8917
  O  O478  1  0.953780  0.501900  0.594700  1.0  -0.8945
  O  O479  1  0.930830  0.614680  0.387360  1.0  -0.6076
  O  O480  1  0.871140  0.556880  0.441300  1.0  -0.6094
  O  O481  1  0.071690  0.396260  0.377380  1.0  -0.6143
  O  O482  1  0.130910  0.448260  0.439680  1.0  -0.5597
  O  O483  1  0.931110  0.388880  0.387260  1.0  -0.6068
  O  O484  1  0.871270  0.446270  0.441450  1.0  -0.6105
  O  O485  1  0.071820  0.607390  0.377470  1.0  -0.6174
  O  O486  1  0.130990  0.555050  0.439520  1.0  -0.5686
  O  O487  1  0.994650  0.563440  0.303500  1.0  -0.6416
  O  O488  1  0.004270  0.665290  0.394120  1.0  -0.6799
  O  O489  1  0.994700  0.440310  0.303530  1.0  -0.6406
  O  O490  1  0.004320  0.338400  0.394380  1.0  -0.6572
  O  O491  1  0.953860  0.501820  0.397710  1.0  -0.8925
  O  O492  1  0.048820  0.501860  0.396800  1.0  -0.893
  O  O493  1  0.955960  0.586070  0.496180  1.0  -0.9091
  O  O494  1  0.044710  0.418160  0.496350  1.0  -0.848
  O  O495  1  0.044740  0.585560  0.496260  1.0  -0.8482
  O  O496  1  0.956100  0.417610  0.496260  1.0  -0.9048
  O  O497  1  0.406640  0.919900  0.376910  1.0  -0.6211
  O  O498  1  0.451150  0.851650  0.439830  1.0  -0.5919
  O  O499  1  0.599050  0.077610  0.386800  1.0  -0.624
  O  O500  1  0.550040  0.146590  0.442250  1.0  -0.6121
  O  O501  1  0.592420  0.920240  0.376190  1.0  -0.6147
  O  O502  1  0.548490  0.851970  0.439870  1.0  -0.5888
  O  O503  1  0.399760  0.077630  0.387870  1.0  -0.6227
  O  O504  1  0.449600  0.146700  0.441820  1.0  -0.6162
  O  O505  1  0.446510  0.006460  0.304100  1.0  -0.6309
  O  O506  1  0.356340  0.995400  0.394900  1.0  -0.6644
  O  O507  1  0.552280  0.002870  0.304950  1.0  -0.6648
  O  O508  1  0.643610  0.995750  0.398390  1.0  -0.6565
  O  O509  1  0.499840  0.944410  0.397730  1.0  -0.7837
  O  O510  1  0.499880  0.053310  0.398580  1.0  -0.8928
  O  O511  1  0.398920  0.077690  0.604620  1.0  -0.6299
  O  O512  1  0.449430  0.146770  0.551760  1.0  -0.6163
  O  O513  1  0.592850  0.919920  0.616630  1.0  -0.6288
  O  O514  1  0.548160  0.851590  0.554130  1.0  -0.5839
  O  O515  1  0.600200  0.077380  0.604850  1.0  -0.6563
  O  O516  1  0.549920  0.146620  0.551950  1.0  -0.6238
  O  O517  1  0.405960  0.919860  0.616070  1.0  -0.6158
  O  O518  1  0.451060  0.851550  0.553970  1.0  -0.5934
  O  O519  1  0.445780  0.007010  0.689460  1.0  -0.6431
  O  O520  1  0.355950  0.995480  0.599000  1.0  -0.6431
  O  O521  1  0.551870  0.006980  0.689830  1.0  -0.6642
  O  O522  1  0.642550  0.995670  0.601580  1.0  -0.6484
  O  O523  1  0.499370  0.053420  0.595510  1.0  -0.8941
  O  O524  1  0.499350  0.944420  0.596580  1.0  -0.8579
  O  O525  1  0.425880  0.050130  0.496700  1.0  -0.8636
  O  O526  1  0.572890  0.949450  0.497360  1.0  -0.8494
  O  O527  1  0.426310  0.949540  0.496750  1.0  -0.8468
  O  O528  1  0.573300  0.050070  0.497320  1.0  -0.8866
  O  O529  1  0.570490  0.603920  0.114520  1.0  -0.63
  O  O530  1  0.628280  0.548480  0.053950  1.0  -0.5826
  O  O531  1  0.428130  0.383440  0.102830  1.0  -0.6024
  O  O532  1  0.369630  0.444330  0.051390  1.0  -0.6309
  O  O533  1  0.570380  0.391540  0.114770  1.0  -0.631
  O  O534  1  0.628240  0.446770  0.054060  1.0  -0.5845
  O  O535  1  0.428030  0.612030  0.102350  1.0  -0.6035
  O  O536  1  0.369540  0.550900  0.051220  1.0  -0.6288
  O  O537  1  0.492220  0.560040  0.189900  1.0  -0.6305
  O  O538  1  0.502380  0.661520  0.100570  1.0  -0.6494
  O  O539  1  0.492210  0.435340  0.189910  1.0  -0.6379
  O  O540  1  0.502400  0.333810  0.100470  1.0  -0.6492
  O  O541  1  0.546200  0.497670  0.096790  1.0  -0.8653
  O  O542  1  0.452180  0.497680  0.095940  1.0  -0.887
  O  O543  1  0.428030  0.611880  0.891690  1.0  -0.6037
  O  O544  1  0.369550  0.550830  0.942960  1.0  -0.6234
  O  O545  1  0.570370  0.391660  0.879390  1.0  -0.6323
  O  O546  1  0.628250  0.446810  0.940180  1.0  -0.5856
  O  O547  1  0.428140  0.383550  0.891240  1.0  -0.5981
  O  O548  1  0.369640  0.444370  0.942810  1.0  -0.6291
  O  O549  1  0.570500  0.603760  0.879600  1.0  -0.6301
  O  O550  1  0.628290  0.548370  0.940250  1.0  -0.5755
  O  O551  1  0.492220  0.560100  0.804350  1.0  -0.6268
  O  O552  1  0.502430  0.661530  0.893940  1.0  -0.6561
  O  O553  1  0.492210  0.435200  0.804370  1.0  -0.6212
  O  O554  1  0.502450  0.333760  0.894170  1.0  -0.6528
  O  O555  1  0.452200  0.497660  0.898350  1.0  -0.8848
  O  O556  1  0.546190  0.497650  0.897490  1.0  -0.8679
  O  O557  1  0.454330  0.582150  0.997120  1.0  -0.8476
  O  O558  1  0.542610  0.413550  0.997140  1.0  -0.823
  O  O559  1  0.542620  0.581720  0.997120  1.0  -0.8224
  O  O560  1  0.454280  0.413110  0.997140  1.0  -0.8546
