# generated using pymatgen
data_MnH3(CO2)3
_symmetry_space_group_name_H-M   'P 1'
_cell_length_a   8.55380000
_cell_length_b   9.04570000
_cell_length_c   12.00960000
_cell_angle_alpha   90.00000000
_cell_angle_beta   90.00000000
_cell_angle_gamma   90.00000000
_symmetry_Int_Tables_number   1
_chemical_formula_structural   MnH3(CO2)3
_chemical_formula_sum   'Mn4 H12 C12 O24'
_cell_volume   929.24410496
_cell_formula_units_Z   4
loop_
 _symmetry_equiv_pos_site_id
 _symmetry_equiv_pos_as_xyz
  1  'x, y, z'
loop_
 _atom_site_type_symbol
 _atom_site_label
 _atom_site_symmetry_multiplicity
 _atom_site_fract_x
 _atom_site_fract_y
 _atom_site_fract_z
 _atom_site_occupancy
 _atom_site_charge
  Mn  Mn1  1  0.749060  0.750000  0.250000  1.0  1.0481
  Mn  Mn2  1  0.750940  0.750000  0.750000  1.0  1.0488
  Mn  Mn3  1  0.250940  0.250000  0.750000  1.0  1.0488
  Mn  Mn4  1  0.249060  0.250000  0.250000  1.0  1.0481
  H  H5  1  0.420000  0.935300  0.731400  1.0  0.0417
  H  H6  1  0.750000  0.793800  0.000000  1.0  0.0392
  H  H7  1  0.080000  0.935300  0.268600  1.0  0.0426
  H  H8  1  0.580000  0.064700  0.268600  1.0  0.0423
  H  H9  1  0.080000  0.564700  0.231400  1.0  0.0429
  H  H10  1  0.250000  0.206200  0.000000  1.0  0.0377
  H  H11  1  0.580000  0.435300  0.231400  1.0  0.0422
  H  H12  1  0.750000  0.706200  0.500000  1.0  0.0377
  H  H13  1  0.250000  0.293800  0.500000  1.0  0.0392
  H  H14  1  0.420000  0.564700  0.768600  1.0  0.0422
  H  H15  1  0.920000  0.064700  0.731400  1.0  0.0426
  H  H16  1  0.920000  0.435300  0.768600  1.0  0.0422
  C  C17  1  0.516980  0.484400  0.282540  1.0  0.7403
  C  C18  1  0.016980  0.515600  0.282540  1.0  0.7409
  C  C19  1  0.250000  0.191000  0.500000  1.0  0.7366
  C  C20  1  0.983020  0.484400  0.717460  1.0  0.7409
  C  C21  1  0.516980  0.015600  0.217460  1.0  0.7422
  C  C22  1  0.483020  0.515600  0.717460  1.0  0.7414
  C  C23  1  0.483020  0.984400  0.782540  1.0  0.7398
  C  C24  1  0.983020  0.015600  0.782540  1.0  0.7406
  C  C25  1  0.016980  0.984400  0.217460  1.0  0.7414
  C  C26  1  0.750000  0.691000  0.000000  1.0  0.7366
  C  C27  1  0.250000  0.309000  0.000000  1.0  0.7364
  C  C28  1  0.750000  0.809000  0.500000  1.0  0.7364
  O  O29  1  0.746120  0.869640  0.591960  1.0  -0.5619
  O  O30  1  0.753880  0.630360  0.091960  1.0  -0.561
  O  O31  1  0.253880  0.369640  0.091960  1.0  -0.5616
  O  O32  1  0.444500  0.388750  0.691940  1.0  -0.5562
  O  O33  1  0.055500  0.388750  0.308060  1.0  -0.5563
  O  O34  1  0.402230  0.083620  0.181300  1.0  -0.5775
  O  O35  1  0.055500  0.111250  0.191940  1.0  -0.555
  O  O36  1  0.097770  0.416380  0.681300  1.0  -0.5778
  O  O37  1  0.253880  0.130360  0.408040  1.0  -0.5612
  O  O38  1  0.555500  0.888750  0.191940  1.0  -0.5563
  O  O39  1  0.746120  0.630360  0.908040  1.0  -0.5615
  O  O40  1  0.753880  0.869640  0.408040  1.0  -0.5612
  O  O41  1  0.597770  0.583620  0.681300  1.0  -0.5777
  O  O42  1  0.944500  0.611250  0.691940  1.0  -0.5548
  O  O43  1  0.097770  0.083620  0.818700  1.0  -0.5773
  O  O44  1  0.902230  0.916380  0.181300  1.0  -0.5777
  O  O45  1  0.944500  0.888750  0.808060  1.0  -0.5565
  O  O46  1  0.246120  0.369640  0.908040  1.0  -0.5614
  O  O47  1  0.597770  0.916380  0.818700  1.0  -0.5778
  O  O48  1  0.402230  0.416380  0.318700  1.0  -0.578
  O  O49  1  0.246120  0.130360  0.591960  1.0  -0.5613
  O  O50  1  0.902230  0.583620  0.318700  1.0  -0.5774
  O  O51  1  0.555500  0.611250  0.308060  1.0  -0.5561
  O  O52  1  0.444500  0.111250  0.808060  1.0  -0.5564
