# generated using pymatgen
data_Zn4H25C42O13
_symmetry_space_group_name_H-M   'P 1'
_cell_length_a   17.08470000
_cell_length_b   17.12010000
_cell_length_c   17.12010000
_cell_angle_alpha   90.08760000
_cell_angle_beta   92.09200000
_cell_angle_gamma   87.90800000
_symmetry_Int_Tables_number   1
_chemical_formula_structural   Zn4H25C42O13
_chemical_formula_sum   'Zn8 H50 C84 O26'
_cell_volume   5000.81554426
_cell_formula_units_Z   2
loop_
 _symmetry_equiv_pos_site_id
 _symmetry_equiv_pos_as_xyz
  1  'x, y, z'
loop_
 _atom_site_type_symbol
 _atom_site_label
 _atom_site_symmetry_multiplicity
 _atom_site_fract_x
 _atom_site_fract_y
 _atom_site_fract_z
 _atom_site_occupancy
 _atom_site_charge
  Zn  Zn1  1  0.316050  0.415420  0.715300  1.0  1.103
  Zn  Zn2  1  0.184050  0.418770  0.581230  1.0  1.0778
  Zn  Zn3  1  0.185780  0.287500  0.712500  1.0  1.108
  Zn  Zn4  1  0.316050  0.284700  0.584580  1.0  1.1015
  Zn  Zn5  1  0.683950  0.715300  0.415420  1.0  1.1021
  Zn  Zn6  1  0.814220  0.712500  0.287500  1.0  1.1067
  Zn  Zn7  1  0.815950  0.581230  0.418770  1.0  1.0784
  Zn  Zn8  1  0.683950  0.584580  0.284700  1.0  1.1023
  H  H9  1  0.168000  0.285100  0.952700  1.0  0.1151
  H  H10  1  0.559100  0.429100  0.729900  1.0  0.0824
  H  H11  1  0.336700  0.277000  0.343600  1.0  0.0926
  H  H12  1  0.343500  0.904000  0.575200  1.0  0.0852
  H  H13  1  0.954500  0.280300  0.719700  1.0  0.0996
  H  H14  1  0.689100  0.282500  0.554500  1.0  0.1128
  H  H15  1  0.346400  0.431700  0.963700  1.0  0.1194
  H  H16  1  0.165500  0.912200  0.708800  1.0  0.099
  H  H17  1  0.689100  0.445500  0.717500  1.0  0.1123
  H  H18  1  0.167900  0.799200  0.562000  1.0  0.1228
  H  H19  1  0.165500  0.291200  0.087800  1.0  0.0996
  H  H20  1  0.929700  0.446200  0.553800  1.0  0.1106
  H  H21  1  0.346400  0.036300  0.568300  1.0  0.1191
  H  H22  1  0.348700  0.283500  0.212300  1.0  0.1315
  H  H23  1  0.348700  0.787700  0.716500  1.0  0.1309
  H  H24  1  0.709500  0.313400  0.686600  1.0  0.0897
  H  H25  1  0.559100  0.270100  0.570900  1.0  0.0819
  H  H26  1  0.163600  0.435300  0.335300  1.0  0.1007
  H  H27  1  0.821400  0.269700  0.730300  1.0  0.1238
  H  H28  1  0.163600  0.664700  0.564700  1.0  0.1003
  H  H29  1  0.167900  0.438000  0.200800  1.0  0.1234
  H  H30  1  0.168000  0.047300  0.714900  1.0  0.1157
  H  H31  1  0.796500  0.439700  0.560300  1.0  0.0856
  H  H32  1  0.343500  0.424800  0.096000  1.0  0.0857
  H  H33  1  0.336700  0.656400  0.723000  1.0  0.0932
  H  H34  1  0.663300  0.723000  0.656400  1.0  0.0928
  H  H35  1  0.045500  0.719700  0.280300  1.0  0.0999
  H  H36  1  0.832100  0.562000  0.799200  1.0  0.1226
  H  H37  1  0.290500  0.686600  0.313400  1.0  0.0988
  H  H38  1  0.653600  0.963700  0.431700  1.0  0.1188
  H  H39  1  0.663300  0.343600  0.277000  1.0  0.0934
  H  H40  1  0.310900  0.554500  0.282500  1.0  0.1118
  H  H41  1  0.310900  0.717500  0.445500  1.0  0.1116
  H  H42  1  0.656500  0.096000  0.424800  1.0  0.0853
  H  H43  1  0.178600  0.730300  0.269700  1.0  0.1237
  H  H44  1  0.653600  0.568300  0.036300  1.0  0.1187
  H  H45  1  0.834500  0.087800  0.291200  1.0  0.0995
  H  H46  1  0.203500  0.560300  0.439700  1.0  0.0861
  H  H47  1  0.832100  0.200800  0.438000  1.0  0.1227
  H  H48  1  0.834500  0.708800  0.912200  1.0  0.0991
  H  H49  1  0.651300  0.716500  0.787700  1.0  0.1313
  H  H50  1  0.836400  0.335300  0.435300  1.0  0.1007
  H  H51  1  0.656500  0.575200  0.904000  1.0  0.0854
  H  H52  1  0.832000  0.952700  0.285100  1.0  0.1157
  H  H53  1  0.440900  0.570900  0.270100  1.0  0.0828
  H  H54  1  0.832000  0.714900  0.047300  1.0  0.1153
  H  H55  1  0.836400  0.564700  0.664700  1.0  0.1016
  H  H56  1  0.070300  0.553800  0.446200  1.0  0.1108
  H  H57  1  0.651300  0.212300  0.283500  1.0  0.131
  H  H58  1  0.440900  0.729900  0.429100  1.0  0.0824
  C  C59  1  0.204800  0.317900  0.061900  1.0  -0.0942
  C  C60  1  0.460400  0.350200  0.649800  1.0  0.7119
  C  C61  1  0.309600  0.012300  0.600100  1.0  -0.1102
  C  C62  1  0.256900  0.895600  0.644400  1.0  0.1192
  C  C63  1  0.257700  0.357800  0.855200  1.0  0.6784
  C  C64  1  0.309600  0.399900  0.987700  1.0  -0.1093
  C  C65  1  0.250300  0.355200  0.353000  1.0  -0.133
  C  C66  1  0.044300  0.364400  0.635600  1.0  0.6795
  C  C67  1  0.248600  0.355300  0.439900  1.0  0.7481
  C  C68  1  0.301800  0.685800  0.688800  1.0  -0.0318
  C  C69  1  0.307600  0.763500  0.687900  1.0  -0.2104
  C  C70  1  0.955900  0.363500  0.636500  1.0  -0.1479
  C  C71  1  0.252700  0.807500  0.644700  1.0  0.1043
  C  C72  1  0.664200  0.310900  0.594900  1.0  -0.1109
  C  C73  1  0.585700  0.307700  0.601900  1.0  -0.1226
  C  C74  1  0.257500  0.356500  0.942700  1.0  -0.1113
  C  C75  1  0.585700  0.398100  0.692300  1.0  -0.1234
  C  C76  1  0.204800  0.938100  0.682100  1.0  -0.0897
  C  C77  1  0.200500  0.690100  0.597700  1.0  -0.0829
  C  C78  1  0.306600  0.396100  0.066100  1.0  -0.0768
  C  C79  1  0.707600  0.354700  0.645300  1.0  -0.0437
  C  C80  1  0.252700  0.355300  0.192500  1.0  0.1025
  C  C81  1  0.256900  0.355600  0.104400  1.0  0.1189
  C  C82  1  0.301800  0.311200  0.314200  1.0  -0.0369
  C  C83  1  0.664200  0.405100  0.689100  1.0  -0.1121
  C  C84  1  0.257500  0.057300  0.643500  1.0  -0.1118
  C  C85  1  0.250300  0.647000  0.644800  1.0  -0.1306
  C  C86  1  0.543300  0.352000  0.648000  1.0  0.1751
  C  C87  1  0.907800  0.410900  0.589100  1.0  -0.1368
  C  C88  1  0.257700  0.144800  0.642200  1.0  0.6782
  C  C89  1  0.200500  0.402300  0.309900  1.0  -0.0826
  C  C90  1  0.204800  0.315500  0.981100  1.0  -0.0857
  C  C91  1  0.248600  0.560100  0.644700  1.0  0.7446
  C  C92  1  0.306600  0.933900  0.603900  1.0  -0.0691
  C  C93  1  0.202400  0.403300  0.229900  1.0  -0.1875
  C  C94  1  0.204800  0.018900  0.684500  1.0  -0.0863
  C  C95  1  0.307600  0.312100  0.236500  1.0  -0.2101
  C  C96  1  0.920500  0.312600  0.687400  1.0  -0.0601
  C  C97  1  0.842800  0.305100  0.694900  1.0  -0.1402
  C  C98  1  0.202400  0.770100  0.596700  1.0  -0.1823
  C  C99  1  0.829300  0.406800  0.593200  1.0  -0.1231
  C  C100  1  0.795200  0.356600  0.643400  1.0  0.0714
  C  C101  1  0.044100  0.636500  0.363500  1.0  -0.1488
  C  C102  1  0.795200  0.682100  0.938100  1.0  -0.088
  C  C103  1  0.751400  0.439900  0.355300  1.0  0.7455
  C  C104  1  0.335800  0.594900  0.310900  1.0  -0.1117
  C  C105  1  0.795200  0.061900  0.317900  1.0  -0.0873
  C  C106  1  0.795200  0.981100  0.315500  1.0  -0.0874
  C  C107  1  0.795200  0.684500  0.018900  1.0  -0.0856
  C  C108  1  0.742300  0.642200  0.144800  1.0  0.6797
  C  C109  1  0.456700  0.648000  0.352000  1.0  0.1768
  C  C110  1  0.693400  0.066100  0.396100  1.0  -0.0738
  C  C111  1  0.292400  0.645300  0.354700  1.0  -0.0515
  C  C112  1  0.690400  0.987700  0.399900  1.0  -0.1093
  C  C113  1  0.799500  0.309900  0.402300  1.0  -0.0819
  C  C114  1  0.692400  0.687900  0.763500  1.0  -0.2112
  C  C115  1  0.092200  0.589100  0.410900  1.0  -0.1381
  C  C116  1  0.751400  0.644700  0.560100  1.0  0.7466
  C  C117  1  0.747300  0.644700  0.807500  1.0  0.1032
  C  C118  1  0.539600  0.649800  0.350200  1.0  0.7139
  C  C119  1  0.743100  0.644400  0.895600  1.0  0.1201
  C  C120  1  0.204800  0.643400  0.356600  1.0  0.0702
  C  C121  1  0.742300  0.855200  0.357800  1.0  0.6779
  C  C122  1  0.157200  0.694900  0.305100  1.0  -0.1352
  C  C123  1  0.749700  0.644800  0.647000  1.0  -0.1312
  C  C124  1  0.747300  0.192500  0.355300  1.0  0.104
  C  C125  1  0.335800  0.689100  0.405100  1.0  -0.1161
  C  C126  1  0.742500  0.942700  0.356500  1.0  -0.112
  C  C127  1  0.797600  0.229900  0.403300  1.0  -0.1837
  C  C128  1  0.414300  0.692300  0.398100  1.0  -0.1202
  C  C129  1  0.799500  0.597700  0.690100  1.0  -0.083
  C  C130  1  0.749700  0.353000  0.355200  1.0  -0.1317
  C  C131  1  0.690400  0.600100  0.012300  1.0  -0.1087
  C  C132  1  0.742500  0.643500  0.057300  1.0  -0.1115
  C  C133  1  0.698200  0.688800  0.685800  1.0  -0.037
  C  C134  1  0.692400  0.236500  0.312100  1.0  -0.2121
  C  C135  1  0.743100  0.104400  0.355600  1.0  0.1186
  C  C136  1  0.797600  0.596700  0.770100  1.0  -0.1831
  C  C137  1  0.698200  0.314200  0.311200  1.0  -0.0335
  C  C138  1  0.170700  0.593200  0.406800  1.0  -0.123
  C  C139  1  0.414300  0.601900  0.307700  1.0  -0.1206
  C  C140  1  0.955700  0.635600  0.364400  1.0  0.6804
  C  C141  1  0.693400  0.603900  0.933900  1.0  -0.0733
  C  C142  1  0.079500  0.687400  0.312600  1.0  -0.0624
  O  O143  1  0.426100  0.396600  0.697060  1.0  -0.6249
  O  O144  1  0.082400  0.317300  0.682700  1.0  -0.6556
  O  O145  1  0.426100  0.302940  0.603400  1.0  -0.6254
  O  O146  1  0.202450  0.401840  0.471140  1.0  -0.5874
  O  O147  1  0.294100  0.307820  0.475580  1.0  -0.6384
  O  O148  1  0.072200  0.410700  0.589300  1.0  -0.569
  O  O149  1  0.304900  0.175940  0.598740  1.0  -0.579
  O  O150  1  0.202450  0.528860  0.598160  1.0  -0.5892
  O  O151  1  0.206900  0.180900  0.689700  1.0  -0.6226
  O  O152  1  0.304900  0.401260  0.824060  1.0  -0.5803
  O  O153  1  0.206900  0.310300  0.819100  1.0  -0.6221
  O  O154  1  0.250920  0.351640  0.648360  1.0  -1.2757
  O  O155  1  0.294100  0.524420  0.692180  1.0  -0.6367
  O  O156  1  0.793100  0.819100  0.310300  1.0  -0.6229
  O  O157  1  0.917600  0.682700  0.317300  1.0  -0.6565
  O  O158  1  0.695100  0.824060  0.401260  1.0  -0.5796
  O  O159  1  0.573900  0.697060  0.396600  1.0  -0.6242
  O  O160  1  0.797550  0.471140  0.401840  1.0  -0.5882
  O  O161  1  0.927800  0.589300  0.410700  1.0  -0.5698
  O  O162  1  0.749080  0.648360  0.351640  1.0  -1.2765
  O  O163  1  0.797550  0.598160  0.528860  1.0  -0.5877
  O  O164  1  0.573900  0.603400  0.302940  1.0  -0.6257
  O  O165  1  0.695100  0.598740  0.175940  1.0  -0.58
  O  O166  1  0.705900  0.692180  0.524420  1.0  -0.6385
  O  O167  1  0.793100  0.689700  0.180900  1.0  -0.6232
  O  O168  1  0.705900  0.475580  0.307820  1.0  -0.6383
