# generated using pymatgen
data_Zr3H30(C2O)16
_symmetry_space_group_name_H-M   'P 1'
_cell_length_a   24.34800000
_cell_length_b   24.34800000
_cell_length_c   14.91800000
_cell_angle_alpha   90.00000000
_cell_angle_beta   90.00000000
_cell_angle_gamma   90.00000000
_symmetry_Int_Tables_number   1
_chemical_formula_structural   Zr3H30(C2O)16
_chemical_formula_sum   'Zr12 H120 C128 O64'
_cell_volume   8843.76490147
_cell_formula_units_Z   4
loop_
 _symmetry_equiv_pos_site_id
 _symmetry_equiv_pos_as_xyz
  1  'x, y, z'
loop_
 _atom_site_type_symbol
 _atom_site_label
 _atom_site_symmetry_multiplicity
 _atom_site_fract_x
 _atom_site_fract_y
 _atom_site_fract_z
 _atom_site_occupancy
 _atom_site_charge
  Zr  Zr1  1  0.999430  0.069190  0.117700  1.0  1.8153
  Zr  Zr2  1  0.999520  0.932260  0.120610  1.0  1.7966
  Zr  Zr3  1  0.999300  0.067590  0.890450  1.0  1.7919
  Zr  Zr4  1  0.999310  0.930780  0.892230  1.0  1.7813
  Zr  Zr5  1  0.083340  0.999580  0.005090  1.0  1.7728
  Zr  Zr6  1  0.915560  0.999540  0.005430  1.0  1.7623
  Zr  Zr7  1  0.429300  0.499270  0.393380  1.0  1.8125
  Zr  Zr8  1  0.566170  0.498670  0.390400  1.0  1.7822
  Zr  Zr9  1  0.430920  0.499330  0.620520  1.0  1.7942
  Zr  Zr10  1  0.567710  0.498990  0.618710  1.0  1.778
  Zr  Zr11  1  0.498630  0.415060  0.505890  1.0  1.7683
  Zr  Zr12  1  0.499220  0.582960  0.505520  1.0  1.7624
  H  H13  1  0.923870  0.000980  0.185980  1.0  0.3657
  H  H14  1  0.069410  0.887440  0.006290  1.0  0.3316
  H  H15  1  0.923700  0.998930  0.824730  1.0  0.3616
  H  H16  1  0.069750  0.111840  0.003840  1.0  0.3187
  H  H17  1  0.002750  0.829400  0.081610  1.0  0.4303
  H  H18  1  0.983410  0.829190  0.934320  1.0  0.3748
  H  H19  1  0.030750  0.948860  0.728600  1.0  0.4466
  H  H20  1  0.030740  0.048440  0.727270  1.0  0.4443
  H  H21  1  0.991520  0.168510  0.940140  1.0  0.3877
  H  H22  1  0.001550  0.168590  0.177640  1.0  0.4592
  H  H23  1  0.028640  0.049910  0.281780  1.0  0.4467
  H  H24  1  0.032010  0.949750  0.283800  1.0  0.455
  H  H25  1  0.497670  0.574530  0.324970  1.0  0.3644
  H  H26  1  0.610810  0.428730  0.504670  1.0  0.3397
  H  H27  1  0.499670  0.574680  0.686280  1.0  0.3597
  H  H28  1  0.386490  0.428850  0.507240  1.0  0.3114
  H  H29  1  0.668940  0.495180  0.430030  1.0  0.4346
  H  H30  1  0.669210  0.516120  0.576880  1.0  0.3824
  H  H31  1  0.549430  0.467450  0.782270  1.0  0.4446
  H  H32  1  0.450220  0.468180  0.783830  1.0  0.4515
  H  H33  1  0.330030  0.507590  0.570810  1.0  0.3662
  H  H34  1  0.329810  0.497360  0.333840  1.0  0.458
  H  H35  1  0.448670  0.470420  0.229130  1.0  0.4499
  H  H36  1  0.548520  0.466040  0.227280  1.0  0.448
  H  H37  1  0.234490  0.098560  0.079920  1.0  0.1296
  H  H38  1  0.124610  0.161440  0.281010  1.0  0.1317
  H  H39  1  0.396180  0.263780  0.429630  1.0  0.1235
  H  H40  1  0.340860  0.375640  0.225610  1.0  0.1291
  H  H41  1  0.195850  0.225070  0.332590  1.0  0.1354
  H  H42  1  0.331660  0.193860  0.374180  1.0  0.1329
  H  H43  1  0.313930  0.173080  0.043330  1.0  0.1389
  H  H44  1  0.339810  0.121050  0.118670  1.0  0.1454
  H  H45  1  0.351270  0.192400  0.142320  1.0  0.1417
  H  H46  1  0.294660  0.321250  0.087670  1.0  0.1395
  H  H47  1  0.242040  0.347200  0.161790  1.0  0.1443
  H  H48  1  0.239760  0.277350  0.123550  1.0  0.1346
  H  H49  1  0.761780  0.904930  0.091290  1.0  0.1319
  H  H50  1  0.880420  0.824670  0.260200  1.0  0.1327
  H  H51  1  0.597420  0.736920  0.418730  1.0  0.128
  H  H52  1  0.669320  0.616120  0.244020  1.0  0.1302
  H  H53  1  0.809700  0.761650  0.314200  1.0  0.1304
  H  H54  1  0.661150  0.806640  0.359660  1.0  0.1364
  H  H55  1  0.676610  0.838020  0.057880  1.0  0.1328
  H  H56  1  0.657810  0.884370  0.147350  1.0  0.1424
  H  H57  1  0.645020  0.811990  0.157910  1.0  0.1311
  H  H58  1  0.718710  0.661780  0.104970  1.0  0.1464
  H  H59  1  0.770670  0.647700  0.188290  1.0  0.1384
  H  H60  1  0.767550  0.713650  0.134210  1.0  0.1311
  H  H61  1  0.877470  0.165060  0.737540  1.0  0.13
  H  H62  1  0.762690  0.100180  0.929370  1.0  0.121
  H  H63  1  0.680580  0.381960  0.745300  1.0  0.1325
  H  H64  1  0.578280  0.258440  0.624070  1.0  0.1311
  H  H65  1  0.691790  0.163530  0.873460  1.0  0.13
  H  H66  1  0.743790  0.311280  0.797630  1.0  0.1302
  H  H67  1  0.828520  0.210520  0.600380  1.0  0.1438
  H  H68  1  0.843670  0.266020  0.676830  1.0  0.1405
  H  H69  1  0.776490  0.259490  0.627410  1.0  0.1388
  H  H70  1  0.630510  0.165510  0.598020  1.0  0.1085
  H  H71  1  0.598390  0.157950  0.706160  1.0  0.1385
  H  H72  1  0.669610  0.140550  0.691090  1.0  0.1359
  H  H73  1  0.239790  0.919930  0.887130  1.0  0.1321
  H  H74  1  0.116400  0.817820  0.765140  1.0  0.1305
  H  H75  1  0.398570  0.736060  0.581680  1.0  0.1239
  H  H76  1  0.333530  0.621100  0.773070  1.0  0.1308
  H  H77  1  0.187170  0.754730  0.712640  1.0  0.1304
  H  H78  1  0.335020  0.806840  0.637420  1.0  0.1307
  H  H79  1  0.332700  0.867490  0.913260  1.0  0.129
  H  H80  1  0.340320  0.900120  0.805530  1.0  0.1404
  H  H81  1  0.357790  0.828860  0.819780  1.0  0.135
  H  H82  1  0.287800  0.669900  0.910100  1.0  0.1453
  H  H83  1  0.232440  0.654680  0.833400  1.0  0.1423
  H  H84  1  0.238780  0.721860  0.882930  1.0  0.1373
  H  H85  1  0.118940  0.169210  0.742550  1.0  0.1298
  H  H86  1  0.238670  0.090580  0.911450  1.0  0.126
  H  H87  1  0.405900  0.260570  0.597650  1.0  0.1261
  H  H88  1  0.332410  0.379200  0.774530  1.0  0.133
  H  H89  1  0.309020  0.155650  0.859070  1.0  0.1303
  H  H90  1  0.341010  0.190440  0.651280  1.0  0.1384
  H  H91  1  0.151350  0.272440  0.698910  1.0  0.1357
  H  H92  1  0.165160  0.224280  0.609580  1.0  0.1411
  H  H93  1  0.217330  0.271340  0.644820  1.0  0.1344
  H  H94  1  0.229740  0.347120  0.823900  1.0  0.1349
  H  H95  1  0.280050  0.331980  0.909420  1.0  0.1323
  H  H96  1  0.231790  0.280500  0.875920  1.0  0.1375
  H  H97  1  0.881370  0.826980  0.749360  1.0  0.1312
  H  H98  1  0.760310  0.903430  0.918460  1.0  0.1268
  H  H99  1  0.597390  0.737280  0.590590  1.0  0.1293
  H  H100  1  0.667590  0.617480  0.768980  1.0  0.1306
  H  H101  1  0.690290  0.839260  0.861580  1.0  0.1348
  H  H102  1  0.661380  0.807040  0.648810  1.0  0.1376
  H  H103  1  0.849230  0.724530  0.700910  1.0  0.1365
  H  H104  1  0.836600  0.774120  0.613200  1.0  0.1386
  H  H105  1  0.783900  0.726710  0.644880  1.0  0.137
  H  H106  1  0.769140  0.648870  0.823960  1.0  0.1375
  H  H107  1  0.717390  0.663700  0.907310  1.0  0.1407
  H  H108  1  0.766460  0.715150  0.876930  1.0  0.1348
  H  H109  1  0.237270  0.905710  0.093840  1.0  0.1397
  H  H110  1  0.119660  0.832480  0.272940  1.0  0.1357
  H  H111  1  0.318410  0.618850  0.262490  1.0  0.1339
  H  H112  1  0.410130  0.738460  0.413030  1.0  0.1233
  H  H113  1  0.189760  0.769210  0.328130  1.0  0.1354
  H  H114  1  0.256590  0.690730  0.209010  1.0  0.1343
  H  H115  1  0.341340  0.884860  0.146370  1.0  0.1396
  H  H116  1  0.320610  0.835310  0.062730  1.0  0.1169
  H  H117  1  0.353430  0.812870  0.163630  1.0  0.129
  H  H118  1  0.391460  0.841770  0.349610  1.0  0.1381
  H  H119  1  0.349280  0.827290  0.446430  1.0  0.1337
  H  H120  1  0.319240  0.857060  0.348050  1.0  0.1298
  H  H121  1  0.760200  0.088130  0.098940  1.0  0.1274
  H  H122  1  0.879910  0.180810  0.247730  1.0  0.1352
  H  H123  1  0.664430  0.378160  0.236100  1.0  0.1361
  H  H124  1  0.593840  0.261350  0.419370  1.0  0.1383
  H  H125  1  0.807900  0.242480  0.301350  1.0  0.1352
  H  H126  1  0.727930  0.308230  0.181050  1.0  0.1328
  H  H127  1  0.657110  0.106340  0.163280  1.0  0.1405
  H  H128  1  0.670850  0.148470  0.066110  1.0  0.1348
  H  H129  1  0.641340  0.178450  0.164760  1.0  0.1362
  H  H130  1  0.615250  0.157180  0.369230  1.0  0.1377
  H  H131  1  0.665740  0.178980  0.450660  1.0  0.1243
  H  H132  1  0.687080  0.145460  0.349700  1.0  0.1327
  C  C133  1  0.127290  0.088490  0.138870  1.0  0.6126
  C  C134  1  0.872810  0.907030  0.133720  1.0  0.6055
  C  C135  1  0.126900  0.911000  0.140150  1.0  0.6117
  C  C136  1  0.872230  0.092410  0.132470  1.0  0.6044
  C  C137  1  0.872270  0.091440  0.876270  1.0  0.6125
  C  C138  1  0.126300  0.910510  0.869700  1.0  0.6154
  C  C139  1  0.872420  0.906980  0.877470  1.0  0.5977
  C  C140  1  0.126800  0.088210  0.869810  1.0  0.6044
  C  C141  1  0.409730  0.371590  0.371350  1.0  0.6164
  C  C142  1  0.591630  0.625190  0.376110  1.0  0.6047
  C  C143  1  0.587180  0.371300  0.370870  1.0  0.5975
  C  C144  1  0.406360  0.626480  0.378580  1.0  0.6055
  C  C145  1  0.407290  0.626400  0.634590  1.0  0.6131
  C  C146  1  0.587740  0.371980  0.641230  1.0  0.6126
  C  C147  1  0.591340  0.625830  0.634650  1.0  0.6112
  C  C148  1  0.410300  0.371880  0.641910  1.0  0.6206
  C  C149  1  0.257280  0.199910  0.236680  1.0  -0.0312
  C  C150  1  0.267430  0.162950  0.164530  1.0  0.0259
  C  C151  1  0.225970  0.125600  0.135860  1.0  -0.0742
  C  C152  1  0.173450  0.124140  0.176040  1.0  -0.0852
  C  C153  1  0.164220  0.160630  0.248040  1.0  -0.0676
  C  C154  1  0.205270  0.197380  0.277900  1.0  -0.1026
  C  C155  1  0.298410  0.243380  0.266920  1.0  -0.0521
  C  C156  1  0.333490  0.233200  0.340440  1.0  -0.1207
  C  C157  1  0.370820  0.273420  0.372180  1.0  -0.0846
  C  C158  1  0.374130  0.325900  0.332420  1.0  -0.0934
  C  C159  1  0.339510  0.335860  0.258120  1.0  -0.1018
  C  C160  1  0.302400  0.295660  0.224900  1.0  0.0397
  C  C161  1  0.321230  0.162630  0.114810  1.0  -0.3391
  C  C162  1  0.267600  0.310840  0.145120  1.0  -0.3487
  C  C163  1  0.743660  0.795620  0.235180  1.0  -0.029
  C  C164  1  0.730900  0.837240  0.171310  1.0  0.0147
  C  C165  1  0.772390  0.874090  0.140670  1.0  -0.0693
  C  C166  1  0.827260  0.870550  0.170900  1.0  -0.0931
  C  C167  1  0.839050  0.829380  0.234740  1.0  -0.0674
  C  C168  1  0.798250  0.792970  0.266150  1.0  -0.0796
  C  C169  1  0.702570  0.752470  0.266840  1.0  -0.0402
  C  C170  1  0.663120  0.765290  0.333170  1.0  -0.1145
  C  C171  1  0.626430  0.725110  0.367260  1.0  -0.0899
  C  C172  1  0.628000  0.670230  0.336920  1.0  -0.1018
  C  C173  1  0.666990  0.657680  0.269720  1.0  -0.0983
  C  C174  1  0.703520  0.697610  0.234330  1.0  0.0377
  C  C175  1  0.674310  0.842940  0.131800  1.0  -0.3315
  C  C176  1  0.742470  0.679560  0.161510  1.0  -0.3297
  C  C177  1  0.742580  0.201190  0.771680  1.0  -0.0071
  C  C178  1  0.796110  0.200210  0.733380  1.0  0.0287
  C  C179  1  0.836930  0.164200  0.767500  1.0  -0.1132
  C  C180  1  0.826440  0.127320  0.838540  1.0  -0.0897
  C  C181  1  0.772830  0.127460  0.874550  1.0  -0.0852
  C  C182  1  0.731940  0.163920  0.842220  1.0  -0.099
  C  C183  1  0.699080  0.242650  0.742300  1.0  -0.026
  C  C184  1  0.707620  0.298740  0.760620  1.0  -0.0794
  C  C185  1  0.670950  0.339530  0.730360  1.0  -0.088
  C  C186  1  0.623740  0.326420  0.679680  1.0  -0.0943
  C  C187  1  0.614090  0.270150  0.662730  1.0  -0.0694
  C  C188  1  0.650710  0.228440  0.693560  1.0  0.0012
  C  C189  1  0.811710  0.236300  0.655330  1.0  -0.3139
  C  C190  1  0.636900  0.169750  0.671290  1.0  -0.3242
  C  C191  1  0.255730  0.799380  0.768330  1.0  -0.0245
  C  C192  1  0.269880  0.847660  0.817360  1.0  -0.0038
  C  C193  1  0.228120  0.884200  0.848260  1.0  -0.0777
  C  C194  1  0.171860  0.874560  0.831160  1.0  -0.098
  C  C195  1  0.158820  0.827440  0.780210  1.0  -0.0835
  C  C196  1  0.199650  0.790840  0.749840  1.0  -0.0807
  C  C197  1  0.297250  0.755930  0.738950  1.0  0.0167
  C  C198  1  0.334640  0.766670  0.668580  1.0  -0.1015
  C  C199  1  0.371200  0.725850  0.636350  1.0  -0.0858
  C  C200  1  0.371360  0.672220  0.672270  1.0  -0.0876
  C  C201  1  0.334390  0.661650  0.743160  1.0  -0.1117
  C  C202  1  0.298260  0.702390  0.777190  1.0  0.0307
  C  C203  1  0.328530  0.861440  0.839910  1.0  -0.3292
  C  C204  1  0.262080  0.686700  0.855060  1.0  -0.3129
  C  C205  1  0.255460  0.200700  0.769970  1.0  -0.0536
  C  C206  1  0.200740  0.203080  0.736830  1.0  0.0508
  C  C207  1  0.160460  0.165490  0.767990  1.0  -0.0855
  C  C208  1  0.172460  0.124290  0.831800  1.0  -0.1065
  C  C209  1  0.227260  0.121250  0.862370  1.0  -0.0866
  C  C210  1  0.267850  0.158700  0.832080  1.0  -0.1096
  C  C211  1  0.298580  0.243420  0.744600  1.0  -0.0575
  C  C212  1  0.339110  0.231280  0.679830  1.0  -0.1159
  C  C213  1  0.376420  0.271750  0.648770  1.0  -0.0957
  C  C214  1  0.374600  0.326250  0.680950  1.0  -0.1056
  C  C215  1  0.335020  0.337960  0.747600  1.0  -0.0654
  C  C216  1  0.297710  0.297700  0.779820  1.0  0.0293
  C  C217  1  0.183030  0.245300  0.668850  1.0  -0.3222
  C  C218  1  0.257390  0.314920  0.851130  1.0  -0.334
  C  C219  1  0.744620  0.795640  0.771750  1.0  -0.0555
  C  C220  1  0.799650  0.793480  0.740200  1.0  0.061
  C  C221  1  0.839670  0.830360  0.774090  1.0  -0.0886
  C  C222  1  0.827120  0.870670  0.839120  1.0  -0.0976
  C  C223  1  0.772080  0.873430  0.868490  1.0  -0.0851
  C  C224  1  0.731710  0.836570  0.835530  1.0  -0.1038
  C  C225  1  0.701850  0.753350  0.743430  1.0  -0.0616
  C  C226  1  0.662680  0.765990  0.676660  1.0  -0.1013
  C  C227  1  0.625960  0.725760  0.642890  1.0  -0.0905
  C  C228  1  0.627210  0.671090  0.674200  1.0  -0.0991
  C  C229  1  0.665570  0.658870  0.742480  1.0  -0.0988
  C  C230  1  0.702170  0.698820  0.777440  1.0  0.0428
  C  C231  1  0.817980  0.752250  0.671030  1.0  -0.3205
  C  C232  1  0.741140  0.681010  0.850370  1.0  -0.3282
  C  C233  1  0.255360  0.799930  0.244760  1.0  -0.0123
  C  C234  1  0.268020  0.839690  0.177690  1.0  0.0174
  C  C235  1  0.226860  0.876600  0.146100  1.0  -0.045
  C  C236  1  0.172450  0.875150  0.178910  1.0  -0.1009
  C  C237  1  0.160740  0.835720  0.245680  1.0  -0.0667
  C  C238  1  0.201150  0.799040  0.277580  1.0  -0.117
  C  C239  1  0.296390  0.757380  0.278880  1.0  -0.0114
  C  C240  1  0.289970  0.702080  0.253300  1.0  -0.114
  C  C241  1  0.325840  0.660640  0.284090  1.0  -0.065
  C  C242  1  0.370040  0.672410  0.342310  1.0  -0.0993
  C  C243  1  0.376900  0.727820  0.367990  1.0  -0.0783
  C  C244  1  0.340720  0.770000  0.337850  1.0  0.0292
  C  C245  1  0.324110  0.843150  0.135720  1.0  -0.3187
  C  C246  1  0.350440  0.827350  0.372000  1.0  -0.316
  C  C247  1  0.741210  0.202150  0.232410  1.0  -0.0109
  C  C248  1  0.728600  0.157580  0.173920  1.0  0.0299
  C  C249  1  0.770840  0.121540  0.143630  1.0  -0.0738
  C  C250  1  0.826310  0.128720  0.168780  1.0  -0.0979
  C  C251  1  0.838080  0.173140  0.226550  1.0  -0.0614
  C  C252  1  0.796570  0.208910  0.257430  1.0  -0.1179
  C  C253  1  0.698560  0.243050  0.266550  1.0  -0.0121
  C  C254  1  0.698630  0.296970  0.232500  1.0  -0.1207
  C  C255  1  0.661820  0.337280  0.264310  1.0  -0.0722
  C  C256  1  0.623040  0.325740  0.332180  1.0  -0.0934
  C  C257  1  0.622400  0.271610  0.366220  1.0  -0.0426
  C  C258  1  0.659470  0.230560  0.334740  1.0  0.0173
  C  C259  1  0.671150  0.147420  0.140540  1.0  -0.3183
  C  C260  1  0.656960  0.174800  0.378050  1.0  -0.3086
  O  O261  1  0.077140  0.099990  0.163820  1.0  -0.5747
  O  O262  1  0.138820  0.050180  0.080210  1.0  -0.5735
  O  O263  1  0.923180  0.894900  0.156080  1.0  -0.5975
  O  O264  1  0.860620  0.947590  0.079600  1.0  -0.5944
  O  O265  1  0.076680  0.899760  0.164560  1.0  -0.5914
  O  O266  1  0.138730  0.949130  0.081270  1.0  -0.5658
  O  O267  1  0.922480  0.104690  0.155510  1.0  -0.6049
  O  O268  1  0.860360  0.051690  0.078520  1.0  -0.5941
  O  O269  1  0.994220  0.066590  0.259330  1.0  -0.6669
  O  O270  1  0.001610  0.156030  0.114390  1.0  -0.6217
  O  O271  1  0.994240  0.944170  0.260990  1.0  -0.657
  O  O272  1  0.002160  0.846500  0.141650  1.0  -0.6565
  O  O273  1  0.050160  0.000740  0.136260  1.0  -0.8065
  O  O274  1  0.949970  0.000690  0.134990  1.0  -0.8958
  O  O275  1  0.922530  0.103410  0.852780  1.0  -0.5934
  O  O276  1  0.860360  0.051360  0.931500  1.0  -0.5918
  O  O277  1  0.076010  0.898240  0.847230  1.0  -0.5828
  O  O278  1  0.138230  0.949800  0.926460  1.0  -0.5631
  O  O279  1  0.922700  0.895090  0.854490  1.0  -0.5962
  O  O280  1  0.860290  0.947220  0.932290  1.0  -0.5881
  O  O281  1  0.076530  0.099480  0.845310  1.0  -0.5792
  O  O282  1  0.138610  0.049980  0.928560  1.0  -0.5851
  O  O283  1  0.994080  0.059670  0.749340  1.0  -0.6416
  O  O284  1  0.002130  0.154130  0.880550  1.0  -0.613
  O  O285  1  0.993980  0.938310  0.751040  1.0  -0.6508
  O  O286  1  0.003140  0.844240  0.881860  1.0  -0.6403
  O  O287  1  0.949780  0.999080  0.875730  1.0  -0.8841
  O  O288  1  0.049970  0.999080  0.874070  1.0  -0.8196
  O  O289  1  0.950550  0.078830  0.004040  1.0  -0.8222
  O  O290  1  0.046600  0.921080  0.006380  1.0  -0.8572
  O  O291  1  0.046900  0.078220  0.003970  1.0  -0.8584
  O  O292  1  0.951000  0.920340  0.006650  1.0  -0.8375
  O  O293  1  0.398510  0.421830  0.346710  1.0  -0.5883
  O  O294  1  0.447710  0.359750  0.430500  1.0  -0.5799
  O  O295  1  0.603410  0.574740  0.353950  1.0  -0.5938
  O  O296  1  0.551480  0.637690  0.430960  1.0  -0.593
  O  O297  1  0.598490  0.421490  0.346400  1.0  -0.6069
  O  O298  1  0.549020  0.359550  0.429740  1.0  -0.5682
  O  O299  1  0.393980  0.576270  0.355570  1.0  -0.6004
  O  O300  1  0.447150  0.638290  0.432470  1.0  -0.5959
  O  O301  1  0.431700  0.504660  0.251750  1.0  -0.6575
  O  O302  1  0.342460  0.497230  0.397040  1.0  -0.6056
  O  O303  1  0.554330  0.503800  0.249970  1.0  -0.6398
  O  O304  1  0.651980  0.495910  0.369900  1.0  -0.6733
  O  O305  1  0.497550  0.448280  0.374760  1.0  -0.7984
  O  O306  1  0.497920  0.548490  0.376030  1.0  -0.8955
  O  O307  1  0.395250  0.576160  0.658090  1.0  -0.5881
  O  O308  1  0.447420  0.638260  0.579390  1.0  -0.6023
  O  O309  1  0.600070  0.422240  0.663740  1.0  -0.5841
  O  O310  1  0.548400  0.360100  0.584500  1.0  -0.5657
  O  O311  1  0.603070  0.575520  0.657680  1.0  -0.5934
  O  O312  1  0.551530  0.638060  0.579030  1.0  -0.5934
  O  O313  1  0.399100  0.422200  0.666250  1.0  -0.5782
  O  O314  1  0.448230  0.359950  0.582710  1.0  -0.5888
  O  O315  1  0.438740  0.504730  0.761640  1.0  -0.6488
  O  O316  1  0.344360  0.496560  0.630210  1.0  -0.6245
  O  O317  1  0.560470  0.504100  0.759960  1.0  -0.6627
  O  O318  1  0.654310  0.495030  0.628050  1.0  -0.6399
  O  O319  1  0.499530  0.548670  0.635190  1.0  -0.8893
  O  O320  1  0.499290  0.448490  0.636870  1.0  -0.8152
  O  O321  1  0.419830  0.548160  0.507000  1.0  -0.8174
  O  O322  1  0.577220  0.451610  0.504610  1.0  -0.8507
  O  O323  1  0.420110  0.451720  0.507050  1.0  -0.858
  O  O324  1  0.578310  0.547290  0.504280  1.0  -0.8351
