# generated using pymatgen
data_CdH8C17(SO2)2
_symmetry_space_group_name_H-M   'P 1'
_cell_length_a   19.60000000
_cell_length_b   19.60000000
_cell_length_c   20.76000000
_cell_angle_alpha   90.00000000
_cell_angle_beta   90.00000000
_cell_angle_gamma   120.00000000
_symmetry_Int_Tables_number   1
_chemical_formula_structural   CdH8C17(SO2)2
_chemical_formula_sum   'Cd12 H96 C204 S24 O48'
_cell_volume   6906.69254489
_cell_formula_units_Z   12
loop_
 _symmetry_equiv_pos_site_id
 _symmetry_equiv_pos_as_xyz
  1  'x, y, z'
loop_
 _atom_site_type_symbol
 _atom_site_label
 _atom_site_symmetry_multiplicity
 _atom_site_fract_x
 _atom_site_fract_y
 _atom_site_fract_z
 _atom_site_occupancy
 _atom_site_charge
  Cd  Cd1  1  0.654950  0.273080  0.901840  1.0  1.157
  Cd  Cd2  1  0.569180  0.259560  0.077900  1.0  1.0868
  Cd  Cd3  1  0.618130  0.345050  0.235180  1.0  1.1558
  Cd  Cd4  1  0.740440  0.309620  0.744560  1.0  1.0893
  Cd  Cd5  1  0.309620  0.569180  0.911230  1.0  1.0862
  Cd  Cd6  1  0.430820  0.740440  0.577900  1.0  1.0873
  Cd  Cd7  1  0.259560  0.690380  0.244560  1.0  1.0891
  Cd  Cd8  1  0.690380  0.430820  0.411230  1.0  1.0876
  Cd  Cd9  1  0.345050  0.726920  0.401840  1.0  1.157
  Cd  Cd10  1  0.726920  0.381870  0.568510  1.0  1.154
  Cd  Cd11  1  0.381870  0.654950  0.735180  1.0  1.1557
  Cd  Cd12  1  0.273080  0.618130  0.068510  1.0  1.1523
  H  H13  1  0.128200  0.660500  0.857130  1.0  0.1204
  H  H14  1  0.668200  0.923400  0.193070  1.0  0.1106
  H  H15  1  0.310800  0.138600  0.119170  1.0  0.1106
  H  H16  1  0.188100  0.747900  0.474500  1.0  0.1142
  H  H17  1  0.861400  0.172200  0.785830  1.0  0.1103
  H  H18  1  0.255200  0.331800  0.526400  1.0  0.1111
  H  H19  1  0.723500  0.973200  0.937230  1.0  0.1243
  H  H20  1  0.233400  0.875000  0.998130  1.0  0.1208
  H  H21  1  0.973200  0.249700  0.103900  1.0  0.1248
  H  H22  1  0.781300  0.622300  0.349370  1.0  0.1106
  H  H23  1  0.894800  0.199400  0.981400  1.0  0.1113
  H  H24  1  0.931300  0.173700  0.679500  1.0  0.1172
  H  H25  1  0.573300  0.657100  0.928330  1.0  0.1213
  H  H26  1  0.709100  0.741700  0.937430  1.0  0.109
  H  H27  1  0.105200  0.800600  0.481400  1.0  0.1121
  H  H28  1  0.331800  0.076600  0.693070  1.0  0.1102
  H  H29  1  0.724700  0.039300  0.359830  1.0  0.1309
  H  H30  1  0.083800  0.426700  0.261670  1.0  0.1209
  H  H31  1  0.789900  0.505700  0.163100  1.0  0.1189
  H  H32  1  0.757600  0.931300  0.512830  1.0  0.1174
  H  H33  1  0.342900  0.916200  0.595000  1.0  0.1212
  H  H34  1  0.304600  0.105200  0.314730  1.0  0.1107
  H  H35  1  0.410200  0.050900  0.862930  1.0  0.1178
  H  H36  1  0.937900  0.620100  0.579400  1.0  0.1162
  H  H37  1  0.657100  0.083800  0.095000  1.0  0.121
  H  H38  1  0.871800  0.339500  0.357130  1.0  0.1209
  H  H39  1  0.620100  0.682200  0.746070  1.0  0.1161
  H  H40  1  0.339500  0.467700  0.523800  1.0  0.1212
  H  H41  1  0.138600  0.827800  0.285830  1.0  0.1098
  H  H42  1  0.426700  0.342900  0.428330  1.0  0.1215
  H  H43  1  0.358400  0.233400  0.831470  1.0  0.1207
  H  H44  1  0.068700  0.826300  0.179500  1.0  0.117
  H  H45  1  0.173700  0.242400  0.846170  1.0  0.1169
  H  H46  1  0.210100  0.494300  0.663100  1.0  0.1187
  H  H47  1  0.875000  0.641600  0.164800  1.0  0.1216
  H  H48  1  0.741700  0.032600  0.104100  1.0  0.1079
  H  H49  1  0.314600  0.275300  0.693170  1.0  0.1329
  H  H50  1  0.125000  0.358400  0.664800  1.0  0.1213
  H  H51  1  0.903400  0.082300  0.809930  1.0  0.1283
  H  H52  1  0.821100  0.903400  0.643270  1.0  0.1284
  H  H53  1  0.258300  0.967400  0.604100  1.0  0.108
  H  H54  1  0.715800  0.210100  0.496430  1.0  0.119
  H  H55  1  0.685400  0.724700  0.193170  1.0  0.1324
  H  H56  1  0.050900  0.640700  0.029600  1.0  0.1182
  H  H57  1  0.039300  0.314600  0.526500  1.0  0.1327
  H  H58  1  0.766600  0.125000  0.498130  1.0  0.1212
  H  H59  1  0.275300  0.960700  0.859830  1.0  0.1315
  H  H60  1  0.622300  0.841000  0.516030  1.0  0.1107
  H  H61  1  0.284200  0.789900  0.996430  1.0  0.1188
  H  H62  1  0.826300  0.757600  0.346170  1.0  0.1168
  H  H63  1  0.917700  0.821100  0.476600  1.0  0.1273
  H  H64  1  0.032600  0.290900  0.270770  1.0  0.1085
  H  H65  1  0.276500  0.026800  0.437230  1.0  0.1246
  H  H66  1  0.062100  0.379900  0.079400  1.0  0.1167
  H  H67  1  0.923400  0.255200  0.359730  1.0  0.1112
  H  H68  1  0.096600  0.917700  0.309930  1.0  0.128
  H  H69  1  0.172200  0.310800  0.952500  1.0  0.1106
  H  H70  1  0.252100  0.440200  0.141170  1.0  0.1151
  H  H71  1  0.916200  0.573300  0.761670  1.0  0.121
  H  H72  1  0.750300  0.723500  0.770570  1.0  0.1251
  H  H73  1  0.960700  0.685400  0.026500  1.0  0.1328
  H  H74  1  0.811900  0.252100  0.974500  1.0  0.1156
  H  H75  1  0.505700  0.715800  0.329770  1.0  0.1183
  H  H76  1  0.467700  0.128200  0.690470  1.0  0.1203
  H  H77  1  0.076600  0.744800  0.859730  1.0  0.1115
  H  H78  1  0.800600  0.695400  0.648070  1.0  0.1124
  H  H79  1  0.967400  0.709100  0.770770  1.0  0.1084
  H  H80  1  0.695400  0.894800  0.814730  1.0  0.1111
  H  H81  1  0.532300  0.871800  0.190470  1.0  0.1203
  H  H82  1  0.589800  0.949100  0.362930  1.0  0.1182
  H  H83  1  0.218700  0.377700  0.849370  1.0  0.1105
  H  H84  1  0.290900  0.258300  0.437430  1.0  0.1091
  H  H85  1  0.949100  0.359300  0.529600  1.0  0.1193
  H  H86  1  0.660500  0.532300  0.023800  1.0  0.1206
  H  H87  1  0.682200  0.062100  0.912730  1.0  0.1164
  H  H88  1  0.242400  0.068700  0.012830  1.0  0.1172
  H  H89  1  0.440200  0.188100  0.307830  1.0  0.1149
  H  H90  1  0.359300  0.410200  0.696270  1.0  0.1184
  H  H91  1  0.159000  0.781300  0.182700  1.0  0.1104
  H  H92  1  0.026800  0.750300  0.603900  1.0  0.1249
  H  H93  1  0.640700  0.589800  0.196270  1.0  0.1182
  H  H94  1  0.199400  0.304600  0.148070  1.0  0.1127
  H  H95  1  0.559800  0.811900  0.807830  1.0  0.1143
  H  H96  1  0.082300  0.178900  0.976600  1.0  0.1276
  H  H97  1  0.689200  0.861400  0.619170  1.0  0.1108
  H  H98  1  0.747900  0.559800  0.641170  1.0  0.1142
  H  H99  1  0.827800  0.689200  0.452500  1.0  0.1104
  H  H100  1  0.841000  0.218700  0.682700  1.0  0.1108
  H  H101  1  0.178900  0.096600  0.143270  1.0  0.1286
  H  H102  1  0.641600  0.766600  0.331470  1.0  0.1222
  H  H103  1  0.249700  0.276500  0.270570  1.0  0.125
  H  H104  1  0.379900  0.317800  0.246070  1.0  0.1155
  H  H105  1  0.317800  0.937900  0.412730  1.0  0.1163
  H  H106  1  0.744800  0.668200  0.026400  1.0  0.1116
  H  H107  1  0.377700  0.159000  0.016030  1.0  0.1103
  H  H108  1  0.494300  0.284200  0.829770  1.0  0.1192
  C  C109  1  0.848300  0.179700  0.428430  1.0  0.0259
  C  C110  1  0.922300  0.678900  0.744670  1.0  -0.0939
  C  C111  1  0.298300  0.166800  0.149670  1.0  -0.0371
  C  C112  1  0.293900  0.891700  0.572800  1.0  -0.0429
  C  C113  1  0.751000  0.012800  0.905730  1.0  -0.0678
  C  C114  1  0.505700  0.787800  0.258970  1.0  -0.1107
  C  C115  1  0.112000  0.283800  0.212270  1.0  -0.0052
  C  C116  1  0.880700  0.079300  0.054800  1.0  -0.1614
  C  C117  1  0.727100  0.066100  0.891730  1.0  -0.0552
  C  C118  1  0.054800  0.678700  0.060000  1.0  -0.0415
  C  C119  1  0.904100  0.987100  0.254370  1.0  -0.0036
  C  C120  1  0.206300  0.159100  0.765970  1.0  -0.1339
  C  C121  1  0.756600  0.077700  0.078000  1.0  -0.0957
  C  C122  1  0.331400  0.151700  0.761770  1.0  0.0256
  C  C123  1  0.880800  0.125800  0.428530  1.0  -0.1314
  C  C124  1  0.012900  0.917000  0.921030  1.0  -0.0033
  C  C125  1  0.249000  0.987200  0.405730  1.0  -0.0689
  C  C126  1  0.409900  0.202300  0.334530  1.0  -0.0492
  C  C127  1  0.108300  0.402200  0.239470  1.0  -0.0465
  C  C128  1  0.329300  0.152600  0.338930  1.0  -0.1114
  C  C129  1  0.707300  0.593000  0.273070  1.0  -0.1263
  C  C130  1  0.494300  0.212200  0.758970  1.0  -0.1082
  C  C131  1  0.243400  0.922300  0.578000  1.0  -0.0952
  C  C132  1  0.780200  0.857800  0.663570  1.0  -0.114
  C  C133  1  0.272900  0.933900  0.391730  1.0  -0.0518
  C  C134  1  0.157100  0.039800  0.387430  1.0  -0.1525
  C  C135  1  0.218800  0.461400  0.634700  1.0  -0.0533
  C  C136  1  0.212200  0.831800  0.969030  1.0  -0.0825
  C  C137  1  0.590100  0.797700  0.834530  1.0  -0.0463
  C  C138  1  0.336100  0.581400  0.589700  1.0  0.6817
  C  C139  1  0.001300  0.705300  0.058100  1.0  -0.0913
  C  C140  1  0.402200  0.293900  0.406130  1.0  -0.0446
  C  C141  1  0.219800  0.142200  0.163570  1.0  -0.1141
  C  C142  1  0.083000  0.095900  0.587700  1.0  -0.004
  C  C143  1  0.184800  0.983700  0.374230  1.0  0.0101
  C  C144  1  0.119200  0.874200  0.928530  1.0  -0.1312
  C  C145  1  0.762000  0.643000  0.317370  1.0  -0.0192
  C  C146  1  0.868500  0.701700  0.483000  1.0  -0.0361
  C  C147  1  0.798900  0.815200  0.707570  1.0  0.0111
  C  C148  1  0.114300  0.707300  0.106400  1.0  -0.1254
  C  C149  1  0.705300  0.704000  0.224770  1.0  -0.089
  C  C150  1  0.461400  0.242600  0.801370  1.0  -0.0527
  C  C151  1  0.885700  0.292700  0.606400  1.0  -0.1247
  C  C152  1  0.797700  0.207600  0.001200  1.0  -0.0455
  C  C153  1  0.232100  0.874200  0.346930  1.0  -0.1223
  C  C154  1  0.754700  0.336100  0.423030  1.0  0.6795
  C  C155  1  0.150000  0.704300  0.885530  1.0  -0.0411
  C  C156  1  0.272700  0.825700  0.535200  1.0  -0.1289
  C  C157  1  0.258000  0.815200  0.330830  1.0  0.7429
  C  C158  1  0.815200  0.557200  0.497500  1.0  0.7393
  C  C159  1  0.209900  0.534900  0.201170  1.0  0.713
  C  C160  1  0.787800  0.282100  0.425630  1.0  -0.108
  C  C161  1  0.239300  0.246200  0.768870  1.0  0.0157
  C  C162  1  0.704000  0.998700  0.391430  1.0  -0.0908
  C  C163  1  0.788800  0.723500  0.315570  1.0  -0.1231
  C  C164  1  0.052800  0.081600  0.411830  1.0  0.0028
  C  C165  1  0.292700  0.407000  0.773070  1.0  -0.1267
  C  C166  1  0.593000  0.885700  0.439730  1.0  -0.1266
  C  C167  1  0.706100  0.108300  0.072800  1.0  -0.0452
  C  C168  1  0.176700  0.329300  0.172270  1.0  -0.1118
  C  C169  1  0.723500  0.934700  0.482230  1.0  -0.1228
  C  C170  1  0.828200  0.112000  0.045600  1.0  -0.0056
  C  C171  1  0.006900  0.760700  0.102200  1.0  0.0158
  C  C172  1  0.792400  0.590100  0.667870  1.0  -0.052
  C  C173  1  0.142200  0.922400  0.330230  1.0  -0.1086
  C  C174  1  0.245300  0.663900  0.923030  1.0  0.6787
  C  C175  1  0.447000  0.272700  0.368530  1.0  -0.1287
  C  C176  1  0.842900  0.960200  0.887430  1.0  -0.1534
  C  C177  1  0.874200  0.642100  0.513600  1.0  -0.1204
  C  C178  1  0.557200  0.742000  0.664170  1.0  0.7403
  C  C179  1  0.151700  0.820300  0.928430  1.0  0.0262
  C  C180  1  0.357000  0.119000  0.984030  1.0  -0.0194
  C  C181  1  0.039800  0.882700  0.554100  1.0  -0.1524
  C  C182  1  0.125800  0.357900  0.013600  1.0  -0.1206
  C  C183  1  0.952800  0.793700  0.099300  1.0  -0.1337
  C  C184  1  0.238000  0.357000  0.817370  1.0  -0.0192
  C  C185  1  0.922400  0.780200  0.496900  1.0  -0.1104
  C  C186  1  0.755000  0.880800  0.261870  1.0  -0.1316
  C  C187  1  0.175000  0.682000  0.107100  1.0  0.7143
  C  C188  1  0.857800  0.077600  0.830230  1.0  -0.1097
  C  C189  1  0.357900  0.232100  0.180270  1.0  -0.1244
  C  C190  1  0.321300  0.376100  0.726670  1.0  -0.04
  C  C191  1  0.753800  0.993100  0.435530  1.0  0.0154
  C  C192  1  0.781200  0.538600  0.134700  1.0  -0.0539
  C  C193  1  0.971200  0.052800  0.245170  1.0  0.0016
  C  C194  1  0.152600  0.823300  0.505600  1.0  -0.1099
  C  C195  1  0.623900  0.945200  0.393330  1.0  -0.0391
  C  C196  1  0.295700  0.445700  0.552200  1.0  -0.0443
  C  C197  1  0.678700  0.623900  0.226670  1.0  -0.0346
  C  C198  1  0.825000  0.318000  0.607100  1.0  0.7146
  C  C199  1  0.840900  0.047200  0.432630  1.0  -0.1331
  C  C200  1  0.445700  0.150000  0.718870  1.0  -0.0412
  C  C201  1  0.635100  0.880400  0.220270  1.0  -0.0961
  C  C202  1  0.760700  0.753800  0.268870  1.0  0.0163
  C  C203  1  0.077700  0.321100  0.244670  1.0  -0.0933
  C  C204  1  0.131500  0.298300  0.983000  1.0  -0.0362
  C  C205  1  0.179700  0.331400  0.595100  1.0  0.0275
  C  C206  1  0.825700  0.553000  0.701870  1.0  -0.1259
  C  C207  1  0.534900  0.325000  0.367830  1.0  0.711
  C  C208  1  0.171800  0.888000  0.545600  1.0  -0.0045
  C  C209  1  0.678900  0.756600  0.911330  1.0  -0.0936
  C  C210  1  0.318000  0.493000  0.773770  1.0  0.7216
  C  C211  1  0.754700  0.635100  0.053600  1.0  -0.0937
  C  C212  1  0.261800  0.249000  0.239070  1.0  -0.0698
  C  C213  1  0.325000  0.790100  0.534500  1.0  0.7118
  C  C214  1  0.212200  0.717900  0.925630  1.0  -0.1083
  C  C215  1  0.168200  0.380400  0.635700  1.0  -0.0788
  C  C216  1  0.442800  0.258000  0.164170  1.0  0.7393
  C  C217  1  0.079300  0.198600  0.221470  1.0  -0.1617
  C  C218  1  0.742000  0.184800  0.830830  1.0  0.7431
  C  C219  1  0.380400  0.212200  0.802370  1.0  -0.0841
  C  C220  1  0.727300  0.174300  0.035200  1.0  -0.1282
  C  C221  1  0.704300  0.554300  0.052200  1.0  -0.041
  C  C222  1  0.888000  0.716200  0.712270  1.0  -0.0034
  C  C223  1  0.987200  0.738200  0.572400  1.0  -0.0677
  C  C224  1  0.159100  0.952800  0.932630  1.0  -0.1316
  C  C225  1  0.757400  0.218800  0.468030  1.0  -0.0528
  C  C226  1  0.066100  0.339000  0.058400  1.0  -0.0562
  C  C227  1  0.661000  0.727100  0.725070  1.0  -0.0482
  C  C228  1  0.619600  0.787800  0.302370  1.0  -0.0829
  C  C229  1  0.823300  0.670700  0.672270  1.0  -0.1101
  C  C230  1  0.465100  0.675000  0.867830  1.0  0.7119
  C  C231  1  0.716200  0.828200  0.878930  1.0  -0.0044
  C  C232  1  0.790100  0.465100  0.701170  1.0  0.7127
  C  C233  1  0.891700  0.597800  0.739470  1.0  -0.044
  C  C234  1  0.174300  0.447000  0.201870  1.0  -0.1266
  C  C235  1  0.047200  0.206300  0.599300  1.0  -0.1343
  C  C236  1  0.581400  0.245300  0.756370  1.0  0.6794
  C  C237  1  0.283800  0.171800  0.378930  1.0  -0.012
  C  C238  1  0.119600  0.754700  0.886930  1.0  -0.0939
  C  C239  1  0.993100  0.239300  0.602200  1.0  0.0157
  C  C240  1  0.364900  0.119600  0.720270  1.0  -0.0973
  C  C241  1  0.663900  0.418600  0.089700  1.0  0.6811
  C  C242  1  0.418600  0.754700  0.256370  1.0  0.6798
  C  C243  1  0.211200  0.276500  0.815570  1.0  -0.1217
  C  C244  1  0.246200  0.006900  0.935530  1.0  0.0151
  C  C245  1  0.918400  0.971200  0.078500  1.0  0.0018
  C  C246  1  0.642100  0.767900  0.680270  1.0  -0.1262
  C  C247  1  0.554300  0.850000  0.218870  1.0  -0.0411
  C  C248  1  0.920700  0.801400  0.721470  1.0  -0.1621
  C  C249  1  0.125800  0.245000  0.595200  1.0  -0.1331
  C  C250  1  0.831800  0.619600  0.135700  1.0  -0.0816
  C  C251  1  0.947200  0.918400  0.911830  1.0  0.0016
  C  C252  1  0.065300  0.788800  0.148900  1.0  -0.1258
  C  C253  1  0.933900  0.661000  0.558400  1.0  -0.0504
  C  C254  1  0.296000  0.001300  0.891430  1.0  -0.0943
  C  C255  1  0.820300  0.668600  0.095100  1.0  0.0284
  C  C256  1  0.767900  0.125800  0.846930  1.0  -0.1235
  C  C257  1  0.668600  0.848300  0.261770  1.0  0.0259
  C  C258  1  0.847400  0.176700  0.005600  1.0  -0.1135
  C  C259  1  0.321100  0.243400  0.411330  1.0  -0.094
  C  C260  1  0.184800  0.442800  0.997500  1.0  0.7458
  C  C261  1  0.119300  0.920700  0.554800  1.0  -0.163
  C  C262  1  0.643000  0.881000  0.484030  1.0  -0.0201
  C  C263  1  0.207600  0.409900  0.167870  1.0  -0.0501
  C  C264  1  0.934700  0.211200  0.648900  1.0  -0.1236
  C  C265  1  0.701700  0.833200  0.649670  1.0  -0.0367
  C  C266  1  0.882700  0.842900  0.720770  1.0  -0.1531
  C  C267  1  0.833200  0.131500  0.816330  1.0  -0.0359
  C  C268  1  0.945200  0.321300  0.560000  1.0  -0.0412
  C  C269  1  0.717900  0.505700  0.092300  1.0  -0.106
  C  C270  1  0.538600  0.757400  0.301370  1.0  -0.0545
  C  C271  1  0.874200  0.755000  0.095200  1.0  -0.1316
  C  C272  1  0.028800  0.947200  0.745170  1.0  0.0025
  C  C273  1  0.276500  0.065300  0.982230  1.0  -0.1213
  C  C274  1  0.998700  0.294700  0.558100  1.0  -0.0923
  C  C275  1  0.198600  0.119300  0.388130  1.0  -0.1614
  C  C276  1  0.081600  0.028800  0.578500  1.0  0.0015
  C  C277  1  0.376100  0.054800  0.893330  1.0  -0.041
  C  C278  1  0.682000  0.507000  0.273770  1.0  0.719
  C  C279  1  0.245000  0.119200  0.761870  1.0  -0.1325
  C  C280  1  0.493000  0.175000  0.940430  1.0  0.7147
  C  C281  1  0.960200  0.117300  0.054100  1.0  -0.1554
  C  C282  1  0.016300  0.201100  0.040900  1.0  0.0112
  C  C283  1  0.407000  0.114300  0.939730  1.0  -0.1275
  C  C284  1  0.012800  0.261800  0.072400  1.0  -0.0666
  C  C285  1  0.339000  0.272900  0.225070  1.0  -0.051
  C  C286  1  0.738200  0.751000  0.739070  1.0  -0.0685
  C  C287  1  0.917000  0.904100  0.087700  1.0  -0.0038
  C  C288  1  0.202300  0.792400  0.501200  1.0  -0.0466
  C  C289  1  0.815200  0.016300  0.874230  1.0  0.0114
  C  C290  1  0.553000  0.727300  0.868530  1.0  -0.1282
  C  C291  1  0.242600  0.781200  0.968030  1.0  -0.0535
  C  C292  1  0.670700  0.847400  0.838930  1.0  -0.1091
  C  C293  1  0.166800  0.868500  0.316330  1.0  -0.0359
  C  C294  1  0.077600  0.219800  0.996900  1.0  -0.1092
  C  C295  1  0.793700  0.840900  0.265970  1.0  -0.1341
  C  C296  1  0.983700  0.798900  0.540900  1.0  0.0117
  C  C297  1  0.119000  0.762000  0.150700  1.0  -0.0202
  C  C298  1  0.507000  0.825000  0.440430  1.0  0.7159
  C  C299  1  0.201100  0.184800  0.207570  1.0  0.0107
  C  C300  1  0.294700  0.296000  0.724770  1.0  -0.0914
  C  C301  1  0.881000  0.238000  0.650700  1.0  -0.0201
  C  C302  1  0.787800  0.168200  0.469030  1.0  -0.0802
  C  C303  1  0.801400  0.880700  0.888130  1.0  -0.1607
  C  C304  1  0.282100  0.494300  0.592300  1.0  -0.1038
  C  C305  1  0.987100  0.083000  0.421030  1.0  -0.0033
  C  C306  1  0.095900  0.012900  0.754370  1.0  -0.0036
  C  C307  1  0.245300  0.364900  0.553600  1.0  -0.0958
  C  C308  1  0.880400  0.245300  0.386930  1.0  -0.0943
  C  C309  1  0.117300  0.157100  0.220770  1.0  -0.1541
  C  C310  1  0.675000  0.209900  0.034500  1.0  0.7103
  C  C311  1  0.850000  0.295700  0.385530  1.0  -0.0406
  C  C312  1  0.597800  0.706100  0.906130  1.0  -0.0455
  S  S313  1  0.145140  0.167120  0.405650  1.0  0.0657
  S  S314  1  0.937460  0.943120  0.740030  1.0  0.0685
  S  S315  1  0.062540  0.056880  0.240030  1.0  0.0705
  S  S316  1  0.187110  0.015880  0.758290  1.0  0.0486
  S  S317  1  0.812890  0.984120  0.258290  1.0  0.0484
  S  S318  1  0.978020  0.145140  0.238990  1.0  0.061
  S  S319  1  0.167120  0.021980  0.572320  1.0  0.0661
  S  S320  1  0.171230  0.187110  0.591620  1.0  0.0471
  S  S321  1  0.994340  0.937460  0.573360  1.0  0.0689
  S  S322  1  0.828770  0.812890  0.091620  1.0  0.0473
  S  S323  1  0.998290  0.103140  0.599690  1.0  0.0576
  S  S324  1  0.056880  0.994340  0.406690  1.0  0.0703
  S  S325  1  0.854860  0.832880  0.905650  1.0  0.0653
  S  S326  1  0.015880  0.828770  0.924950  1.0  0.0468
  S  S327  1  0.896860  0.895150  0.266360  1.0  0.0558
  S  S328  1  0.943120  0.005660  0.906690  1.0  0.0688
  S  S329  1  0.103140  0.104850  0.766360  1.0  0.0561
  S  S330  1  0.832880  0.978020  0.072320  1.0  0.0688
  S  S331  1  0.984120  0.171230  0.424950  1.0  0.048
  S  S332  1  0.005660  0.062540  0.073360  1.0  0.0689
  S  S333  1  0.104850  0.001710  0.933020  1.0  0.0571
  S  S334  1  0.001710  0.896860  0.099690  1.0  0.0562
  S  S335  1  0.895150  0.998290  0.433020  1.0  0.0582
  S  S336  1  0.021980  0.854860  0.738990  1.0  0.0642
  O  O337  1  0.777700  0.388000  0.380330  1.0  -0.5837
  O  O338  1  0.283100  0.516100  0.810470  1.0  -0.6962
  O  O339  1  0.536600  0.165500  0.901130  1.0  -0.5901
  O  O340  1  0.375000  0.702700  0.296970  1.0  -0.7046
  O  O341  1  0.222300  0.612000  0.880330  1.0  -0.5843
  O  O342  1  0.387600  0.823500  0.567000  1.0  -0.57
  O  O343  1  0.726700  0.423600  0.670670  1.0  -0.6935
  O  O344  1  0.303100  0.726700  0.504000  1.0  -0.6905
  O  O345  1  0.814500  0.505300  0.533200  1.0  -0.6706
  O  O346  1  0.388000  0.610300  0.547000  1.0  -0.5839
  O  O347  1  0.423600  0.696900  0.837330  1.0  -0.6939
  O  O348  1  0.564100  0.387600  0.400330  1.0  -0.5713
  O  O349  1  0.494700  0.309200  0.199870  1.0  -0.6709
  O  O350  1  0.576400  0.303100  0.337330  1.0  -0.6951
  O  O351  1  0.516100  0.233000  0.977130  1.0  -0.6933
  O  O352  1  0.672300  0.375000  0.130300  1.0  -0.7077
  O  O353  1  0.327700  0.625000  0.630300  1.0  -0.7077
  O  O354  1  0.297300  0.672300  0.963630  1.0  -0.7052
  O  O355  1  0.772200  0.545800  0.449200  1.0  -0.5774
  O  O356  1  0.227800  0.454200  0.949200  1.0  -0.5785
  O  O357  1  0.773600  0.227800  0.782530  1.0  -0.577
  O  O358  1  0.176500  0.564100  0.233670  1.0  -0.5702
  O  O359  1  0.185500  0.494700  0.033200  1.0  -0.671
  O  O360  1  0.612000  0.389700  0.047000  1.0  -0.5826
  O  O361  1  0.628900  0.463400  0.234470  1.0  -0.591
  O  O362  1  0.165500  0.628900  0.067800  1.0  -0.5885
  O  O363  1  0.389700  0.777700  0.213670  1.0  -0.5826
  O  O364  1  0.716900  0.483900  0.310470  1.0  -0.6957
  O  O365  1  0.834500  0.371100  0.567800  1.0  -0.5879
  O  O366  1  0.702700  0.327700  0.463630  1.0  -0.7051
  O  O367  1  0.696900  0.273300  0.004000  1.0  -0.6915
  O  O368  1  0.505300  0.690800  0.699870  1.0  -0.6711
  O  O369  1  0.610300  0.222300  0.713670  1.0  -0.5829
  O  O370  1  0.625000  0.297300  0.796970  1.0  -0.7038
  O  O371  1  0.767000  0.283100  0.643800  1.0  -0.6962
  O  O372  1  0.823500  0.435900  0.733670  1.0  -0.5693
  O  O373  1  0.612400  0.176500  0.067000  1.0  -0.572
  O  O374  1  0.483900  0.767000  0.477130  1.0  -0.6939
  O  O375  1  0.545800  0.773600  0.615870  1.0  -0.5779
  O  O376  1  0.226400  0.772200  0.282530  1.0  -0.5771
  O  O377  1  0.309200  0.814500  0.366530  1.0  -0.6705
  O  O378  1  0.454200  0.226400  0.115870  1.0  -0.5783
  O  O379  1  0.463400  0.834500  0.401130  1.0  -0.5909
  O  O380  1  0.273300  0.576400  0.170670  1.0  -0.6959
  O  O381  1  0.233000  0.716900  0.143800  1.0  -0.6967
  O  O382  1  0.371100  0.536600  0.734470  1.0  -0.5918
  O  O383  1  0.435900  0.612400  0.900330  1.0  -0.5714
  O  O384  1  0.690800  0.185500  0.866530  1.0  -0.6705
