# generated using pymatgen
data_Zr6Fe3H80C144(N3O8)4
_symmetry_space_group_name_H-M   'P 1'
_cell_length_a   21.43000000
_cell_length_b   21.43000000
_cell_length_c   16.89000000
_cell_angle_alpha   90.00000000
_cell_angle_beta   90.00000000
_cell_angle_gamma   120.00000000
_symmetry_Int_Tables_number   1
_chemical_formula_structural   Zr6Fe3H80C144(N3O8)4
_chemical_formula_sum   'Zr6 Fe3 H80 C144 N12 O32'
_cell_volume   6717.45279680
_cell_formula_units_Z   1
loop_
 _symmetry_equiv_pos_site_id
 _symmetry_equiv_pos_as_xyz
  1  'x, y, z'
loop_
 _atom_site_type_symbol
 _atom_site_label
 _atom_site_symmetry_multiplicity
 _atom_site_fract_x
 _atom_site_fract_y
 _atom_site_fract_z
 _atom_site_occupancy
 _atom_site_charge
  Zr  Zr1  1  0.928340  0.926140  0.092530  1.0  1.8387
  Zr  Zr2  1  0.073780  0.074080  0.092760  1.0  1.8341
  Zr  Zr3  1  0.074010  0.073950  0.908280  1.0  1.8327
  Zr  Zr4  1  0.928520  0.926190  0.908140  1.0  1.8402
  Zr  Zr5  1  0.061470  0.943330  0.000550  1.0  1.7735
  Zr  Zr6  1  0.941130  0.057120  0.000510  1.0  1.7496
  Fe  Fe7  1  0.000000  0.500000  0.500000  1.0  0.9464
  Fe  Fe8  1  0.500000  0.500000  0.500000  1.0  0.9476
  Fe  Fe9  1  0.500000  0.000000  0.500000  1.0  0.9458
  H  H10  1  0.987220  0.423020  0.204530  1.0  0.2556
  H  H11  1  0.005540  0.270810  0.421950  1.0  0.106
  H  H12  1  0.893940  0.278210  0.257410  1.0  0.1156
  H  H13  1  0.953190  0.349450  0.188160  1.0  0.1884
  H  H14  1  0.950250  0.267240  0.113230  1.0  0.1158
  H  H15  1  0.895750  0.196670  0.185370  1.0  0.1115
  H  H16  1  0.100350  0.346240  0.336330  1.0  0.1243
  H  H17  1  0.046310  0.211200  0.096550  1.0  0.1573
  H  H18  1  0.098710  0.250220  0.249700  1.0  0.1124
  H  H19  1  0.576980  0.564190  0.204530  1.0  0.1132
  H  H20  1  0.729190  0.734730  0.421950  1.0  0.1149
  H  H21  1  0.745160  0.634260  0.337170  1.0  0.112
  H  H22  1  0.842440  0.730640  0.251860  1.0  0.3844
  H  H23  1  0.583600  0.674770  0.225190  1.0  0.1157
  H  H24  1  0.680350  0.768930  0.136240  1.0  0.1138
  H  H25  1  0.436820  0.011540  0.202050  1.0  0.1322
  H  H26  1  0.265270  0.994460  0.421950  1.0  0.1369
  H  H27  1  0.321000  0.079000  0.361740  1.0  0.1845
  H  H28  1  0.227730  0.078120  0.273330  1.0  0.1663
  H  H29  1  0.352560  0.938820  0.196110  1.0  0.1777
  H  H30  1  0.255430  0.938200  0.106260  1.0  0.1165
  H  H31  1  0.012250  0.563390  0.190800  1.0  0.1507
  H  H32  1  0.994460  0.729190  0.421950  1.0  0.1076
  H  H33  1  0.107140  0.720980  0.257480  1.0  0.1151
  H  H34  1  0.047510  0.649730  0.188440  1.0  0.1416
  H  H35  1  0.051450  0.732050  0.112890  1.0  0.1166
  H  H36  1  0.106410  0.802690  0.184790  1.0  0.1192
  H  H37  1  0.901130  0.655250  0.335990  1.0  0.1203
  H  H38  1  0.904090  0.751580  0.248690  1.0  0.4079
  H  H39  1  0.436610  0.448850  0.190800  1.0  0.1124
  H  H40  1  0.270810  0.265270  0.421950  1.0  0.1122
  H  H41  1  0.310940  0.417230  0.240760  1.0  0.1212
  H  H42  1  0.216290  0.321660  0.150770  1.0  0.1109
  H  H43  1  0.374640  0.262080  0.321440  1.0  0.1159
  H  H44  1  0.278760  0.165820  0.234660  1.0  0.1065
  H  H45  1  0.551150  0.987750  0.190800  1.0  0.114
  H  H46  1  0.734730  0.005540  0.421950  1.0  0.1112
  H  H47  1  0.658540  0.900820  0.343960  1.0  0.1153
  H  H48  1  0.754370  0.902030  0.257150  1.0  0.1084
  H  H49  1  0.672680  0.084450  0.212210  1.0  0.1132
  H  H50  1  0.787700  0.948800  0.097060  1.0  0.1622
  H  H51  1  0.769320  0.083700  0.123260  1.0  0.1204
  H  H52  1  0.012780  0.576980  0.795470  1.0  0.1415
  H  H53  1  0.994380  0.731240  0.573830  1.0  0.1141
  H  H54  1  0.095670  0.679850  0.781040  1.0  0.1783
  H  H55  1  0.096610  0.776600  0.871320  1.0  0.1141
  H  H56  1  0.901830  0.656300  0.663660  1.0  0.1269
  H  H57  1  0.905030  0.752610  0.751100  1.0  0.4356
  H  H58  1  0.423020  0.435810  0.795470  1.0  0.193
  H  H59  1  0.268760  0.263140  0.573830  1.0  0.1142
  H  H60  1  0.254770  0.365030  0.663660  1.0  0.1174
  H  H61  1  0.158270  0.267960  0.749150  1.0  0.3552
  H  H62  1  0.417830  0.325810  0.773880  1.0  0.1127
  H  H63  1  0.321970  0.231020  0.863010  1.0  0.121
  H  H64  1  0.564190  0.987220  0.795470  1.0  0.1797
  H  H65  1  0.736860  0.005620  0.573830  1.0  0.1094
  H  H66  1  0.659060  0.901120  0.656070  1.0  0.1155
  H  H67  1  0.754830  0.902410  0.743080  1.0  0.1125
  H  H68  1  0.672580  0.084390  0.788000  1.0  0.1195
  H  H69  1  0.769230  0.083740  0.877110  1.0  0.1166
  H  H70  1  0.940790  0.425420  0.774960  1.0  0.1356
  H  H71  1  0.040740  0.466940  0.787760  1.0  0.1162
  H  H72  1  0.005620  0.268760  0.573830  1.0  0.1143
  H  H73  1  0.905730  0.320350  0.782430  1.0  0.2038
  H  H74  1  0.906110  0.224180  0.872730  1.0  0.1191
  H  H75  1  0.098530  0.343780  0.662650  1.0  0.1223
  H  H76  1  0.045530  0.211740  0.905580  1.0  0.1626
  H  H77  1  0.096600  0.248130  0.750110  1.0  0.3994
  H  H78  1  0.563390  0.551150  0.809200  1.0  0.1088
  H  H79  1  0.731240  0.736860  0.573830  1.0  0.1115
  H  H80  1  0.745560  0.635070  0.661990  1.0  0.1151
  H  H81  1  0.842860  0.731460  0.747230  1.0  0.3821
  H  H82  1  0.583710  0.674130  0.775760  1.0  0.1171
  H  H83  1  0.680530  0.768220  0.864680  1.0  0.1195
  H  H84  1  0.435950  0.009830  0.798230  1.0  0.3504
  H  H85  1  0.263140  0.994380  0.573830  1.0  0.1262
  H  H86  1  0.415030  0.056900  0.812330  1.0  0.1794
  H  H87  1  0.321050  0.059060  0.901540  1.0  0.1234
  H  H88  1  0.248650  0.939890  0.634210  1.0  0.2333
  H  H89  1  0.154950  0.945200  0.722450  1.0  0.1124
  C  C90  1  0.001000  0.456000  0.328000  1.0  0.2587
  C  C91  1  0.996000  0.466700  0.249000  1.0  -0.1077
  C  C92  1  0.998600  0.390800  0.347400  1.0  -0.0921
  C  C93  1  0.002000  0.370000  0.425000  1.0  -0.1019
  C  C94  1  0.004000  0.314000  0.459920  1.0  -0.0873
  C  C95  1  0.001910  0.339570  0.285010  1.0  0.0414
  C  C96  1  0.948500  0.303520  0.226510  1.0  -0.182
  C  C97  1  0.948510  0.249520  0.177220  1.0  -0.1978
  C  C98  1  0.055080  0.318990  0.291080  1.0  -0.0623
  C  C99  1  0.000690  0.169110  0.134550  1.0  0.0671
  C  C100  1  0.001170  0.228410  0.185060  1.0  0.0834
  C  C101  1  0.054780  0.265010  0.242620  1.0  -0.1287
  C  C102  1  0.544000  0.545000  0.328000  1.0  0.2238
  C  C103  1  0.533300  0.529300  0.249000  1.0  -0.0848
  C  C104  1  0.609200  0.607800  0.347400  1.0  -0.0242
  C  C105  1  0.630000  0.632000  0.425000  1.0  -0.1075
  C  C106  1  0.686000  0.690000  0.459920  1.0  -0.0857
  C  C107  1  0.660770  0.652290  0.286940  1.0  0.0464
  C  C108  1  0.731490  0.666070  0.293290  1.0  -0.1045
  C  C109  1  0.784320  0.718230  0.246230  1.0  0.0376
  C  C110  1  0.642010  0.688150  0.230890  1.0  -0.11
  C  C111  1  0.823110  0.817310  0.155460  1.0  0.5454
  C  C112  1  0.765990  0.755300  0.192140  1.0  0.0123
  C  C113  1  0.695080  0.739860  0.182670  1.0  -0.1113
  C  C114  1  0.453010  0.001420  0.329390  1.0  0.225
  C  C115  1  0.470700  0.004000  0.249000  1.0  -0.1084
  C  C116  1  0.392200  0.001400  0.347400  1.0  -0.0044
  C  C117  1  0.368000  0.998000  0.425000  1.0  -0.0838
  C  C118  1  0.310000  0.996000  0.459920  1.0  -0.0881
  C  C119  1  0.343930  0.006760  0.288020  1.0  0.0255
  C  C120  1  0.307660  0.045560  0.305290  1.0  -0.0329
  C  C121  1  0.254500  0.045650  0.255860  1.0  -0.1113
  C  C122  1  0.324030  0.969330  0.214660  1.0  -0.0929
  C  C123  1  0.173290  0.004790  0.133890  1.0  0.6251
  C  C124  1  0.233250  0.006460  0.184860  1.0  -0.1365
  C  C125  1  0.270070  0.969100  0.164590  1.0  -0.0819
  C  C126  1  0.999000  0.544000  0.328000  1.0  0.2788
  C  C127  1  0.004000  0.533300  0.249000  1.0  -0.0942
  C  C128  1  0.001400  0.609200  0.347400  1.0  -0.063
  C  C129  1  0.998000  0.630000  0.425000  1.0  -0.1033
  C  C130  1  0.996000  0.686000  0.459920  1.0  -0.0913
  C  C131  1  0.999020  0.660690  0.284920  1.0  0.0585
  C  C132  1  0.052660  0.696040  0.226450  1.0  -0.1771
  C  C133  1  0.053350  0.750120  0.176760  1.0  -0.2084
  C  C134  1  0.946440  0.681980  0.290710  1.0  -0.0509
  C  C135  1  0.002030  0.831130  0.133620  1.0  0.6716
  C  C136  1  0.001180  0.771870  0.184290  1.0  0.0266
  C  C137  1  0.947500  0.736030  0.241900  1.0  -0.0345
  C  C138  1  0.456000  0.455000  0.328000  1.0  0.2366
  C  C139  1  0.466700  0.470700  0.249000  1.0  -0.1272
  C  C140  1  0.390800  0.392200  0.347400  1.0  0.0185
  C  C141  1  0.370000  0.368000  0.425000  1.0  -0.1016
  C  C142  1  0.314000  0.310000  0.459920  1.0  -0.09
  C  C143  1  0.344850  0.342670  0.286740  1.0  0.0685
  C  C144  1  0.302640  0.360390  0.239120  1.0  -0.141
  C  C145  1  0.250950  0.308030  0.190290  1.0  -0.1073
  C  C146  1  0.337690  0.274320  0.284170  1.0  -0.1035
  C  C147  1  0.180920  0.181250  0.154680  1.0  0.5533
  C  C148  1  0.242430  0.239150  0.190610  1.0  0.0232
  C  C149  1  0.285780  0.222160  0.236370  1.0  -0.1015
  C  C150  1  0.545000  0.001000  0.328000  1.0  0.2943
  C  C151  1  0.529300  0.996000  0.249000  1.0  -0.0796
  C  C152  1  0.607800  0.998600  0.347400  1.0  -0.0608
  C  C153  1  0.632000  0.002000  0.425000  1.0  -0.0988
  C  C154  1  0.690000  0.004000  0.459920  1.0  -0.0861
  C  C155  1  0.658190  0.993250  0.285180  1.0  0.0018
  C  C156  1  0.682570  0.943270  0.295310  1.0  -0.0666
  C  C157  1  0.736620  0.943430  0.246820  1.0  -0.0959
  C  C158  1  0.690710  0.043300  0.222790  1.0  -0.0718
  C  C159  1  0.829400  0.995150  0.134610  1.0  0.0407
  C  C160  1  0.769640  0.993850  0.185330  1.0  -0.0355
  C  C161  1  0.744750  0.043200  0.173710  1.0  -0.0773
  C  C162  1  0.999000  0.544000  0.672000  1.0  0.178
  C  C163  1  0.004000  0.533300  0.751000  1.0  -0.0376
  C  C164  1  0.001400  0.609200  0.652600  1.0  -0.0957
  C  C165  1  0.998000  0.630000  0.575000  1.0  -0.0934
  C  C166  1  0.996000  0.686000  0.540080  1.0  -0.0774
  C  C167  1  0.999190  0.660850  0.715130  1.0  -0.0035
  C  C168  1  0.052610  0.695840  0.773950  1.0  -0.0392
  C  C169  1  0.053430  0.749960  0.823750  1.0  -0.08
  C  C170  1  0.946980  0.682630  0.709180  1.0  -0.0528
  C  C171  1  0.002430  0.831390  0.866900  1.0  0.6595
  C  C172  1  0.001600  0.772160  0.816060  1.0  -0.1195
  C  C173  1  0.948160  0.736700  0.758090  1.0  -0.0587
  C  C174  1  0.456000  0.455000  0.672000  1.0  0.2107
  C  C175  1  0.466700  0.470700  0.751000  1.0  -0.0857
  C  C176  1  0.390800  0.392200  0.652600  1.0  0.0126
  C  C177  1  0.370000  0.368000  0.575000  1.0  -0.1045
  C  C178  1  0.314000  0.310000  0.540080  1.0  -0.0624
  C  C179  1  0.339730  0.347500  0.713050  1.0  0.0607
  C  C180  1  0.268870  0.333290  0.707170  1.0  -0.0849
  C  C181  1  0.216560  0.280810  0.754270  1.0  -0.1004
  C  C182  1  0.359230  0.311910  0.768640  1.0  -0.0885
  C  C183  1  0.179060  0.181920  0.844630  1.0  0.5616
  C  C184  1  0.235610  0.243940  0.807800  1.0  0.0138
  C  C185  1  0.306680  0.259890  0.816900  1.0  -0.0943
  C  C186  1  0.545000  0.001000  0.672000  1.0  0.2817
  C  C187  1  0.529300  0.996000  0.751000  1.0  0.0089
  C  C188  1  0.607800  0.998600  0.652600  1.0  -0.1094
  C  C189  1  0.632000  0.002000  0.575000  1.0  -0.1018
  C  C190  1  0.690000  0.004000  0.540080  1.0  -0.0769
  C  C191  1  0.658320  0.993350  0.714900  1.0  -0.0172
  C  C192  1  0.682900  0.943510  0.704800  1.0  -0.0569
  C  C193  1  0.736950  0.943710  0.753420  1.0  -0.1162
  C  C194  1  0.690730  0.043330  0.777420  1.0  -0.0865
  C  C195  1  0.829580  0.995300  0.865980  1.0  0.6157
  C  C196  1  0.769840  0.994030  0.815060  1.0  -0.1154
  C  C197  1  0.744780  0.043280  0.826610  1.0  -0.077
  C  C198  1  0.001000  0.456000  0.672000  1.0  0.2834
  C  C199  1  0.996000  0.466700  0.751000  1.0  -0.1705
  C  C200  1  0.998600  0.390800  0.652600  1.0  -0.0726
  C  C201  1  0.002000  0.370000  0.575000  1.0  -0.1135
  C  C202  1  0.004000  0.314000  0.540080  1.0  -0.0691
  C  C203  1  0.001550  0.339350  0.715190  1.0  0.0069
  C  C204  1  0.948840  0.304500  0.774760  1.0  -0.1095
  C  C205  1  0.948760  0.250690  0.824600  1.0  -0.0802
  C  C206  1  0.053840  0.317650  0.708700  1.0  -0.0616
  C  C207  1  0.000290  0.169420  0.867370  1.0  0.0435
  C  C208  1  0.000640  0.228550  0.816380  1.0  -0.0245
  C  C209  1  0.053400  0.263880  0.757670  1.0  -0.0769
  C  C210  1  0.544000  0.545000  0.672000  1.0  0.2119
  C  C211  1  0.533300  0.529300  0.751000  1.0  -0.109
  C  C212  1  0.609200  0.607800  0.652600  1.0  -0.0247
  C  C213  1  0.630000  0.632000  0.575000  1.0  -0.1028
  C  C214  1  0.686000  0.690000  0.540080  1.0  -0.0619
  C  C215  1  0.660930  0.652310  0.713070  1.0  0.0575
  C  C216  1  0.731790  0.666530  0.706250  1.0  -0.1128
  C  C217  1  0.784670  0.718700  0.753300  1.0  -0.0689
  C  C218  1  0.642180  0.687790  0.769620  1.0  -0.1349
  C  C219  1  0.823430  0.817340  0.844850  1.0  0.538
  C  C220  1  0.766320  0.755370  0.807920  1.0  0.012
  C  C221  1  0.695300  0.739490  0.817850  1.0  -0.1089
  C  C222  1  0.454500  0.004360  0.670520  1.0  0.2226
  C  C223  1  0.470700  0.004000  0.751000  1.0  -0.1099
  C  C224  1  0.392200  0.001400  0.652600  1.0  -0.0034
  C  C225  1  0.368000  0.998000  0.575000  1.0  -0.0116
  C  C226  1  0.310000  0.996000  0.540080  1.0  -0.1134
  C  C227  1  0.339910  0.000160  0.712530  1.0  0.0216
  C  C228  1  0.357440  0.031850  0.789330  1.0  -0.1085
  C  C229  1  0.304790  0.033740  0.840210  1.0  -0.0584
  C  C230  1  0.265270  0.968640  0.693790  1.0  -0.0427
  C  C231  1  0.173930  0.005680  0.868060  1.0  0.6064
  C  C232  1  0.231880  0.004750  0.816650  1.0  -0.0849
  C  C233  1  0.213380  0.971070  0.742830  1.0  -0.0996
  N  N234  1  0.000000  0.500000  0.384000  1.0  -0.4926
  N  N235  1  0.500000  0.500000  0.384000  1.0  -0.4878
  N  N236  1  0.500000  0.000000  0.384000  1.0  -0.4952
  N  N237  1  0.000000  0.500000  0.616000  1.0  -0.4769
  N  N238  1  0.500000  0.500000  0.616000  1.0  -0.4874
  N  N239  1  0.500000  0.000000  0.616000  1.0  -0.398
  N  N240  1  0.010000  0.416000  0.500000  1.0  -0.2565
  N  N241  1  0.584000  0.594000  0.500000  1.0  -0.2651
  N  N242  1  0.406000  0.990000  0.500000  1.0  -0.2212
  N  N243  1  0.990000  0.584000  0.500000  1.0  -0.2659
  N  N244  1  0.416000  0.406000  0.500000  1.0  -0.2516
  N  N245  1  0.594000  0.010000  0.500000  1.0  -0.2504
  O  O246  1  0.958770  0.145600  0.073040  1.0  -0.6313
  O  O247  1  0.041020  0.141840  0.155600  1.0  -0.6659
  O  O248  1  0.829170  0.830050  0.082850  1.0  -0.5826
  O  O249  1  0.875540  0.866130  0.192960  1.0  -0.6576
  O  O250  1  0.151190  0.963420  0.072030  1.0  -0.595
  O  O251  1  0.044270  0.854860  0.072510  1.0  -0.5904
  O  O252  1  0.168490  0.174090  0.082070  1.0  -0.5815
  O  O253  1  0.858390  0.956290  0.155640  1.0  -0.6758
  O  O254  1  0.851770  0.036810  0.072860  1.0  -0.6476
  O  O255  1  0.044540  0.855050  0.928160  1.0  -0.5896
  O  O256  1  0.961880  0.858430  0.846200  1.0  -0.7287
  O  O257  1  0.174020  0.168940  0.917120  1.0  -0.5914
  O  O258  1  0.125900  0.133660  0.807550  1.0  -0.6737
  O  O259  1  0.858560  0.956380  0.845030  1.0  -0.6746
  O  O260  1  0.851880  0.036910  0.927820  1.0  -0.5935
  O  O261  1  0.958110  0.145640  0.928580  1.0  -0.6407
  O  O262  1  0.041110  0.142580  0.846870  1.0  -0.6618
  O  O263  1  0.829680  0.829640  0.917560  1.0  -0.5835
  O  O264  1  0.875650  0.866550  0.807470  1.0  -0.6641
  O  O265  1  0.143340  0.042660  0.845270  1.0  -0.6824
  O  O266  1  0.152490  0.965200  0.930560  1.0  -0.597
  O  O267  1  0.961460  0.858130  0.154300  1.0  -0.7241
  O  O268  1  0.143700  0.043090  0.155130  1.0  -0.7192
  O  O269  1  0.132790  0.128860  0.192850  1.0  -0.6431
  O  O270  1  0.965580  0.033760  0.116550  1.0  -0.856
  O  O271  1  0.874740  0.942950  0.000290  1.0  -0.7799
  O  O272  1  0.947620  0.874120  0.000370  1.0  -0.8014
  O  O273  1  0.127610  0.057440  0.000730  1.0  -0.8017
  O  O274  1  0.036860  0.966450  0.884540  1.0  -0.831
  O  O275  1  0.054940  0.126160  0.000390  1.0  -0.8021
  O  O276  1  0.036570  0.966490  0.116230  1.0  -0.832
  O  O277  1  0.965800  0.033790  0.884600  1.0  -0.8533
