# generated using pymatgen
data_CoH8C17(SO2)2
_symmetry_space_group_name_H-M   'P 1'
_cell_length_a   19.38670000
_cell_length_b   19.38670000
_cell_length_c   20.82680000
_cell_angle_alpha   90.00000000
_cell_angle_beta   90.00000000
_cell_angle_gamma   120.00000000
_symmetry_Int_Tables_number   1
_chemical_formula_structural   CoH8C17(SO2)2
_chemical_formula_sum   'Co12 H96 C204 S24 O48'
_cell_volume   6778.92701182
_cell_formula_units_Z   12
loop_
 _symmetry_equiv_pos_site_id
 _symmetry_equiv_pos_as_xyz
  1  'x, y, z'
loop_
 _atom_site_type_symbol
 _atom_site_label
 _atom_site_symmetry_multiplicity
 _atom_site_fract_x
 _atom_site_fract_y
 _atom_site_fract_z
 _atom_site_occupancy
 _atom_site_charge
  Co  Co1  1  0.287410  0.567520  0.522020  1.0  1.1149
  Co  Co2  1  0.719890  0.287410  0.688680  1.0  1.1151
  Co  Co3  1  0.641550  0.273540  0.522770  1.0  1.0144
  Co  Co4  1  0.432480  0.719890  0.855350  1.0  1.1155
  Co  Co5  1  0.273540  0.631990  0.356110  1.0  1.0137
  Co  Co6  1  0.631990  0.358450  0.189440  1.0  1.0154
  Co  Co7  1  0.358450  0.726460  0.022770  1.0  1.0165
  Co  Co8  1  0.280110  0.712590  0.188680  1.0  1.115
  Co  Co9  1  0.368010  0.641550  0.689440  1.0  1.014
  Co  Co10  1  0.567520  0.280110  0.355350  1.0  1.1135
  Co  Co11  1  0.726460  0.368010  0.856110  1.0  1.0156
  Co  Co12  1  0.712590  0.432480  0.022020  1.0  1.1166
  H  H13  1  0.934200  0.151400  0.748200  1.0  0.1205
  H  H14  1  0.840400  0.193900  0.737400  1.0  0.1186
  H  H15  1  0.351000  0.403100  0.716030  1.0  0.1183
  H  H16  1  0.057900  0.316600  0.140530  1.0  0.1193
  H  H17  1  0.786300  0.668700  0.776530  1.0  0.1129
  H  H18  1  0.649000  0.596900  0.216030  1.0  0.1188
  H  H19  1  0.839600  0.174600  0.626870  1.0  0.1152
  H  H20  1  0.213600  0.483400  0.757700  1.0  0.1175
  H  H21  1  0.538200  0.882100  0.234130  1.0  0.1181
  H  H22  1  0.692600  0.731900  0.227730  1.0  0.1254
  H  H23  1  0.825400  0.665000  0.960200  1.0  0.1158
  H  H24  1  0.268100  0.960700  0.561070  1.0  0.1252
  H  H25  1  0.335000  0.160400  0.293530  1.0  0.115
  H  H26  1  0.269400  0.469400  0.279730  1.0  0.1182
  H  H27  1  0.879900  0.080800  0.609870  1.0  0.1211
  H  H28  1  0.530600  0.800000  0.613070  1.0  0.1184
  H  H29  1  0.675900  0.934700  0.234930  1.0  0.1159
  H  H30  1  0.683400  0.741300  0.473870  1.0  0.1199
  H  H31  1  0.120100  0.919200  0.109870  1.0  0.1214
  H  H32  1  0.873400  0.654900  0.259800  1.0  0.1228
  H  H33  1  0.340400  0.886500  0.810300  1.0  0.1125
  H  H34  1  0.052100  0.649000  0.382700  1.0  0.1184
  H  H35  1  0.258700  0.942100  0.807200  1.0  0.1192
  H  H36  1  0.258800  0.324100  0.901600  1.0  0.1166
  H  H37  1  0.218500  0.873400  0.426470  1.0  0.1228
  H  H38  1  0.646500  0.840400  0.904070  1.0  0.1185
  H  H39  1  0.299500  0.033900  0.981670  1.0  0.1259
  H  H40  1  0.516600  0.730200  0.091030  1.0  0.117
  H  H41  1  0.117900  0.656100  0.567470  1.0  0.1186
  H  H42  1  0.324100  0.065300  0.734930  1.0  0.1162
  H  H43  1  0.741200  0.675900  0.401600  1.0  0.1164
  H  H44  1  0.033900  0.734400  0.815000  1.0  0.1274
  H  H45  1  0.331300  0.117600  0.109870  1.0  0.1115
  H  H46  1  0.882400  0.213700  0.443200  1.0  0.113
  H  H47  1  0.345100  0.218500  0.593130  1.0  0.1234
  H  H48  1  0.741300  0.057900  0.307200  1.0  0.1187
  H  H49  1  0.700500  0.966100  0.481670  1.0  0.126
  H  H50  1  0.453900  0.340400  0.976970  1.0  0.1133
  H  H51  1  0.353500  0.159600  0.404070  1.0  0.1189
  H  H52  1  0.065800  0.848600  0.248200  1.0  0.1207
  H  H53  1  0.151400  0.217200  0.581530  1.0  0.1198
  H  H54  1  0.786400  0.516600  0.257700  1.0  0.1176
  H  H55  1  0.600600  0.663100  0.664630  1.0  0.1141
  H  H56  1  0.307400  0.268100  0.727730  1.0  0.1252
  H  H57  1  0.269800  0.786400  0.424370  1.0  0.1179
  H  H58  1  0.316600  0.258700  0.973870  1.0  0.1204
  H  H59  1  0.113500  0.453900  0.143630  1.0  0.1128
  H  H60  1  0.947900  0.351000  0.882700  1.0  0.1194
  H  H61  1  0.117600  0.786300  0.943200  1.0  0.1132
  H  H62  1  0.336900  0.937500  0.997970  1.0  0.1145
  H  H63  1  0.126600  0.345100  0.759800  1.0  0.1234
  H  H64  1  0.483400  0.269800  0.591030  1.0  0.1182
  H  H65  1  0.656100  0.538200  0.400800  1.0  0.1188
  H  H66  1  0.399400  0.336900  0.164630  1.0  0.1142
  H  H67  1  0.200000  0.730600  0.946400  1.0  0.118
  H  H68  1  0.800000  0.269400  0.446400  1.0  0.1186
  H  H69  1  0.919200  0.799100  0.943200  1.0  0.1208
  H  H70  1  0.159600  0.806100  0.237400  1.0  0.1189
  H  H71  1  0.193900  0.353500  0.570730  1.0  0.1187
  H  H72  1  0.265600  0.299500  0.148330  1.0  0.1268
  H  H73  1  0.782800  0.934200  0.914870  1.0  0.1203
  H  H74  1  0.731900  0.039300  0.061070  1.0  0.1253
  H  H75  1  0.039300  0.307400  0.894400  1.0  0.1257
  H  H76  1  0.461800  0.117900  0.734130  1.0  0.1178
  H  H77  1  0.403100  0.052100  0.549370  1.0  0.1186
  H  H78  1  0.882100  0.343900  0.067470  1.0  0.1187
  H  H79  1  0.730600  0.530600  0.779730  1.0  0.1187
  H  H80  1  0.730200  0.213600  0.924370  1.0  0.1172
  H  H81  1  0.665000  0.839600  0.793530  1.0  0.1143
  H  H82  1  0.343900  0.461800  0.900800  1.0  0.1182
  H  H83  1  0.966100  0.265600  0.315000  1.0  0.127
  H  H84  1  0.654900  0.781500  0.093130  1.0  0.1233
  H  H85  1  0.960700  0.692600  0.394400  1.0  0.1259
  H  H86  1  0.469400  0.200000  0.113070  1.0  0.1179
  H  H87  1  0.174600  0.335000  0.460200  1.0  0.114
  H  H88  1  0.937500  0.600600  0.831300  1.0  0.1145
  H  H89  1  0.934700  0.258800  0.068270  1.0  0.1165
  H  H90  1  0.806100  0.646500  0.070730  1.0  0.1185
  H  H91  1  0.200900  0.120100  0.276530  1.0  0.1213
  H  H92  1  0.781500  0.126600  0.926470  1.0  0.1221
  H  H93  1  0.886500  0.546100  0.643630  1.0  0.1128
  H  H94  1  0.659600  0.113500  0.310300  1.0  0.1121
  H  H95  1  0.213700  0.331300  0.276530  1.0  0.113
  H  H96  1  0.663100  0.062500  0.497970  1.0  0.1142
  H  H97  1  0.734400  0.700500  0.648330  1.0  0.1274
  H  H98  1  0.596900  0.947900  0.049370  1.0  0.1185
  H  H99  1  0.848600  0.782800  0.081530  1.0  0.12
  H  H100  1  0.546100  0.659600  0.476970  1.0  0.1127
  H  H101  1  0.799100  0.879900  0.776530  1.0  0.1217
  H  H102  1  0.668700  0.882400  0.609870  1.0  0.1117
  H  H103  1  0.160400  0.825400  0.126870  1.0  0.1162
  H  H104  1  0.062500  0.399400  0.331300  1.0  0.1146
  H  H105  1  0.942100  0.683400  0.640530  1.0  0.1197
  H  H106  1  0.217200  0.065800  0.414870  1.0  0.1201
  H  H107  1  0.065300  0.741200  0.568270  1.0  0.1168
  H  H108  1  0.080800  0.200900  0.443200  1.0  0.1207
  C  C109  1  0.084500  0.994100  0.677830  1.0  -0.0418
  C  C110  1  0.347400  0.246200  0.001870  1.0  -0.1016
  C  C111  1  0.643700  0.893000  0.205930  1.0  -0.0861
  C  C112  1  0.284000  0.285200  0.696030  1.0  -0.1002
  C  C113  1  0.004900  0.775600  0.323100  1.0  0.013
  C  C114  1  0.226300  0.438500  0.251530  1.0  -0.0632
  C  C115  1  0.728900  0.008000  0.511570  1.0  -0.0963
  C  C116  1  0.862000  0.300000  0.038670  1.0  -0.0369
  C  C117  1  0.356300  0.107000  0.705930  1.0  -0.0875
  C  C118  1  0.131600  0.309900  0.207130  1.0  1e-04
  C  C119  1  0.165200  0.924100  0.087770  1.0  -0.0981
  C  C120  1  0.719300  0.185300  0.577870  1.0  0.7145
  C  C121  1  0.379300  0.253800  0.231930  1.0  -0.1097
  C  C122  1  0.184300  0.321000  0.830700  1.0  0.0054
  C  C123  1  0.131000  0.233700  0.832600  1.0  -0.1518
  C  C124  1  0.777500  0.548900  0.287100  1.0  -0.044
  C  C125  1  0.170900  0.368700  0.788100  1.0  -0.0804
  C  C126  1  0.090400  0.084500  0.844500  1.0  -0.0414
  C  C127  1  0.926100  0.910700  0.517170  1.0  -0.0611
  C  C128  1  0.787800  0.226300  0.418200  1.0  -0.0612
  C  C129  1  0.336000  0.119700  0.436270  1.0  -0.0438
  C  C130  1  0.219600  0.207300  0.211930  1.0  0.0226
  C  C131  1  0.806300  0.857200  0.163330  1.0  -0.1609
  C  C132  1  0.131900  0.320800  0.431000  1.0  -0.04
  C  C133  1  0.679000  0.863300  0.164030  1.0  0.0045
  C  C134  1  0.915500  0.005900  0.177830  1.0  -0.0415
  C  C135  1  0.706300  0.065300  0.521570  1.0  -0.0375
  C  C136  1  0.333200  0.769900  0.880100  1.0  0.6851
  C  C137  1  0.285200  0.001200  0.529370  1.0  -0.1001
  C  C138  1  0.806500  0.643800  0.749030  1.0  -0.0816
  C  C139  1  0.524200  0.719700  0.545870  1.0  -0.1395
  C  C140  1  0.286700  0.486000  0.828800  1.0  -0.126
  C  C141  1  0.293700  0.934700  0.021570  1.0  -0.0378
  C  C142  1  0.944200  0.309500  0.856100  1.0  -0.0295
  C  C143  1  0.102700  0.869000  0.499270  1.0  -0.1504
  C  C144  1  0.212200  0.773700  0.918200  1.0  -0.0628
  C  C145  1  0.620700  0.746200  0.731930  1.0  -0.1087
  C  C146  1  0.097300  0.222200  0.200930  1.0  -0.1588
  C  C147  1  0.775600  0.770700  0.156430  1.0  0.0132
  C  C148  1  0.451100  0.228600  0.620430  1.0  -0.0434
  C  C149  1  0.280700  0.814700  0.077870  1.0  0.7147
  C  C150  1  0.246200  0.898800  0.835200  1.0  -0.1036
  C  C151  1  0.390700  0.116200  0.477370  1.0  -0.1126
  C  C152  1  0.142800  0.949100  0.496670  1.0  -0.1574
  C  C153  1  0.924100  0.758900  0.921100  1.0  -0.1008
  C  C154  1  0.690500  0.634700  0.189430  1.0  -0.0294
  C  C155  1  0.893000  0.249300  0.039270  1.0  -0.0836
  C  C156  1  0.073900  0.089300  0.017170  1.0  -0.059
  C  C157  1  0.124900  0.902700  0.867600  1.0  -0.1585
  C  C158  1  0.866000  0.820800  0.702530  1.0  -0.1225
  C  C159  1  0.792700  0.012300  0.545270  1.0  0.0213
  C  C160  1  0.548900  0.771400  0.120430  1.0  -0.0431
  C  C161  1  0.690100  0.821700  0.540470  1.0  0.0003
  C  C162  1  0.179400  0.702400  0.303700  1.0  0.7388
  C  C163  1  0.666800  0.230100  0.380100  1.0  0.6844
  C  C164  1  0.766300  0.897300  0.165930  1.0  -0.1509
  C  C165  1  0.295300  0.866100  0.837700  1.0  -0.0289
  C  C166  1  0.821700  0.131600  0.373800  1.0  -0.0005
  C  C167  1  0.309900  0.178300  0.040470  1.0  -0.0002
  C  C168  1  0.162700  0.806500  0.915700  1.0  -0.0838
  C  C169  1  0.279100  0.271100  0.178230  1.0  -0.1006
  C  C170  1  0.771400  0.222500  0.953770  1.0  -0.0428
  C  C171  1  0.340500  0.573300  0.831700  1.0  0.6632
  C  C172  1  0.954800  0.134000  0.369200  1.0  -0.1228
  C  C173  1  0.089300  0.015400  0.850500  1.0  -0.0612
  C  C174  1  0.280300  0.804500  0.879200  1.0  -0.1395
  C  C175  1  0.857200  0.050900  0.996670  1.0  -0.1592
  C  C176  1  0.815700  0.679000  0.330700  1.0  0.0061
  C  C177  1  0.883800  0.274500  0.810700  1.0  -0.1118
  C  C178  1  0.365300  0.055800  0.522770  1.0  -0.0286
  C  C179  1  0.055800  0.690500  0.356100  1.0  -0.0298
  C  C180  1  0.253800  0.874500  0.065270  1.0  -0.1088
  C  C181  1  0.714800  0.998800  0.029370  1.0  -0.1008
  C  C182  1  0.814700  0.534000  0.911200  1.0  0.7163
  C  C183  1  0.570800  0.704700  0.504370  1.0  -0.0316
  C  C184  1  0.486000  0.199300  0.662130  1.0  -0.1285
  C  C185  1  0.274500  0.390700  0.644030  1.0  -0.1121
  C  C186  1  0.998800  0.284000  0.862700  1.0  -0.1027
  C  C187  1  0.008000  0.279100  0.344900  1.0  -0.0967
  C  C188  1  0.045200  0.866000  0.869200  1.0  -0.123
  C  C189  1  0.800700  0.286700  0.995470  1.0  -0.1283
  C  C190  1  0.523000  0.820600  0.970370  1.0  0.74
  C  C191  1  0.232800  0.659500  0.498370  1.0  0.6627
  C  C192  1  0.716000  0.714800  0.196030  1.0  -0.1005
  C  C193  1  0.534000  0.719300  0.744530  1.0  0.714
  C  C194  1  0.466000  0.280700  0.244530  1.0  0.7148
  C  C195  1  0.320800  0.188900  0.264330  1.0  -0.0397
  C  C196  1  0.429200  0.295300  0.004370  1.0  -0.0287
  C  C197  1  0.436700  0.666800  0.546770  1.0  0.685
  C  C198  1  0.725500  0.609300  0.144030  1.0  -0.1138
  C  C199  1  0.012300  0.219600  0.378600  1.0  0.0228
  C  C200  1  0.713300  0.514000  0.328800  1.0  -0.1254
  C  C201  1  0.514000  0.800700  0.162130  1.0  -0.1284
  C  C202  1  0.119700  0.783700  0.269600  1.0  -0.0451
  C  C203  1  0.116200  0.725500  0.310700  1.0  -0.1122
  C  C204  1  0.230100  0.563300  0.213430  1.0  0.6857
  C  C205  1  0.702400  0.523000  0.137030  1.0  0.7422
  C  C206  1  0.770700  0.995100  0.989770  1.0  0.0128
  C  C207  1  0.136700  0.815700  0.497370  1.0  0.0048
  C  C208  1  0.178300  0.868400  0.873800  1.0  -0.0004
  C  C209  1  0.746200  0.125500  0.565270  1.0  -0.1102
  C  C210  1  0.179200  0.045200  0.035870  1.0  -0.1228
  C  C211  1  0.249300  0.356300  0.872600  1.0  -0.0851
  C  C212  1  0.195500  0.475800  0.212530  1.0  -0.1344
  C  C213  1  0.949100  0.806300  0.330000  1.0  -0.1598
  C  C214  1  0.185300  0.466000  0.411200  1.0  0.7163
  C  C215  1  0.125500  0.379300  0.398600  1.0  -0.1078
  C  C216  1  0.609300  0.883800  0.977370  1.0  -0.114
  C  C217  1  0.573300  0.232800  0.665030  1.0  0.6603
  C  C218  1  0.216300  0.336000  0.602930  1.0  -0.0434
  C  C219  1  0.700000  0.562000  0.372000  1.0  -0.0366
  C  C220  1  0.641000  0.706300  0.688230  1.0  -0.0358
  C  C221  1  0.015400  0.926100  0.683830  1.0  -0.0605
  C  C222  1  0.224400  0.229300  0.656430  1.0  0.0125
  C  C223  1  0.868100  0.679200  0.931000  1.0  -0.0393
  C  C224  1  0.631300  0.802200  0.121430  1.0  -0.0837
  C  C225  1  0.426700  0.767200  0.165030  1.0  0.6597
  C  C226  1  0.309500  0.365300  0.689430  1.0  -0.0279
  C  C227  1  0.005900  0.090400  0.011170  1.0  -0.0423
  C  C228  1  0.834800  0.075900  0.587770  1.0  -0.0983
  C  C229  1  0.643800  0.837300  0.582370  1.0  -0.0862
  C  C230  1  0.652600  0.753800  0.501870  1.0  -0.1021
  C  C231  1  0.477000  0.179400  0.470370  1.0  0.7402
  C  C232  1  0.987700  0.780400  0.878600  1.0  0.0235
  C  C233  1  0.811100  0.131900  0.597670  1.0  -0.0395
  C  C234  1  0.438500  0.212200  0.084870  1.0  -0.0598
  C  C235  1  0.869000  0.766300  0.332600  1.0  -0.1513
  C  C236  1  0.561500  0.787800  0.584870  1.0  -0.0625
  C  C237  1  0.134000  0.179200  0.202530  1.0  -0.1235
  C  C238  1  0.321000  0.136700  0.664030  1.0  0.0046
  C  C239  1  0.902700  0.777800  0.700930  1.0  -0.1586
  C  C240  1  0.874500  0.620700  0.898600  1.0  -0.1074
  C  C241  1  0.745100  0.936300  0.942670  1.0  -0.0958
  C  C242  1  0.222500  0.451100  0.787100  1.0  -0.0413
  C  C243  1  0.133900  0.429200  0.171030  1.0  -0.0315
  C  C244  1  0.563300  0.333200  0.046770  1.0  0.6854
  C  C245  1  0.837300  0.193500  0.415700  1.0  -0.0852
  C  C246  1  0.984600  0.073900  0.183830  1.0  -0.0608
  C  C247  1  0.562000  0.862000  0.205330  1.0  -0.0361
  C  C248  1  0.769900  0.436700  0.713430  1.0  0.6877
  C  C249  1  0.254900  0.063700  0.442670  1.0  -0.0965
  C  C250  1  0.001200  0.716000  0.362700  1.0  -0.1018
  C  C251  1  0.207300  0.987700  0.045270  1.0  0.0217
  C  C252  1  0.909600  0.915500  0.344500  1.0  -0.0413
  C  C253  1  0.936300  0.191200  0.776000  1.0  -0.0979
  C  C254  1  0.802200  0.170900  0.954770  1.0  -0.0804
  C  C255  1  0.868400  0.690100  0.707130  1.0  -0.0066
  C  C256  1  0.897300  0.131000  0.999270  1.0  -0.1494
  C  C257  1  0.065300  0.359000  0.354900  1.0  -0.0361
  C  C258  1  0.241100  0.165200  0.254430  1.0  -0.1021
  C  C259  1  0.199300  0.713300  0.495470  1.0  -0.1277
  C  C260  1  0.659500  0.426700  0.331700  1.0  0.6621
  C  C261  1  0.767200  0.340500  0.998370  1.0  0.6589
  C  C262  1  0.075900  0.241100  0.421100  1.0  -0.0992
  C  C263  1  0.780400  0.792700  0.711930  1.0  0.0216
  C  C264  1  0.863300  0.184300  0.997370  1.0  0.0048
  C  C265  1  0.866100  0.570800  0.671030  1.0  -0.0301
  C  C266  1  0.777800  0.875100  0.534270  1.0  -0.1578
  C  C267  1  0.271100  0.992000  0.011570  1.0  -0.0981
  C  C268  1  0.438000  0.138000  0.705330  1.0  -0.0355
  C  C269  1  0.229300  0.004900  0.489770  1.0  0.0128
  C  C270  1  0.233700  0.102700  0.665930  1.0  -0.1507
  C  C271  1  0.898800  0.652600  0.668530  1.0  -0.1034
  C  C272  1  0.679200  0.811100  0.764330  1.0  -0.0411
  C  C273  1  0.356200  0.162700  0.082370  1.0  -0.082
  C  C274  1  0.758900  0.834800  0.754430  1.0  -0.1023
  C  C275  1  0.808800  0.745100  0.109330  1.0  -0.0977
  C  C276  1  0.875100  0.097300  0.367600  1.0  -0.1592
  C  C277  1  0.359000  0.293700  0.188230  1.0  -0.0363
  C  C278  1  0.829100  0.631300  0.288100  1.0  -0.0809
  C  C279  1  0.994100  0.909600  0.511170  1.0  -0.0389
  C  C280  1  0.880300  0.216300  0.769600  1.0  -0.0429
  C  C281  1  0.719700  0.195500  0.379200  1.0  -0.139
  C  C282  1  0.995100  0.224400  0.823100  1.0  0.0128
  C  C283  1  0.300000  0.438000  0.872000  1.0  -0.0364
  C  C284  1  0.773700  0.561500  0.751530  1.0  -0.0625
  C  C285  1  0.193500  0.356200  0.249030  1.0  -0.082
  C  C286  1  0.222200  0.124900  0.034270  1.0  -0.1571
  C  C287  1  0.704700  0.133900  0.337700  1.0  -0.0258
  C  C288  1  0.101200  0.347400  0.168530  1.0  -0.1022
  C  C289  1  0.992000  0.720900  0.844900  1.0  -0.0974
  C  C290  1  0.910700  0.984600  0.350500  1.0  -0.0608
  C  C291  1  0.197800  0.829100  0.454770  1.0  -0.0809
  C  C292  1  0.475800  0.280300  0.045870  1.0  -0.1385
  C  C293  1  0.783700  0.664000  0.102930  1.0  -0.0426
  C  C294  1  0.664000  0.880300  0.936270  1.0  -0.0429
  C  C295  1  0.934700  0.641000  0.854900  1.0  -0.0356
  C  C296  1  0.634700  0.944200  0.022770  1.0  -0.0311
  C  C297  1  0.228600  0.777500  0.453770  1.0  -0.0399
  C  C298  1  0.368700  0.197800  0.621430  1.0  -0.0827
  C  C299  1  0.050900  0.193700  0.830000  1.0  -0.1602
  C  C300  1  0.138000  0.700000  0.538670  1.0  -0.0363
  C  C301  1  0.063700  0.808800  0.276000  1.0  -0.0989
  C  C302  1  0.191200  0.254900  0.609330  1.0  -0.0962
  C  C303  1  0.820800  0.954800  0.535870  1.0  -0.1228
  C  C304  1  0.720900  0.728900  0.678230  1.0  -0.0997
  C  C305  1  0.297600  0.477000  0.637030  1.0  0.7429
  C  C306  1  0.188900  0.868100  0.097670  1.0  -0.0385
  C  C307  1  0.193700  0.142800  0.663330  1.0  -0.16
  C  C308  1  0.820600  0.297600  0.803700  1.0  0.7389
  C  C309  1  0.107000  0.750700  0.539270  1.0  -0.085
  C  C310  1  0.750700  0.643700  0.372600  1.0  -0.0861
  C  C311  1  0.804500  0.524200  0.712530  1.0  -0.1365
  C  C312  1  0.753800  0.101200  0.335200  1.0  -0.1045
  S  S313  1  0.076120  0.076490  0.189420  1.0  0.0679
  S  S314  1  0.831670  0.824260  0.523050  1.0  0.0375
  S  S315  1  0.997990  0.821160  0.506810  1.0  0.0568
  S  S316  1  0.923510  0.999630  0.522760  1.0  0.0659
  S  S317  1  0.997100  0.910730  0.335730  1.0  0.0574
  S  S318  1  0.821160  0.823170  0.340140  1.0  0.0566
  S  S319  1  0.002010  0.178840  0.006810  1.0  0.0567
  S  S320  1  0.824260  0.992590  0.356380  1.0  0.0357
  S  S321  1  0.086370  0.997100  0.502400  1.0  0.0578
  S  S322  1  0.178840  0.176830  0.840140  1.0  0.056
  S  S323  1  0.002900  0.089270  0.835730  1.0  0.0593
  S  S324  1  0.089270  0.086370  0.669060  1.0  0.0588
  S  S325  1  0.176830  0.997990  0.673470  1.0  0.0566
  S  S326  1  0.999630  0.076120  0.356090  1.0  0.0678
  S  S327  1  0.913630  0.002900  0.002400  1.0  0.0603
  S  S328  1  0.823170  0.002010  0.173470  1.0  0.0548
  S  S329  1  0.992590  0.168330  0.189710  1.0  0.0357
  S  S330  1  0.923880  0.923510  0.689420  1.0  0.0652
  S  S331  1  0.007410  0.831670  0.689710  1.0  0.0383
  S  S332  1  0.168330  0.175740  0.023050  1.0  0.0366
  S  S333  1  0.175740  0.007410  0.856380  1.0  0.0387
  S  S334  1  0.910730  0.913630  0.169060  1.0  0.0596
  S  S335  1  0.076490  0.000370  0.022760  1.0  0.0671
  S  S336  1  0.000370  0.923880  0.856090  1.0  0.0672
  O  O337  1  0.328800  0.812700  0.039670  1.0  -0.5924
  O  O338  1  0.737700  0.507900  0.093230  1.0  -0.607
  O  O339  1  0.615500  0.210700  0.335900  1.0  -0.5572
  O  O340  1  0.389600  0.603100  0.877500  1.0  -0.5505
  O  O341  1  0.396900  0.786500  0.210830  1.0  -0.5508
  O  O342  1  0.820700  0.348200  0.841200  1.0  -0.5763
  O  O343  1  0.521600  0.749700  0.794730  1.0  -0.6169
  O  O344  1  0.281800  0.662400  0.456570  1.0  -0.6506
  O  O345  1  0.595200  0.384500  0.002570  1.0  -0.5593
  O  O346  1  0.187300  0.516100  0.373000  1.0  -0.5947
  O  O347  1  0.527500  0.179300  0.507870  1.0  -0.5769
  O  O348  1  0.671200  0.187300  0.539670  1.0  -0.5948
  O  O349  1  0.213500  0.610400  0.544170  1.0  -0.5527
  O  O350  1  0.483900  0.671200  0.706330  1.0  -0.5948
  O  O351  1  0.789300  0.404800  0.669230  1.0  -0.5602
  O  O352  1  0.472500  0.820700  0.007870  1.0  -0.5772
  O  O353  1  0.492100  0.229800  0.426570  1.0  -0.6061
  O  O354  1  0.262300  0.492100  0.593230  1.0  -0.6065
  O  O355  1  0.673500  0.280500  0.423900  1.0  -0.6857
  O  O356  1  0.478400  0.250300  0.294730  1.0  -0.6156
  O  O357  1  0.326500  0.719500  0.923900  1.0  -0.6851
  O  O358  1  0.179300  0.651800  0.341200  1.0  -0.577
  O  O359  1  0.507900  0.770200  0.926570  1.0  -0.6056
  O  O360  1  0.662400  0.380600  0.289900  1.0  -0.6524
  O  O361  1  0.770200  0.262300  0.759900  1.0  -0.6069
  O  O362  1  0.786500  0.389600  0.044170  1.0  -0.5515
  O  O363  1  0.771900  0.521600  0.961400  1.0  -0.6169
  O  O364  1  0.404800  0.615500  0.502570  1.0  -0.5582
  O  O365  1  0.619400  0.281800  0.623230  1.0  -0.6494
  O  O366  1  0.719500  0.393000  0.757230  1.0  -0.6865
  O  O367  1  0.384500  0.789300  0.835900  1.0  -0.5592
  O  O368  1  0.603100  0.213500  0.710830  1.0  -0.5501
  O  O369  1  0.337600  0.619400  0.789900  1.0  -0.6521
  O  O370  1  0.210700  0.595200  0.169230  1.0  -0.5569
  O  O371  1  0.607000  0.326500  0.090570  1.0  -0.6851
  O  O372  1  0.280500  0.607000  0.257230  1.0  -0.6862
  O  O373  1  0.812700  0.483900  0.873000  1.0  -0.5943
  O  O374  1  0.516100  0.328800  0.206330  1.0  -0.5953
  O  O375  1  0.393000  0.673500  0.590570  1.0  -0.6856
  O  O376  1  0.718200  0.337600  0.956570  1.0  -0.6515
  O  O377  1  0.610400  0.396900  0.377500  1.0  -0.5513
  O  O378  1  0.229800  0.737700  0.259900  1.0  -0.6045
  O  O379  1  0.651800  0.472500  0.174530  1.0  -0.5772
  O  O380  1  0.348200  0.527500  0.674530  1.0  -0.5767
  O  O381  1  0.250300  0.771900  0.128070  1.0  -0.6154
  O  O382  1  0.380600  0.718200  0.123230  1.0  -0.6491
  O  O383  1  0.749700  0.228100  0.628070  1.0  -0.6162
  O  O384  1  0.228100  0.478400  0.461400  1.0  -0.6161
