# generated using pymatgen
data_Zr3H59(C57O8)2
_symmetry_space_group_name_H-M   'P 1'
_cell_length_a   27.92930000
_cell_length_b   27.92930000
_cell_length_c   27.92930000
_cell_angle_alpha   90.00000000
_cell_angle_beta   90.00000000
_cell_angle_gamma   90.00000000
_symmetry_Int_Tables_number   1
_chemical_formula_structural   Zr3H59(C57O8)2
_chemical_formula_sum   'Zr6 H118 C228 O32'
_cell_volume   21786.13311977
_cell_formula_units_Z   2
loop_
 _symmetry_equiv_pos_site_id
 _symmetry_equiv_pos_as_xyz
  1  'x, y, z'
loop_
 _atom_site_type_symbol
 _atom_site_label
 _atom_site_symmetry_multiplicity
 _atom_site_fract_x
 _atom_site_fract_y
 _atom_site_fract_z
 _atom_site_occupancy
 _atom_site_charge
  Zr  Zr1  1  0.999190  0.005330  0.919920  1.0  1.7573
  Zr  Zr2  1  0.077710  0.005430  0.997930  1.0  1.7323
  Zr  Zr3  1  0.921220  0.005130  0.998680  1.0  1.7392
  Zr  Zr4  1  0.999330  0.083920  0.998280  1.0  1.7467
  Zr  Zr5  1  0.999520  0.926750  0.998330  1.0  1.7497
  Zr  Zr6  1  0.999910  0.005450  0.076700  1.0  1.7614
  H  H7  1  0.621240  0.006170  0.542600  1.0  0.1205
  H  H8  1  0.621520  0.005840  0.456590  1.0  0.1219
  H  H9  1  0.378520  0.999250  0.542120  1.0  0.1207
  H  H10  1  0.378660  0.998390  0.456210  1.0  0.1174
  H  H11  1  0.499350  0.002700  0.664230  1.0  0.1269
  H  H12  1  0.500660  0.002410  0.334250  1.0  0.1244
  H  H13  1  0.620720  0.548240  0.999260  1.0  0.1195
  H  H14  1  0.620800  0.462730  0.997330  1.0  0.1186
  H  H15  1  0.377750  0.548110  0.997470  1.0  0.1225
  H  H16  1  0.377820  0.462530  0.996320  1.0  0.1196
  H  H17  1  0.499100  0.670340  0.997650  1.0  0.1269
  H  H18  1  0.499390  0.340460  0.998080  1.0  0.1249
  H  H19  1  0.005240  0.462380  0.376990  1.0  0.1175
  H  H20  1  0.004980  0.547960  0.376860  1.0  0.1212
  H  H21  1  0.005970  0.462720  0.619700  1.0  0.1214
  H  H22  1  0.006410  0.548290  0.619570  1.0  0.1208
  H  H23  1  0.001380  0.340400  0.498550  1.0  0.1282
  H  H24  1  0.001790  0.670280  0.498020  1.0  0.124
  H  H25  1  0.066800  0.073110  0.930350  1.0  0.3147
  H  H26  1  0.931740  0.937560  0.930810  1.0  0.3183
  H  H27  1  0.932030  0.072920  0.066250  1.0  0.2942
  H  H28  1  0.067490  0.937730  0.065670  1.0  0.3003
  H  H29  1  0.358510  0.938580  0.278770  1.0  0.1257
  H  H30  1  0.429070  0.936690  0.331420  1.0  0.1154
  H  H31  1  0.385040  0.070240  0.395180  1.0  0.1161
  H  H32  1  0.314050  0.071710  0.342790  1.0  0.1365
  H  H33  1  0.267980  0.001380  0.151330  1.0  0.1266
  H  H34  1  0.204580  0.001390  0.091020  1.0  0.117
  H  H35  1  0.098530  0.015980  0.202910  1.0  0.1148
  H  H36  1  0.162740  0.015900  0.263070  1.0  0.1336
  H  H37  1  0.650380  0.929930  0.293090  1.0  0.1274
  H  H38  1  0.579840  0.929980  0.345990  1.0  0.117
  H  H39  1  0.607300  0.077310  0.382670  1.0  0.1208
  H  H40  1  0.677840  0.077340  0.329450  1.0  0.1388
  H  H41  1  0.762700  0.933390  0.183530  1.0  0.1387
  H  H42  1  0.826920  0.933200  0.122980  1.0  0.1186
  H  H43  1  0.873740  0.071760  0.172220  1.0  0.1213
  H  H44  1  0.808680  0.072530  0.231930  1.0  0.1362
  H  H45  1  0.650590  0.933690  0.706610  1.0  0.1289
  H  H46  1  0.579920  0.931970  0.653920  1.0  0.118
  H  H47  1  0.605290  0.079110  0.614950  1.0  0.1169
  H  H48  1  0.675950  0.080910  0.667950  1.0  0.137
  H  H49  1  0.763680  0.937600  0.812200  1.0  0.1322
  H  H50  1  0.827830  0.937200  0.872720  1.0  0.1185
  H  H51  1  0.870700  0.078670  0.828370  1.0  0.125
  H  H52  1  0.805640  0.079570  0.768550  1.0  0.1401
  H  H53  1  0.336980  0.923200  0.686700  1.0  0.1337
  H  H54  1  0.407790  0.924350  0.633880  1.0  0.1211
  H  H55  1  0.405050  0.078580  0.633520  1.0  0.1202
  H  H56  1  0.334330  0.077490  0.686340  1.0  0.1352
  H  H57  1  0.206300  0.924100  0.783170  1.0  0.1396
  H  H58  1  0.141160  0.925450  0.842890  1.0  0.1226
  H  H59  1  0.156220  0.078460  0.855800  1.0  0.1173
  H  H60  1  0.220920  0.077230  0.795780  1.0  0.141
  H  H61  1  0.314880  0.347830  0.069260  1.0  0.1359
  H  H62  1  0.386200  0.399850  0.067570  1.0  0.1166
  H  H63  1  0.426310  0.340110  0.930980  1.0  0.116
  H  H64  1  0.355420  0.287930  0.932970  1.0  0.1263
  H  H65  1  0.162880  0.268810  0.022970  1.0  0.1384
  H  H66  1  0.098740  0.208500  0.021640  1.0  0.1171
  H  H67  1  0.202140  0.100660  0.981070  1.0  0.1214
  H  H68  1  0.265500  0.161050  0.982480  1.0  0.1266
  H  H69  1  0.354050  0.720930  0.063520  1.0  0.1259
  H  H70  1  0.424950  0.668750  0.065370  1.0  0.1163
  H  H71  1  0.387180  0.612430  0.926690  1.0  0.108
  H  H72  1  0.315900  0.664540  0.925060  1.0  0.1357
  H  H73  1  0.264090  0.848090  0.020190  1.0  0.1261
  H  H74  1  0.200690  0.908570  0.021620  1.0  0.1204
  H  H75  1  0.100200  0.804230  0.967190  1.0  0.1178
  H  H76  1  0.164320  0.743830  0.965770  1.0  0.1369
  H  H77  1  0.642070  0.721500  0.066920  1.0  0.1298
  H  H78  1  0.571070  0.669440  0.066670  1.0  0.1166
  H  H79  1  0.613410  0.612280  0.929640  1.0  0.1137
  H  H80  1  0.684850  0.664160  0.930220  1.0  0.1354
  H  H81  1  0.731680  0.851580  0.001210  1.0  0.1288
  H  H82  1  0.794940  0.911960  0.002530  1.0  0.1236
  H  H83  1  0.901690  0.799770  0.999710  1.0  0.1197
  H  H84  1  0.837580  0.739540  0.998450  1.0  0.1389
  H  H85  1  0.642780  0.289710  0.929140  1.0  0.1289
  H  H86  1  0.571840  0.341860  0.929030  1.0  0.1166
  H  H87  1  0.613040  0.398300  0.066700  1.0  0.1178
  H  H88  1  0.684420  0.346310  0.066500  1.0  0.1331
  H  H89  1  0.731420  0.158950  0.996340  1.0  0.129
  H  H90  1  0.794610  0.098450  0.995310  1.0  0.1243
  H  H91  1  0.901490  0.210520  0.997210  1.0  0.1212
  H  H92  1  0.837500  0.270840  0.998210  1.0  0.1392
  H  H93  1  0.934330  0.347170  0.312350  1.0  0.1336
  H  H94  1  0.933980  0.399300  0.383600  1.0  0.1163
  H  H95  1  0.069880  0.340330  0.427120  1.0  0.112
  H  H96  1  0.069900  0.288040  0.356280  1.0  0.1296
  H  H97  1  0.977710  0.267960  0.163080  1.0  0.1392
  H  H98  1  0.978150  0.207870  0.098760  1.0  0.1131
  H  H99  1  0.028790  0.101650  0.199300  1.0  0.1175
  H  H100  1  0.028290  0.161900  0.262970  1.0  0.1244
  H  H101  1  0.931110  0.349550  0.684010  1.0  0.135
  H  H102  1  0.932970  0.401520  0.612690  1.0  0.116
  H  H103  1  0.067660  0.338770  0.570730  1.0  0.1145
  H  H104  1  0.065460  0.286630  0.641630  1.0  0.1287
  H  H105  1  0.970530  0.267770  0.833870  1.0  0.1366
  H  H106  1  0.971020  0.207300  0.897930  1.0  0.1148
  H  H107  1  0.020950  0.101510  0.796590  1.0  0.124
  H  H108  1  0.020430  0.162040  0.733290  1.0  0.1261
  H  H109  1  0.935270  0.662910  0.684720  1.0  0.1366
  H  H110  1  0.934920  0.610790  0.613470  1.0  0.1167
  H  H111  1  0.069980  0.671000  0.569050  1.0  0.1152
  H  H112  1  0.069970  0.723310  0.639870  1.0  0.1288
  H  H113  1  0.976410  0.743070  0.833130  1.0  0.138
  H  H114  1  0.976440  0.803200  0.897440  1.0  0.1129
  H  H115  1  0.029970  0.908790  0.797780  1.0  0.1267
  H  H116  1  0.029900  0.848510  0.734100  1.0  0.1233
  H  H117  1  0.930580  0.662230  0.313310  1.0  0.1338
  H  H118  1  0.932340  0.610200  0.384610  1.0  0.1105
  H  H119  1  0.068430  0.670770  0.425200  1.0  0.1152
  H  H120  1  0.066380  0.722920  0.354290  1.0  0.1307
  H  H121  1  0.970710  0.743140  0.162860  1.0  0.1357
  H  H122  1  0.971460  0.803590  0.098800  1.0  0.1164
  H  H123  1  0.022380  0.909060  0.199980  1.0  0.1274
  H  H124  1  0.021590  0.848530  0.263300  1.0  0.1261
  C  C125  1  0.543340  0.004840  0.601060  1.0  -0.034
  C  C126  1  0.499520  0.003150  0.625390  1.0  -0.0844
  C  C127  1  0.455890  0.002410  0.600770  1.0  -0.0259
  C  C128  1  0.455760  0.002900  0.550050  1.0  0.0195
  C  C129  1  0.499850  0.004610  0.524720  1.0  0.0254
  C  C130  1  0.543810  0.005570  0.550300  1.0  0.0256
  C  C131  1  0.587010  0.006120  0.524440  1.0  -0.1082
  C  C132  1  0.587180  0.005940  0.474530  1.0  -0.1139
  C  C133  1  0.544150  0.005350  0.448390  1.0  0.0331
  C  C134  1  0.499990  0.004730  0.473690  1.0  0.0087
  C  C135  1  0.412760  0.001110  0.524040  1.0  -0.1196
  C  C136  1  0.412870  0.001010  0.474140  1.0  -0.1235
  C  C137  1  0.455980  0.003380  0.448140  1.0  0.0381
  C  C138  1  0.456410  0.003050  0.397300  1.0  -0.0378
  C  C139  1  0.500390  0.002860  0.373090  1.0  -0.1386
  C  C140  1  0.544080  0.004150  0.397650  1.0  -0.0272
  C  C141  1  0.542970  0.607150  0.997640  1.0  -0.027
  C  C142  1  0.499150  0.631490  0.997670  1.0  -0.114
  C  C143  1  0.455400  0.607050  0.996790  1.0  -0.0237
  C  C144  1  0.455170  0.556300  0.996770  1.0  0.0299
  C  C145  1  0.499250  0.530900  0.997290  1.0  0.0104
  C  C146  1  0.543300  0.556370  0.997440  1.0  0.0296
  C  C147  1  0.586400  0.530380  0.998280  1.0  -0.1236
  C  C148  1  0.586440  0.480550  0.997940  1.0  -0.1242
  C  C149  1  0.543370  0.454490  0.998370  1.0  0.0273
  C  C150  1  0.499290  0.479890  0.998100  1.0  0.0191
  C  C151  1  0.412100  0.530260  0.997130  1.0  -0.1243
  C  C152  1  0.412140  0.480420  0.997220  1.0  -0.1227
  C  C153  1  0.455240  0.454430  0.998230  1.0  0.0282
  C  C154  1  0.455540  0.403670  0.998430  1.0  -0.0263
  C  C155  1  0.499360  0.379310  0.997920  1.0  -0.1112
  C  C156  1  0.543130  0.403720  0.998170  1.0  -0.0288
  C  C157  1  0.001390  0.403550  0.454660  1.0  -0.0394
  C  C158  1  0.001500  0.379250  0.498500  1.0  -0.1125
  C  C159  1  0.001060  0.403700  0.542270  1.0  -0.0343
  C  C160  1  0.001040  0.454470  0.542440  1.0  0.0255
  C  C161  1  0.000450  0.479830  0.498340  1.0  0.0331
  C  C162  1  0.000990  0.454330  0.454310  1.0  0.027
  C  C163  1  0.002880  0.480290  0.411230  1.0  -0.1231
  C  C164  1  0.002740  0.530130  0.411150  1.0  -0.1159
  C  C165  1  0.000850  0.556210  0.454160  1.0  0.0311
  C  C166  1  0.000510  0.530850  0.498270  1.0  0.0312
  C  C167  1  0.003410  0.480550  0.585430  1.0  -0.114
  C  C168  1  0.003670  0.530390  0.585350  1.0  -0.1188
  C  C169  1  0.001420  0.556360  0.542290  1.0  0.0263
  C  C170  1  0.001860  0.607130  0.541950  1.0  -0.0258
  C  C171  1  0.001810  0.631430  0.498090  1.0  -0.111
  C  C172  1  0.001080  0.606970  0.454340  1.0  -0.0338
  C  C173  1  0.891520  0.007580  0.891560  1.0  0.6353
  C  C174  1  0.106590  0.002860  0.890540  1.0  0.6296
  C  C175  1  0.996600  0.112610  0.890490  1.0  0.6462
  C  C176  1  0.001790  0.897870  0.890680  1.0  0.6366
  C  C177  1  0.107830  0.007920  0.105100  1.0  0.6552
  C  C178  1  0.892550  0.002900  0.106260  1.0  0.6428
  C  C179  1  0.107090  0.112760  0.000380  1.0  0.6519
  C  C180  1  0.107250  0.898130  0.995370  1.0  0.6535
  C  C181  1  0.891830  0.897810  0.000890  1.0  0.6112
  C  C182  1  0.891540  0.112500  0.996500  1.0  0.6345
  C  C183  1  0.002320  0.112880  0.105890  1.0  0.657
  C  C184  1  0.997570  0.898120  0.106160  1.0  0.6436
  C  C185  1  0.331110  0.005100  0.307270  1.0  -0.0074
  C  C186  1  0.363780  0.967120  0.304510  1.0  -0.0937
  C  C187  1  0.403950  0.966080  0.334470  1.0  -0.1641
  C  C188  1  0.411960  0.002930  0.367790  1.0  0.0536
  C  C189  1  0.379110  0.041010  0.370400  1.0  -0.1416
  C  C190  1  0.338810  0.041950  0.340470  1.0  -0.1194
  C  C191  1  0.290820  0.006860  0.274780  1.0  0.0249
  C  C192  1  0.257970  0.007910  0.246540  1.0  0.0087
  C  C193  1  0.219910  0.008650  0.211440  1.0  -0.0069
  C  C194  1  0.231060  0.004710  0.162760  1.0  -0.1201
  C  C195  1  0.194670  0.004770  0.128350  1.0  -0.0608
  C  C196  1  0.146260  0.008690  0.142000  1.0  -0.0947
  C  C197  1  0.135320  0.012800  0.191080  1.0  -0.0533
  C  C198  1  0.171910  0.012810  0.225510  1.0  -0.1288
  C  C199  1  0.669210  0.003580  0.307550  1.0  0.0779
  C  C200  1  0.641430  0.962110  0.312810  1.0  -0.0708
  C  C201  1  0.601340  0.962110  0.342950  1.0  -0.1488
  C  C202  1  0.588700  0.003480  0.368590  1.0  0.0523
  C  C203  1  0.616870  0.044880  0.363690  1.0  -0.1342
  C  C204  1  0.656900  0.044910  0.333333  1.0  -0.0837
  C  C205  1  0.709300  0.003890  0.274640  1.0  -0.0655
  C  C206  1  0.742270  0.003660  0.246460  1.0  -0.066
  C  C207  1  0.781120  0.002950  0.212100  1.0  0.0643
  C  C208  1  0.786750  0.963730  0.181220  1.0  -0.1214
  C  C209  1  0.823270  0.963610  0.146790  1.0  -0.126
  C  C210  1  0.855120  0.002330  0.143440  1.0  -0.0292
  C  C211  1  0.849900  0.041260  0.174810  1.0  -0.1156
  C  C212  1  0.812840  0.041750  0.208700  1.0  -0.1234
  C  C213  1  0.668320  0.007370  0.690930  1.0  0.0659
  C  C214  1  0.641110  0.965450  0.686450  1.0  -0.0687
  C  C215  1  0.600960  0.964450  0.656470  1.0  -0.1505
  C  C216  1  0.587750  0.005270  0.630290  1.0  0.0537
  C  C217  1  0.615330  0.047130  0.634440  1.0  -0.1312
  C  C218  1  0.655420  0.048170  0.664630  1.0  -0.08
  C  C219  1  0.708450  0.008690  0.723620  1.0  -0.0767
  C  C220  1  0.741420  0.009050  0.751710  1.0  -0.0655
  C  C221  1  0.780120  0.008590  0.786090  1.0  0.0586
  C  C222  1  0.786800  0.968560  0.815610  1.0  -0.1193
  C  C223  1  0.823230  0.968340  0.850030  1.0  -0.1236
  C  C224  1  0.853860  0.007860  0.854770  1.0  -0.0242
  C  C225  1  0.847630  0.047700  0.824780  1.0  -0.121
  C  C226  1  0.810640  0.048210  0.790830  1.0  -0.1236
  C  C227  1  0.330550  0.000270  0.690230  1.0  0.0734
  C  C228  1  0.351390  0.957220  0.674880  1.0  -0.0815
  C  C229  1  0.391580  0.957850  0.644790  1.0  -0.1381
  C  C230  1  0.411270  0.001550  0.629630  1.0  0.0595
  C  C231  1  0.390030  0.044570  0.644570  1.0  -0.1394
  C  C232  1  0.349880  0.043930  0.674670  1.0  -0.0823
  C  C233  1  0.290400  0.999810  0.723060  1.0  -0.0836
  C  C234  1  0.257290  0.999900  0.751060  1.0  -0.0573
  C  C235  1  0.218200  0.000600  0.785130  1.0  0.0163
  C  C236  1  0.195280  0.957950  0.798580  1.0  -0.1277
  C  C237  1  0.158230  0.958700  0.832490  1.0  -0.1297
  C  C238  1  0.143980  0.002080  0.853450  1.0  -0.0259
  C  C239  1  0.166800  0.044710  0.839870  1.0  -0.1207
  C  C240  1  0.203600  0.043990  0.805770  1.0  -0.1223
  C  C241  1  0.329990  0.314470  0.001060  1.0  0.0092
  C  C242  1  0.338860  0.346340  0.038810  1.0  -0.0815
  C  C243  1  0.379330  0.376000  0.037780  1.0  -0.1381
  C  C244  1  0.411100  0.374360  0.998760  1.0  0.0579
  C  C245  1  0.401960  0.342330  0.961080  1.0  -0.1455
  C  C246  1  0.361630  0.312670  0.962190  1.0  -0.0853
  C  C247  1  0.289560  0.282300  0.002630  1.0  0.0068
  C  C248  1  0.256670  0.254190  0.003150  1.0  -0.0251
  C  C249  1  0.218690  0.219120  0.002880  1.0  -0.0062
  C  C250  1  0.171470  0.232120  0.013790  1.0  -0.1366
  C  C251  1  0.134930  0.197680  0.012890  1.0  -0.0807
  C  C252  1  0.145280  0.149710  0.001300  1.0  -0.0874
  C  C253  1  0.192890  0.137120  0.990500  1.0  -0.085
  C  C254  1  0.229180  0.171560  0.991190  1.0  -0.1117
  C  C255  1  0.329830  0.696180  0.994320  1.0  0.0128
  C  C256  1  0.360780  0.696950  0.033780  1.0  -0.078
  C  C257  1  0.401110  0.667290  0.034820  1.0  -0.1413
  C  C258  1  0.410910  0.636260  0.996490  1.0  0.0574
  C  C259  1  0.379790  0.635540  0.956930  1.0  -0.1391
  C  C260  1  0.339350  0.665250  0.955950  1.0  -0.081
  C  C261  1  0.289490  0.728470  0.992820  1.0  -0.0426
  C  C262  1  0.256660  0.756660  0.992390  1.0  0.0028
  C  C263  1  0.218710  0.791770  0.992820  1.0  -0.0098
  C  C264  1  0.228420  0.838380  0.008420  1.0  -0.1124
  C  C265  1  0.192170  0.872870  0.009080  1.0  -0.0687
  C  C266  1  0.145390  0.861210  0.994420  1.0  -0.1003
  C  C267  1  0.135760  0.814200  0.979000  1.0  -0.0805
  C  C268  1  0.172280  0.779750  0.978040  1.0  -0.1303
  C  C269  1  0.668660  0.696190  0.998810  1.0  -0.0101
  C  C270  1  0.636330  0.697330  0.037130  1.0  -0.0885
  C  C271  1  0.595940  0.667750  0.036960  1.0  -0.143
  C  C272  1  0.587400  0.636470  0.998520  1.0  0.059
  C  C273  1  0.619810  0.635540  0.960010  1.0  -0.1409
  C  C274  1  0.660350  0.665110  0.960270  1.0  -0.0928
  C  C275  1  0.709170  0.728300  0.998530  1.0  0.0486
  C  C276  1  0.742120  0.756350  0.998850  1.0  0.0269
  C  C277  1  0.780150  0.791360  0.999640  1.0  -0.0093
  C  C278  1  0.768750  0.840110  0.000920  1.0  -0.1283
  C  C279  1  0.805040  0.874530  0.001730  1.0  -0.0939
  C  C280  1  0.853580  0.860820  0.001240  1.0  -0.0885
  C  C281  1  0.864780  0.811640  0.000170  1.0  -0.0873
  C  C282  1  0.828270  0.777180  0.999370  1.0  -0.131
  C  C283  1  0.668770  0.314620  0.997620  1.0  -0.0079
  C  C284  1  0.636810  0.313750  0.959000  1.0  -0.0899
  C  C285  1  0.596450  0.343380  0.958960  1.0  -0.1421
  C  C286  1  0.587600  0.374470  0.997490  1.0  0.0587
  C  C287  1  0.619690  0.375180  0.036270  1.0  -0.1402
  C  C288  1  0.660190  0.345550  0.036220  1.0  -0.0977
  C  C289  1  0.709180  0.282370  0.998140  1.0  0.0478
  C  C290  1  0.742030  0.254210  0.998020  1.0  0.0254
  C  C291  1  0.779980  0.219110  0.997460  1.0  -0.0049
  C  C292  1  0.768500  0.170360  0.996520  1.0  -0.1211
  C  C293  1  0.804750  0.135860  0.995880  1.0  -0.076
  C  C294  1  0.853310  0.149520  0.996180  1.0  -0.0913
  C  C295  1  0.864570  0.198680  0.996920  1.0  -0.0737
  C  C296  1  0.828130  0.233210  0.997560  1.0  -0.128
  C  C297  1  0.002300  0.314160  0.329170  1.0  0.0182
  C  C298  1  0.964180  0.345860  0.337080  1.0  -0.0843
  C  C299  1  0.964060  0.375590  0.377510  1.0  -0.1405
  C  C300  1  0.002280  0.374190  0.410240  1.0  0.0575
  C  C301  1  0.040350  0.342350  0.402050  1.0  -0.1429
  C  C302  1  0.040390  0.312630  0.361750  1.0  -0.0842
  C  C303  1  0.001860  0.281950  0.288730  1.0  -0.0208
  C  C304  1  0.002080  0.253920  0.255770  1.0  0.0074
  C  C305  1  0.002880  0.219110  0.217540  1.0  -0.0023
  C  C306  1  0.989080  0.231730  0.170990  1.0  -0.1322
  C  C307  1  0.989500  0.197430  0.134340  1.0  -0.0929
  C  C308  1  0.003420  0.149930  0.143920  1.0  -0.0863
  C  C309  1  0.017490  0.137750  0.190760  1.0  -0.0779
  C  C310  1  0.017320  0.172100  0.227180  1.0  -0.1136
  C  C311  1  0.998310  0.314650  0.667960  1.0  0.0219
  C  C312  1  0.961190  0.347390  0.659620  1.0  -0.0804
  C  C313  1  0.962330  0.377030  0.619150  1.0  -0.141
  C  C314  1  0.000830  0.374500  0.586810  1.0  0.058
  C  C315  1  0.037940  0.341660  0.595470  1.0  -0.1459
  C  C316  1  0.036710  0.312020  0.635820  1.0  -0.0839
  C  C317  1  0.996450  0.282410  0.708330  1.0  -0.0393
  C  C318  1  0.995580  0.254250  0.741170  1.0  -0.0083
  C  C319  1  0.995400  0.219110  0.779080  1.0  0.0069
  C  C320  1  0.981590  0.231500  0.825710  1.0  -0.1372
  C  C321  1  0.982000  0.196990  0.862200  1.0  -0.0823
  C  C322  1  0.995940  0.149560  0.852350  1.0  -0.0836
  C  C323  1  0.009590  0.137540  0.805340  1.0  -0.094
  C  C324  1  0.009440  0.172060  0.769130  1.0  -0.1142
  C  C325  1  0.002810  0.696550  0.667440  1.0  0.0192
  C  C326  1  0.964950  0.664490  0.659790  1.0  -0.0898
  C  C327  1  0.964830  0.634770  0.619360  1.0  -0.1421
  C  C328  1  0.002810  0.636510  0.586370  1.0  0.0596
  C  C329  1  0.040640  0.668710  0.594310  1.0  -0.1444
  C  C330  1  0.040660  0.698440  0.634600  1.0  -0.0794
  C  C331  1  0.002310  0.728780  0.707870  1.0  -0.0353
  C  C332  1  0.002430  0.756810  0.740840  1.0  0.0033
  C  C333  1  0.003060  0.791610  0.779080  1.0  0.0088
  C  C334  1  0.988330  0.779170  0.825410  1.0  -0.1188
  C  C335  1  0.988510  0.813480  0.862050  1.0  -0.0849
  C  C336  1  0.003070  0.860820  0.852670  1.0  -0.1016
  C  C337  1  0.018090  0.872820  0.806090  1.0  -0.0804
  C  C338  1  0.018190  0.838460  0.769690  1.0  -0.1151
  C  C339  1  0.998500  0.696020  0.328660  1.0  0.0142
  C  C340  1  0.960940  0.663890  0.337390  1.0  -0.0829
  C  C341  1  0.962010  0.634220  0.377840  1.0  -0.1411
  C  C342  1  0.000860  0.636160  0.409800  1.0  0.0589
  C  C343  1  0.038420  0.668370  0.400760  1.0  -0.1468
  C  C344  1  0.037280  0.698010  0.360410  1.0  -0.0781
  C  C345  1  0.996770  0.728300  0.288320  1.0  -0.0094
  C  C346  1  0.996050  0.756490  0.255490  1.0  -0.008
  C  C347  1  0.996070  0.791630  0.217580  1.0  -0.0025
  C  C348  1  0.982070  0.779330  0.170980  1.0  -0.1375
  C  C349  1  0.982640  0.813820  0.134490  1.0  -0.0759
  C  C350  1  0.996920  0.861160  0.144300  1.0  -0.0993
  C  C351  1  0.010770  0.873100  0.191260  1.0  -0.0648
  C  C352  1  0.010470  0.838580  0.227490  1.0  -0.1092
  O  O353  1  0.877840  0.006110  0.936300  1.0  -0.5784
  O  O354  1  0.120630  0.003970  0.935170  1.0  -0.5996
  O  O355  1  0.997680  0.067800  0.876950  1.0  -0.5884
  O  O356  1  0.001040  0.942690  0.877060  1.0  -0.5782
  O  O357  1  0.000740  0.883830  0.935420  1.0  -0.5899
  O  O358  1  0.997130  0.126700  0.935240  1.0  -0.5813
  O  O359  1  0.061870  0.003460  0.876630  1.0  -0.5934
  O  O360  1  0.936130  0.007540  0.877270  1.0  -0.5905
  O  O361  1  0.046900  0.957700  0.950520  1.0  -0.848
  O  O362  1  0.951600  0.052890  0.950910  1.0  -0.8621
  O  O363  1  0.046330  0.052630  0.950940  1.0  -0.8492
  O  O364  1  0.952260  0.958060  0.951320  1.0  -0.8522
  O  O365  1  0.121070  0.007070  0.060190  1.0  -0.5751
  O  O366  1  0.878500  0.002820  0.061590  1.0  -0.5823
  O  O367  1  0.062330  0.126810  0.999940  1.0  -0.5858
  O  O368  1  0.062530  0.883990  0.996090  1.0  -0.5831
  O  O369  1  0.936580  0.883820  0.000040  1.0  -0.5856
  O  O370  1  0.936280  0.126630  0.996990  1.0  -0.5847
  O  O371  1  0.002020  0.068070  0.119510  1.0  -0.5737
  O  O372  1  0.998680  0.942950  0.119690  1.0  -0.5777
  O  O373  1  0.000880  0.126890  0.061150  1.0  -0.5876
  O  O374  1  0.997870  0.884010  0.061420  1.0  -0.5907
  O  O375  1  0.120620  0.067950  0.999280  1.0  -0.581
  O  O376  1  0.878160  0.067620  0.997290  1.0  -0.576
  O  O377  1  0.878330  0.942650  0.000360  1.0  -0.5768
  O  O378  1  0.120750  0.942960  0.996340  1.0  -0.5814
  O  O379  1  0.063130  0.007210  0.119310  1.0  -0.5805
  O  O380  1  0.937280  0.004510  0.120110  1.0  -0.5779
  O  O381  1  0.952210  0.957630  0.046230  1.0  -0.8579
  O  O382  1  0.047240  0.053120  0.045650  1.0  -0.8752
  O  O383  1  0.952500  0.052470  0.045650  1.0  -0.8472
  O  O384  1  0.046850  0.958190  0.045250  1.0  -0.8476
