# generated using pymatgen
data_Zn4H24C42O13
_symmetry_space_group_name_H-M   'P 1'
_cell_length_a   17.06690000
_cell_length_b   17.08940000
_cell_length_c   17.08940000
_cell_angle_alpha   90.24180000
_cell_angle_beta   91.67980000
_cell_angle_gamma   91.67980000
_symmetry_Int_Tables_number   1
_chemical_formula_structural   Zn4H24C42O13
_chemical_formula_sum   'Zn8 H48 C84 O26'
_cell_volume   4979.99964134
_cell_formula_units_Z   2
loop_
 _symmetry_equiv_pos_site_id
 _symmetry_equiv_pos_as_xyz
  1  'x, y, z'
loop_
 _atom_site_type_symbol
 _atom_site_label
 _atom_site_symmetry_multiplicity
 _atom_site_fract_x
 _atom_site_fract_y
 _atom_site_fract_z
 _atom_site_occupancy
 _atom_site_charge
  Zn  Zn1  1  0.683020  0.786380  0.916480  1.0  1.0909
  Zn  Zn2  1  0.813830  0.787820  0.787820  1.0  1.115
  Zn  Zn3  1  0.814170  0.919470  0.919470  1.0  1.0487
  Zn  Zn4  1  0.683020  0.916480  0.786380  1.0  1.0909
  Zn  Zn5  1  0.316980  0.213620  0.083520  1.0  1.0916
  Zn  Zn6  1  0.186170  0.212180  0.212180  1.0  1.1184
  Zn  Zn7  1  0.316980  0.083520  0.213620  1.0  1.0928
  Zn  Zn8  1  0.185830  0.080530  0.080530  1.0  1.048
  H  H9  1  0.654900  0.405800  0.926200  1.0  0.1194
  H  H10  1  0.661300  0.156200  0.778600  1.0  0.1145
  H  H11  1  0.660900  0.293200  0.776800  1.0  0.1257
  H  H12  1  0.199600  0.942000  0.942000  1.0  0.1003
  H  H13  1  0.660900  0.776800  0.293200  1.0  0.1256
  H  H14  1  0.836800  0.550000  0.781200  1.0  0.1138
  H  H15  1  0.839700  0.938200  0.301800  1.0  0.1251
  H  H16  1  0.836800  0.781200  0.550000  1.0  0.1133
  H  H17  1  0.304000  0.767600  0.929400  1.0  0.0956
  H  H18  1  0.655800  0.929600  0.542800  1.0  0.1174
  H  H19  1  0.304000  0.929400  0.767600  1.0  0.0969
  H  H20  1  0.654900  0.926200  0.405800  1.0  0.1188
  H  H21  1  0.179300  0.775000  0.775000  1.0  0.1344
  H  H22  1  0.840200  0.940000  0.165000  1.0  0.1051
  H  H23  1  0.435600  0.764100  0.926700  1.0  0.1125
  H  H24  1  0.435600  0.926700  0.764100  1.0  0.1123
  H  H25  1  0.840200  0.165000  0.940000  1.0  0.1041
  H  H26  1  0.839700  0.301800  0.938200  1.0  0.1248
  H  H27  1  0.065000  0.946800  0.946800  1.0  0.1082
  H  H28  1  0.835900  0.413000  0.777800  1.0  0.1238
  H  H29  1  0.044300  0.781400  0.781400  1.0  0.1154
  H  H30  1  0.655800  0.542800  0.929600  1.0  0.1172
  H  H31  1  0.835900  0.777800  0.413000  1.0  0.1241
  H  H32  1  0.661300  0.778600  0.156200  1.0  0.1146
  H  H33  1  0.344200  0.070400  0.457200  1.0  0.1173
  H  H34  1  0.339100  0.223200  0.706800  1.0  0.126
  H  H35  1  0.564400  0.235900  0.073300  1.0  0.1128
  H  H36  1  0.800400  0.058000  0.058000  1.0  0.0999
  H  H37  1  0.564400  0.073300  0.235900  1.0  0.1127
  H  H38  1  0.338700  0.843800  0.221400  1.0  0.1149
  H  H39  1  0.344200  0.457200  0.070400  1.0  0.1181
  H  H40  1  0.164100  0.222200  0.587000  1.0  0.1241
  H  H41  1  0.160300  0.061800  0.698200  1.0  0.1249
  H  H42  1  0.159800  0.835000  0.060000  1.0  0.1035
  H  H43  1  0.159800  0.060000  0.835000  1.0  0.1043
  H  H44  1  0.820700  0.225000  0.225000  1.0  0.1361
  H  H45  1  0.338700  0.221400  0.843800  1.0  0.1151
  H  H46  1  0.345100  0.073800  0.594200  1.0  0.1191
  H  H47  1  0.163200  0.218800  0.450000  1.0  0.1133
  H  H48  1  0.696000  0.232400  0.070600  1.0  0.097
  H  H49  1  0.164100  0.587000  0.222200  1.0  0.1236
  H  H50  1  0.935000  0.053200  0.053200  1.0  0.1078
  H  H51  1  0.163200  0.450000  0.218800  1.0  0.1139
  H  H52  1  0.955700  0.218600  0.218600  1.0  0.1163
  H  H53  1  0.160300  0.698200  0.061800  1.0  0.1246
  H  H54  1  0.696000  0.070600  0.232400  1.0  0.0972
  H  H55  1  0.345100  0.594200  0.073800  1.0  0.1197
  H  H56  1  0.339100  0.706800  0.223200  1.0  0.1249
  C  C57  1  0.750800  0.859500  0.147700  1.0  -0.137
  C  C58  1  0.799300  0.808600  0.439400  1.0  -0.0973
  C  C59  1  0.451200  0.851300  0.851300  1.0  -0.0469
  C  C60  1  0.751500  0.860500  0.060500  1.0  0.7206
  C  C61  1  0.803800  0.906900  0.190900  1.0  -0.0431
  C  C62  1  0.799300  0.439400  0.808600  1.0  -0.0982
  C  C63  1  0.750800  0.147700  0.859500  1.0  -0.1356
  C  C64  1  0.751500  0.060500  0.860500  1.0  0.7176
  C  C65  1  0.750300  0.310400  0.857200  1.0  0.0598
  C  C66  1  0.799900  0.520700  0.810700  1.0  -0.0457
  C  C67  1  0.746400  0.855700  0.559300  1.0  -0.1543
  C  C68  1  0.697300  0.267100  0.809900  1.0  -0.1756
  C  C69  1  0.799900  0.810700  0.520700  1.0  -0.0456
  C  C70  1  0.076500  0.814500  0.814500  1.0  -0.0578
  C  C71  1  0.692400  0.516400  0.898800  1.0  -0.0338
  C  C72  1  0.750300  0.857200  0.310400  1.0  0.0599
  C  C73  1  0.409100  0.801400  0.895400  1.0  -0.0792
  C  C74  1  0.691800  0.435100  0.896700  1.0  -0.1102
  C  C75  1  0.738500  0.851300  0.645700  1.0  0.7234
  C  C76  1  0.803800  0.190900  0.906900  1.0  -0.0423
  C  C77  1  0.803500  0.905700  0.272300  1.0  -0.1086
  C  C78  1  0.539100  0.850300  0.850300  1.0  0.6872
  C  C79  1  0.738500  0.645700  0.851300  1.0  0.722
  C  C80  1  0.088000  0.911600  0.911600  1.0  -0.1068
  C  C81  1  0.697600  0.185800  0.811000  1.0  -0.0281
  C  C82  1  0.746400  0.559300  0.855700  1.0  -0.153
  C  C83  1  0.202900  0.858400  0.858400  1.0  0.052
  C  C84  1  0.745300  0.851700  0.396500  1.0  0.0494
  C  C85  1  0.409100  0.895400  0.801400  1.0  -0.0787
  C  C86  1  0.697600  0.811000  0.185800  1.0  -0.0311
  C  C87  1  0.803500  0.272300  0.905700  1.0  -0.1088
  C  C88  1  0.953600  0.871200  0.871200  1.0  0.3096
  C  C89  1  0.156500  0.810200  0.810200  1.0  -0.2055
  C  C90  1  0.331200  0.802900  0.896100  1.0  -0.1117
  C  C91  1  0.041100  0.864600  0.864600  1.0  -0.1418
  C  C92  1  0.697300  0.809900  0.267100  1.0  -0.1753
  C  C93  1  0.745300  0.396500  0.851700  1.0  0.0487
  C  C94  1  0.691800  0.896700  0.435100  1.0  -0.1109
  C  C95  1  0.331200  0.896100  0.802900  1.0  -0.1123
  C  C96  1  0.167800  0.908700  0.908700  1.0  -0.1086
  C  C97  1  0.692400  0.898800  0.516400  1.0  -0.0319
  C  C98  1  0.289900  0.851900  0.851900  1.0  0.1687
  C  C99  1  0.046400  0.128800  0.128800  1.0  0.3081
  C  C100  1  0.548800  0.148700  0.148700  1.0  -0.0491
  C  C101  1  0.308200  0.564900  0.103300  1.0  -0.1096
  C  C102  1  0.710100  0.148100  0.148100  1.0  0.167
  C  C103  1  0.200100  0.189300  0.479300  1.0  -0.0464
  C  C104  1  0.958900  0.135400  0.135400  1.0  -0.1405
  C  C105  1  0.196200  0.093100  0.809100  1.0  -0.0433
  C  C106  1  0.912000  0.088400  0.088400  1.0  -0.1057
  C  C107  1  0.668800  0.103900  0.197100  1.0  -0.1115
  C  C108  1  0.253600  0.440700  0.144300  1.0  -0.1529
  C  C109  1  0.307600  0.101200  0.483600  1.0  -0.0314
  C  C110  1  0.200700  0.560600  0.191400  1.0  -0.0989
  C  C111  1  0.308200  0.103300  0.564900  1.0  -0.1088
  C  C112  1  0.254700  0.603500  0.148300  1.0  0.0499
  C  C113  1  0.460900  0.149700  0.149700  1.0  0.6894
  C  C114  1  0.302700  0.190100  0.732900  1.0  -0.1747
  C  C115  1  0.196500  0.727700  0.094300  1.0  -0.1081
  C  C116  1  0.248500  0.139500  0.939500  1.0  0.7165
  C  C117  1  0.248500  0.939500  0.139500  1.0  0.7152
  C  C118  1  0.590900  0.198600  0.104600  1.0  -0.0807
  C  C119  1  0.923500  0.185500  0.185500  1.0  -0.057
  C  C120  1  0.302400  0.189000  0.814200  1.0  -0.0295
  C  C121  1  0.196200  0.809100  0.093100  1.0  -0.0422
  C  C122  1  0.590900  0.104600  0.198600  1.0  -0.0772
  C  C123  1  0.200100  0.479300  0.189300  1.0  -0.0458
  C  C124  1  0.249700  0.689600  0.142800  1.0  0.0597
  C  C125  1  0.261500  0.148700  0.354300  1.0  0.7225
  C  C126  1  0.307600  0.483600  0.101200  1.0  -0.0325
  C  C127  1  0.668800  0.197100  0.103900  1.0  -0.1151
  C  C128  1  0.200700  0.191400  0.560600  1.0  -0.0988
  C  C129  1  0.254700  0.148300  0.603500  1.0  0.0495
  C  C130  1  0.253600  0.144300  0.440700  1.0  -0.1538
  C  C131  1  0.302400  0.814200  0.189000  1.0  -0.0282
  C  C132  1  0.832200  0.091300  0.091300  1.0  -0.1098
  C  C133  1  0.261500  0.354300  0.148700  1.0  0.7208
  C  C134  1  0.249200  0.852300  0.140500  1.0  -0.1348
  C  C135  1  0.843500  0.189800  0.189800  1.0  -0.2069
  C  C136  1  0.249200  0.140500  0.852300  1.0  -0.1385
  C  C137  1  0.797100  0.141600  0.141600  1.0  0.053
  C  C138  1  0.196500  0.094300  0.727700  1.0  -0.1084
  C  C139  1  0.302700  0.732900  0.190100  1.0  -0.1716
  C  C140  1  0.249700  0.142800  0.689600  1.0  0.0597
  O  O141  1  0.790800  0.812800  0.679400  1.0  -0.6123
  O  O142  1  0.925100  0.912200  0.912200  1.0  -0.5282
  O  O143  1  0.748700  0.852800  0.852800  1.0  -1.2826
  O  O144  1  0.919300  0.816600  0.816600  1.0  -0.6622
  O  O145  1  0.574400  0.804900  0.898900  1.0  -0.6163
  O  O146  1  0.797700  0.904700  0.030300  1.0  -0.5546
  O  O147  1  0.703400  0.811900  0.025900  1.0  -0.6386
  O  O148  1  0.797700  0.030300  0.904700  1.0  -0.555
  O  O149  1  0.574400  0.898900  0.804900  1.0  -0.6171
  O  O150  1  0.790800  0.679400  0.812800  1.0  -0.6117
  O  O151  1  0.695500  0.676400  0.900800  1.0  -0.599
  O  O152  1  0.703400  0.025900  0.811900  1.0  -0.6373
  O  O153  1  0.695500  0.900800  0.676400  1.0  -0.601
  O  O154  1  0.296600  0.974100  0.188100  1.0  -0.636
  O  O155  1  0.209200  0.187200  0.320600  1.0  -0.6131
  O  O156  1  0.304500  0.323600  0.099200  1.0  -0.5997
  O  O157  1  0.074900  0.087800  0.087800  1.0  -0.5293
  O  O158  1  0.202300  0.095300  0.969700  1.0  -0.5548
  O  O159  1  0.251300  0.147200  0.147200  1.0  -1.2823
  O  O160  1  0.296600  0.188100  0.974100  1.0  -0.6377
  O  O161  1  0.425600  0.195100  0.101100  1.0  -0.616
  O  O162  1  0.425600  0.101100  0.195100  1.0  -0.6161
  O  O163  1  0.209200  0.320600  0.187200  1.0  -0.6128
  O  O164  1  0.304500  0.099200  0.323600  1.0  -0.6002
  O  O165  1  0.202300  0.969700  0.095300  1.0  -0.5546
  O  O166  1  0.080700  0.183400  0.183400  1.0  -0.6613
