# generated using pymatgen
data_Zr6Ni3H124C216(N3O8)4
_symmetry_space_group_name_H-M   'P 1'
_cell_length_a   25.34680000
_cell_length_b   25.34680000
_cell_length_c   25.34680000
_cell_angle_alpha   90.00000000
_cell_angle_beta   90.00000000
_cell_angle_gamma   90.00000000
_symmetry_Int_Tables_number   1
_chemical_formula_structural   Zr6Ni3H124C216(N3O8)4
_chemical_formula_sum   'Zr6 Ni3 H124 C216 N12 O32'
_cell_volume   16284.31197772
_cell_formula_units_Z   1
loop_
 _symmetry_equiv_pos_site_id
 _symmetry_equiv_pos_as_xyz
  1  'x, y, z'
loop_
 _atom_site_type_symbol
 _atom_site_label
 _atom_site_symmetry_multiplicity
 _atom_site_fract_x
 _atom_site_fract_y
 _atom_site_fract_z
 _atom_site_occupancy
 _atom_site_charge
  Zr  Zr1  1  0.000080  0.992170  0.906880  1.0  1.7849
  Zr  Zr2  1  0.093140  0.992180  0.000090  1.0  1.7741
  Zr  Zr3  1  0.906810  0.992550  0.999980  1.0  1.7795
  Zr  Zr4  1  0.999990  0.085510  0.999780  1.0  1.7779
  Zr  Zr5  1  0.999740  0.899190  0.000190  1.0  1.7776
  Zr  Zr6  1  0.000040  0.992540  0.093170  1.0  1.788
  Ni  Ni7  1  0.500050  0.992560  0.500090  1.0  0.4303
  Ni  Ni8  1  0.500110  0.492460  0.000300  1.0  0.4351
  Ni  Ni9  1  0.999940  0.492330  0.500010  1.0  0.4255
  H  H10  1  0.451250  0.992860  0.298570  1.0  0.1096
  H  H11  1  0.302370  0.979720  0.448850  1.0  0.1147
  H  H12  1  0.701210  0.002220  0.450970  1.0  0.113
  H  H13  1  0.551110  0.989900  0.301840  1.0  0.1092
  H  H14  1  0.299270  0.976990  0.548950  1.0  0.1107
  H  H15  1  0.448820  0.994950  0.698300  1.0  0.1112
  H  H16  1  0.548680  0.998210  0.701620  1.0  0.1122
  H  H17  1  0.697840  0.005720  0.550990  1.0  0.1141
  H  H18  1  0.299470  0.443690  0.015980  1.0  0.1165
  H  H19  1  0.448400  0.295050  0.986710  1.0  0.1148
  H  H20  1  0.451460  0.693890  0.996670  1.0  0.1101
  H  H21  1  0.302510  0.543750  0.012220  1.0  0.1126
  H  H22  1  0.548430  0.291950  0.981420  1.0  0.1096
  H  H23  1  0.698200  0.441030  0.001990  1.0  0.1086
  H  H24  1  0.701590  0.540890  0.006530  1.0  0.1172
  H  H25  1  0.551240  0.690640  0.002250  1.0  0.1111
  H  H26  1  0.987320  0.291470  0.451210  1.0  0.1113
  H  H27  1  0.012890  0.441050  0.302500  1.0  0.1139
  H  H28  1  0.013230  0.443540  0.700820  1.0  0.1085
  H  H29  1  0.987500  0.294800  0.551320  1.0  0.1151
  H  H30  1  0.012840  0.541160  0.299170  1.0  0.1086
  H  H31  1  0.986440  0.689790  0.448710  1.0  0.1159
  H  H32  1  0.986350  0.693120  0.548820  1.0  0.1089
  H  H33  1  0.012960  0.543650  0.697500  1.0  0.1158
  H  H34  1  0.070380  0.062240  0.929870  1.0  0.3352
  H  H35  1  0.929600  0.922260  0.929970  1.0  0.3382
  H  H36  1  0.929880  0.062760  0.070000  1.0  0.3407
  H  H37  1  0.069960  0.922140  0.070270  1.0  0.3346
  H  H38  1  0.381680  0.913760  0.331430  1.0  0.1084
  H  H39  1  0.334900  0.068960  0.382410  1.0  0.1056
  H  H40  1  0.112000  0.025010  0.224400  1.0  0.1027
  H  H41  1  0.224370  0.964610  0.111530  1.0  0.0973
  H  H42  1  0.265300  0.070290  0.314900  1.0  0.113
  H  H43  1  0.180410  0.024370  0.292640  1.0  0.1078
  H  H44  1  0.312800  0.915180  0.263330  1.0  0.1115
  H  H45  1  0.292480  0.963780  0.179860  1.0  0.1104
  H  H46  1  0.667690  0.913980  0.383450  1.0  0.1052
  H  H47  1  0.620190  0.069660  0.334690  1.0  0.1048
  H  H48  1  0.775620  0.020540  0.112140  1.0  0.107
  H  H49  1  0.888490  0.959270  0.224040  1.0  0.1056
  H  H50  1  0.687780  0.068680  0.265200  1.0  0.1105
  H  H51  1  0.707810  0.020920  0.180880  1.0  0.1104
  H  H52  1  0.735940  0.913070  0.314620  1.0  0.1109
  H  H53  1  0.820460  0.959450  0.292590  1.0  0.1088
  H  H54  1  0.664640  0.920440  0.619700  1.0  0.1083
  H  H55  1  0.618350  0.076870  0.667250  1.0  0.109
  H  H56  1  0.776470  0.027540  0.888420  1.0  0.106
  H  H57  1  0.887850  0.965870  0.775280  1.0  0.1065
  H  H58  1  0.687300  0.076680  0.735430  1.0  0.1098
  H  H59  1  0.708140  0.029070  0.820160  1.0  0.1081
  H  H60  1  0.734260  0.920380  0.687100  1.0  0.1098
  H  H61  1  0.819330  0.967120  0.707260  1.0  0.1086
  H  H62  1  0.382390  0.911290  0.666260  1.0  0.1012
  H  H63  1  0.330450  0.065170  0.616320  1.0  0.1065
  H  H64  1  0.111190  0.017180  0.775180  1.0  0.1002
  H  H65  1  0.224530  0.959370  0.888450  1.0  0.108
  H  H66  1  0.262250  0.064700  0.685070  1.0  0.111
  H  H67  1  0.179210  0.016480  0.706810  1.0  0.11
  H  H68  1  0.314700  0.910880  0.735750  1.0  0.1106
  H  H69  1  0.292500  0.958520  0.819760  1.0  0.1108
  H  H70  1  0.327780  0.378480  0.927760  1.0  0.1077
  H  H71  1  0.385580  0.323490  0.077780  1.0  0.1059
  H  H72  1  0.225340  0.103190  0.029650  1.0  0.1068
  H  H73  1  0.110670  0.217830  0.977410  1.0  0.1093
  H  H74  1  0.317970  0.253950  0.078450  1.0  0.1094
  H  H75  1  0.293400  0.171730  0.030170  1.0  0.1083
  H  H76  1  0.259790  0.309590  0.928440  1.0  0.1078
  H  H77  1  0.178740  0.286090  0.977930  1.0  0.1134
  H  H78  1  0.334240  0.609610  0.922480  1.0  0.1058
  H  H79  1  0.382490  0.661640  0.076880  1.0  0.1064
  H  H80  1  0.224360  0.880870  0.026670  1.0  0.0971
  H  H81  1  0.111470  0.767580  0.968050  1.0  0.1057
  H  H82  1  0.313510  0.729600  0.075760  1.0  0.1079
  H  H83  1  0.292580  0.812690  0.026970  1.0  0.109
  H  H84  1  0.264510  0.677020  0.921450  1.0  0.1079
  H  H85  1  0.180020  0.699450  0.968180  1.0  0.1063
  H  H86  1  0.623070  0.654360  0.925170  1.0  0.1074
  H  H87  1  0.664630  0.612710  0.084590  1.0  0.1073
  H  H88  1  0.887660  0.769760  0.037690  1.0  0.1031
  H  H89  1  0.775820  0.879550  0.971020  1.0  0.1096
  H  H90  1  0.732870  0.681670  0.084910  1.0  0.1086
  H  H91  1  0.819540  0.701240  0.038910  1.0  0.1109
  H  H92  1  0.690400  0.724060  0.925640  1.0  0.1075
  H  H93  1  0.707990  0.810770  0.971800  1.0  0.1096
  H  H94  1  0.666840  0.375230  0.917620  1.0  0.1055
  H  H95  1  0.615340  0.322250  0.070630  1.0  0.1067
  H  H96  1  0.774890  0.103580  0.023830  1.0  0.1005
  H  H97  1  0.888590  0.217000  0.967010  1.0  0.0996
  H  H98  1  0.684120  0.254140  0.070460  1.0  0.1092
  H  H99  1  0.706480  0.171520  0.022460  1.0  0.1086
  H  H100  1  0.736360  0.307540  0.917500  1.0  0.1109
  H  H101  1  0.819860  0.284920  0.965550  1.0  0.1115
  H  H102  1  0.076460  0.321550  0.386330  1.0  0.1068
  H  H103  1  0.925080  0.375750  0.331380  1.0  0.1052
  H  H104  1  0.975420  0.217920  0.110990  1.0  0.1095
  H  H105  1  0.030140  0.103400  0.224620  1.0  0.1004
  H  H106  1  0.926040  0.308260  0.261810  1.0  0.108
  H  H107  1  0.975050  0.285740  0.179660  1.0  0.1116
  H  H108  1  0.077410  0.253590  0.317330  1.0  0.1072
  H  H109  1  0.029780  0.171350  0.293130  1.0  0.1094
  H  H110  1  0.075310  0.323810  0.616580  1.0  0.1051
  H  H111  1  0.923870  0.378570  0.670790  1.0  0.1072
  H  H112  1  0.970030  0.216940  0.888880  1.0  0.1004
  H  H113  1  0.025310  0.103380  0.774560  1.0  0.1045
  H  H114  1  0.923010  0.309560  0.738740  1.0  0.1107
  H  H115  1  0.970490  0.285440  0.820930  1.0  0.1122
  H  H116  1  0.074460  0.254250  0.684080  1.0  0.1107
  H  H117  1  0.025750  0.172040  0.706720  1.0  0.1094
  H  H118  1  0.925020  0.608490  0.668980  1.0  0.1082
  H  H119  1  0.075830  0.663560  0.613330  1.0  0.1054
  H  H120  1  0.028760  0.881500  0.775100  1.0  0.1054
  H  H121  1  0.975990  0.766550  0.889230  1.0  0.106
  H  H122  1  0.076690  0.731540  0.682310  1.0  0.1098
  H  H123  1  0.028370  0.813540  0.706620  1.0  0.1084
  H  H124  1  0.925930  0.675970  0.738570  1.0  0.1098
  H  H125  1  0.975530  0.698730  0.820550  1.0  0.1097
  H  H126  1  0.923480  0.605750  0.328970  1.0  0.1086
  H  H127  1  0.074490  0.661230  0.383680  1.0  0.0994
  H  H128  1  0.023850  0.881460  0.225720  1.0  0.1076
  H  H129  1  0.970190  0.767580  0.110950  1.0  0.1007
  H  H130  1  0.073490  0.730820  0.316210  1.0  0.108
  H  H131  1  0.024160  0.812810  0.293550  1.0  0.1099
  H  H132  1  0.922520  0.674750  0.261010  1.0  0.1113
  H  H133  1  0.970450  0.699100  0.178920  1.0  0.1107
  C  C134  1  0.456850  0.991550  0.388940  1.0  0.159
  C  C135  1  0.474550  0.992030  0.334330  1.0  -0.0287
  C  C136  1  0.391910  0.988550  0.458600  1.0  0.14
  C  C137  1  0.336490  0.983040  0.474280  1.0  0.0195
  C  C138  1  0.406450  0.990900  0.402930  1.0  0.0066
  C  C139  1  0.611150  0.995340  0.456880  1.0  0.1502
  C  C140  1  0.665620  0.999780  0.474450  1.0  -0.0253
  C  C141  1  0.541600  0.990960  0.391870  1.0  0.1398
  C  C142  1  0.525830  0.990680  0.336210  1.0  0.021
  C  C143  1  0.597290  0.992430  0.406550  1.0  0.0022
  C  C144  1  0.389110  0.986370  0.543280  1.0  0.1677
  C  C145  1  0.334720  0.981520  0.525580  1.0  -0.0167
  C  C146  1  0.458500  0.992680  0.608310  1.0  0.1426
  C  C147  1  0.474160  0.994990  0.663960  1.0  0.0012
  C  C148  1  0.402920  0.988700  0.593660  1.0  0.0007
  C  C149  1  0.543140  0.996980  0.611240  1.0  0.1305
  C  C150  1  0.525420  0.996910  0.665850  1.0  -0.0252
  C  C151  1  0.608150  0.998050  0.541540  1.0  0.1404
  C  C152  1  0.663690  0.001560  0.525720  1.0  0.0198
  C  C153  1  0.593530  0.998180  0.597260  1.0  0.0126
  C  C154  1  0.389190  0.449280  0.005430  1.0  0.1811
  C  C155  1  0.334860  0.467020  0.010840  1.0  -0.0277
  C  C156  1  0.458450  0.384400  0.996980  1.0  0.159
  C  C157  1  0.473930  0.329090  0.989980  1.0  -0.0215
  C  C158  1  0.402950  0.398910  0.002330  1.0  0.002
  C  C159  1  0.456960  0.603570  0.999750  1.0  0.1628
  C  C160  1  0.474720  0.658150  0.998700  1.0  -0.0295
  C  C161  1  0.391960  0.533960  0.002630  1.0  0.1414
  C  C162  1  0.336600  0.518300  0.008730  1.0  0.02
  C  C163  1  0.406540  0.589620  0.000120  1.0  0.0011
  C  C164  1  0.543070  0.381600  0.992560  1.0  0.1694
  C  C165  1  0.525190  0.327320  0.987150  1.0  -0.0233
  C  C166  1  0.608260  0.450850  0.998810  1.0  0.1425
  C  C167  1  0.663900  0.466420  0.001840  1.0  -0.0212
  C  C168  1  0.593500  0.395310  0.994580  1.0  0.0016
  C  C169  1  0.611250  0.535460  0.003900  1.0  0.1274
  C  C170  1  0.665830  0.517660  0.004480  1.0  -0.0261
  C  C171  1  0.541670  0.600610  0.002600  1.0  0.1308
  C  C172  1  0.525950  0.656280  0.001400  1.0  -0.0028
  C  C173  1  0.597360  0.585880  0.004270  1.0  0.0122
  C  C174  1  0.996870  0.381290  0.456910  1.0  0.1731
  C  C175  1  0.991470  0.326950  0.474610  1.0  -0.0168
  C  C176  1  0.003100  0.450720  0.391960  1.0  0.1427
  C  C177  1  0.008610  0.466430  0.336540  1.0  0.0196
  C  C178  1  0.000170  0.395070  0.406570  1.0  0.0006
  C  C179  1  0.003410  0.449230  0.611030  1.0  0.1769
  C  C180  1  0.008950  0.466930  0.665360  1.0  -0.0186
  C  C181  1  0.997060  0.384280  0.541620  1.0  0.1405
  C  C182  1  0.991630  0.328850  0.525930  1.0  0.0144
  C  C183  1  0.000110  0.398900  0.597260  1.0  -0.0013
  C  C184  1  0.003100  0.535440  0.388970  1.0  0.1737
  C  C185  1  0.008660  0.517750  0.334640  1.0  -0.0147
  C  C186  1  0.996500  0.600360  0.458390  1.0  0.1423
  C  C187  1  0.990790  0.655760  0.474100  1.0  0.0252
  C  C188  1  0.999610  0.585770  0.402750  1.0  0.0007
  C  C189  1  0.996380  0.603350  0.543110  1.0  0.1753
  C  C190  1  0.990670  0.657660  0.525420  1.0  -0.0163
  C  C191  1  0.003100  0.533950  0.608050  1.0  0.141
  C  C192  1  0.008740  0.518260  0.663460  1.0  -0.0097
  C  C193  1  0.999880  0.589590  0.593440  1.0  0.0002
  C  C194  1  0.879390  0.995180  0.879140  1.0  0.6729
  C  C195  1  0.120760  0.989430  0.879290  1.0  0.6715
  C  C196  1  0.998080  0.112840  0.878980  1.0  0.6745
  C  C197  1  0.001880  0.871310  0.879530  1.0  0.6717
  C  C198  1  0.120820  0.994490  0.120770  1.0  0.6688
  C  C199  1  0.879250  0.990420  0.120750  1.0  0.6729
  C  C200  1  0.120780  0.113020  0.002460  1.0  0.669
  C  C201  1  0.120530  0.871410  0.997910  1.0  0.6674
  C  C202  1  0.878950  0.871880  0.002890  1.0  0.673
  C  C203  1  0.879220  0.113200  0.996980  1.0  0.6732
  C  C204  1  0.002170  0.113380  0.120480  1.0  0.6772
  C  C205  1  0.997720  0.871840  0.121030  1.0  0.6742
  C  C206  1  0.283620  0.992930  0.283520  1.0  0.0752
  C  C207  1  0.317300  0.949090  0.288910  1.0  -0.1646
  C  C208  1  0.356580  0.948160  0.327890  1.0  -0.1324
  C  C209  1  0.363820  0.991440  0.361810  1.0  0.0693
  C  C210  1  0.330180  0.035200  0.356650  1.0  -0.1272
  C  C211  1  0.290320  0.035820  0.318180  1.0  -0.1742
  C  C212  1  0.241920  0.993920  0.241770  1.0  0.0609
  C  C213  1  0.190500  0.011490  0.253180  1.0  -0.1397
  C  C214  1  0.151220  0.011560  0.214110  1.0  -0.0769
  C  C215  1  0.162550  0.994880  0.162340  1.0  -0.1059
  C  C216  1  0.214190  0.977930  0.150830  1.0  -0.0813
  C  C217  1  0.253190  0.977090  0.190100  1.0  -0.1299
  C  C218  1  0.717270  0.990770  0.284310  1.0  0.0759
  C  C219  1  0.711030  0.947550  0.318640  1.0  -0.1521
  C  C220  1  0.671950  0.947930  0.357850  1.0  -0.1263
  C  C221  1  0.638670  0.991830  0.364200  1.0  0.0668
  C  C222  1  0.645150  0.035260  0.330350  1.0  -0.137
  C  C223  1  0.683670  0.034560  0.290580  1.0  -0.1625
  C  C224  1  0.758680  0.990240  0.242270  1.0  0.0726
  C  C225  1  0.747140  0.007510  0.190790  1.0  -0.1339
  C  C226  1  0.785960  0.006930  0.151310  1.0  -0.0616
  C  C227  1  0.837640  0.989860  0.162440  1.0  -0.112
  C  C228  1  0.849220  0.972820  0.214030  1.0  -0.0742
  C  C229  1  0.810160  0.972620  0.253280  1.0  -0.13
  C  C230  1  0.716290  0.998490  0.716740  1.0  0.0758
  C  C231  1  0.709370  0.954870  0.683080  1.0  -0.1797
  C  C232  1  0.669510  0.954770  0.644670  1.0  -0.1265
  C  C233  1  0.636110  0.998580  0.638430  1.0  0.0649
  C  C234  1  0.643390  0.042510  0.671500  1.0  -0.1402
  C  C235  1  0.682690  0.042280  0.710520  1.0  -0.1733
  C  C236  1  0.758230  0.998180  0.758250  1.0  0.0715
  C  C237  1  0.747300  0.015430  0.809860  1.0  -0.1383
  C  C238  1  0.786410  0.014230  0.849060  1.0  -0.0778
  C  C239  1  0.837780  0.996550  0.837470  1.0  -0.1081
  C  C240  1  0.848850  0.979890  0.785650  1.0  -0.0775
  C  C241  1  0.809490  0.980280  0.746700  1.0  -0.1263
  C  C242  1  0.282960  0.987730  0.715930  1.0  0.0755
  C  C243  1  0.317840  0.944880  0.710070  1.0  -0.1759
  C  C244  1  0.356400  0.944960  0.670300  1.0  -0.1397
  C  C245  1  0.361540  0.988240  0.636010  1.0  0.068
  C  C246  1  0.327110  0.031280  0.642120  1.0  -0.1263
  C  C247  1  0.288060  0.030870  0.681320  1.0  -0.1523
  C  C248  1  0.241350  0.987510  0.757780  1.0  0.0671
  C  C249  1  0.189620  0.004070  0.746350  1.0  -0.1312
  C  C250  1  0.150540  0.004130  0.785520  1.0  -0.0718
  C  C251  1  0.162260  0.988370  0.837490  1.0  -0.115
  C  C252  1  0.214080  0.971950  0.848970  1.0  -0.0637
  C  C253  1  0.252980  0.971140  0.809540  1.0  -0.1374
  C  C254  1  0.283280  0.276270  0.003580  1.0  0.0733
  C  C255  1  0.286790  0.312290  0.961440  1.0  -0.1573
  C  C256  1  0.325730  0.351590  0.960900  1.0  -0.1121
  C  C257  1  0.361660  0.356440  0.002870  1.0  0.066
  C  C258  1  0.358310  0.320580  0.045020  1.0  -0.1241
  C  C259  1  0.319790  0.280750  0.045230  1.0  -0.1561
  C  C260  1  0.241610  0.234440  0.003990  1.0  0.0665
  C  C261  1  0.253570  0.182300  0.018880  1.0  -0.1369
  C  C262  1  0.214580  0.142930  0.018250  1.0  -0.0607
  C  C263  1  0.162360  0.154800  0.003440  1.0  -0.1171
  C  C264  1  0.150330  0.207130  0.989160  1.0  -0.0713
  C  C265  1  0.189460  0.246270  0.989110  1.0  -0.1326
  C  C266  1  0.283580  0.708890  0.998430  1.0  0.0749
  C  C267  1  0.289900  0.673990  0.955670  1.0  -0.1734
  C  C268  1  0.329840  0.635600  0.956110  1.0  -0.1258
  C  C269  1  0.363940  0.630770  0.999560  1.0  0.0699
  C  C270  1  0.357070  0.664950  0.042700  1.0  -0.1281
  C  C271  1  0.317720  0.703840  0.041940  1.0  -0.1605
  C  C272  1  0.241790  0.750560  0.997680  1.0  0.0675
  C  C273  1  0.253160  0.802320  0.014170  1.0  -0.1342
  C  C274  1  0.214080  0.841500  0.013640  1.0  -0.077
  C  C275  1  0.162270  0.829840  0.997350  1.0  -0.1139
  C  C276  1  0.150840  0.777990  0.981010  1.0  -0.0733
  C  C277  1  0.190190  0.738980  0.980770  1.0  -0.1374
  C  C278  1  0.717010  0.708430  0.005320  1.0  0.0735
  C  C279  1  0.685070  0.700170  0.960660  1.0  -0.1711
  C  C280  1  0.646700  0.660280  0.960280  1.0  -0.1372
  C  C281  1  0.638660  0.628320  0.004860  1.0  0.0622
  C  C282  1  0.670170  0.636770  0.049720  1.0  -0.1258
  C  C283  1  0.709220  0.676060  0.049780  1.0  -0.1735
  C  C284  1  0.758340  0.750510  0.005380  1.0  0.0714
  C  C285  1  0.809500  0.740090  0.024220  1.0  -0.1414
  C  C286  1  0.848610  0.779290  0.023210  1.0  -0.0781
  C  C287  1  0.837320  0.830260  0.004220  1.0  -0.1122
  C  C288  1  0.785910  0.840860  0.986080  1.0  -0.0674
  C  C289  1  0.747090  0.801370  0.986210  1.0  -0.1386
  C  C290  1  0.715760  0.275310  0.993930  1.0  0.0756
  C  C291  1  0.710320  0.310440  0.951230  1.0  -0.1501
  C  C292  1  0.670510  0.349000  0.951140  1.0  -0.1372
  C  C293  1  0.635770  0.353830  0.994080  1.0  0.065
  C  C294  1  0.641460  0.319120  0.036960  1.0  -0.1135
  C  C295  1  0.680690  0.280120  0.036730  1.0  -0.1462
  C  C296  1  0.757650  0.233720  0.993980  1.0  0.0669
  C  C297  1  0.746120  0.181980  0.010430  1.0  -0.1261
  C  C298  1  0.785330  0.142940  0.010880  1.0  -0.078
  C  C299  1  0.837430  0.154700  0.995600  1.0  -0.1097
  C  C300  1  0.849010  0.206520  0.979250  1.0  -0.0783
  C  C301  1  0.809550  0.245400  0.978070  1.0  -0.1385
  C  C302  1  0.001790  0.275440  0.284000  1.0  0.0775
  C  C303  1  0.043810  0.279820  0.320060  1.0  -0.158
  C  C304  1  0.043400  0.318740  0.359410  1.0  -0.1147
  C  C305  1  0.000650  0.353740  0.364180  1.0  0.069
  C  C306  1  0.958520  0.349320  0.328420  1.0  -0.1269
  C  C307  1  0.959230  0.310860  0.288580  1.0  -0.1568
  C  C308  1  0.002320  0.234020  0.241950  1.0  0.0699
  C  C309  1  0.986970  0.246030  0.189980  1.0  -0.1312
  C  C310  1  0.987550  0.207180  0.150530  1.0  -0.0572
  C  C311  1  0.002790  0.155040  0.162130  1.0  -0.109
  C  C312  1  0.018010  0.143020  0.214190  1.0  -0.0758
  C  C313  1  0.018120  0.182060  0.253450  1.0  -0.132
  C  C314  1  0.998680  0.276340  0.716910  1.0  0.0766
  C  C315  1  0.041230  0.280970  0.681480  1.0  -0.1581
  C  C316  1  0.041880  0.320810  0.643020  1.0  -0.1264
  C  C317  1  0.999710  0.356510  0.638600  1.0  0.0694
  C  C318  1  0.956960  0.351680  0.673600  1.0  -0.1161
  C  C319  1  0.956610  0.312330  0.712510  1.0  -0.1476
  C  C320  1  0.998190  0.234300  0.758340  1.0  0.0673
  C  C321  1  0.982250  0.245780  0.810260  1.0  -0.1278
  C  C322  1  0.982300  0.206530  0.849290  1.0  -0.0794
  C  C323  1  0.997600  0.154490  0.837320  1.0  -0.1101
  C  C324  1  0.013060  0.142900  0.785240  1.0  -0.0758
  C  C325  1  0.013700  0.182350  0.746390  1.0  -0.1319
  C  C326  1  0.001370  0.709240  0.716000  1.0  0.0767
  C  C327  1  0.959000  0.673570  0.711640  1.0  -0.1564
  C  C328  1  0.958320  0.635120  0.671790  1.0  -0.1261
  C  C329  1  0.000300  0.630930  0.635830  1.0  0.0693
  C  C330  1  0.042880  0.666180  0.640410  1.0  -0.1152
  C  C331  1  0.043240  0.705100  0.679750  1.0  -0.1576
  C  C332  1  0.001870  0.750660  0.758040  1.0  0.0592
  C  C333  1  0.017130  0.802750  0.746400  1.0  -0.1322
  C  C334  1  0.017050  0.841780  0.785660  1.0  -0.0846
  C  C335  1  0.002400  0.829660  0.837850  1.0  -0.1044
  C  C336  1  0.987660  0.777390  0.849590  1.0  -0.0783
  C  C337  1  0.987040  0.738540  0.810140  1.0  -0.1295
  C  C338  1  0.997940  0.708350  0.283120  1.0  0.0767
  C  C339  1  0.956040  0.672140  0.287360  1.0  -0.1572
  C  C340  1  0.956450  0.632790  0.326280  1.0  -0.1163
  C  C341  1  0.999110  0.628160  0.361420  1.0  0.0703
  C  C342  1  0.041130  0.664080  0.357140  1.0  -0.1273
  C  C343  1  0.040390  0.703930  0.318690  1.0  -0.1579
  C  C344  1  0.997400  0.750400  0.241710  1.0  0.0705
  C  C345  1  0.012490  0.802440  0.253780  1.0  -0.1345
  C  C346  1  0.011940  0.841880  0.214920  1.0  -0.0776
  C  C347  1  0.997030  0.830190  0.162700  1.0  -0.1103
  C  C348  1  0.982060  0.778080  0.150630  1.0  -0.0806
  C  C349  1  0.981900  0.738830  0.189670  1.0  -0.1285
  N  N350  1  0.501240  0.991210  0.424260  1.0  -0.452
  N  N351  1  0.424300  0.989560  0.498930  1.0  -0.4494
  N  N352  1  0.498830  0.994150  0.575930  1.0  -0.4506
  N  N353  1  0.575820  0.995340  0.501250  1.0  -0.4461
  N  N354  1  0.424320  0.493630  0.001610  1.0  -0.4543
  N  N355  1  0.498840  0.416720  0.997490  1.0  -0.4551
  N  N356  1  0.575930  0.491220  0.000290  1.0  -0.451
  N  N357  1  0.501310  0.568260  0.001820  1.0  -0.4511
  N  N358  1  0.999190  0.416540  0.501250  1.0  -0.4504
  N  N359  1  0.000820  0.491090  0.424220  1.0  -0.452
  N  N360  1  0.998820  0.568110  0.498760  1.0  -0.4493
  N  N361  1  0.000940  0.493580  0.575790  1.0  -0.4515
  O  O362  1  0.863970  0.995040  0.928110  1.0  -0.6064
  O  O363  1  0.136170  0.989780  0.928280  1.0  -0.5987
  O  O364  1  0.999120  0.063840  0.863690  1.0  -0.6098
  O  O365  1  0.002050  0.920280  0.864110  1.0  -0.6134
  O  O366  1  0.000490  0.856000  0.928510  1.0  -0.6125
  O  O367  1  0.998220  0.128300  0.927920  1.0  -0.6125
  O  O368  1  0.071810  0.990700  0.863940  1.0  -0.617
  O  O369  1  0.928360  0.993570  0.863790  1.0  -0.6062
  O  O370  1  0.047850  0.944220  0.952230  1.0  -0.9521
  O  O371  1  0.952130  0.040240  0.951920  1.0  -0.9489
  O  O372  1  0.047730  0.039820  0.952360  1.0  -0.856
  O  O373  1  0.952230  0.944730  0.952430  1.0  -0.8564
  O  O374  1  0.136170  0.993180  0.071810  1.0  -0.6063
  O  O375  1  0.863830  0.991570  0.071790  1.0  -0.6116
  O  O376  1  0.071810  0.128400  0.001120  1.0  -0.6128
  O  O377  1  0.071520  0.856070  0.998080  1.0  -0.6057
  O  O378  1  0.927890  0.856410  0.002750  1.0  -0.608
  O  O379  1  0.928210  0.128580  0.997240  1.0  -0.6021
  O  O380  1  0.001990  0.064420  0.135940  1.0  -0.6075
  O  O381  1  0.998960  0.920830  0.136340  1.0  -0.6167
  O  O382  1  0.001010  0.128690  0.071480  1.0  -0.6147
  O  O383  1  0.997850  0.856390  0.072060  1.0  -0.6065
  O  O384  1  0.136150  0.064020  0.002240  1.0  -0.5994
  O  O385  1  0.863860  0.064260  0.998510  1.0  -0.6109
  O  O386  1  0.863620  0.920860  0.001270  1.0  -0.6056
  O  O387  1  0.135970  0.920350  0.999070  1.0  -0.6093
  O  O388  1  0.071840  0.994590  0.136170  1.0  -0.6091
  O  O389  1  0.928240  0.990550  0.136120  1.0  -0.6027
  O  O390  1  0.951960  0.944660  0.048020  1.0  -0.9382
  O  O391  1  0.047940  0.040340  0.047820  1.0  -0.9422
  O  O392  1  0.952390  0.040160  0.047560  1.0  -0.8567
  O  O393  1  0.047500  0.944690  0.047730  1.0  -0.8532
