# generated using pymatgen
data_Zr6FeH24C48(NO2)4
_symmetry_space_group_name_H-M   'P 1'
_cell_length_a   16.89000000
_cell_length_b   21.43000000
_cell_length_c   21.43000000
_cell_angle_alpha   120.00000000
_cell_angle_beta   90.00000000
_cell_angle_gamma   90.00000000
_symmetry_Int_Tables_number   1
_chemical_formula_structural   Zr6FeH24C48(NO2)4
_chemical_formula_sum   'Zr18 Fe3 H72 C144 N12 O24'
_cell_volume   6717.45279680
_cell_formula_units_Z   3
loop_
 _symmetry_equiv_pos_site_id
 _symmetry_equiv_pos_as_xyz
  1  'x, y, z'
loop_
 _atom_site_type_symbol
 _atom_site_label
 _atom_site_symmetry_multiplicity
 _atom_site_fract_x
 _atom_site_fract_y
 _atom_site_fract_z
 _atom_site_occupancy
 _atom_site_charge
  Zr  Zr1  1  0.000000  0.933500  0.067700  1.0  1.6718
  Zr  Zr2  1  0.000000  0.932300  0.865800  1.0  1.6703
  Zr  Zr3  1  0.000000  0.066500  0.932300  1.0  1.6687
  Zr  Zr4  1  0.895400  0.922300  0.922600  1.0  1.693
  Zr  Zr5  1  0.000000  0.134200  0.066500  1.0  1.671
  Zr  Zr6  1  0.895400  0.077400  0.999700  1.0  1.6958
  Zr  Zr7  1  0.000000  0.865800  0.933500  1.0  1.674
  Zr  Zr8  1  0.104600  0.000300  0.077700  1.0  1.6877
  Zr  Zr9  1  0.104600  0.922300  0.922600  1.0  1.6888
  Zr  Zr10  1  0.895400  0.077700  0.077400  1.0  1.6954
  Zr  Zr11  1  0.104600  0.077400  0.999700  1.0  1.6878
  Zr  Zr12  1  0.000000  0.067700  0.134200  1.0  1.6716
  Zr  Zr13  1  0.104600  0.077700  0.077400  1.0  1.6887
  Zr  Zr14  1  0.895400  0.000300  0.077700  1.0  1.6941
  Zr  Zr15  1  0.104600  0.922600  0.000300  1.0  1.6872
  Zr  Zr16  1  0.895400  0.922600  0.000300  1.0  1.6915
  Zr  Zr17  1  0.895400  0.999700  0.922300  1.0  1.696
  Zr  Zr18  1  0.104600  0.999700  0.922300  1.0  1.6889
  Fe  Fe19  1  0.500000  0.500000  0.000000  1.0  0.935
  Fe  Fe20  1  0.500000  0.500000  0.500000  1.0  0.935
  Fe  Fe21  1  0.500000  0.000000  0.500000  1.0  0.935
  H  H22  1  0.704300  0.722500  0.601300  1.0  0.0499
  H  H23  1  0.704300  0.277500  0.398700  1.0  0.0504
  H  H24  1  0.704300  0.121200  0.722500  1.0  0.052
  H  H25  1  0.823400  0.794500  0.079600  1.0  0.0301
  H  H26  1  0.295700  0.878800  0.277500  1.0  0.051
  H  H27  1  0.176600  0.205500  0.920400  1.0  0.0297
  H  H28  1  0.201900  0.444400  0.440700  1.0  0.0452
  H  H29  1  0.794600  0.324900  0.136900  1.0  0.0238
  H  H30  1  0.266900  0.720700  0.095200  1.0  0.0409
  H  H31  1  0.571700  0.274100  0.259500  1.0  0.0443
  H  H32  1  0.704300  0.878800  0.277500  1.0  0.0512
  H  H33  1  0.205400  0.136900  0.812000  1.0  0.0244
  H  H34  1  0.733100  0.095200  0.374500  1.0  0.0417
  H  H35  1  0.571700  0.725900  0.740500  1.0  0.0445
  H  H36  1  0.823400  0.920400  0.714900  1.0  0.0291
  H  H37  1  0.571700  0.014600  0.274100  1.0  0.0429
  H  H38  1  0.428300  0.740500  0.014600  1.0  0.045
  H  H39  1  0.266900  0.095200  0.374500  1.0  0.0419
  H  H40  1  0.794600  0.136900  0.812000  1.0  0.0244
  H  H41  1  0.295700  0.722500  0.601300  1.0  0.0496
  H  H42  1  0.266900  0.904800  0.625500  1.0  0.0417
  H  H43  1  0.295700  0.277500  0.398700  1.0  0.0504
  H  H44  1  0.794600  0.863100  0.188000  1.0  0.0239
  H  H45  1  0.205400  0.324900  0.136900  1.0  0.0231
  H  H46  1  0.571700  0.985400  0.725900  1.0  0.0435
  H  H47  1  0.176600  0.794500  0.079600  1.0  0.0302
  H  H48  1  0.205400  0.863100  0.188000  1.0  0.0242
  H  H49  1  0.798100  0.996300  0.555600  1.0  0.0446
  H  H50  1  0.733100  0.374500  0.279300  1.0  0.0416
  H  H51  1  0.733100  0.279300  0.904800  1.0  0.0413
  H  H52  1  0.704300  0.398700  0.121200  1.0  0.0511
  H  H53  1  0.201900  0.003700  0.444400  1.0  0.0444
  H  H54  1  0.295700  0.601300  0.878800  1.0  0.0508
  H  H55  1  0.428300  0.259500  0.985400  1.0  0.0442
  H  H56  1  0.201900  0.555600  0.559300  1.0  0.045
  H  H57  1  0.794600  0.188000  0.324900  1.0  0.0238
  H  H58  1  0.794600  0.675100  0.863100  1.0  0.0229
  H  H59  1  0.266900  0.374500  0.279300  1.0  0.0416
  H  H60  1  0.176600  0.920400  0.714900  1.0  0.029
  H  H61  1  0.571700  0.740500  0.014600  1.0  0.045
  H  H62  1  0.266900  0.279300  0.904800  1.0  0.0414
  H  H63  1  0.823400  0.714900  0.794500  1.0  0.0292
  H  H64  1  0.794600  0.812000  0.675100  1.0  0.023
  H  H65  1  0.266900  0.625500  0.720700  1.0  0.0417
  H  H66  1  0.205400  0.675100  0.863100  1.0  0.0228
  H  H67  1  0.823400  0.205500  0.920400  1.0  0.0296
  H  H68  1  0.205400  0.188000  0.324900  1.0  0.0234
  H  H69  1  0.201900  0.440700  0.996300  1.0  0.0449
  H  H70  1  0.733100  0.904800  0.625500  1.0  0.0414
  H  H71  1  0.176600  0.079600  0.285100  1.0  0.0296
  H  H72  1  0.798100  0.003700  0.444400  1.0  0.0446
  H  H73  1  0.798100  0.555600  0.559300  1.0  0.0451
  H  H74  1  0.798100  0.444400  0.440700  1.0  0.0454
  H  H75  1  0.823400  0.285100  0.205500  1.0  0.029
  H  H76  1  0.798100  0.440700  0.996300  1.0  0.0451
  H  H77  1  0.201900  0.996300  0.555600  1.0  0.0439
  H  H78  1  0.428300  0.014600  0.274100  1.0  0.0423
  H  H79  1  0.733100  0.720700  0.095200  1.0  0.0406
  H  H80  1  0.176600  0.714900  0.794500  1.0  0.0292
  H  H81  1  0.295700  0.121200  0.722500  1.0  0.0515
  H  H82  1  0.733100  0.625500  0.720700  1.0  0.0414
  H  H83  1  0.295700  0.398700  0.121200  1.0  0.0508
  H  H84  1  0.428300  0.725900  0.740500  1.0  0.0443
  H  H85  1  0.205400  0.812000  0.675100  1.0  0.0232
  H  H86  1  0.428300  0.985400  0.725900  1.0  0.0427
  H  H87  1  0.823400  0.079600  0.285100  1.0  0.0294
  H  H88  1  0.571700  0.259500  0.985400  1.0  0.0447
  H  H89  1  0.428300  0.274100  0.259500  1.0  0.044
  H  H90  1  0.704300  0.601300  0.878800  1.0  0.0509
  H  H91  1  0.176600  0.285100  0.205500  1.0  0.0292
  H  H92  1  0.798100  0.559300  0.003700  1.0  0.0451
  H  H93  1  0.201900  0.559300  0.003700  1.0  0.0449
  C  C94  1  0.540080  0.297500  0.988300  1.0  -0.1262
  C  C95  1  0.289900  0.988500  0.334500  1.0  -0.0485
  C  C96  1  0.817600  0.030100  0.771900  1.0  -0.1292
  C  C97  1  0.728500  0.359500  0.080400  1.0  -0.1947
  C  C98  1  0.710100  0.665500  0.654000  1.0  -0.0485
  C  C99  1  0.200800  0.244700  0.961200  1.0  -0.1765
  C  C100  1  0.817600  0.258200  0.030100  1.0  -0.1293
  C  C101  1  0.728500  0.919600  0.279100  1.0  -0.1954
  C  C102  1  0.676400  0.550300  0.552900  1.0  -0.081
  C  C103  1  0.710100  0.654000  0.988500  1.0  -0.0486
  C  C104  1  0.710100  0.011500  0.665500  1.0  -0.0484
  C  C105  1  0.217900  0.315700  0.089700  1.0  -0.1411
  C  C106  1  0.799200  0.716500  0.755300  1.0  -0.1853
  C  C107  1  0.354200  0.388100  0.001200  1.0  -0.1244
  C  C108  1  0.271500  0.279100  0.359500  1.0  -0.1905
  C  C109  1  0.676400  0.552900  0.002600  1.0  -0.0817
  C  C110  1  0.752400  0.469400  0.467500  1.0  -0.1547
  C  C111  1  0.676400  0.447100  0.997400  1.0  -0.0821
  C  C112  1  0.289900  0.665500  0.654000  1.0  -0.0487
  C  C113  1  0.200800  0.961200  0.716500  1.0  -0.1765
  C  C114  1  0.254500  0.663300  0.711400  1.0  -0.199
  C  C115  1  0.217900  0.774000  0.684300  1.0  -0.1419
  C  C116  1  0.645800  0.001200  0.613100  1.0  -0.1249
  C  C117  1  0.217900  0.226000  0.315700  1.0  -0.1408
  C  C118  1  0.752400  0.998100  0.530600  1.0  -0.1533
  C  C119  1  0.782100  0.774000  0.684300  1.0  -0.1417
  C  C120  1  0.728500  0.279100  0.359500  1.0  -0.1905
  C  C121  1  0.459920  0.690800  0.702500  1.0  -0.1268
  C  C122  1  0.645800  0.388100  0.001200  1.0  -0.1255
  C  C123  1  0.799200  0.244700  0.961200  1.0  -0.1833
  C  C124  1  0.430400  0.358500  0.993100  1.0  -0.0733
  C  C125  1  0.354200  0.386900  0.388100  1.0  -0.1248
  C  C126  1  0.865400  0.204500  0.039400  1.0  0.399
  C  C127  1  0.217900  0.910300  0.226000  1.0  -0.139
  C  C128  1  0.134600  0.795500  0.960600  1.0  0.3991
  C  C129  1  0.200800  0.755300  0.038800  1.0  -0.177
  C  C130  1  0.323600  0.002600  0.449700  1.0  -0.0814
  C  C131  1  0.354200  0.611900  0.998800  1.0  -0.1249
  C  C132  1  0.254500  0.288600  0.951900  1.0  -0.196
  C  C133  1  0.247600  0.532500  0.001900  1.0  -0.1583
  C  C134  1  0.540080  0.011700  0.309200  1.0  -0.1252
  C  C135  1  0.540080  0.690800  0.702500  1.0  -0.1278
  C  C136  1  0.289900  0.346000  0.011500  1.0  -0.049
  C  C137  1  0.745500  0.711400  0.048100  1.0  -0.197
  C  C138  1  0.254500  0.951900  0.663300  1.0  -0.2008
  C  C139  1  0.459920  0.011700  0.309200  1.0  -0.1245
  C  C140  1  0.728500  0.080400  0.720900  1.0  -0.1928
  C  C141  1  0.271500  0.080400  0.720900  1.0  -0.1911
  C  C142  1  0.200800  0.283500  0.244700  1.0  -0.1826
  C  C143  1  0.799200  0.038800  0.283500  1.0  -0.1835
  C  C144  1  0.752400  0.001900  0.469400  1.0  -0.153
  C  C145  1  0.430400  0.634600  0.641500  1.0  -0.0752
  C  C146  1  0.134600  0.165100  0.204500  1.0  0.3983
  C  C147  1  0.540080  0.309200  0.297500  1.0  -0.1268
  C  C148  1  0.430400  0.006900  0.365400  1.0  -0.0754
  C  C149  1  0.430400  0.365400  0.358500  1.0  -0.0739
  C  C150  1  0.569600  0.006900  0.365400  1.0  -0.0767
  C  C151  1  0.459920  0.309200  0.297500  1.0  -0.1272
  C  C152  1  0.182400  0.741800  0.969900  1.0  -0.1385
  C  C153  1  0.247600  0.469400  0.467500  1.0  -0.1567
  C  C154  1  0.569600  0.358500  0.993100  1.0  -0.0744
  C  C155  1  0.323600  0.449700  0.447100  1.0  -0.0807
  C  C156  1  0.782100  0.315700  0.089700  1.0  -0.1406
  C  C157  1  0.430400  0.993100  0.634600  1.0  -0.0737
  C  C158  1  0.323600  0.552900  0.002600  1.0  -0.0811
  C  C159  1  0.817600  0.771900  0.741800  1.0  -0.1293
  C  C160  1  0.865400  0.795500  0.960600  1.0  0.3991
  C  C161  1  0.354200  0.613100  0.611900  1.0  -0.1243
  C  C162  1  0.200800  0.716500  0.755300  1.0  -0.1839
  C  C163  1  0.799200  0.283500  0.244700  1.0  -0.1854
  C  C164  1  0.271500  0.640500  0.919600  1.0  -0.1978
  C  C165  1  0.865400  0.039400  0.834900  1.0  0.401
  C  C166  1  0.676400  0.449700  0.447100  1.0  -0.0814
  C  C167  1  0.182400  0.030100  0.771900  1.0  -0.1292
  C  C168  1  0.134600  0.834900  0.795500  1.0  0.3999
  C  C169  1  0.247600  0.467500  0.998100  1.0  -0.1582
  C  C170  1  0.323600  0.447100  0.997400  1.0  -0.0818
  C  C171  1  0.745500  0.048100  0.336700  1.0  -0.2033
  C  C172  1  0.271500  0.359500  0.080400  1.0  -0.1933
  C  C173  1  0.752400  0.530600  0.532500  1.0  -0.1544
  C  C174  1  0.271500  0.720900  0.640500  1.0  -0.1876
  C  C175  1  0.289900  0.334500  0.346000  1.0  -0.0489
  C  C176  1  0.254500  0.048100  0.336700  1.0  -0.2005
  C  C177  1  0.752400  0.467500  0.998100  1.0  -0.1549
  C  C178  1  0.817600  0.228100  0.258200  1.0  -0.1289
  C  C179  1  0.782100  0.089700  0.774000  1.0  -0.1382
  C  C180  1  0.728500  0.640500  0.919600  1.0  -0.1966
  C  C181  1  0.354200  0.001200  0.613100  1.0  -0.124
  C  C182  1  0.430400  0.641500  0.006900  1.0  -0.0755
  C  C183  1  0.745500  0.288600  0.951900  1.0  -0.1993
  C  C184  1  0.645800  0.386900  0.388100  1.0  -0.1259
  C  C185  1  0.217900  0.684300  0.910300  1.0  -0.1402
  C  C186  1  0.540080  0.988300  0.690800  1.0  -0.1261
  C  C187  1  0.676400  0.997400  0.550300  1.0  -0.0828
  C  C188  1  0.247600  0.998100  0.530600  1.0  -0.1567
  C  C189  1  0.865400  0.960600  0.165100  1.0  0.4007
  C  C190  1  0.217900  0.089700  0.774000  1.0  -0.1372
  C  C191  1  0.134600  0.204500  0.039400  1.0  0.3989
  C  C192  1  0.676400  0.002600  0.449700  1.0  -0.081
  C  C193  1  0.645800  0.611900  0.998800  1.0  -0.1261
  C  C194  1  0.799200  0.961200  0.716500  1.0  -0.1831
  C  C195  1  0.569600  0.641500  0.006900  1.0  -0.0767
  C  C196  1  0.182400  0.969900  0.228100  1.0  -0.1384
  C  C197  1  0.182400  0.771900  0.741800  1.0  -0.1366
  C  C198  1  0.728500  0.720900  0.640500  1.0  -0.1874
  C  C199  1  0.710100  0.346000  0.011500  1.0  -0.0488
  C  C200  1  0.710100  0.334500  0.346000  1.0  -0.0488
  C  C201  1  0.745500  0.663300  0.711400  1.0  -0.2012
  C  C202  1  0.323600  0.550300  0.552900  1.0  -0.0802
  C  C203  1  0.200800  0.038800  0.283500  1.0  -0.1813
  C  C204  1  0.645800  0.998800  0.386900  1.0  -0.1256
  C  C205  1  0.569600  0.365400  0.358500  1.0  -0.0759
  C  C206  1  0.782100  0.226000  0.315700  1.0  -0.1414
  C  C207  1  0.817600  0.741800  0.969900  1.0  -0.136
  C  C208  1  0.182400  0.258200  0.030100  1.0  -0.1375
  C  C209  1  0.752400  0.532500  0.001900  1.0  -0.1555
  C  C210  1  0.354200  0.998800  0.386900  1.0  -0.1244
  C  C211  1  0.540080  0.702500  0.011700  1.0  -0.1278
  C  C212  1  0.254500  0.336700  0.288600  1.0  -0.1983
  C  C213  1  0.134600  0.039400  0.834900  1.0  0.4004
  C  C214  1  0.645800  0.613100  0.611900  1.0  -0.1255
  C  C215  1  0.134600  0.960600  0.165100  1.0  0.4003
  C  C216  1  0.799200  0.755300  0.038800  1.0  -0.1832
  C  C217  1  0.459920  0.702500  0.011700  1.0  -0.1271
  C  C218  1  0.865400  0.834900  0.795500  1.0  0.4004
  C  C219  1  0.745500  0.951900  0.663300  1.0  -0.202
  C  C220  1  0.289900  0.011500  0.665500  1.0  -0.0487
  C  C221  1  0.459920  0.988300  0.690800  1.0  -0.1273
  C  C222  1  0.459920  0.297500  0.988300  1.0  -0.1263
  C  C223  1  0.817600  0.969900  0.228100  1.0  -0.1382
  C  C224  1  0.289900  0.654000  0.988500  1.0  -0.0486
  C  C225  1  0.745500  0.336700  0.288600  1.0  -0.2004
  C  C226  1  0.254500  0.711400  0.048100  1.0  -0.1961
  C  C227  1  0.710100  0.988500  0.334500  1.0  -0.0484
  C  C228  1  0.247600  0.530600  0.532500  1.0  -0.158
  C  C229  1  0.323600  0.997400  0.550300  1.0  -0.0829
  C  C230  1  0.865400  0.165100  0.204500  1.0  0.3995
  C  C231  1  0.569600  0.993100  0.634600  1.0  -0.0745
  C  C232  1  0.271500  0.919600  0.279100  1.0  -0.1941
  C  C233  1  0.782100  0.684300  0.910300  1.0  -0.1409
  C  C234  1  0.247600  0.001900  0.469400  1.0  -0.1556
  C  C235  1  0.182400  0.228100  0.258200  1.0  -0.1374
  C  C236  1  0.569600  0.634600  0.641500  1.0  -0.0759
  C  C237  1  0.782100  0.910300  0.226000  1.0  -0.1379
  N  N238  1  0.500000  0.589200  0.995000  1.0  -0.5093
  N  N239  1  0.500000  0.410800  0.005000  1.0  -0.5098
  N  N240  1  0.500000  0.594200  0.589200  1.0  -0.511
  N  N241  1  0.613300  0.500000  0.500000  1.0  -0.489
  N  N242  1  0.386700  0.500000  0.000000  1.0  -0.4893
  N  N243  1  0.500000  0.405800  0.410800  1.0  -0.5107
  N  N244  1  0.500000  0.995000  0.405800  1.0  -0.5097
  N  N245  1  0.500000  0.005000  0.594200  1.0  -0.51
  N  N246  1  0.386700  0.500000  0.500000  1.0  -0.4893
  N  N247  1  0.613300  0.000000  0.500000  1.0  -0.489
  N  N248  1  0.386700  0.000000  0.500000  1.0  -0.4893
  N  N249  1  0.613300  0.500000  0.000000  1.0  -0.489
  O  O250  1  0.075900  0.998400  0.815200  1.0  -0.6841
  O  O251  1  0.924100  0.183200  0.998400  1.0  -0.6832
  O  O252  1  0.075900  0.815200  0.816800  1.0  -0.6851
  O  O253  1  0.137600  0.097900  0.175100  1.0  -0.7509
  O  O254  1  0.862400  0.097900  0.175100  1.0  -0.7522
  O  O255  1  0.075900  0.816800  0.001600  1.0  -0.6838
  O  O256  1  0.862400  0.922800  0.097900  1.0  -0.7516
  O  O257  1  0.137600  0.175100  0.077200  1.0  -0.7501
  O  O258  1  0.924100  0.184800  0.183200  1.0  -0.6817
  O  O259  1  0.862400  0.902100  0.824900  1.0  -0.7516
  O  O260  1  0.075900  0.001600  0.184800  1.0  -0.6838
  O  O261  1  0.924100  0.998400  0.815200  1.0  -0.6838
  O  O262  1  0.924100  0.001600  0.184800  1.0  -0.6833
  O  O263  1  0.924100  0.815200  0.816800  1.0  -0.6836
  O  O264  1  0.075900  0.183200  0.998400  1.0  -0.6835
  O  O265  1  0.137600  0.824900  0.922800  1.0  -0.7482
  O  O266  1  0.924100  0.816800  0.001600  1.0  -0.6829
  O  O267  1  0.137600  0.077200  0.902100  1.0  -0.7505
  O  O268  1  0.862400  0.077200  0.902100  1.0  -0.7519
  O  O269  1  0.862400  0.824900  0.922800  1.0  -0.7503
  O  O270  1  0.075900  0.184800  0.183200  1.0  -0.6812
  O  O271  1  0.137600  0.902100  0.824900  1.0  -0.7495
  O  O272  1  0.137600  0.922800  0.097900  1.0  -0.7493
  O  O273  1  0.862400  0.175100  0.077200  1.0  -0.7514
