# generated using pymatgen
data_Zr3H65C108(N3O8)2
_symmetry_space_group_name_H-M   'P 1'
_cell_length_a   25.33400000
_cell_length_b   25.33400000
_cell_length_c   25.33400000
_cell_angle_alpha   90.00000000
_cell_angle_beta   90.00000000
_cell_angle_gamma   90.00000000
_symmetry_Int_Tables_number   1
_chemical_formula_structural   Zr3H65C108(N3O8)2
_chemical_formula_sum   'Zr6 H130 C216 N12 O32'
_cell_volume   16259.65395970
_cell_formula_units_Z   2
loop_
 _symmetry_equiv_pos_site_id
 _symmetry_equiv_pos_as_xyz
  1  'x, y, z'
loop_
 _atom_site_type_symbol
 _atom_site_label
 _atom_site_symmetry_multiplicity
 _atom_site_fract_x
 _atom_site_fract_y
 _atom_site_fract_z
 _atom_site_occupancy
 _atom_site_charge
  Zr  Zr1  1  0.906890  0.994860  0.999290  1.0  1.7844
  Zr  Zr2  1  0.999630  0.994670  0.092860  1.0  1.7923
  Zr  Zr3  1  0.000430  0.994870  0.906690  1.0  1.7865
  Zr  Zr4  1  0.999870  0.901650  0.999620  1.0  1.7832
  Zr  Zr5  1  0.000260  0.087880  0.999830  1.0  1.7823
  Zr  Zr6  1  0.093210  0.994530  0.000390  1.0  1.7779
  H  H7  1  0.551150  0.971930  0.301180  1.0  0.1164
  H  H8  1  0.448170  0.972490  0.300130  1.0  0.1061
  H  H9  1  0.544130  0.976870  0.500150  1.0  0.1039
  H  H10  1  0.301860  0.021410  0.450930  1.0  0.1009
  H  H11  1  0.304850  0.023900  0.553660  1.0  0.1158
  H  H12  1  0.448980  0.971750  0.698440  1.0  0.1162
  H  H13  1  0.551970  0.972470  0.699480  1.0  0.1081
  H  H14  1  0.695170  0.024330  0.445990  1.0  0.1156
  H  H15  1  0.456000  0.976830  0.499480  1.0  0.103
  H  H16  1  0.698140  0.021850  0.548730  1.0  0.1055
  H  H17  1  0.449010  0.295330  0.026910  1.0  0.1
  H  H18  1  0.551880  0.297460  0.029590  1.0  0.1128
  H  H19  1  0.456500  0.494560  0.013680  1.0  0.1014
  H  H20  1  0.688770  0.441250  0.956950  1.0  0.1122
  H  H21  1  0.689350  0.544900  0.953230  1.0  0.1132
  H  H22  1  0.550740  0.690790  0.032470  1.0  0.1105
  H  H23  1  0.447520  0.690610  0.031230  1.0  0.1166
  H  H24  1  0.300460  0.443950  0.979380  1.0  0.1038
  H  H25  1  0.545830  0.496170  0.025870  1.0  0.1089
  H  H26  1  0.301780  0.546670  0.977490  1.0  0.1114
  H  H27  1  0.052050  0.547650  0.687090  1.0  0.1052
  H  H28  1  0.054170  0.443910  0.686940  1.0  0.1078
  H  H29  1  0.025690  0.541620  0.500940  1.0  0.1047
  H  H30  1  0.946350  0.309890  0.552510  1.0  0.1086
  H  H31  1  0.946320  0.309400  0.448660  1.0  0.1145
  H  H32  1  0.049310  0.442820  0.310150  1.0  0.1072
  H  H33  1  0.048160  0.546790  0.310510  1.0  0.1165
  H  H34  1  0.946700  0.681450  0.550440  1.0  0.1104
  H  H35  1  0.029570  0.446210  0.500100  1.0  0.1076
  H  H36  1  0.949260  0.680860  0.446390  1.0  0.1167
  H  H37  1  0.929430  0.924560  0.069510  1.0  0.3354
  H  H38  1  0.930280  0.065140  0.929340  1.0  0.3479
  H  H39  1  0.070440  0.924600  0.929860  1.0  0.3431
  H  H40  1  0.070010  0.064760  0.070410  1.0  0.3385
  H  H41  1  0.336520  0.073520  0.376610  1.0  0.1115
  H  H42  1  0.376600  0.912370  0.338460  1.0  0.1015
  H  H43  1  0.222590  0.958190  0.113280  1.0  0.1004
  H  H44  1  0.111500  0.024710  0.224080  1.0  0.1099
  H  H45  1  0.308680  0.911910  0.269600  1.0  0.1116
  H  H46  1  0.290670  0.957850  0.181920  1.0  0.1083
  H  H47  1  0.267150  0.072090  0.309290  1.0  0.1127
  H  H48  1  0.179890  0.024930  0.292370  1.0  0.1084
  H  H49  1  0.609280  0.067800  0.324440  1.0  0.1152
  H  H50  1  0.674650  0.924110  0.387620  1.0  0.1114
  H  H51  1  0.889900  0.976970  0.225660  1.0  0.1071
  H  H52  1  0.773310  0.018990  0.108530  1.0  0.1094
  H  H53  1  0.743380  0.925160  0.319380  1.0  0.114
  H  H54  1  0.821570  0.977050  0.293610  1.0  0.1134
  H  H55  1  0.677730  0.068990  0.255840  1.0  0.114
  H  H56  1  0.705000  0.018760  0.176690  1.0  0.1131
  H  H57  1  0.663290  0.073850  0.623150  1.0  0.1086
  H  H58  1  0.623730  0.912510  0.661040  1.0  0.1041
  H  H59  1  0.777740  0.957760  0.886190  1.0  0.1078
  H  H60  1  0.888240  0.026120  0.775910  1.0  0.1088
  H  H61  1  0.691630  0.912170  0.729920  1.0  0.1159
  H  H62  1  0.709620  0.957460  0.817560  1.0  0.1131
  H  H63  1  0.732580  0.072590  0.690540  1.0  0.114
  H  H64  1  0.819870  0.026250  0.707610  1.0  0.1114
  H  H65  1  0.325520  0.923840  0.612080  1.0  0.1096
  H  H66  1  0.390770  0.067640  0.675160  1.0  0.1132
  H  H67  1  0.226810  0.018850  0.891120  1.0  0.1134
  H  H68  1  0.110230  0.976710  0.774020  1.0  0.1079
  H  H69  1  0.322330  0.068800  0.743770  1.0  0.115
  H  H70  1  0.295120  0.018570  0.822960  1.0  0.114
  H  H71  1  0.256800  0.924870  0.680340  1.0  0.1158
  H  H72  1  0.178570  0.976750  0.706070  1.0  0.1118
  H  H73  1  0.338220  0.371920  0.920780  1.0  0.1063
  H  H74  1  0.375440  0.331690  0.082120  1.0  0.1087
  H  H75  1  0.223450  0.106870  0.032160  1.0  0.1131
  H  H76  1  0.113100  0.217440  0.964020  1.0  0.105
  H  H77  1  0.307920  0.262490  0.080290  1.0  0.1127
  H  H78  1  0.291460  0.175500  0.033200  1.0  0.1131
  H  H79  1  0.269310  0.304140  0.919860  1.0  0.1121
  H  H80  1  0.181440  0.285840  0.964660  1.0  0.1152
  H  H81  1  0.347040  0.629660  0.917070  1.0  0.1086
  H  H82  1  0.365590  0.645390  0.085360  1.0  0.1041
  H  H83  1  0.219370  0.878830  0.045380  1.0  0.1002
  H  H84  1  0.114680  0.774410  0.960750  1.0  0.1103
  H  H85  1  0.297410  0.714580  0.086490  1.0  0.1079
  H  H86  1  0.287470  0.809950  0.045880  1.0  0.1099
  H  H87  1  0.277630  0.697510  0.918270  1.0  0.1059
  H  H88  1  0.183270  0.706140  0.960280  1.0  0.1085
  H  H89  1  0.595680  0.683860  0.941740  1.0  0.1105
  H  H90  1  0.689990  0.590530  0.048910  1.0  0.1077
  H  H91  1  0.892320  0.766450  0.994950  1.0  0.1064
  H  H92  1  0.771360  0.886670  0.994950  1.0  0.1129
  H  H93  1  0.758370  0.658140  0.047370  1.0  0.1122
  H  H94  1  0.824480  0.698270  0.993460  1.0  0.1135
  H  H95  1  0.663910  0.751620  0.940860  1.0  0.1142
  H  H96  1  0.703600  0.818330  0.994640  1.0  0.1132
  H  H97  1  0.606320  0.315520  0.934170  1.0  0.1106
  H  H98  1  0.679390  0.389670  0.068600  1.0  0.1114
  H  H99  1  0.891760  0.222240  0.017690  1.0  0.1089
  H  H100  1  0.772760  0.104020  0.986970  1.0  0.1085
  H  H101  1  0.748440  0.321760  0.068770  1.0  0.1128
  H  H102  1  0.823790  0.290590  0.017220  1.0  0.1146
  H  H103  1  0.675160  0.247430  0.934070  1.0  0.1125
  H  H104  1  0.704930  0.172430  0.987020  1.0  0.1149
  H  H105  1  0.043620  0.299610  0.408960  1.0  0.1123
  H  H106  1  0.954770  0.403430  0.306820  1.0  0.1109
  H  H107  1  0.005520  0.222890  0.108490  1.0  0.1092
  H  H108  1  0.987640  0.102530  0.227920  1.0  0.1092
  H  H109  1  0.953330  0.335450  0.239110  1.0  0.111
  H  H110  1  0.006520  0.290510  0.176850  1.0  0.1137
  H  H111  1  0.041690  0.231570  0.341150  1.0  0.115
  H  H112  1  0.987170  0.170350  0.296150  1.0  0.1101
  H  H113  1  0.044510  0.300550  0.589740  1.0  0.1119
  H  H114  1  0.959190  0.404020  0.695260  1.0  0.1116
  H  H115  1  0.015830  0.222640  0.891300  1.0  0.1069
  H  H116  1  0.992340  0.103230  0.771890  1.0  0.1089
  H  H117  1  0.960730  0.336040  0.762960  1.0  0.1133
  H  H118  1  0.016390  0.290580  0.823140  1.0  0.1136
  H  H119  1  0.045330  0.232480  0.657510  1.0  0.1131
  H  H120  1  0.991650  0.171320  0.703950  1.0  0.1103
  H  H121  1  0.954660  0.585310  0.694270  1.0  0.1096
  H  H122  1  0.041470  0.689300  0.590540  1.0  0.1122
  H  H123  1  0.986870  0.886630  0.771650  1.0  0.1088
  H  H124  1  0.007580  0.766870  0.891230  1.0  0.1054
  H  H125  1  0.040470  0.757410  0.658230  1.0  0.1144
  H  H126  1  0.986030  0.818520  0.703670  1.0  0.1113
  H  H127  1  0.954200  0.653410  0.761930  1.0  0.1127
  H  H128  1  0.008130  0.698990  0.823120  1.0  0.1122
  H  H129  1  0.942990  0.593410  0.313150  1.0  0.1113
  H  H130  1  0.059120  0.680550  0.401690  1.0  0.1133
  H  H131  1  0.007480  0.886690  0.227990  1.0  0.1112
  H  H132  1  0.997520  0.766210  0.107700  1.0  0.1115
  H  H133  1  0.060030  0.749070  0.333410  1.0  0.1094
  H  H134  1  0.006910  0.818620  0.296080  1.0  0.1127
  H  H135  1  0.943360  0.661880  0.244880  1.0  0.111
  H  H136  1  0.997840  0.698250  0.175890  1.0  0.1129
  C  C137  1  0.526210  0.977850  0.335340  1.0  -0.0824
  C  C138  1  0.472140  0.977550  0.335050  1.0  -0.0813
  C  C139  1  0.455680  0.986770  0.386580  1.0  0.1356
  C  C140  1  0.541730  0.988320  0.386700  1.0  0.1526
  C  C141  1  0.402080  0.993370  0.402850  1.0  0.0076
  C  C142  1  0.387430  0.001740  0.456800  1.0  0.0943
  C  C143  1  0.336940  0.014610  0.474180  1.0  -0.0857
  C  C144  1  0.338180  0.015390  0.528330  1.0  -0.0774
  C  C145  1  0.388930  0.001790  0.543440  1.0  0.1188
  C  C146  1  0.405080  0.994840  0.596770  1.0  -0.0936
  C  C147  1  0.458370  0.988210  0.612930  1.0  0.1522
  C  C148  1  0.473910  0.977740  0.664280  1.0  -0.0847
  C  C149  1  0.527980  0.977520  0.664570  1.0  -0.0805
  C  C150  1  0.544420  0.986800  0.613040  1.0  0.1359
  C  C151  1  0.598000  0.993520  0.596780  1.0  0.0088
  C  C152  1  0.612640  0.001960  0.542840  1.0  0.0913
  C  C153  1  0.663090  0.014950  0.525470  1.0  -0.0836
  C  C154  1  0.661860  0.015730  0.471320  1.0  -0.079
  C  C155  1  0.611140  0.002010  0.456190  1.0  0.1203
  C  C156  1  0.595010  0.995020  0.402860  1.0  -0.0947
  C  C157  1  0.472660  0.330380  0.021390  1.0  -0.0819
  C  C158  1  0.526730  0.331200  0.022320  1.0  -0.0816
  C  C159  1  0.541930  0.382300  0.010390  1.0  0.2028
  C  C160  1  0.455890  0.381460  0.010280  1.0  0.1379
  C  C161  1  0.594900  0.398620  0.002420  1.0  -0.1217
  C  C162  1  0.609580  0.451780  0.992640  1.0  0.1685
  C  C163  1  0.657450  0.466760  0.970850  1.0  -0.0623
  C  C164  1  0.657780  0.520930  0.969140  1.0  -0.064
  C  C165  1  0.610380  0.538090  0.990710  1.0  0.1618
  C  C166  1  0.596130  0.592160  0.997560  1.0  -0.0102
  C  C167  1  0.542600  0.607890  0.004890  1.0  0.1621
  C  C168  1  0.526350  0.657630  0.021150  1.0  -0.0723
  C  C169  1  0.472300  0.657380  0.021040  1.0  -0.0655
  C  C170  1  0.456730  0.607080  0.006270  1.0  0.1432
  C  C171  1  0.403410  0.590930  0.000170  1.0  -0.0949
  C  C172  1  0.387510  0.537590  0.992900  1.0  0.0885
  C  C173  1  0.336130  0.521870  0.982790  1.0  -0.0669
  C  C174  1  0.335650  0.467700  0.983490  1.0  -0.0764
  C  C175  1  0.386970  0.450900  0.993570  1.0  0.0905
  C  C176  1  0.402280  0.397140  0.002170  1.0  0.012
  C  C177  1  0.035100  0.522500  0.657010  1.0  -0.0481
  C  C178  1  0.036240  0.468420  0.656900  1.0  -0.0496
  C  C179  1  0.011300  0.452140  0.610980  1.0  0.1762
  C  C180  1  0.009610  0.537880  0.611080  1.0  0.1726
  C  C181  1  0.001670  0.398710  0.596700  1.0  -0.0205
  C  C182  1  0.990660  0.384870  0.543360  1.0  0.1497
  C  C183  1  0.964270  0.339560  0.527540  1.0  -0.0389
  C  C184  1  0.964320  0.339290  0.473310  1.0  0.0095
  C  C185  1  0.990750  0.384430  0.457040  1.0  0.1468
  C  C186  1  0.001290  0.397960  0.403470  1.0  -0.0179
  C  C187  1  0.011600  0.451180  0.388870  1.0  0.166
  C  C188  1  0.034050  0.467380  0.341580  1.0  -0.0409
  C  C189  1  0.033730  0.521540  0.341800  1.0  -0.0254
  C  C190  1  0.011880  0.536810  0.389490  1.0  0.2424
  C  C191  1  0.001060  0.589570  0.404200  1.0  -0.118
  C  C192  1  0.988920  0.603620  0.456890  1.0  0.2793
  C  C193  1  0.964630  0.650240  0.471920  1.0  -0.0651
  C  C194  1  0.963550  0.650580  0.526210  1.0  -0.0076
  C  C195  1  0.988080  0.604520  0.543080  1.0  0.1537
  C  C196  1  0.998640  0.591030  0.596610  1.0  -0.0173
  C  C197  1  0.879890  0.992670  0.878420  1.0  0.6745
  C  C198  1  0.878890  0.997180  0.119900  1.0  0.6712
  C  C199  1  0.879170  0.874120  0.996520  1.0  0.6519
  C  C200  1  0.879540  0.115660  0.001620  1.0  0.6666
  C  C201  1  0.120120  0.992160  0.121270  1.0  0.676
  C  C202  1  0.121230  0.997050  0.879750  1.0  0.6667
  C  C203  1  0.001840  0.873900  0.120380  1.0  0.6584
  C  C204  1  0.997370  0.115400  0.120620  1.0  0.6599
  C  C205  1  0.003130  0.115580  0.879090  1.0  0.6624
  C  C206  1  0.997910  0.874170  0.878870  1.0  0.6576
  C  C207  1  0.120340  0.873730  0.002430  1.0  0.6697
  C  C208  1  0.121090  0.115130  0.998350  1.0  0.669
  C  C209  1  0.282390  0.991880  0.284170  1.0  0.0823
  C  C210  1  0.290670  0.036940  0.315490  1.0  -0.1504
  C  C211  1  0.330210  0.037630  0.354220  1.0  -0.1616
  C  C212  1  0.361890  0.992850  0.363500  1.0  0.0969
  C  C213  1  0.353310  0.947690  0.332160  1.0  -0.1473
  C  C214  1  0.314380  0.947360  0.292800  1.0  -0.1321
  C  C215  1  0.240680  0.991420  0.242550  1.0  0.0708
  C  C216  1  0.251630  0.972330  0.191580  1.0  -0.1336
  C  C217  1  0.212680  0.972780  0.152220  1.0  -0.0949
  C  C218  1  0.161480  0.991400  0.163110  1.0  -0.1053
  C  C219  1  0.150390  0.009860  0.214340  1.0  -0.0753
  C  C220  1  0.189630  0.010310  0.253390  1.0  -0.1386
  C  C221  1  0.716030  0.997160  0.282130  1.0  0.0829
  C  C222  1  0.677340  0.036980  0.284160  1.0  -0.1624
  C  C223  1  0.638350  0.036470  0.323400  1.0  -0.1487
  C  C224  1  0.636780  0.995800  0.361070  1.0  0.0883
  C  C225  1  0.675200  0.955900  0.359040  1.0  -0.1563
  C  C226  1  0.714530  0.956690  0.320170  1.0  -0.1506
  C  C227  1  0.757800  0.997800  0.240590  1.0  0.0748
  C  C228  1  0.810520  0.986010  0.253300  1.0  -0.1256
  C  C229  1  0.849760  0.986330  0.214340  1.0  -0.076
  C  C230  1  0.837240  0.997940  0.161450  1.0  -0.1092
  C  C231  1  0.784450  0.009740  0.148750  1.0  -0.0747
  C  C232  1  0.745300  0.009940  0.187870  1.0  -0.1282
  C  C233  1  0.717630  0.992270  0.715520  1.0  0.0815
  C  C234  1  0.709210  0.037350  0.684260  1.0  -0.1489
  C  C235  1  0.669700  0.037950  0.645490  1.0  -0.1603
  C  C236  1  0.638180  0.993080  0.636120  1.0  0.0971
  C  C237  1  0.646900  0.947900  0.667410  1.0  -0.1479
  C  C238  1  0.685810  0.947640  0.706790  1.0  -0.1259
  C  C239  1  0.759330  0.991890  0.757170  1.0  0.0735
  C  C240  1  0.748540  0.972350  0.808010  1.0  -0.1343
  C  C241  1  0.787490  0.972810  0.847370  1.0  -0.0798
  C  C242  1  0.838520  0.991950  0.836610  1.0  -0.1079
  C  C243  1  0.849470  0.010890  0.785530  1.0  -0.0817
  C  C244  1  0.810230  0.011290  0.746470  1.0  -0.1382
  C  C245  1  0.284090  0.996920  0.717530  1.0  0.0835
  C  C246  1  0.285620  0.956420  0.679530  1.0  -0.1492
  C  C247  1  0.324940  0.955650  0.640650  1.0  -0.1568
  C  C248  1  0.363330  0.995590  0.638570  1.0  0.0879
  C  C249  1  0.361730  0.036270  0.676220  1.0  -0.1458
  C  C250  1  0.322740  0.036770  0.715470  1.0  -0.1619
  C  C251  1  0.242330  0.997560  0.759070  1.0  0.079
  C  C252  1  0.254820  0.009740  0.811790  1.0  -0.1312
  C  C253  1  0.215680  0.009570  0.850910  1.0  -0.0725
  C  C254  1  0.162880  0.997760  0.838210  1.0  -0.0984
  C  C255  1  0.150370  0.986100  0.785330  1.0  -0.0723
  C  C256  1  0.189610  0.985740  0.746370  1.0  -0.1263
  C  C257  1  0.283270  0.277900  0.999950  1.0  0.0803
  C  C258  1  0.292190  0.309890  0.955510  1.0  -0.1261
  C  C259  1  0.331530  0.348790  0.956130  1.0  -0.1491
  C  C260  1  0.362490  0.357420  0.001550  1.0  0.0966
  C  C261  1  0.353040  0.325610  0.046200  1.0  -0.1537
  C  C262  1  0.314290  0.286110  0.045240  1.0  -0.1302
  C  C263  1  0.241800  0.236090  0.999080  1.0  0.0757
  C  C264  1  0.252630  0.185090  0.018110  1.0  -0.1398
  C  C265  1  0.213750  0.145710  0.017170  1.0  -0.0775
  C  C266  1  0.162750  0.156610  0.998030  1.0  -0.1021
  C  C267  1  0.151860  0.207740  0.979210  1.0  -0.0777
  C  C268  1  0.191050  0.246840  0.979300  1.0  -0.1591
  C  C269  1  0.282270  0.711330  0.002460  1.0  0.0721
  C  C270  1  0.296590  0.686460  0.954950  1.0  -0.1723
  C  C271  1  0.336220  0.647870  0.954200  1.0  -0.1364
  C  C272  1  0.361510  0.632530  0.001100  1.0  0.1003
  C  C273  1  0.346730  0.656800  0.048730  1.0  -0.1624
  C  C274  1  0.307950  0.696290  0.049310  1.0  -0.1708
  C  C275  1  0.240630  0.752780  0.003060  1.0  0.0878
  C  C276  1  0.249830  0.801840  0.027300  1.0  -0.1565
  C  C277  1  0.210980  0.841270  0.026780  1.0  -0.088
  C  C278  1  0.161610  0.832040  0.003100  1.0  -0.0935
  C  C279  1  0.152190  0.782640  0.979560  1.0  -0.0817
  C  C280  1  0.191460  0.743690  0.979020  1.0  -0.1589
  C  C281  1  0.716720  0.710650  0.994210  1.0  0.067
  C  C282  1  0.669900  0.716890  0.965030  1.0  -0.126
  C  C283  1  0.630560  0.677990  0.965780  1.0  -0.1586
  C  C284  1  0.636580  0.631520  0.995910  1.0  0.0858
  C  C285  1  0.683950  0.625120  0.024510  1.0  -0.1282
  C  C286  1  0.723260  0.664070  0.023760  1.0  -0.1265
  C  C287  1  0.758380  0.752590  0.994070  1.0  0.0595
  C  C288  1  0.812300  0.739220  0.994270  1.0  -0.1197
  C  C289  1  0.851300  0.778480  0.994790  1.0  -0.0676
  C  C290  1  0.837570  0.832350  0.995140  1.0  -0.1044
  C  C291  1  0.783630  0.845730  0.994620  1.0  -0.0706
  C  C292  1  0.744640  0.806440  0.994090  1.0  -0.121
  C  C293  1  0.717250  0.278940  0.001580  1.0  0.0817
  C  C294  1  0.676400  0.278010  0.963900  1.0  -0.1534
  C  C295  1  0.637130  0.316990  0.963770  1.0  -0.112
  C  C296  1  0.637370  0.357460  0.001700  1.0  0.1088
  C  C297  1  0.678330  0.358800  0.039050  1.0  -0.1313
  C  C298  1  0.717870  0.320070  0.038950  1.0  -0.151
  C  C299  1  0.758850  0.237090  0.001990  1.0  0.0653
  C  C300  1  0.812130  0.249960  0.010960  1.0  -0.1251
  C  C301  1  0.851160  0.210710  0.010910  1.0  -0.0752
  C  C302  1  0.837960  0.157410  0.002280  1.0  -0.1091
  C  C303  1  0.784560  0.144540  0.993750  1.0  -0.0708
  C  C304  1  0.745620  0.183850  0.993400  1.0  -0.1313
  C  C305  1  0.997550  0.277840  0.284300  1.0  0.0626
  C  C306  1  0.022120  0.268720  0.333290  1.0  -0.1108
  C  C307  1  0.023080  0.307900  0.372390  1.0  -0.1236
  C  C308  1  0.999810  0.357790  0.363770  1.0  0.0862
  C  C309  1  0.974870  0.366530  0.314700  1.0  -0.138
  C  C310  1  0.973750  0.327270  0.275740  1.0  -0.1316
  C  C311  1  0.996920  0.236160  0.242290  1.0  0.0573
  C  C312  1  0.001660  0.249720  0.188590  1.0  -0.1212
  C  C313  1  0.001400  0.210760  0.149270  1.0  -0.0712
  C  C314  1  0.996590  0.156990  0.162430  1.0  -0.101
  C  C315  1  0.991690  0.143410  0.216110  1.0  -0.0707
  C  C316  1  0.991780  0.182400  0.255410  1.0  -0.1223
  C  C317  1  0.003270  0.278580  0.716010  1.0  0.0617
  C  C318  1  0.025980  0.269590  0.666130  1.0  -0.1135
  C  C319  1  0.025270  0.308770  0.627030  1.0  -0.1288
  C  C320  1  0.002030  0.358540  0.636480  1.0  0.086
  C  C321  1  0.979120  0.367210  0.686560  1.0  -0.1323
  C  C322  1  0.979720  0.327960  0.725550  1.0  -0.1207
  C  C323  1  0.003930  0.236700  0.757810  1.0  0.0529
  C  C324  1  0.010560  0.249920  0.811400  1.0  -0.1238
  C  C325  1  0.010540  0.210800  0.850570  1.0  -0.0566
  C  C326  1  0.004040  0.157220  0.837340  1.0  -0.1017
  C  C327  1  0.997780  0.143940  0.783730  1.0  -0.0562
  C  C328  1  0.997650  0.183090  0.744590  1.0  -0.1201
  C  C329  1  0.997270  0.711170  0.715810  1.0  0.0619
  C  C330  1  0.973850  0.661640  0.724900  1.0  -0.1181
  C  C331  1  0.974350  0.622340  0.685950  1.0  -0.131
  C  C332  1  0.998090  0.631220  0.636310  1.0  0.0849
  C  C333  1  0.021380  0.681040  0.627360  1.0  -0.1306
  C  C334  1  0.021050  0.720240  0.666430  1.0  -0.1218
  C  C335  1  0.997080  0.753010  0.757640  1.0  0.0607
  C  C336  1  0.991340  0.806680  0.744380  1.0  -0.118
  C  C337  1  0.991490  0.845830  0.783530  1.0  -0.0719
  C  C338  1  0.997210  0.832490  0.837170  1.0  -0.1083
  C  C339  1  0.002730  0.778810  0.850470  1.0  -0.0577
  C  C340  1  0.002760  0.739700  0.811310  1.0  -0.1147
  C  C341  1  0.001830  0.711080  0.283450  1.0  0.0782
  C  C342  1  0.969200  0.666320  0.278620  1.0  -0.1313
  C  C343  1  0.968780  0.627200  0.317750  1.0  -0.1147
  C  C344  1  0.001140  0.631630  0.362590  1.0  0.099
  C  C345  1  0.033640  0.676300  0.367630  1.0  -0.1306
  C  C346  1  0.033950  0.715560  0.328610  1.0  -0.1582
  C  C347  1  0.002300  0.752810  0.241630  1.0  0.0596
  C  C348  1  0.005380  0.806620  0.255090  1.0  -0.1299
  C  C349  1  0.005390  0.845740  0.215930  1.0  -0.0748
  C  C350  1  0.002500  0.832200  0.162080  1.0  -0.1039
  C  C351  1  0.999710  0.778340  0.148630  1.0  -0.0602
  C  C352  1  0.999530  0.739260  0.187820  1.0  -0.137
  N  N353  1  0.498600  0.994040  0.417820  1.0  -0.3366
  N  N354  1  0.418590  0.993310  0.499690  1.0  -0.2822
  N  N355  1  0.501490  0.994020  0.581810  1.0  -0.3371
  N  N356  1  0.581490  0.993450  0.499940  1.0  -0.2849
  N  N357  1  0.498670  0.412840  0.002950  1.0  -0.3223
  N  N358  1  0.580940  0.495470  0.004590  1.0  -0.2955
  N  N359  1  0.499800  0.576930  0.996110  1.0  -0.3406
  N  N360  1  0.418090  0.494180  0.999810  1.0  -0.2593
  N  N361  1  0.995720  0.494740  0.582490  1.0  -0.3325
  N  N362  1  0.005820  0.412600  0.500100  1.0  -0.2949
  N  N363  1  0.998630  0.493820  0.418430  1.0  -0.3358
  N  N364  1  0.002630  0.575680  0.500410  1.0  -0.2958
  O  O365  1  0.928930  0.993980  0.863250  1.0  -0.6173
  O  O366  1  0.927780  0.996040  0.135480  1.0  -0.6105
  O  O367  1  0.863820  0.923120  0.997420  1.0  -0.6033
  O  O368  1  0.864060  0.066710  0.000450  1.0  -0.6065
  O  O369  1  0.928560  0.130950  0.001460  1.0  -0.6074
  O  O370  1  0.928150  0.858760  0.997440  1.0  -0.6169
  O  O371  1  0.863650  0.996880  0.070870  1.0  -0.6038
  O  O372  1  0.864230  0.992730  0.927320  1.0  -0.6036
  O  O373  1  0.951980  0.042710  0.047470  1.0  -0.9451
  O  O374  1  0.952200  0.946910  0.951500  1.0  -0.951
  O  O375  1  0.952080  0.947110  0.047130  1.0  -0.8554
  O  O376  1  0.952670  0.042560  0.951960  1.0  -0.8514
  O  O377  1  0.071070  0.993570  0.136400  1.0  -0.6064
  O  O378  1  0.072330  0.996150  0.864150  1.0  -0.611
  O  O379  1  0.001180  0.858590  0.071360  1.0  -0.6136
  O  O380  1  0.998630  0.130830  0.071650  1.0  -0.6091
  O  O381  1  0.002330  0.130940  0.928090  1.0  -0.605
  O  O382  1  0.998550  0.858760  0.927840  1.0  -0.6195
  O  O383  1  0.135970  0.922640  0.002690  1.0  -0.5993
  O  O384  1  0.136420  0.066150  0.999820  1.0  -0.604
  O  O385  1  0.071390  0.858410  0.000740  1.0  -0.6084
  O  O386  1  0.072150  0.130660  0.998010  1.0  -0.6076
  O  O387  1  0.001220  0.922890  0.135770  1.0  -0.6145
  O  O388  1  0.998600  0.923180  0.863570  1.0  -0.6014
  O  O389  1  0.002360  0.066590  0.863730  1.0  -0.6132
  O  O390  1  0.997590  0.066370  0.135890  1.0  -0.6165
  O  O391  1  0.135810  0.992190  0.072380  1.0  -0.5979
  O  O392  1  0.136460  0.996530  0.928790  1.0  -0.5994
  O  O393  1  0.048350  0.042590  0.952170  1.0  -0.9483
  O  O394  1  0.047670  0.946600  0.047960  1.0  -0.9418
  O  O395  1  0.047850  0.947120  0.952340  1.0  -0.8514
  O  O396  1  0.047580  0.042300  0.047730  1.0  -0.8506
