# generated using pymatgen
data_MnH8C17(SO2)2
_symmetry_space_group_name_H-M   'P 1'
_cell_length_a   19.46900000
_cell_length_b   19.46900000
_cell_length_c   20.68040000
_cell_angle_alpha   90.00000000
_cell_angle_beta   90.00000000
_cell_angle_gamma   120.00000000
_symmetry_Int_Tables_number   1
_chemical_formula_structural   MnH8C17(SO2)2
_chemical_formula_sum   'Mn12 H96 C204 S24 O48'
_cell_volume   6788.54742829
_cell_formula_units_Z   12
loop_
 _symmetry_equiv_pos_site_id
 _symmetry_equiv_pos_as_xyz
  1  'x, y, z'
loop_
 _atom_site_type_symbol
 _atom_site_label
 _atom_site_symmetry_multiplicity
 _atom_site_fract_x
 _atom_site_fract_y
 _atom_site_fract_z
 _atom_site_occupancy
 _atom_site_charge
  Mn  Mn1  1  0.730460  0.377850  0.975510  1.0  1.1304
  Mn  Mn2  1  0.707810  0.437460  0.812060  1.0  1.135
  Mn  Mn3  1  0.647390  0.269540  0.308850  1.0  1.1348
  Mn  Mn4  1  0.292190  0.562540  0.312060  1.0  1.1335
  Mn  Mn5  1  0.269540  0.622150  0.475510  1.0  1.1308
  Mn  Mn6  1  0.270350  0.707810  0.645390  1.0  1.1345
  Mn  Mn7  1  0.729650  0.292190  0.145390  1.0  1.1342
  Mn  Mn8  1  0.622150  0.352610  0.642180  1.0  1.1314
  Mn  Mn9  1  0.437460  0.729650  0.978730  1.0  1.1352
  Mn  Mn10  1  0.562540  0.270350  0.478730  1.0  1.1349
  Mn  Mn11  1  0.377850  0.647390  0.142180  1.0  1.1306
  Mn  Mn12  1  0.352610  0.730460  0.808850  1.0  1.1344
  H  H13  1  0.358800  0.221000  0.246170  1.0  0.1235
  H  H14  1  0.967100  0.257700  0.519400  1.0  0.1215
  H  H15  1  0.537500  0.881900  0.595270  1.0  0.1154
  H  H16  1  0.742900  0.544000  0.053670  1.0  0.1122
  H  H17  1  0.674200  0.932600  0.600670  1.0  0.1171
  H  H18  1  0.166700  0.229700  0.260370  1.0  0.1154
  H  H19  1  0.403800  0.043800  0.281930  1.0  0.1164
  H  H20  1  0.184600  0.107300  0.560370  1.0  0.1206
  H  H21  1  0.790700  0.634800  0.764070  1.0  0.1126
  H  H22  1  0.344400  0.462500  0.928600  1.0  0.1158
  H  H23  1  0.365200  0.155900  0.430730  1.0  0.1115
  H  H24  1  0.830000  0.683900  0.870200  1.0  0.1101
  H  H25  1  0.043800  0.640000  0.448600  1.0  0.116
  H  H26  1  0.815400  0.892700  0.060370  1.0  0.1206
  H  H27  1  0.740300  0.049200  0.530500  1.0  0.107
  H  H28  1  0.257100  0.456000  0.553670  1.0  0.1128
  H  H29  1  0.048600  0.316500  0.944200  1.0  0.1207
  H  H30  1  0.892700  0.077300  0.227030  1.0  0.1205
  H  H31  1  0.198900  0.742900  0.887000  1.0  0.1114
  H  H32  1  0.308900  0.259700  0.863830  1.0  0.1095
  H  H33  1  0.655600  0.537500  0.428600  1.0  0.1151
  H  H34  1  0.316100  0.146100  0.536870  1.0  0.1105
  H  H35  1  0.505000  0.728700  0.740670  1.0  0.1169
  H  H36  1  0.728700  0.223700  0.907330  1.0  0.1177
  H  H37  1  0.884400  0.203700  0.394100  1.0  0.1095
  H  H38  1  0.922700  0.815400  0.893700  1.0  0.1202
  H  H39  1  0.259700  0.950800  0.030500  1.0  0.1071
  H  H40  1  0.641200  0.779000  0.746170  1.0  0.1236
  H  H41  1  0.445300  0.343800  0.855630  1.0  0.1157
  H  H42  1  0.223700  0.495000  0.074000  1.0  0.1169
  H  H43  1  0.077300  0.184600  0.393700  1.0  0.1204
  H  H44  1  0.271300  0.776300  0.407330  1.0  0.1176
  H  H45  1  0.495000  0.271300  0.240670  1.0  0.1171
  H  H46  1  0.956200  0.360000  0.948600  1.0  0.1168
  H  H47  1  0.742300  0.709400  0.186070  1.0  0.1218
  H  H48  1  0.319300  0.115600  0.727430  1.0  0.1082
  H  H49  1  0.049200  0.308900  0.697170  1.0  0.1082
  H  H50  1  0.862200  0.641200  0.579500  1.0  0.1239
  H  H51  1  0.596200  0.956200  0.781930  1.0  0.1164
  H  H52  1  0.801100  0.257100  0.387000  1.0  0.1126
  H  H53  1  0.937000  0.166700  0.093700  1.0  0.1154
  H  H54  1  0.137800  0.358800  0.079500  1.0  0.123
  H  H55  1  0.343800  0.898500  0.022300  1.0  0.1159
  H  H56  1  0.316500  0.267900  0.110870  1.0  0.1199
  H  H57  1  0.950800  0.691100  0.197170  1.0  0.1085
  H  H58  1  0.770300  0.937000  0.927030  1.0  0.1156
  H  H59  1  0.634800  0.844100  0.930730  1.0  0.1119
  H  H60  1  0.672000  0.061300  0.330330  1.0  0.1079
  H  H61  1  0.456000  0.198900  0.720330  1.0  0.1122
  H  H62  1  0.115600  0.796300  0.894100  1.0  0.1097
  H  H63  1  0.853900  0.170000  0.203530  1.0  0.1101
  H  H64  1  0.544000  0.801100  0.220330  1.0  0.1125
  H  H65  1  0.221000  0.862200  0.412830  1.0  0.1229
  H  H66  1  0.796300  0.680700  0.060770  1.0  0.1098
  H  H67  1  0.203700  0.319300  0.560770  1.0  0.1103
  H  H68  1  0.107300  0.922700  0.727030  1.0  0.1203
  H  H69  1  0.155900  0.790700  0.597400  1.0  0.112
  H  H70  1  0.680700  0.884400  0.227430  1.0  0.1082
  H  H71  1  0.691100  0.740300  0.363830  1.0  0.1091
  H  H72  1  0.290600  0.032900  0.852730  1.0  0.1212
  H  H73  1  0.146100  0.830000  0.703530  1.0  0.11
  H  H74  1  0.656200  0.101500  0.522300  1.0  0.1161
  H  H75  1  0.229700  0.063000  0.427030  1.0  0.1156
  H  H76  1  0.063000  0.833300  0.593700  1.0  0.1156
  H  H77  1  0.951400  0.683500  0.444200  1.0  0.1204
  H  H78  1  0.640000  0.596200  0.615270  1.0  0.1161
  H  H79  1  0.067400  0.741600  0.267330  1.0  0.1178
  H  H80  1  0.709400  0.967100  0.352730  1.0  0.1205
  H  H81  1  0.610700  0.672000  0.163670  1.0  0.1072
  H  H82  1  0.118100  0.655600  0.261930  1.0  0.1156
  H  H83  1  0.554700  0.656200  0.355630  1.0  0.1158
  H  H84  1  0.844100  0.209300  0.097400  1.0  0.1121
  H  H85  1  0.389300  0.328000  0.663670  1.0  0.1073
  H  H86  1  0.328000  0.938700  0.830330  1.0  0.1077
  H  H87  1  0.898500  0.554700  0.188970  1.0  0.1158
  H  H88  1  0.170000  0.316100  0.370200  1.0  0.1102
  H  H89  1  0.833300  0.770300  0.760370  1.0  0.1153
  H  H90  1  0.257700  0.290600  0.686070  1.0  0.1218
  H  H91  1  0.061300  0.389300  0.497000  1.0  0.108
  H  H92  1  0.932600  0.258400  0.767330  1.0  0.1178
  H  H93  1  0.209300  0.365200  0.264070  1.0  0.1122
  H  H94  1  0.101500  0.445300  0.688970  1.0  0.1159
  H  H95  1  0.779000  0.137800  0.912830  1.0  0.1235
  H  H96  1  0.776300  0.505000  0.574000  1.0  0.1175
  H  H97  1  0.683900  0.853900  0.036870  1.0  0.1108
  H  H98  1  0.325800  0.067400  0.100670  1.0  0.1171
  H  H99  1  0.938700  0.610700  0.997000  1.0  0.1076
  H  H100  1  0.732100  0.048600  0.777530  1.0  0.12
  H  H101  1  0.360000  0.403800  0.115270  1.0  0.1165
  H  H102  1  0.258400  0.325800  0.934000  1.0  0.1176
  H  H103  1  0.462500  0.118100  0.095270  1.0  0.1153
  H  H104  1  0.881900  0.344400  0.761930  1.0  0.1154
  H  H105  1  0.741600  0.674200  0.434000  1.0  0.1174
  H  H106  1  0.032900  0.742300  0.019400  1.0  0.1227
  H  H107  1  0.683500  0.732100  0.610870  1.0  0.1198
  H  H108  1  0.267900  0.951400  0.277530  1.0  0.1199
  C  C109  1  0.230730  0.345440  0.232740  1.0  -0.0528
  C  C110  1  0.993020  0.705680  0.475120  1.0  -0.1105
  C  C111  1  0.320120  0.368290  0.144250  1.0  -0.0331
  C  C112  1  0.203200  0.148170  0.180080  1.0  -0.1318
  C  C113  1  0.573870  0.788750  0.249640  1.0  -0.0608
  C  C114  1  0.178280  0.878410  0.963800  1.0  -0.0109
  C  C115  1  0.247110  0.908460  0.001390  1.0  -0.0884
  C  C116  1  0.091540  0.338650  0.668060  1.0  -0.088
  C  C117  1  0.700130  0.821720  0.297130  1.0  -0.0098
  C  C118  1  0.128720  0.304380  0.400390  1.0  -0.0378
  C  C119  1  0.219860  0.552600  0.618360  1.0  0.6893
  C  C120  1  0.769270  0.539280  0.545530  1.0  -0.0303
  C  C121  1  0.419900  0.297130  0.830020  1.0  -0.0323
  C  C122  1  0.055030  0.203200  0.013410  1.0  -0.1322
  C  C123  1  0.205310  0.264780  0.230440  1.0  -0.1201
  C  C124  1  0.124110  0.365770  0.430700  1.0  -0.1216
  C  C125  1  0.824340  0.128720  0.233720  1.0  -0.0389
  C  C126  1  0.199550  0.707440  0.334220  1.0  -0.1201
  C  C127  1  0.796800  0.851830  0.680080  1.0  -0.1319
  C  C128  1  0.814610  0.535420  0.121080  1.0  -0.1177
  C  C129  1  0.926690  0.773790  0.914040  1.0  -0.0921
  C  C130  1  0.287340  0.993020  0.308450  1.0  -0.109
  C  C131  1  0.865400  0.757860  0.508960  1.0  -0.142
  C  C132  1  0.450210  0.266510  0.581800  1.0  0.7529
  C  C133  1  0.829930  0.953740  0.303860  1.0  -0.1537
  C  C134  1  0.631710  0.951830  0.810910  1.0  -0.0353
  C  C135  1  0.368290  0.048170  0.310910  1.0  -0.0346
  C  C136  1  0.287420  0.397060  0.189160  1.0  -0.1345
  C  C137  1  0.891010  0.251130  0.795530  1.0  -0.1052
  C  C138  1  0.679880  0.631710  0.644250  1.0  -0.0336
  C  C139  1  0.944970  0.796800  0.513410  1.0  -0.1322
  C  C140  1  0.549790  0.733490  0.081800  1.0  0.7531
  C  C141  1  0.535420  0.720810  0.287740  1.0  -0.1216
  C  C142  1  0.230510  0.651700  0.329630  1.0  0.6682
  C  C143  1  0.347610  0.283630  0.642080  1.0  -0.0349
  C  C144  1  0.794690  0.735220  0.730440  1.0  -0.1212
  C  C145  1  0.773790  0.847100  0.080710  1.0  -0.0965
  C  C146  1  0.460720  0.229990  0.212200  1.0  -0.0287
  C  C147  1  0.735220  0.940530  0.897100  1.0  -0.1206
  C  C148  1  0.757860  0.892460  0.675630  1.0  -0.1417
  C  C149  1  0.092000  0.092310  0.002730  1.0  -0.0425
  C  C150  1  0.861040  0.302390  0.792550  1.0  -0.0266
  C  C151  1  0.426130  0.211250  0.749640  1.0  -0.062
  C  C152  1  0.860040  0.188850  0.839980  1.0  0.0093
  C  C153  1  0.878410  0.700130  0.130470  1.0  -0.0083
  C  C154  1  0.000310  0.908000  0.336060  1.0  -0.0416
  C  C155  1  0.913370  0.787130  0.138260  1.0  -0.1465
  C  C156  1  0.770010  0.230730  0.878860  1.0  -0.0278
  C  C157  1  0.517420  0.826730  0.856140  1.0  0.7131
  C  C158  1  0.671190  0.860040  0.673320  1.0  0.009
  C  C159  1  0.007980  0.269400  0.488850  1.0  -0.0625
  C  C160  1  0.266510  0.816300  0.748460  1.0  0.7532
  C  C161  1  0.758340  0.124110  0.264030  1.0  -0.1248
  C  C162  1  0.229990  0.769270  0.378860  1.0  -0.028
  C  C163  1  0.208100  0.196440  0.624240  1.0  0.0115
  C  C164  1  0.173270  0.690690  0.522810  1.0  0.7123
  C  C165  1  0.716370  0.063980  0.308740  1.0  -0.0375
  C  C166  1  0.138960  0.697610  0.292550  1.0  -0.0281
  C  C167  1  0.752890  0.091540  0.501390  1.0  -0.0888
  C  C168  1  0.655270  0.838540  0.254000  1.0  -0.0951
  C  C169  1  0.885290  0.230730  0.066070  1.0  -0.0539
  C  C170  1  0.134600  0.242140  0.008960  1.0  -0.1428
  C  C171  1  0.667260  0.219860  0.451690  1.0  0.6873
  C  C172  1  0.059470  0.794690  0.563770  1.0  -0.1234
  C  C173  1  0.580100  0.702870  0.330020  1.0  -0.0333
  C  C174  1  0.720810  0.185390  0.454410  1.0  -0.1234
  C  C175  1  0.799710  0.179530  0.881970  1.0  -0.0863
  C  C176  1  0.780140  0.447400  0.118360  1.0  0.6908
  C  C177  1  0.705680  0.712660  0.641790  1.0  -0.1085
  C  C178  1  0.126240  0.913370  0.971590  1.0  -0.1468
  C  C179  1  0.161460  0.816730  0.920670  1.0  -0.0992
  C  C180  1  0.309310  0.482580  0.189480  1.0  0.7169
  C  C181  1  0.148170  0.944970  0.346740  1.0  -0.1292
  C  C182  1  0.826730  0.309310  0.022810  1.0  0.7116
  C  C183  1  0.876190  0.829930  0.137200  1.0  -0.154
  C  C184  1  0.107540  0.865400  0.342290  1.0  -0.1408
  C  C185  1  0.297130  0.877230  0.996690  1.0  -0.0321
  C  C186  1  0.578810  0.230510  0.162970  1.0  0.6701
  C  C187  1  0.279190  0.814610  0.954410  1.0  -0.123
  C  C188  1  0.086630  0.212870  0.638260  1.0  -0.146
  C  C189  1  0.890360  0.287420  0.022490  1.0  -0.1321
  C  C190  1  0.175660  0.871280  0.733720  1.0  -0.0387
  C  C191  1  0.820470  0.620180  0.548640  1.0  -0.0867
  C  C192  1  0.397060  0.109640  0.355820  1.0  -0.1331
  C  C193  1  0.988340  0.791900  0.957570  1.0  0.0124
  C  C194  1  0.421190  0.769490  0.662970  1.0  0.6695
  C  C195  1  0.226210  0.152900  0.580710  1.0  -0.0969
  C  C196  1  0.299870  0.178280  0.797130  1.0  -0.0101
  C  C197  1  0.261420  0.992020  0.822180  1.0  -0.0657
  C  C198  1  0.769490  0.348300  0.829630  1.0  0.6695
  C  C199  1  0.344730  0.161460  0.754000  1.0  -0.0974
  C  C200  1  0.379820  0.200290  0.215310  1.0  -0.0891
  C  C201  1  0.707440  0.507890  0.500890  1.0  -0.1166
  C  C202  1  0.179530  0.379820  0.048640  1.0  -0.0855
  C  C203  1  0.602940  0.890360  0.855820  1.0  -0.133
  C  C204  1  0.634230  0.758340  0.097370  1.0  -0.126
  C  C205  1  0.183700  0.450210  0.415130  1.0  0.7561
  C  C206  1  0.332740  0.780140  0.951690  1.0  0.6891
  C  C207  1  0.654560  0.885290  0.899400  1.0  -0.0529
  C  C208  1  0.200290  0.820470  0.381970  1.0  -0.0876
  C  C209  1  0.738580  0.007980  0.322180  1.0  -0.064
  C  C210  1  0.170070  0.046260  0.803860  1.0  -0.1528
  C  C211  1  0.999690  0.092000  0.836060  1.0  -0.0428
  C  C212  1  0.507890  0.800450  0.667560  1.0  -0.1216
  C  C213  1  0.304380  0.175660  0.567060  1.0  -0.0397
  C  C214  1  0.821720  0.121590  0.463800  1.0  -0.0109
  C  C215  1  0.090310  0.023710  0.994450  1.0  -0.0501
  C  C216  1  0.651700  0.421190  0.496300  1.0  0.6716
  C  C217  1  0.073310  0.226210  0.414040  1.0  -0.0936
  C  C218  1  0.294320  0.287340  0.141790  1.0  -0.1087
  C  C219  1  0.121590  0.299870  0.630470  1.0  -0.0099
  C  C220  1  0.908000  0.907690  0.502730  1.0  -0.0424
  C  C221  1  0.933400  0.909690  0.327780  1.0  -0.0502
  C  C222  1  0.188850  0.328810  0.006650  1.0  0.0091
  C  C223  1  0.873760  0.086630  0.471590  1.0  -0.1466
  C  C224  1  0.907690  0.999690  0.669400  1.0  -0.042
  C  C225  1  0.763710  0.765070  0.684330  1.0  0.0054
  C  C226  1  0.241660  0.875890  0.764030  1.0  -0.1241
  C  C227  1  0.114710  0.769270  0.566070  1.0  -0.055
  C  C228  1  0.139960  0.811150  0.339980  1.0  0.0089
  C  C229  1  0.816730  0.655270  0.087340  1.0  -0.0982
  C  C230  1  0.951830  0.320120  0.977580  1.0  -0.0364
  C  C231  1  0.264780  0.059470  0.397100  1.0  -0.1201
  C  C232  1  0.730600  0.738580  0.155520  1.0  -0.0662
  C  C233  1  0.348300  0.578810  0.996300  1.0  0.6726
  C  C234  1  0.992020  0.730600  0.988850  1.0  -0.0625
  C  C235  1  0.109640  0.712580  0.522490  1.0  -0.1321
  C  C236  1  0.908460  0.661350  0.168060  1.0  -0.0877
  C  C237  1  0.123810  0.170070  0.637200  1.0  -0.1536
  C  C238  1  0.338650  0.247110  0.834720  1.0  -0.0877
  C  C239  1  0.122770  0.419900  0.663360  1.0  -0.0345
  C  C240  1  0.800450  0.292560  0.834220  1.0  -0.1197
  C  C241  1  0.816300  0.549790  0.915130  1.0  0.7538
  C  C242  1  0.292560  0.492110  0.000890  1.0  -0.116
  C  C243  1  0.803560  0.011660  0.290900  1.0  0.011
  C  C244  1  0.360120  0.108990  0.128870  1.0  -0.109
  C  C245  1  0.877230  0.580100  0.163360  1.0  -0.033
  C  C246  1  0.552600  0.332740  0.785020  1.0  0.6884
  C  C247  1  0.345440  0.114710  0.399400  1.0  -0.0531
  C  C248  1  0.785120  0.573870  0.082980  1.0  -0.0655
  C  C249  1  0.953740  0.123810  0.470530  1.0  -0.1543
  C  C250  1  0.011660  0.208100  0.457570  1.0  0.0111
  C  C251  1  0.441350  0.138960  0.125890  1.0  -0.0275
  C  C252  1  0.048170  0.679880  0.477580  1.0  -0.0365
  C  C253  1  0.283630  0.936020  0.808740  1.0  -0.0357
  C  C254  1  0.791900  0.803560  0.124240  1.0  0.0112
  C  C255  1  0.787130  0.873760  0.304920  1.0  -0.1455
  C  C256  1  0.847100  0.073310  0.247370  1.0  -0.0928
  C  C257  1  0.251130  0.360120  0.962200  1.0  -0.1087
  C  C258  1  0.940530  0.205310  0.063770  1.0  -0.1226
  C  C259  1  0.196440  0.988340  0.790900  1.0  0.0113
  C  C260  1  0.447400  0.667260  0.285020  1.0  0.6869
  C  C261  1  0.365770  0.241660  0.597370  1.0  -0.1248
  C  C262  1  0.652390  0.716370  0.142080  1.0  -0.039
  C  C263  1  0.769270  0.654560  0.732740  1.0  -0.0524
  C  C264  1  0.046260  0.876190  0.970530  1.0  -0.1521
  C  C265  1  0.875890  0.634230  0.930700  1.0  -0.1237
  C  C266  1  0.712580  0.602940  0.689160  1.0  -0.1341
  C  C267  1  0.066600  0.090310  0.827780  1.0  -0.0494
  C  C268  1  0.185390  0.464580  0.621080  1.0  -0.1181
  C  C269  1  0.936020  0.652390  0.975410  1.0  -0.0374
  C  C270  1  0.001360  0.236290  0.017660  1.0  0.0055
  C  C271  1  0.183270  0.344730  0.587340  1.0  -0.0983
  C  C272  1  0.788750  0.214880  0.416310  1.0  -0.0577
  C  C273  1  0.558650  0.861040  0.625890  1.0  -0.0273
  C  C274  1  0.909690  0.976290  0.494450  1.0  -0.0493
  C  C275  1  0.976290  0.066600  0.661120  1.0  -0.0494
  C  C276  1  0.269400  0.261420  0.655520  1.0  -0.0676
  C  C277  1  0.639880  0.891010  0.628870  1.0  -0.1089
  C  C278  1  0.702870  0.122770  0.496690  1.0  -0.0322
  C  C279  1  0.230730  0.460720  0.045530  1.0  -0.0299
  C  C280  1  0.023710  0.933400  0.161120  1.0  -0.0497
  C  C281  1  0.712660  0.006980  0.808450  1.0  -0.1078
  C  C282  1  0.236290  0.234930  0.184330  1.0  0.0049
  C  C283  1  0.302390  0.441350  0.959220  1.0  -0.0279
  C  C284  1  0.482580  0.173270  0.356140  1.0  0.7129
  C  C285  1  0.811150  0.671190  0.506650  1.0  0.0099
  C  C286  1  0.697610  0.558650  0.459220  1.0  -0.0269
  C  C287  1  0.212870  0.126240  0.804920  1.0  -0.1455
  C  C288  1  0.242140  0.107540  0.175630  1.0  -0.1426
  C  C289  1  0.871280  0.695620  0.900390  1.0  -0.0376
  C  C290  1  0.328810  0.139960  0.173320  1.0  0.008
  C  C291  1  0.152900  0.926690  0.747370  1.0  -0.0907
  C  C292  1  0.214880  0.426130  0.582980  1.0  -0.0637
  C  C293  1  0.063980  0.347610  0.475410  1.0  -0.0373
  C  C294  1  0.851830  0.055030  0.846740  1.0  -0.13
  C  C295  1  0.892460  0.134600  0.842290  1.0  -0.1412
  C  C296  1  0.690690  0.517420  0.689480  1.0  0.7158
  C  C297  1  0.464580  0.279190  0.787740  1.0  -0.1215
  C  C298  1  0.492110  0.199550  0.167560  1.0  -0.1197
  C  C299  1  0.234930  0.998640  0.350990  1.0  0.0059
  C  C300  1  0.092310  0.000310  0.169400  1.0  -0.0424
  C  C301  1  0.733490  0.183700  0.248460  1.0  0.753
  C  C302  1  0.998640  0.763710  0.517660  1.0  0.0079
  C  C303  1  0.695620  0.824340  0.067060  1.0  -0.0385
  C  C304  1  0.006980  0.294320  0.975120  1.0  -0.1101
  C  C305  1  0.620180  0.799710  0.715310  1.0  -0.0896
  C  C306  1  0.661350  0.752890  0.334720  1.0  -0.087
  C  C307  1  0.765070  0.001360  0.850990  1.0  0.0053
  C  C308  1  0.539280  0.770010  0.712200  1.0  -0.0283
  C  C309  1  0.748870  0.639880  0.462200  1.0  -0.106
  C  C310  1  0.108990  0.748870  0.295530  1.0  -0.1057
  C  C311  1  0.838540  0.183270  0.420670  1.0  -0.1002
  C  C312  1  0.211250  0.785120  0.916310  1.0  -0.0623
  S  S313  1  0.176090  0.015990  0.987750  1.0  0.0479
  S  S314  1  0.092810  0.993760  0.347610  1.0  0.0565
  S  S315  1  0.932700  0.931130  0.156110  1.0  0.0668
  S  S316  1  0.900950  0.907190  0.680950  1.0  0.0571
  S  S317  1  0.907190  0.006240  0.847610  1.0  0.0575
  S  S318  1  0.819240  0.815960  0.505610  1.0  0.051
  S  S319  1  0.003280  0.819240  0.338940  1.0  0.05
  S  S320  1  0.931130  0.998430  0.322770  1.0  0.0665
  S  S321  1  0.984010  0.160100  0.654420  1.0  0.0504
  S  S322  1  0.184040  0.003280  0.172280  1.0  0.0517
  S  S323  1  0.099050  0.092810  0.180950  1.0  0.0569
  S  S324  1  0.815960  0.996720  0.672280  1.0  0.0519
  S  S325  1  0.993760  0.900950  0.514280  1.0  0.0563
  S  S326  1  0.006240  0.099050  0.014280  1.0  0.0566
  S  S327  1  0.001570  0.932700  0.989440  1.0  0.0674
  S  S328  1  0.998430  0.067300  0.489440  1.0  0.067
  S  S329  1  0.180760  0.184040  0.005610  1.0  0.0523
  S  S330  1  0.015990  0.839900  0.154420  1.0  0.05
  S  S331  1  0.067300  0.068870  0.656110  1.0  0.069
  S  S332  1  0.823910  0.984010  0.487750  1.0  0.049
  S  S333  1  0.996720  0.180760  0.838940  1.0  0.0523
  S  S334  1  0.068870  0.001570  0.822770  1.0  0.0681
  S  S335  1  0.160100  0.176090  0.821080  1.0  0.048
  S  S336  1  0.839900  0.823910  0.321080  1.0  0.0506
  O  O337  1  0.803990  0.415370  0.159620  1.0  -0.5775
  O  O338  1  0.636870  0.469350  0.652620  1.0  -0.5685
  O  O339  1  0.317550  0.814730  0.784260  1.0  -0.6087
  O  O340  1  0.611380  0.196010  0.492950  1.0  -0.5782
  O  O341  1  0.773010  0.538090  0.866180  1.0  -0.6141
  O  O342  1  0.593590  0.321160  0.743820  1.0  -0.6796
  O  O343  1  0.501150  0.231870  0.393160  1.0  -0.6322
  O  O344  1  0.207710  0.601570  0.284410  1.0  -0.5734
  O  O345  1  0.321160  0.727570  0.910490  1.0  -0.6787
  O  O346  1  0.281100  0.655390  0.370670  1.0  -0.6773
  O  O347  1  0.814730  0.497180  0.950930  1.0  -0.6098
  O  O348  1  0.393860  0.792290  0.617750  1.0  -0.572
  O  O349  1  0.502820  0.317550  0.617600  1.0  -0.6099
  O  O350  1  0.606140  0.207710  0.117750  1.0  -0.5719
  O  O351  1  0.530650  0.167520  0.319280  1.0  -0.5683
  O  O352  1  0.682450  0.185270  0.284260  1.0  -0.61
  O  O353  1  0.718900  0.344610  0.870670  1.0  -0.6783
  O  O354  1  0.498850  0.768130  0.893160  1.0  -0.6328
  O  O355  1  0.765080  0.226990  0.199510  1.0  -0.6128
  O  O356  1  0.363130  0.530650  0.152620  1.0  -0.5687
  O  O357  1  0.406410  0.678840  0.243820  1.0  -0.6788
  O  O358  1  0.226990  0.461910  0.366180  1.0  -0.6138
  O  O359  1  0.196010  0.584630  0.659620  1.0  -0.5784
  O  O360  1  0.344610  0.625710  0.037340  1.0  -0.6806
  O  O361  1  0.730720  0.498850  0.726500  1.0  -0.6318
  O  O362  1  0.272430  0.593590  0.577160  1.0  -0.6796
  O  O363  1  0.655390  0.374290  0.537340  1.0  -0.6791
  O  O364  1  0.461910  0.234920  0.532850  1.0  -0.6109
  O  O365  1  0.398430  0.606140  0.951080  1.0  -0.5732
  O  O366  1  0.374290  0.718900  0.704010  1.0  -0.6774
  O  O367  1  0.768130  0.269280  0.059830  1.0  -0.6322
  O  O368  1  0.601570  0.393860  0.451080  1.0  -0.5717
  O  O369  1  0.167520  0.636870  0.485950  1.0  -0.5686
  O  O370  1  0.497180  0.682450  0.117600  1.0  -0.609
  O  O371  1  0.269280  0.501150  0.226500  1.0  -0.6306
  O  O372  1  0.625710  0.281100  0.204010  1.0  -0.6773
  O  O373  1  0.415370  0.611380  0.326280  1.0  -0.5781
  O  O374  1  0.832480  0.363130  0.985950  1.0  -0.5689
  O  O375  1  0.678840  0.272430  0.410490  1.0  -0.6775
  O  O376  1  0.231870  0.730720  0.559830  1.0  -0.6324
  O  O377  1  0.727570  0.406410  0.077160  1.0  -0.681
  O  O378  1  0.469350  0.832480  0.819280  1.0  -0.568
  O  O379  1  0.538090  0.765080  0.032850  1.0  -0.6119
  O  O380  1  0.584630  0.388620  0.826280  1.0  -0.5788
  O  O381  1  0.388620  0.803990  0.992950  1.0  -0.5774
  O  O382  1  0.234920  0.773010  0.699510  1.0  -0.612
  O  O383  1  0.792290  0.398430  0.784410  1.0  -0.5756
  O  O384  1  0.185270  0.502820  0.450930  1.0  -0.6103
