# generated using pymatgen
data_Ni3H24C42N6O13
_symmetry_space_group_name_H-M   'P 1'
_cell_length_a   15.18400000
_cell_length_b   16.77750000
_cell_length_c   16.77750000
_cell_angle_alpha   120.00000000
_cell_angle_beta   90.00000000
_cell_angle_gamma   90.00000000
_symmetry_Int_Tables_number   1
_chemical_formula_structural   Ni3H24C42N6O13
_chemical_formula_sum   'Ni6 H48 C84 N12 O26'
_cell_volume   3701.44518067
_cell_formula_units_Z   2
loop_
 _symmetry_equiv_pos_site_id
 _symmetry_equiv_pos_as_xyz
  1  'x, y, z'
loop_
 _atom_site_type_symbol
 _atom_site_label
 _atom_site_symmetry_multiplicity
 _atom_site_fract_x
 _atom_site_fract_y
 _atom_site_fract_z
 _atom_site_occupancy
 _atom_site_charge
  Ni  Ni1  1  0.750000  0.470590  0.735290  1.0  0.9245
  Ni  Ni2  1  0.250000  0.735300  0.470600  1.0  0.9269
  Ni  Ni3  1  0.250000  0.735300  0.264710  1.0  0.925
  Ni  Ni4  1  0.250000  0.529410  0.264710  1.0  0.9243
  Ni  Ni5  1  0.750000  0.264700  0.735290  1.0  0.9245
  Ni  Ni6  1  0.750000  0.264700  0.529400  1.0  0.9277
  H  H7  1  0.948400  0.058200  0.411500  1.0  0.119
  H  H8  1  0.750000  0.224300  0.210700  1.0  0.1381
  H  H9  1  0.250000  0.210700  0.986400  1.0  0.1374
  H  H10  1  0.750000  0.789300  0.013600  1.0  0.1377
  H  H11  1  0.551600  0.588500  0.941800  1.0  0.1193
  H  H12  1  0.948400  0.353300  0.941800  1.0  0.1189
  H  H13  1  0.448400  0.411500  0.353300  1.0  0.1193
  H  H14  1  0.750000  0.068500  0.367800  1.0  0.0913
  H  H15  1  0.448400  0.411500  0.058200  1.0  0.119
  H  H16  1  0.750000  0.068500  0.700700  1.0  0.0914
  H  H17  1  0.051600  0.941800  0.588500  1.0  0.1191
  H  H18  1  0.250000  0.931500  0.299300  1.0  0.0912
  H  H19  1  0.551600  0.353300  0.941800  1.0  0.1185
  H  H20  1  0.250000  0.700700  0.632200  1.0  0.0903
  H  H21  1  0.750000  0.986400  0.775700  1.0  0.137
  H  H22  1  0.948400  0.058200  0.646700  1.0  0.1189
  H  H23  1  0.250000  0.210700  0.224300  1.0  0.1379
  H  H24  1  0.551600  0.058200  0.646700  1.0  0.1189
  H  H25  1  0.448400  0.941800  0.588500  1.0  0.119
  H  H26  1  0.948400  0.588500  0.941800  1.0  0.1195
  H  H27  1  0.051600  0.411500  0.058200  1.0  0.1189
  H  H28  1  0.051600  0.411500  0.353300  1.0  0.1191
  H  H29  1  0.250000  0.367800  0.068500  1.0  0.0918
  H  H30  1  0.750000  0.299300  0.931500  1.0  0.0911
  H  H31  1  0.250000  0.775700  0.986400  1.0  0.1379
  H  H32  1  0.250000  0.931500  0.632200  1.0  0.0914
  H  H33  1  0.750000  0.789300  0.775700  1.0  0.1374
  H  H34  1  0.250000  0.013600  0.224300  1.0  0.136
  H  H35  1  0.051600  0.941800  0.353300  1.0  0.1191
  H  H36  1  0.051600  0.646700  0.588500  1.0  0.1185
  H  H37  1  0.750000  0.632200  0.700700  1.0  0.0919
  H  H38  1  0.750000  0.632200  0.931500  1.0  0.0921
  H  H39  1  0.750000  0.986400  0.210700  1.0  0.1369
  H  H40  1  0.250000  0.775700  0.789300  1.0  0.1382
  H  H41  1  0.250000  0.013600  0.789300  1.0  0.1366
  H  H42  1  0.948400  0.588500  0.646700  1.0  0.1189
  H  H43  1  0.948400  0.353300  0.411500  1.0  0.1187
  H  H44  1  0.250000  0.700700  0.068500  1.0  0.0908
  H  H45  1  0.051600  0.646700  0.058200  1.0  0.1185
  H  H46  1  0.448400  0.646700  0.058200  1.0  0.1188
  H  H47  1  0.551600  0.058200  0.411500  1.0  0.1189
  H  H48  1  0.551600  0.353300  0.411500  1.0  0.1185
  H  H49  1  0.750000  0.224300  0.013600  1.0  0.1384
  H  H50  1  0.448400  0.646700  0.588500  1.0  0.1188
  H  H51  1  0.551600  0.588500  0.646700  1.0  0.1188
  H  H52  1  0.448400  0.941800  0.353300  1.0  0.1192
  H  H53  1  0.750000  0.299300  0.367800  1.0  0.0903
  H  H54  1  0.250000  0.367800  0.299300  1.0  0.0921
  C  C55  1  0.250000  0.955500  0.911000  1.0  0.4449
  C  C56  1  0.031260  0.448150  0.413190  1.0  -0.0333
  C  C57  1  0.130250  0.573190  0.426810  1.0  0.7441
  C  C58  1  0.468740  0.965040  0.551850  1.0  -0.0315
  C  C59  1  0.750000  0.808300  0.904150  1.0  -0.0353
  C  C60  1  0.750000  0.664380  0.764720  1.0  0.1808
  C  C61  1  0.369750  0.573190  0.146380  1.0  0.7443
  C  C62  1  0.750000  0.758920  0.809280  1.0  -0.1346
  C  C63  1  0.250000  0.335620  0.100340  1.0  0.1814
  C  C64  1  0.630250  0.426810  0.853620  1.0  0.744
  C  C65  1  0.869750  0.426810  0.853620  1.0  0.7443
  C  C66  1  0.250000  0.949640  0.190720  1.0  -0.1345
  C  C67  1  0.750000  0.095850  0.904150  1.0  -0.0381
  C  C68  1  0.531260  0.413190  0.448150  1.0  -0.033
  C  C69  1  0.250000  0.809280  0.758920  1.0  -0.1329
  C  C70  1  0.250000  0.904150  0.095850  1.0  -0.0379
  C  C71  1  0.250000  0.899660  0.235280  1.0  0.1818
  C  C72  1  0.750000  0.044500  0.089000  1.0  0.4452
  C  C73  1  0.968740  0.034960  0.448150  1.0  -0.0333
  C  C74  1  0.437020  0.930240  0.465120  1.0  -0.0789
  C  C75  1  0.031260  0.586810  0.551850  1.0  -0.0361
  C  C76  1  0.250000  0.809280  0.050360  1.0  -0.1323
  C  C77  1  0.869750  0.426810  0.573190  1.0  0.7444
  C  C78  1  0.250000  0.335620  0.235280  1.0  0.1826
  C  C79  1  0.468740  0.586810  0.551850  1.0  -0.0347
  C  C80  1  0.750000  0.235280  0.899660  1.0  0.1811
  C  C81  1  0.750000  0.758920  0.949640  1.0  -0.1368
  C  C82  1  0.250000  0.089000  0.044500  1.0  0.4454
  C  C83  1  0.250000  0.764720  0.664380  1.0  0.1823
  C  C84  1  0.750000  0.050360  0.809280  1.0  -0.132
  C  C85  1  0.750000  0.190720  0.241080  1.0  -0.1336
  C  C86  1  0.750000  0.235280  0.335620  1.0  0.1816
  C  C87  1  0.130250  0.573190  0.146380  1.0  0.743
  C  C88  1  0.937020  0.069760  0.534880  1.0  -0.078
  C  C89  1  0.130250  0.853620  0.426810  1.0  0.742
  C  C90  1  0.031260  0.965040  0.551850  1.0  -0.0334
  C  C91  1  0.369750  0.573190  0.426810  1.0  0.7443
  C  C92  1  0.630250  0.426810  0.573190  1.0  0.743
  C  C93  1  0.250000  0.904150  0.808300  1.0  -0.0386
  C  C94  1  0.468740  0.448150  0.413190  1.0  -0.0333
  C  C95  1  0.750000  0.100340  0.764720  1.0  0.1818
  C  C96  1  0.562980  0.465120  0.930240  1.0  -0.0822
  C  C97  1  0.062980  0.534880  0.465120  1.0  -0.0822
  C  C98  1  0.468740  0.448150  0.034960  1.0  -0.0338
  C  C99  1  0.031260  0.965040  0.413190  1.0  -0.0334
  C  C100  1  0.250000  0.764720  0.100340  1.0  0.1818
  C  C101  1  0.750000  0.911000  0.955500  1.0  0.4454
  C  C102  1  0.250000  0.899660  0.664380  1.0  0.1822
  C  C103  1  0.250000  0.241080  0.190720  1.0  -0.1365
  C  C104  1  0.968740  0.413190  0.965040  1.0  -0.032
  C  C105  1  0.750000  0.044500  0.955500  1.0  0.4447
  C  C106  1  0.630250  0.146380  0.573190  1.0  0.742
  C  C107  1  0.750000  0.050360  0.241080  1.0  -0.1343
  C  C108  1  0.250000  0.241080  0.050360  1.0  -0.1343
  C  C109  1  0.869750  0.146380  0.573190  1.0  0.7424
  C  C110  1  0.468740  0.965040  0.413190  1.0  -0.0342
  C  C111  1  0.968740  0.551850  0.965040  1.0  -0.034
  C  C112  1  0.031260  0.586810  0.034960  1.0  -0.035
  C  C113  1  0.937020  0.465120  0.930240  1.0  -0.0816
  C  C114  1  0.531260  0.551850  0.586810  1.0  -0.0357
  C  C115  1  0.062980  0.534880  0.069760  1.0  -0.0808
  C  C116  1  0.937020  0.465120  0.534880  1.0  -0.0808
  C  C117  1  0.369750  0.853620  0.426810  1.0  0.743
  C  C118  1  0.062980  0.930240  0.465120  1.0  -0.0791
  C  C119  1  0.750000  0.095850  0.191700  1.0  -0.0386
  C  C120  1  0.250000  0.949640  0.758920  1.0  -0.1345
  C  C121  1  0.968740  0.034960  0.586810  1.0  -0.0319
  C  C122  1  0.562980  0.465120  0.534880  1.0  -0.081
  C  C123  1  0.437020  0.534880  0.069760  1.0  -0.0806
  C  C124  1  0.531260  0.551850  0.965040  1.0  -0.0345
  C  C125  1  0.968740  0.413190  0.448150  1.0  -0.0318
  C  C126  1  0.750000  0.190720  0.949640  1.0  -0.1364
  C  C127  1  0.468740  0.586810  0.034960  1.0  -0.0356
  C  C128  1  0.968740  0.551850  0.586810  1.0  -0.034
  C  C129  1  0.250000  0.191700  0.095850  1.0  -0.036
  C  C130  1  0.250000  0.955500  0.044500  1.0  0.4454
  C  C131  1  0.750000  0.100340  0.335620  1.0  0.1833
  C  C132  1  0.562980  0.069760  0.534880  1.0  -0.0785
  C  C133  1  0.750000  0.664380  0.899660  1.0  0.1821
  C  C134  1  0.531260  0.413190  0.965040  1.0  -0.0329
  C  C135  1  0.031260  0.448150  0.034960  1.0  -0.0336
  C  C136  1  0.437020  0.534880  0.465120  1.0  -0.0815
  C  C137  1  0.531260  0.034960  0.448150  1.0  -0.0338
  C  C138  1  0.531260  0.034960  0.586810  1.0  -0.0321
  N  N139  1  0.750000  0.616500  0.808250  1.0  -0.3118
  N  N140  1  0.250000  0.906080  0.953040  1.0  -0.4668
  N  N141  1  0.750000  0.191750  0.808250  1.0  -0.3166
  N  N142  1  0.250000  0.808250  0.191750  1.0  -0.3147
  N  N143  1  0.750000  0.191750  0.383500  1.0  -0.3136
  N  N144  1  0.750000  0.953040  0.046960  1.0  -0.4686
  N  N145  1  0.750000  0.093920  0.046960  1.0  -0.4673
  N  N146  1  0.750000  0.953040  0.906080  1.0  -0.4602
  N  N147  1  0.250000  0.808250  0.616500  1.0  -0.3155
  N  N148  1  0.250000  0.383500  0.191750  1.0  -0.3113
  N  N149  1  0.250000  0.046960  0.953040  1.0  -0.4663
  N  N150  1  0.250000  0.046960  0.093920  1.0  -0.4687
  O  O151  1  0.845350  0.174440  0.520950  1.0  -0.6293
  O  O152  1  0.154650  0.653490  0.479050  1.0  -0.6344
  O  O153  1  0.154650  0.520950  0.174440  1.0  -0.6305
  O  O154  1  0.154650  0.825560  0.479050  1.0  -0.6303
  O  O155  1  0.845350  0.346510  0.825560  1.0  -0.6351
  O  O156  1  0.345350  0.520950  0.174440  1.0  -0.6318
  O  O157  1  0.845350  0.346510  0.520950  1.0  -0.6357
  O  O158  1  0.345350  0.653490  0.174440  1.0  -0.6345
  O  O159  1  0.654650  0.479050  0.653490  1.0  -0.6304
  O  O160  1  0.654650  0.479050  0.825560  1.0  -0.6288
  O  O161  1  0.845350  0.174440  0.653490  1.0  -0.6308
  O  O162  1  0.345350  0.520950  0.346510  1.0  -0.6297
  O  O163  1  0.250000  0.666667  0.333333  1.0  -0.741
  O  O164  1  0.154650  0.653490  0.174440  1.0  -0.6351
  O  O165  1  0.845350  0.479050  0.653490  1.0  -0.6313
  O  O166  1  0.345350  0.825560  0.346510  1.0  -0.6294
  O  O167  1  0.345350  0.825560  0.479050  1.0  -0.6313
  O  O168  1  0.654650  0.174440  0.520950  1.0  -0.6284
  O  O169  1  0.345350  0.653490  0.479050  1.0  -0.634
  O  O170  1  0.154650  0.825560  0.346510  1.0  -0.6287
  O  O171  1  0.654650  0.174440  0.653490  1.0  -0.63
  O  O172  1  0.845350  0.479050  0.825560  1.0  -0.6295
  O  O173  1  0.750000  0.333333  0.666667  1.0  -0.7403
  O  O174  1  0.654650  0.346510  0.520950  1.0  -0.6338
  O  O175  1  0.154650  0.520950  0.346510  1.0  -0.6289
  O  O176  1  0.654650  0.346510  0.825560  1.0  -0.6332
