# generated using pymatgen
data_Zr3H65C120(N3O8)2
_symmetry_space_group_name_H-M   'P 1'
_cell_length_a   28.92020000
_cell_length_b   28.92020000
_cell_length_c   28.92020000
_cell_angle_alpha   90.00000000
_cell_angle_beta   90.00000000
_cell_angle_gamma   90.00000000
_symmetry_Int_Tables_number   1
_chemical_formula_structural   Zr3H65C120(N3O8)2
_chemical_formula_sum   'Zr6 H130 C240 N12 O32'
_cell_volume   24188.21811131
_cell_formula_units_Z   2
loop_
 _symmetry_equiv_pos_site_id
 _symmetry_equiv_pos_as_xyz
  1  'x, y, z'
loop_
 _atom_site_type_symbol
 _atom_site_label
 _atom_site_symmetry_multiplicity
 _atom_site_fract_x
 _atom_site_fract_y
 _atom_site_fract_z
 _atom_site_occupancy
 _atom_site_charge
  Zr  Zr1  1  0.919060  0.996540  0.999810  1.0  1.7763
  Zr  Zr2  1  0.000410  0.996480  0.081210  1.0  1.7841
  Zr  Zr3  1  0.000460  0.996550  0.918470  1.0  1.7789
  Zr  Zr4  1  0.000400  0.915150  0.999810  1.0  1.7734
  Zr  Zr5  1  0.000460  0.077890  0.999870  1.0  1.7741
  Zr  Zr6  1  0.081800  0.996490  0.999870  1.0  1.7741
  H  H7  1  0.545520  0.030010  0.326010  1.0  0.1088
  H  H8  1  0.454230  0.029050  0.326130  1.0  0.1081
  H  H9  1  0.540090  0.018890  0.499880  1.0  0.0961
  H  H10  1  0.332580  0.962730  0.454820  1.0  0.11
  H  H11  1  0.332680  0.963620  0.546040  1.0  0.1093
  H  H12  1  0.455330  0.030060  0.673660  1.0  0.1073
  H  H13  1  0.546610  0.029150  0.673540  1.0  0.1093
  H  H14  1  0.668200  0.963680  0.453660  1.0  0.1091
  H  H15  1  0.460760  0.018870  0.499790  1.0  0.0963
  H  H16  1  0.668300  0.962830  0.544880  1.0  0.1078
  H  H17  1  0.326620  0.541620  0.033420  1.0  0.1119
  H  H18  1  0.326730  0.450340  0.032510  1.0  0.1119
  H  H19  1  0.500480  0.536190  0.022240  1.0  0.0981
  H  H20  1  0.455400  0.328650  0.966190  1.0  0.1092
  H  H21  1  0.546620  0.328750  0.967050  1.0  0.1104
  H  H22  1  0.674260  0.451440  0.033380  1.0  0.1085
  H  H23  1  0.674140  0.542720  0.032420  1.0  0.1097
  H  H24  1  0.454230  0.664270  0.966980  1.0  0.1115
  H  H25  1  0.500400  0.456860  0.022260  1.0  0.0965
  H  H26  1  0.545460  0.664370  0.966090  1.0  0.1114
  H  H27  1  0.967680  0.670220  0.453650  1.0  0.1101
  H  H28  1  0.966760  0.670340  0.544940  1.0  0.1092
  H  H29  1  0.977930  0.496550  0.460180  1.0  0.0956
  H  H30  1  0.033210  0.542720  0.667590  1.0  0.1092
  H  H31  1  0.034090  0.451500  0.667700  1.0  0.1105
  H  H32  1  0.967770  0.322800  0.546050  1.0  0.1082
  H  H33  1  0.966810  0.322690  0.454770  1.0  0.1073
  H  H34  1  0.034010  0.541550  0.331980  1.0  0.1094
  H  H35  1  0.977950  0.496470  0.539520  1.0  0.0947
  H  H36  1  0.033160  0.450320  0.332080  1.0  0.1081
  H  H37  1  0.938880  0.935020  0.061310  1.0  0.3221
  H  H38  1  0.938970  0.058070  0.938340  1.0  0.3226
  H  H39  1  0.061930  0.935020  0.938340  1.0  0.3218
  H  H40  1  0.061930  0.057980  0.061390  1.0  0.3218
  H  H41  1  0.282400  0.054160  0.346300  1.0  0.118
  H  H42  1  0.342840  0.056160  0.406280  1.0  0.1053
  H  H43  1  0.408040  0.937190  0.344420  1.0  0.1069
  H  H44  1  0.347710  0.935400  0.284330  1.0  0.1206
  H  H45  1  0.259610  0.992500  0.154160  1.0  0.1157
  H  H46  1  0.200080  0.992820  0.093920  1.0  0.1028
  H  H47  1  0.094110  0.993180  0.199540  1.0  0.1059
  H  H48  1  0.154130  0.992860  0.259270  1.0  0.1103
  H  H49  1  0.717040  0.059450  0.347100  1.0  0.1225
  H  H50  1  0.656580  0.059120  0.407100  1.0  0.1026
  H  H51  1  0.593810  0.939980  0.343070  1.0  0.1046
  H  H52  1  0.654160  0.940520  0.282980  1.0  0.1145
  H  H53  1  0.846570  0.001050  0.259140  1.0  0.1112
  H  H54  1  0.906630  0.000390  0.199460  1.0  0.1043
  H  H55  1  0.800730  0.999780  0.093760  1.0  0.1024
  H  H56  1  0.741170  0.000440  0.153960  1.0  0.1148
  H  H57  1  0.653170  0.935550  0.715370  1.0  0.1235
  H  H58  1  0.592840  0.937290  0.655280  1.0  0.1057
  H  H59  1  0.658000  0.056270  0.593390  1.0  0.1029
  H  H60  1  0.718440  0.054310  0.653370  1.0  0.1211
  H  H61  1  0.741260  0.992680  0.845520  1.0  0.1125
  H  H62  1  0.800780  0.993000  0.905760  1.0  0.1022
  H  H63  1  0.906750  0.993350  0.800140  1.0  0.1055
  H  H64  1  0.846730  0.993040  0.740420  1.0  0.1091
  H  H65  1  0.346730  0.940540  0.716720  1.0  0.1138
  H  H66  1  0.407080  0.940000  0.656630  1.0  0.1067
  H  H67  1  0.344260  0.059080  0.592560  1.0  0.1045
  H  H68  1  0.283800  0.059410  0.652550  1.0  0.1181
  H  H69  1  0.259700  0.000330  0.845720  1.0  0.1115
  H  H70  1  0.200140  0.999680  0.905920  1.0  0.1035
  H  H71  1  0.094240  0.000480  0.800230  1.0  0.1041
  H  H72  1  0.154290  0.001130  0.740550  1.0  0.1109
  H  H73  1  0.284910  0.343780  0.938900  1.0  0.1218
  H  H74  1  0.344990  0.404120  0.940650  1.0  0.1046
  H  H75  1  0.406890  0.338950  0.059620  1.0  0.1035
  H  H76  1  0.346910  0.278510  0.057660  1.0  0.1187
  H  H77  1  0.259860  0.150210  0.996380  1.0  0.1129
  H  H78  1  0.200140  0.090200  0.996680  1.0  0.1062
  H  H79  1  0.094520  0.196170  0.996330  1.0  0.1042
  H  H80  1  0.154760  0.255690  0.996020  1.0  0.114
  H  H81  1  0.347710  0.713160  0.062750  1.0  0.1157
  H  H82  1  0.407710  0.652700  0.062440  1.0  0.1033
  H  H83  1  0.343640  0.589860  0.943360  1.0  0.1035
  H  H84  1  0.283550  0.650210  0.943890  1.0  0.1116
  H  H85  1  0.259720  0.842660  0.004450  1.0  0.1126
  H  H86  1  0.200040  0.902710  0.003800  1.0  0.1057
  H  H87  1  0.094350  0.796810  0.003000  1.0  0.1061
  H  H88  1  0.154550  0.737250  0.003660  1.0  0.1122
  H  H89  1  0.653980  0.714550  0.057510  1.0  0.1138
  H  H90  1  0.594000  0.654120  0.059520  1.0  0.1053
  H  H91  1  0.655850  0.588900  0.940550  1.0  0.1031
  H  H92  1  0.715940  0.649240  0.938760  1.0  0.1203
  H  H93  1  0.741010  0.842820  0.996200  1.0  0.1162
  H  H94  1  0.800730  0.902840  0.996520  1.0  0.1063
  H  H95  1  0.906350  0.796870  0.996150  1.0  0.1075
  H  H96  1  0.846110  0.737340  0.995830  1.0  0.1131
  H  H97  1  0.653180  0.279910  0.062810  1.0  0.1171
  H  H98  1  0.593180  0.340370  0.062480  1.0  0.1018
  H  H99  1  0.657210  0.403150  0.943350  1.0  0.1004
  H  H100  1  0.717290  0.342800  0.943890  1.0  0.1148
  H  H101  1  0.846320  0.255790  0.003790  1.0  0.1143
  H  H102  1  0.906510  0.196220  0.003120  1.0  0.1062
  H  H103  1  0.800820  0.090320  0.003730  1.0  0.1038
  H  H104  1  0.741140  0.150380  0.004400  1.0  0.1117
  H  H105  1  0.937410  0.343760  0.283230  1.0  0.118
  H  H106  1  0.937720  0.403750  0.343690  1.0  0.1034
  H  H107  1  0.056850  0.339750  0.406490  1.0  0.1018
  H  H108  1  0.056330  0.279660  0.346140  1.0  0.1152
  H  H109  1  0.995860  0.255810  0.153710  1.0  0.114
  H  H110  1  0.996540  0.196130  0.093650  1.0  0.1032
  H  H111  1  0.997150  0.090430  0.199550  1.0  0.1058
  H  H112  1  0.996480  0.150630  0.259110  1.0  0.1101
  H  H113  1  0.061450  0.281020  0.652560  1.0  0.1212
  H  H114  1  0.059640  0.341100  0.592220  1.0  0.1038
  H  H115  1  0.940680  0.402950  0.657450  1.0  0.1039
  H  H116  1  0.942700  0.342970  0.717890  1.0  0.1157
  H  H117  1  0.004410  0.150850  0.740670  1.0  0.1131
  H  H118  1  0.004110  0.090600  0.800190  1.0  0.1063
  H  H119  1  0.003750  0.196220  0.906170  1.0  0.1037
  H  H120  1  0.004050  0.255950  0.846150  1.0  0.1173
  H  H121  1  0.937450  0.649250  0.716480  1.0  0.1155
  H  H122  1  0.937750  0.589260  0.656020  1.0  0.1036
  H  H123  1  0.056830  0.653310  0.593170  1.0  0.1018
  H  H124  1  0.056310  0.713400  0.653520  1.0  0.1153
  H  H125  1  0.995780  0.737230  0.845970  1.0  0.1123
  H  H126  1  0.996450  0.796910  0.906030  1.0  0.1037
  H  H127  1  0.997250  0.902610  0.800130  1.0  0.1065
  H  H128  1  0.996570  0.842410  0.740570  1.0  0.1093
  H  H129  1  0.942560  0.650050  0.281820  1.0  0.1169
  H  H130  1  0.940580  0.590060  0.342260  1.0  0.105
  H  H131  1  0.059550  0.651950  0.407450  1.0  0.1056
  H  H132  1  0.061320  0.712030  0.347110  1.0  0.1255
  H  H133  1  0.003870  0.737090  0.153530  1.0  0.1121
  H  H134  1  0.003580  0.796810  0.093520  1.0  0.1045
  H  H135  1  0.003940  0.902430  0.199490  1.0  0.1055
  H  H136  1  0.004230  0.842180  0.259010  1.0  0.1088
  C  C137  1  0.523710  0.020810  0.354990  1.0  -0.0031
  C  C138  1  0.476300  0.020300  0.355040  1.0  0.0032
  C  C139  1  0.462480  0.006270  0.401670  1.0  0.1975
  C  C140  1  0.537940  0.006980  0.401570  1.0  0.2051
  C  C141  1  0.416470  0.998200  0.415790  1.0  -0.0696
  C  C142  1  0.403650  0.990550  0.462400  1.0  0.2436
  C  C143  1  0.360980  0.973820  0.476510  1.0  -0.0686
  C  C144  1  0.361020  0.974290  0.524060  1.0  -0.0669
  C  C145  1  0.403740  0.991230  0.537760  1.0  0.2513
  C  C146  1  0.416730  0.999590  0.584180  1.0  -0.069
  C  C147  1  0.462910  0.007010  0.598110  1.0  0.2056
  C  C148  1  0.477130  0.020860  0.644680  1.0  -0.0054
  C  C149  1  0.524540  0.020380  0.644630  1.0  -0.0027
  C  C150  1  0.538370  0.006330  0.598000  1.0  0.1974
  C  C151  1  0.584390  0.998280  0.583890  1.0  -0.069
  C  C152  1  0.597210  0.990610  0.537290  1.0  0.2444
  C  C153  1  0.639890  0.973900  0.523180  1.0  -0.0683
  C  C154  1  0.639850  0.974350  0.475630  1.0  -0.0655
  C  C155  1  0.597120  0.991260  0.461930  1.0  0.2524
  C  C156  1  0.584130  0.999590  0.415500  1.0  -0.0685
  C  C157  1  0.355590  0.519810  0.024220  1.0  -0.0003
  C  C158  1  0.355640  0.472400  0.023740  1.0  0.0039
  C  C159  1  0.402270  0.458580  0.009690  1.0  0.1962
  C  C160  1  0.402160  0.534040  0.010370  1.0  0.205
  C  C161  1  0.416380  0.412560  0.001640  1.0  -0.0698
  C  C162  1  0.462990  0.399740  0.993980  1.0  0.2444
  C  C163  1  0.477100  0.357060  0.977260  1.0  -0.072
  C  C164  1  0.524650  0.357100  0.977720  1.0  -0.0695
  C  C165  1  0.538350  0.399830  0.994630  1.0  0.2518
  C  C166  1  0.584780  0.412820  0.002960  1.0  -0.0698
  C  C167  1  0.598710  0.459010  0.010360  1.0  0.2028
  C  C168  1  0.645280  0.473240  0.024190  1.0  -0.0018
  C  C169  1  0.645230  0.520650  0.023680  1.0  0.0035
  C  C170  1  0.598600  0.534470  0.009640  1.0  0.1957
  C  C171  1  0.584480  0.580480  0.001570  1.0  -0.0695
  C  C172  1  0.537880  0.593300  0.993920  1.0  0.2432
  C  C173  1  0.523760  0.635970  0.977190  1.0  -0.0712
  C  C174  1  0.476210  0.635930  0.977660  1.0  -0.0719
  C  C175  1  0.462520  0.593210  0.994600  1.0  0.2522
  C  C176  1  0.416090  0.580220  0.002950  1.0  -0.0692
  C  C177  1  0.976450  0.641310  0.475720  1.0  -0.0042
  C  C178  1  0.975960  0.641360  0.523130  1.0  -0.0059
  C  C179  1  0.989810  0.594790  0.537360  1.0  0.2044
  C  C180  1  0.990490  0.594680  0.461900  1.0  0.1963
  C  C181  1  0.997230  0.580860  0.583540  1.0  -0.0683
  C  C182  1  0.005590  0.534440  0.596530  1.0  0.2509
  C  C183  1  0.022530  0.520740  0.639250  1.0  -0.0651
  C  C184  1  0.023000  0.473200  0.639290  1.0  -0.0662
  C  C185  1  0.006270  0.459080  0.596620  1.0  0.243
  C  C186  1  0.998610  0.412470  0.583800  1.0  -0.0684
  C  C187  1  0.990550  0.398350  0.537790  1.0  0.1965
  C  C188  1  0.976520  0.351720  0.523980  1.0  -0.0036
  C  C189  1  0.976010  0.351670  0.476570  1.0  -0.004
  C  C190  1  0.989840  0.398240  0.462340  1.0  0.2038
  C  C191  1  0.997230  0.412170  0.416150  1.0  -0.0687
  C  C192  1  0.005560  0.458600  0.403150  1.0  0.253
  C  C193  1  0.022480  0.472300  0.360430  1.0  -0.0632
  C  C194  1  0.022930  0.519850  0.360390  1.0  -0.066
  C  C195  1  0.006210  0.533960  0.403060  1.0  0.2443
  C  C196  1  0.998550  0.580560  0.415880  1.0  -0.0685
  C  C197  1  0.895000  0.994280  0.894300  1.0  0.643
  C  C198  1  0.894940  0.998870  0.105300  1.0  0.645
  C  C199  1  0.894890  0.891090  0.997460  1.0  0.645
  C  C200  1  0.894980  0.102010  0.002200  1.0  0.6395
  C  C201  1  0.105860  0.994130  0.105380  1.0  0.6447
  C  C202  1  0.105930  0.998870  0.894390  1.0  0.6427
  C  C203  1  0.002670  0.890970  0.105270  1.0  0.6435
  C  C204  1  0.998080  0.101970  0.105340  1.0  0.6429
  C  C205  1  0.002810  0.102060  0.894410  1.0  0.644
  C  C206  1  0.998080  0.891070  0.894340  1.0  0.6415
  C  C207  1  0.105880  0.891020  0.002190  1.0  0.6439
  C  C208  1  0.105970  0.101950  0.997600  1.0  0.6377
  C  C209  1  0.310870  0.994660  0.311130  1.0  0.0666
  C  C210  1  0.309740  0.028550  0.345740  1.0  -0.1258
  C  C211  1  0.344050  0.029660  0.379830  1.0  -0.1606
  C  C212  1  0.379890  0.996880  0.379660  1.0  0.0906
  C  C213  1  0.380770  0.962850  0.344990  1.0  -0.16
  C  C214  1  0.346460  0.961800  0.310890  1.0  -0.1313
  C  C215  1  0.275670  0.993750  0.275820  1.0  0.0006
  C  C216  1  0.246220  0.993150  0.246230  1.0  -0.0002
  C  C217  1  0.211030  0.992690  0.210890  1.0  -0.0042
  C  C218  1  0.223490  0.992560  0.164120  1.0  -0.1372
  C  C219  1  0.189380  0.992760  0.129800  1.0  -0.0864
  C  C220  1  0.142150  0.993110  0.141770  1.0  -0.116
  C  C221  1  0.130030  0.992950  0.188960  1.0  -0.0826
  C  C222  1  0.164220  0.992760  0.223190  1.0  -0.1364
  C  C223  1  0.689750  0.000060  0.310840  1.0  0.0673
  C  C224  1  0.690220  0.033320  0.346060  1.0  -0.1206
  C  C225  1  0.655900  0.033100  0.380160  1.0  -0.1615
  C  C226  1  0.620720  0.999610  0.379360  1.0  0.0905
  C  C227  1  0.620540  0.966190  0.344100  1.0  -0.1513
  C  C228  1  0.654850  0.966470  0.310000  1.0  -0.1316
  C  C229  1  0.725010  0.000410  0.275580  1.0  0.0047
  C  C230  1  0.754500  0.000630  0.246020  1.0  0.004
  C  C231  1  0.789710  0.000750  0.210710  1.0  -0.0021
  C  C232  1  0.836510  0.000830  0.223050  1.0  -0.1344
  C  C233  1  0.870720  0.000450  0.188850  1.0  -0.0833
  C  C234  1  0.858630  0.999960  0.141650  1.0  -0.1112
  C  C235  1  0.811410  0.000120  0.129650  1.0  -0.0842
  C  C236  1  0.777280  0.000490  0.163940  1.0  -0.1363
  C  C237  1  0.689980  0.994810  0.688550  1.0  0.0665
  C  C238  1  0.654410  0.961930  0.688810  1.0  -0.1303
  C  C239  1  0.620100  0.962970  0.654710  1.0  -0.1604
  C  C240  1  0.620970  0.996980  0.620030  1.0  0.092
  C  C241  1  0.656790  0.029780  0.619840  1.0  -0.1593
  C  C242  1  0.691110  0.028690  0.653940  1.0  -0.1296
  C  C243  1  0.725190  0.993920  0.723870  1.0  0.0106
  C  C244  1  0.754650  0.993330  0.753450  1.0  -0.0042
  C  C245  1  0.789840  0.992870  0.788790  1.0  0.0008
  C  C246  1  0.777370  0.992750  0.835560  1.0  -0.1361
  C  C247  1  0.811480  0.992940  0.869880  1.0  -0.0817
  C  C248  1  0.858710  0.993280  0.857920  1.0  -0.1115
  C  C249  1  0.870840  0.993130  0.810720  1.0  -0.0815
  C  C250  1  0.836640  0.992950  0.776500  1.0  -0.1397
  C  C251  1  0.311110  0.000050  0.688840  1.0  0.066
  C  C252  1  0.346020  0.966470  0.689700  1.0  -0.1294
  C  C253  1  0.380340  0.966200  0.655590  1.0  -0.1535
  C  C254  1  0.380140  0.999600  0.620320  1.0  0.0865
  C  C255  1  0.344950  0.033080  0.619500  1.0  -0.1584
  C  C256  1  0.310630  0.033290  0.653610  1.0  -0.1219
  C  C257  1  0.275850  0.000400  0.724110  1.0  0.0079
  C  C258  1  0.246370  0.000620  0.753660  1.0  -0.0182
  C  C259  1  0.211150  0.000730  0.788970  1.0  0.0015
  C  C260  1  0.223590  0.000430  0.835740  1.0  -0.1343
  C  C261  1  0.189460  0.000060  0.870040  1.0  -0.0837
  C  C262  1  0.142240  0.999950  0.858040  1.0  -0.1095
  C  C263  1  0.130140  0.000500  0.810840  1.0  -0.0826
  C  C264  1  0.164360  0.000870  0.776640  1.0  -0.1331
  C  C265  1  0.311720  0.306960  0.998160  1.0  0.0665
  C  C266  1  0.311470  0.342540  0.965290  1.0  -0.1279
  C  C267  1  0.345570  0.376850  0.966330  1.0  -0.1558
  C  C268  1  0.380250  0.375980  0.000340  1.0  0.0895
  C  C269  1  0.380430  0.340150  0.033140  1.0  -0.1586
  C  C270  1  0.346340  0.305840  0.032050  1.0  -0.1306
  C  C271  1  0.276410  0.271760  0.997270  1.0  0.0069
  C  C272  1  0.246820  0.242300  0.996680  1.0  -0.0013
  C  C273  1  0.211490  0.207110  0.996210  1.0  0.0009
  C  C274  1  0.223780  0.160300  0.996280  1.0  -0.1382
  C  C275  1  0.189550  0.126110  0.996460  1.0  -0.0796
  C  C276  1  0.142360  0.138240  0.996610  1.0  -0.112
  C  C277  1  0.130400  0.185470  0.996270  1.0  -0.081
  C  C278  1  0.164720  0.219580  0.996090  1.0  -0.1412
  C  C279  1  0.311430  0.685840  0.003390  1.0  0.067
  C  C280  1  0.346660  0.686320  0.036640  1.0  -0.1198
  C  C281  1  0.380760  0.652000  0.036430  1.0  -0.1589
  C  C282  1  0.379960  0.616810  0.002960  1.0  0.0862
  C  C283  1  0.344680  0.616610  0.969550  1.0  -0.1452
  C  C284  1  0.310580  0.650920  0.969820  1.0  -0.1289
  C  C285  1  0.276170  0.721090  0.003730  1.0  0.0076
  C  C286  1  0.246610  0.750580  0.003950  1.0  -0.0183
  C  C287  1  0.211300  0.785800  0.004060  1.0  0.0049
  C  C288  1  0.223630  0.832590  0.004200  1.0  -0.1338
  C  C289  1  0.189430  0.866800  0.003820  1.0  -0.0865
  C  C290  1  0.142240  0.854710  0.003270  1.0  -0.1069
  C  C291  1  0.130240  0.807490  0.003380  1.0  -0.084
  C  C292  1  0.164530  0.773360  0.003750  1.0  -0.1382
  C  C293  1  0.689140  0.686080  0.998020  1.0  0.0672
  C  C294  1  0.654540  0.687210  0.031910  1.0  -0.1282
  C  C295  1  0.620440  0.652900  0.033030  1.0  -0.1596
  C  C296  1  0.620620  0.617060  0.000240  1.0  0.0916
  C  C297  1  0.655290  0.616170  0.966220  1.0  -0.1546
  C  C298  1  0.689390  0.650480  0.965160  1.0  -0.1327
  C  C299  1  0.724460  0.721280  0.997100  1.0  0.0036
  C  C300  1  0.754040  0.750740  0.996500  1.0  -0.0049
  C  C301  1  0.789380  0.785930  0.996020  1.0  -0.0045
  C  C302  1  0.777090  0.832730  0.996100  1.0  -0.1364
  C  C303  1  0.811310  0.866920  0.996290  1.0  -0.0858
  C  C304  1  0.858510  0.854800  0.996440  1.0  -0.1176
  C  C305  1  0.870470  0.807570  0.996080  1.0  -0.0805
  C  C306  1  0.836150  0.773460  0.995900  1.0  -0.1407
  C  C307  1  0.689440  0.307200  0.003420  1.0  0.0667
  C  C308  1  0.654220  0.306740  0.036680  1.0  -0.1198
  C  C309  1  0.620110  0.341060  0.036470  1.0  -0.1611
  C  C310  1  0.620910  0.376230  0.002980  1.0  0.0881
  C  C311  1  0.656170  0.376420  0.969560  1.0  -0.1466
  C  C312  1  0.690280  0.342100  0.969840  1.0  -0.1329
  C  C313  1  0.724700  0.271940  0.003770  1.0  0.0058
  C  C314  1  0.754260  0.242460  0.003990  1.0  0.004
  C  C315  1  0.789560  0.207240  0.004100  1.0  0.0069
  C  C316  1  0.836330  0.219680  0.003840  1.0  -0.1413
  C  C317  1  0.870630  0.185540  0.003460  1.0  -0.0832
  C  C318  1  0.858620  0.138330  0.003300  1.0  -0.1105
  C  C319  1  0.811430  0.126230  0.003790  1.0  -0.0837
  C  C320  1  0.777230  0.160450  0.004180  1.0  -0.1344
  C  C321  1  0.996800  0.307500  0.310530  1.0  0.0683
  C  C322  1  0.963540  0.342720  0.310060  1.0  -0.1172
  C  C323  1  0.963740  0.376830  0.344380  1.0  -0.1614
  C  C324  1  0.997220  0.376030  0.379560  1.0  0.0896
  C  C325  1  0.030650  0.340780  0.379750  1.0  -0.1474
  C  C326  1  0.030380  0.306670  0.345440  1.0  -0.133
  C  C327  1  0.996470  0.272240  0.275270  1.0  0.0057
  C  C328  1  0.996260  0.242690  0.245780  1.0  0.0079
  C  C329  1  0.996160  0.207380  0.210570  1.0  -0.0018
  C  C330  1  0.996090  0.219720  0.163780  1.0  -0.1381
  C  C331  1  0.996470  0.185520  0.129560  1.0  -0.0827
  C  C332  1  0.996980  0.138320  0.141650  1.0  -0.1083
  C  C333  1  0.996810  0.126320  0.188870  1.0  -0.0833
  C  C334  1  0.996430  0.160610  0.223000  1.0  -0.1366
  C  C335  1  0.002200  0.307810  0.689400  1.0  0.0678
  C  C336  1  0.035050  0.307570  0.653810  1.0  -0.1321
  C  C337  1  0.033980  0.341670  0.619500  1.0  -0.158
  C  C338  1  0.999950  0.376340  0.620390  1.0  0.0903
  C  C339  1  0.967170  0.376510  0.656230  1.0  -0.1596
  C  C340  1  0.968300  0.342410  0.690550  1.0  -0.1274
  C  C341  1  0.003120  0.272500  0.724610  1.0  0.0022
  C  C342  1  0.003740  0.242910  0.754060  1.0  -0.0013
  C  C343  1  0.004220  0.207570  0.789250  1.0  -0.0028
  C  C344  1  0.004350  0.160810  0.776790  1.0  -0.133
  C  C345  1  0.004170  0.126480  0.810900  1.0  -0.081
  C  C346  1  0.003820  0.138450  0.858120  1.0  -0.1156
  C  C347  1  0.003970  0.185640  0.870250  1.0  -0.0851
  C  C348  1  0.004150  0.219870  0.836060  1.0  -0.1395
  C  C349  1  0.996810  0.685530  0.689150  1.0  0.068
  C  C350  1  0.963560  0.650300  0.689640  1.0  -0.1167
  C  C351  1  0.963760  0.616200  0.655320  1.0  -0.1605
  C  C352  1  0.997230  0.617000  0.620130  1.0  0.0887
  C  C353  1  0.030640  0.652270  0.619920  1.0  -0.1485
  C  C354  1  0.030380  0.686380  0.654230  1.0  -0.1319
  C  C355  1  0.996480  0.720790  0.724410  1.0  0.0113
  C  C356  1  0.996270  0.750350  0.753900  1.0  -0.0181
  C  C357  1  0.996170  0.785660  0.789110  1.0  0.0046
  C  C358  1  0.996040  0.773320  0.835910  1.0  -0.1366
  C  C359  1  0.996430  0.807520  0.870120  1.0  -0.0838
  C  C360  1  0.996980  0.854720  0.858030  1.0  -0.1073
  C  C361  1  0.996870  0.866720  0.810810  1.0  -0.0896
  C  C362  1  0.996490  0.832430  0.776680  1.0  -0.1365
  C  C363  1  0.002060  0.685220  0.310280  1.0  0.0702
  C  C364  1  0.968170  0.650610  0.309150  1.0  -0.1257
  C  C365  1  0.967070  0.616520  0.343470  1.0  -0.1613
  C  C366  1  0.999860  0.616700  0.379300  1.0  0.0937
  C  C367  1  0.033880  0.651380  0.380180  1.0  -0.1553
  C  C368  1  0.034920  0.685470  0.345870  1.0  -0.1325
  C  C369  1  0.002960  0.720530  0.275080  1.0  0.0108
  C  C370  1  0.003560  0.750120  0.245620  1.0  -0.0009
  C  C371  1  0.004040  0.785460  0.210430  1.0  -0.003
  C  C372  1  0.003970  0.773160  0.163620  1.0  -0.1453
  C  C373  1  0.003800  0.807390  0.129430  1.0  -0.0826
  C  C374  1  0.003660  0.854590  0.141560  1.0  -0.1096
  C  C375  1  0.004000  0.866550  0.188790  1.0  -0.0846
  C  C376  1  0.004170  0.832220  0.222900  1.0  -0.1382
  N  N377  1  0.500330  0.998480  0.428040  1.0  -0.3176
  N  N378  1  0.429520  0.001110  0.499960  1.0  -0.2898
  N  N379  1  0.500530  0.998520  0.571640  1.0  -0.3163
  N  N380  1  0.571340  0.001140  0.499720  1.0  -0.2908
  N  N381  1  0.428640  0.496420  0.001880  1.0  -0.3155
  N  N382  1  0.500550  0.425610  0.004510  1.0  -0.2923
  N  N383  1  0.572230  0.496620  0.001850  1.0  -0.3159
  N  N384  1  0.500310  0.567430  0.004470  1.0  -0.2909
  N  N385  1  0.998300  0.568310  0.499740  1.0  -0.3179
  N  N386  1  0.995710  0.496640  0.570750  1.0  -0.2886
  N  N387  1  0.998330  0.424720  0.499950  1.0  -0.317
  N  N388  1  0.995680  0.496390  0.428940  1.0  -0.2894
  O  O389  1  0.937850  0.995020  0.880820  1.0  -0.6064
  O  O390  1  0.937780  0.998090  0.118810  1.0  -0.6122
  O  O391  1  0.881410  0.933940  0.998210  1.0  -0.6116
  O  O392  1  0.881460  0.059170  0.001420  1.0  -0.6093
  O  O393  1  0.937820  0.115520  0.001450  1.0  -0.6109
  O  O394  1  0.937730  0.877550  0.998210  1.0  -0.6142
  O  O395  1  0.881430  0.998120  0.062450  1.0  -0.6104
  O  O396  1  0.881460  0.995000  0.937140  1.0  -0.6082
  O  O397  1  0.958480  0.038470  0.041800  1.0  -0.9513
  O  O398  1  0.958470  0.954580  0.957840  1.0  -0.9531
  O  O399  1  0.958630  0.954750  0.041580  1.0  -0.859
  O  O400  1  0.958690  0.038320  0.958080  1.0  -0.8578
  O  O401  1  0.063010  0.994880  0.118860  1.0  -0.6096
  O  O402  1  0.063090  0.998140  0.880880  1.0  -0.6241
  O  O403  1  0.001930  0.877500  0.062420  1.0  -0.6158
  O  O404  1  0.998860  0.115480  0.062500  1.0  -0.6236
  O  O405  1  0.002060  0.115540  0.937270  1.0  -0.6161
  O  O406  1  0.998810  0.877550  0.937180  1.0  -0.615
  O  O407  1  0.119400  0.933860  0.001450  1.0  -0.6063
  O  O408  1  0.119450  0.059100  0.998340  1.0  -0.6059
  O  O409  1  0.063040  0.877510  0.001400  1.0  -0.6119
  O  O410  1  0.063130  0.115480  0.998330  1.0  -0.6122
  O  O411  1  0.001950  0.933810  0.118810  1.0  -0.6115
  O  O412  1  0.998860  0.933920  0.880830  1.0  -0.6126
  O  O413  1  0.002060  0.059220  0.880880  1.0  -0.6141
  O  O414  1  0.998820  0.059120  0.118850  1.0  -0.6164
  O  O415  1  0.119400  0.994880  0.062540  1.0  -0.6114
  O  O416  1  0.119440  0.998080  0.937240  1.0  -0.6076
  O  O417  1  0.042430  0.038480  0.957910  1.0  -0.9551
  O  O418  1  0.042370  0.954520  0.041810  1.0  -0.9556
  O  O419  1  0.042200  0.954750  0.958080  1.0  -0.8578
  O  O420  1  0.042200  0.038260  0.041640  1.0  -0.8576
