# generated using pymatgen
data_Zr3H83(C57O8)2
_symmetry_space_group_name_H-M   'P 1'
_cell_length_a   24.30500000
_cell_length_b   24.30500000
_cell_length_c   24.30500000
_cell_angle_alpha   90.00000000
_cell_angle_beta   90.00000000
_cell_angle_gamma   90.00000000
_symmetry_Int_Tables_number   1
_chemical_formula_structural   Zr3H83(C57O8)2
_chemical_formula_sum   'Zr6 H166 C228 O32'
_cell_volume   14357.76617262
_cell_formula_units_Z   2
loop_
 _symmetry_equiv_pos_site_id
 _symmetry_equiv_pos_as_xyz
  1  'x, y, z'
loop_
 _atom_site_type_symbol
 _atom_site_label
 _atom_site_symmetry_multiplicity
 _atom_site_fract_x
 _atom_site_fract_y
 _atom_site_fract_z
 _atom_site_occupancy
 _atom_site_charge
  Zr  Zr1  1  0.001340  0.990110  0.898050  1.0  1.7935
  Zr  Zr2  1  0.099130  0.990910  0.994920  1.0  1.7839
  Zr  Zr3  1  0.903590  0.991610  0.995000  1.0  1.7909
  Zr  Zr4  1  0.001730  0.087060  0.993780  1.0  1.7925
  Zr  Zr5  1  0.000970  0.895500  0.995950  1.0  1.7945
  Zr  Zr6  1  0.001430  0.992440  0.091700  1.0  1.7983
  H  H7  1  0.452060  0.988950  0.355410  1.0  0.1102
  H  H8  1  0.550750  0.991450  0.355500  1.0  0.1125
  H  H9  1  0.451760  0.990650  0.634550  1.0  0.1138
  H  H10  1  0.550450  0.994050  0.634620  1.0  0.1081
  H  H11  1  0.311860  0.987220  0.494870  1.0  0.1136
  H  H12  1  0.690590  0.995650  0.495130  1.0  0.1123
  H  H13  1  0.453030  0.351870  0.986630  1.0  0.1136
  H  H14  1  0.551810  0.352340  0.986850  1.0  0.1149
  H  H15  1  0.451630  0.630560  0.002220  1.0  0.1186
  H  H16  1  0.550510  0.630960  0.003170  1.0  0.115
  H  H17  1  0.312310  0.490610  0.993900  1.0  0.1128
  H  H18  1  0.691140  0.492300  0.995860  1.0  0.1137
  H  H19  1  0.997510  0.352370  0.443690  1.0  0.1172
  H  H20  1  0.996550  0.351270  0.542470  1.0  0.1127
  H  H21  1  0.997130  0.631430  0.446850  1.0  0.1162
  H  H22  1  0.997740  0.630350  0.545630  1.0  0.1178
  H  H23  1  0.999010  0.493470  0.305230  1.0  0.1118
  H  H24  1  0.998470  0.489220  0.684100  1.0  0.1148
  H  H25  1  0.074910  0.063120  0.920740  1.0  0.3408
  H  H26  1  0.927570  0.917670  0.922630  1.0  0.3374
  H  H27  1  0.928380  0.065500  0.067150  1.0  0.3377
  H  H28  1  0.074200  0.918680  0.068940  1.0  0.3313
  H  H29  1  0.368270  0.073850  0.377380  1.0  0.1161
  H  H30  1  0.108140  0.984250  0.231240  1.0  0.109
  H  H31  1  0.239290  0.004830  0.112630  1.0  0.1102
  H  H32  1  0.175360  0.983520  0.305450  1.0  0.1156
  H  H33  1  0.268640  0.907090  0.314890  1.0  0.1195
  H  H34  1  0.306630  0.003760  0.188140  1.0  0.1122
  H  H35  1  0.342660  0.854090  0.375080  1.0  0.1257
  H  H36  1  0.287590  0.874150  0.420780  1.0  0.1203
  H  H37  1  0.358170  0.886750  0.439190  1.0  0.1166
  H  H38  1  0.331180  0.127430  0.306450  1.0  0.1137
  H  H39  1  0.263970  0.105980  0.284240  1.0  0.1172
  H  H40  1  0.324070  0.089910  0.243230  1.0  0.1078
  H  H41  1  0.668730  0.078930  0.400800  1.0  0.1136
  H  H42  1  0.763320  0.982250  0.113270  1.0  0.1111
  H  H43  1  0.895220  0.000500  0.231450  1.0  0.1078
  H  H44  1  0.696260  0.984280  0.189120  1.0  0.1182
  H  H45  1  0.699410  0.909300  0.291410  1.0  0.1179
  H  H46  1  0.828300  0.002320  0.305860  1.0  0.1093
  H  H47  1  0.667870  0.858830  0.383260  1.0  0.1247
  H  H48  1  0.606470  0.875300  0.344750  1.0  0.1204
  H  H49  1  0.610740  0.891090  0.416830  1.0  0.1169
  H  H50  1  0.720360  0.132390  0.339500  1.0  0.1176
  H  H51  1  0.722590  0.107790  0.269790  1.0  0.1252
  H  H52  1  0.779840  0.095570  0.315850  1.0  0.1131
  H  H53  1  0.638090  0.910670  0.612530  1.0  0.1174
  H  H54  1  0.763790  0.980260  0.876940  1.0  0.1083
  H  H55  1  0.893890  0.011510  0.759560  1.0  0.1105
  H  H56  1  0.696470  0.981280  0.801490  1.0  0.111
  H  H57  1  0.730090  0.081780  0.675000  1.0  0.1251
  H  H58  1  0.826670  0.011910  0.685200  1.0  0.1198
  H  H59  1  0.710000  0.113790  0.569330  1.0  0.1177
  H  H60  1  0.653550  0.131260  0.614410  1.0  0.1265
  H  H61  1  0.640350  0.097770  0.550170  1.0  0.1154
  H  H62  1  0.682910  0.896100  0.746280  1.0  0.1162
  H  H63  1  0.744080  0.883450  0.705630  1.0  0.1253
  H  H64  1  0.678260  0.858650  0.682820  1.0  0.1155
  H  H65  1  0.335210  0.900910  0.586710  1.0  0.1135
  H  H66  1  0.109500  0.960120  0.761090  1.0  0.109
  H  H67  1  0.237990  0.005320  0.875580  1.0  0.1116
  H  H68  1  0.176630  0.958050  0.686600  1.0  0.1166
  H  H69  1  0.302340  0.066430  0.701470  1.0  0.1237
  H  H70  1  0.305220  0.002940  0.800030  1.0  0.1168
  H  H71  1  0.394290  0.103770  0.648690  1.0  0.122
  H  H72  1  0.332270  0.120330  0.611220  1.0  0.1304
  H  H73  1  0.389690  0.090210  0.576180  1.0  0.1162
  H  H74  1  0.242370  0.863830  0.642500  1.0  0.1216
  H  H75  1  0.253320  0.875530  0.714970  1.0  0.1223
  H  H76  1  0.307090  0.846170  0.674470  1.0  0.1289
  H  H77  1  0.371750  0.370160  0.075500  1.0  0.1179
  H  H78  1  0.239750  0.108330  0.003550  1.0  0.1112
  H  H79  1  0.108240  0.227310  0.988160  1.0  0.1101
  H  H80  1  0.307070  0.183790  0.002530  1.0  0.1141
  H  H81  1  0.266310  0.313930  0.910100  1.0  0.1186
  H  H82  1  0.175480  0.301530  0.987510  1.0  0.1171
  H  H83  1  0.284640  0.421010  0.880390  1.0  0.1228
  H  H84  1  0.338630  0.375720  0.856780  1.0  0.1203
  H  H85  1  0.355770  0.438510  0.891130  1.0  0.1131
  H  H86  1  0.327670  0.235850  0.088590  1.0  0.1103
  H  H87  1  0.268050  0.276260  0.107750  1.0  0.1214
  H  H88  1  0.335860  0.297830  0.127890  1.0  0.1132
  H  H89  1  0.330230  0.582520  0.081060  1.0  0.1152
  H  H90  1  0.106260  0.754290  0.999570  1.0  0.1116
  H  H91  1  0.239010  0.872370  0.988400  1.0  0.114
  H  H92  1  0.172930  0.679570  0.001490  1.0  0.111
  H  H93  1  0.305760  0.696440  0.913420  1.0  0.1165
  H  H94  1  0.305740  0.796290  0.990460  1.0  0.1191
  H  H95  1  0.400390  0.644640  0.881790  1.0  0.1222
  H  H96  1  0.339980  0.606230  0.861790  1.0  0.1199
  H  H97  1  0.396000  0.572120  0.895370  1.0  0.1171
  H  H98  1  0.217850  0.666120  0.095480  1.0  0.1111
  H  H99  1  0.274120  0.712310  0.111240  1.0  0.1306
  H  H100  1  0.276030  0.641980  0.134030  1.0  0.1146
  H  H101  1  0.666440  0.584670  0.086390  1.0  0.1186
  H  H102  1  0.763440  0.873010  0.987350  1.0  0.1097
  H  H103  1  0.894570  0.756790  0.018640  1.0  0.1094
  H  H104  1  0.696580  0.797080  0.990010  1.0  0.1183
  H  H105  1  0.701370  0.697020  0.919570  1.0  0.1194
  H  H106  1  0.827890  0.682090  0.020660  1.0  0.1138
  H  H107  1  0.670580  0.605780  0.866800  1.0  0.1279
  H  H108  1  0.609380  0.644970  0.882390  1.0  0.1215
  H  H109  1  0.612150  0.572660  0.897210  1.0  0.1221
  H  H110  1  0.719700  0.715490  0.118650  1.0  0.1279
  H  H111  1  0.776770  0.668800  0.108100  1.0  0.116
  H  H112  1  0.715710  0.645610  0.142440  1.0  0.1234
  H  H113  1  0.637370  0.371990  0.075480  1.0  0.1156
  H  H114  1  0.895440  0.227190  0.974230  1.0  0.1098
  H  H115  1  0.764330  0.110140  0.002290  1.0  0.1147
  H  H116  1  0.828630  0.301970  0.974470  1.0  0.1178
  H  H117  1  0.733670  0.315410  0.904680  1.0  0.1207
  H  H118  1  0.697490  0.185920  0.001780  1.0  0.1086
  H  H119  1  0.658080  0.377470  0.855420  1.0  0.1299
  H  H120  1  0.714020  0.422010  0.875690  1.0  0.122
  H  H121  1  0.643990  0.440560  0.890700  1.0  0.1146
  H  H122  1  0.677210  0.300730  0.126340  1.0  0.1366
  H  H123  1  0.743400  0.278470  0.102060  1.0  0.1319
  H  H124  1  0.682370  0.238330  0.087270  1.0  0.1143
  H  H125  1  0.915570  0.400280  0.322040  1.0  0.1153
  H  H126  1  0.008560  0.111170  0.231490  1.0  0.1119
  H  H127  1  0.000380  0.229090  0.098380  1.0  0.1137
  H  H128  1  0.006410  0.187410  0.298060  1.0  0.1176
  H  H129  1  0.084500  0.288190  0.298030  1.0  0.1149
  H  H130  1  0.998260  0.303980  0.164910  1.0  0.1118
  H  H131  1  0.135110  0.378730  0.332420  1.0  0.1231
  H  H132  1  0.115220  0.340410  0.392920  1.0  0.1216
  H  H133  1  0.101030  0.412800  0.388150  1.0  0.1162
  H  H134  1  0.886850  0.270440  0.265660  1.0  0.1315
  H  H135  1  0.902720  0.316550  0.209350  1.0  0.1141
  H  H136  1  0.863560  0.340620  0.267160  1.0  0.1147
  H  H137  1  0.081450  0.371280  0.629430  1.0  0.1147
  H  H138  1  0.011440  0.107100  0.756170  1.0  0.1098
  H  H139  1  0.980980  0.225020  0.885940  1.0  0.1037
  H  H140  1  0.010430  0.182400  0.688590  1.0  0.1145
  H  H141  1  0.910760  0.310120  0.723070  1.0  0.1198
  H  H142  1  0.980620  0.299140  0.818560  1.0  0.1172
  H  H143  1  0.879770  0.416290  0.704120  1.0  0.1228
  H  H144  1  0.861050  0.371780  0.647620  1.0  0.1233
  H  H145  1  0.895100  0.435710  0.634390  1.0  0.1158
  H  H146  1  0.095120  0.237100  0.673210  1.0  0.1132
  H  H147  1  0.108860  0.277190  0.734520  1.0  0.1312
  H  H148  1  0.133160  0.300190  0.668580  1.0  0.1217
  H  H149  1  0.915280  0.581980  0.667260  1.0  0.1147
  H  H150  1  0.009500  0.871310  0.758290  1.0  0.112
  H  H151  1  0.997070  0.753570  0.891220  1.0  0.1098
  H  H152  1  0.007470  0.795110  0.691690  1.0  0.1145
  H  H153  1  0.083630  0.694870  0.691550  1.0  0.1186
  H  H154  1  0.995260  0.678700  0.824680  1.0  0.1118
  H  H155  1  0.134710  0.604680  0.656960  1.0  0.1248
  H  H156  1  0.114600  0.643020  0.596550  1.0  0.1187
  H  H157  1  0.100800  0.570540  0.601170  1.0  0.1132
  H  H158  1  0.862800  0.641580  0.721690  1.0  0.1147
  H  H159  1  0.886000  0.711770  0.723780  1.0  0.1224
  H  H160  1  0.901570  0.665290  0.779880  1.0  0.1193
  H  H161  1  0.910960  0.584460  0.328300  1.0  0.1177
  H  H162  1  0.971810  0.759120  0.104360  1.0  0.1065
  H  H163  1  0.016070  0.874200  0.232640  1.0  0.1164
  H  H164  1  0.969290  0.684940  0.171680  1.0  0.1218
  H  H165  1  0.076270  0.700510  0.299100  1.0  0.1242
  H  H166  1  0.013190  0.798860  0.300200  1.0  0.1143
  H  H167  1  0.112320  0.647350  0.391370  1.0  0.1282
  H  H168  1  0.130220  0.610410  0.329400  1.0  0.1244
  H  H169  1  0.099320  0.574790  0.386060  1.0  0.1161
  H  H170  1  0.875160  0.640910  0.235140  1.0  0.127
  H  H171  1  0.886070  0.713330  0.247260  1.0  0.1205
  H  H172  1  0.856080  0.671900  0.299940  1.0  0.1283
  C  C173  1  0.384760  0.988960  0.444750  1.0  -0.0174
  C  C174  1  0.356480  0.988320  0.494920  1.0  -0.1225
  C  C175  1  0.384620  0.989140  0.545130  1.0  -0.0724
  C  C176  1  0.442820  0.990510  0.545550  1.0  0.0398
  C  C177  1  0.472010  0.991000  0.495000  1.0  0.0219
  C  C178  1  0.442920  0.990220  0.444420  1.0  0.0419
  C  C179  1  0.472720  0.990090  0.394840  1.0  -0.1309
  C  C180  1  0.529960  0.991240  0.394880  1.0  -0.106
  C  C181  1  0.559630  0.992000  0.444510  1.0  0.0289
  C  C182  1  0.530440  0.991970  0.495040  1.0  0.0141
  C  C183  1  0.472520  0.991210  0.595170  1.0  -0.1054
  C  C184  1  0.529760  0.992920  0.595210  1.0  -0.1298
  C  C185  1  0.559540  0.993050  0.545620  1.0  0.0381
  C  C186  1  0.617690  0.994730  0.545260  1.0  -0.0212
  C  C187  1  0.645970  0.994590  0.495090  1.0  -0.1135
  C  C188  1  0.617820  0.992870  0.444910  1.0  -0.0648
  C  C189  1  0.385380  0.440730  0.992710  1.0  -0.0132
  C  C190  1  0.356950  0.490800  0.994340  1.0  -0.1253
  C  C191  1  0.384930  0.541090  0.995860  1.0  -0.0075
  C  C192  1  0.443120  0.541670  0.997090  1.0  0.0308
  C  C193  1  0.472490  0.491270  0.995240  1.0  0.0163
  C  C194  1  0.443580  0.440620  0.992730  1.0  0.0288
  C  C195  1  0.473580  0.391260  0.989560  1.0  -0.1242
  C  C196  1  0.530850  0.391530  0.989640  1.0  -0.1155
  C  C197  1  0.560350  0.441160  0.993010  1.0  0.0385
  C  C198  1  0.530940  0.491520  0.995580  1.0  0.0241
  C  C199  1  0.472620  0.591330  0.000160  1.0  -0.0963
  C  C200  1  0.529890  0.591560  0.000750  1.0  -0.0968
  C  C201  1  0.559840  0.542150  0.998160  1.0  0.0264
  C  C202  1  0.618030  0.542040  0.998080  1.0  -0.0124
  C  C203  1  0.646510  0.492070  0.995930  1.0  -0.1255
  C  C204  1  0.618540  0.441820  0.993180  1.0  -0.0255
  C  C205  1  0.999920  0.442420  0.377490  1.0  -0.0471
  C  C206  1  0.999060  0.492950  0.349860  1.0  -0.1258
  C  C207  1  0.998700  0.542840  0.378630  1.0  -0.0097
  C  C208  1  0.998920  0.542560  0.436850  1.0  0.0404
  C  C209  1  0.999370  0.491670  0.465440  1.0  0.0099
  C  C210  1  0.999390  0.441430  0.435710  1.0  0.0398
  C  C211  1  0.998300  0.391510  0.464910  1.0  -0.1108
  C  C212  1  0.997780  0.390880  0.522170  1.0  -0.1312
  C  C213  1  0.998640  0.440140  0.552490  1.0  0.0365
  C  C214  1  0.999320  0.491030  0.523910  1.0  0.0166
  C  C215  1  0.998100  0.591820  0.467160  1.0  -0.0918
  C  C216  1  0.998470  0.591200  0.524430  1.0  -0.1004
  C  C217  1  0.999390  0.541280  0.553630  1.0  0.0422
  C  C218  1  0.999820  0.540290  0.611860  1.0  -0.0581
  C  C219  1  0.998750  0.489760  0.639470  1.0  -0.125
  C  C220  1  0.997920  0.439870  0.610680  1.0  -0.0132
  C  C221  1  0.876100  0.993610  0.868930  1.0  0.6605
  C  C222  1  0.126570  0.985910  0.868930  1.0  0.6711
  C  C223  1  0.998660  0.115580  0.868650  1.0  0.6601
  C  C224  1  0.003000  0.864010  0.871430  1.0  0.6488
  C  C225  1  0.126580  0.994400  0.121000  1.0  0.6576
  C  C226  1  0.876290  0.990980  0.121200  1.0  0.6543
  C  C227  1  0.126820  0.116800  0.995860  1.0  0.6581
  C  C228  1  0.125860  0.864780  0.994000  1.0  0.6581
  C  C229  1  0.875960  0.865860  0.999860  1.0  0.6574
  C  C230  1  0.876820  0.117580  0.990560  1.0  0.6631
  C  C231  1  0.004140  0.118570  0.118260  1.0  0.6532
  C  C232  1  0.997220  0.867020  0.121040  1.0  0.6603
  C  C233  1  0.285370  0.992510  0.298360  1.0  -0.0071
  C  C234  1  0.290880  0.943420  0.328200  1.0  -0.1527
  C  C235  1  0.324130  0.940580  0.375230  1.0  0.0522
  C  C236  1  0.351940  0.988360  0.393300  1.0  0.0042
  C  C237  1  0.346960  0.037350  0.363140  1.0  -0.1159
  C  C238  1  0.314000  0.039990  0.315740  1.0  0.0316
  C  C239  1  0.245700  0.994020  0.252230  1.0  0.0822
  C  C240  1  0.189540  0.988310  0.263450  1.0  -0.1378
  C  C241  1  0.151210  0.988890  0.220820  1.0  -0.0963
  C  C242  1  0.168210  0.994790  0.165720  1.0  -0.1049
  C  C243  1  0.224770  0.000310  0.154500  1.0  -0.0867
  C  C244  1  0.263240  0.999940  0.197510  1.0  -0.1273
  C  C245  1  0.328580  0.886080  0.404510  1.0  -0.2856
  C  C246  1  0.308000  0.093910  0.285760  1.0  -0.361
  C  C247  1  0.717960  0.995560  0.298990  1.0  -0.0087
  C  C248  1  0.692160  0.946510  0.314950  1.0  -0.1334
  C  C249  1  0.658970  0.944270  0.362160  1.0  0.0647
  C  C250  1  0.650810  0.992620  0.393560  1.0  -0.0
  C  C251  1  0.675440  0.041980  0.376710  1.0  -0.134
  C  C252  1  0.708960  0.044060  0.329750  1.0  0.0511
  C  C253  1  0.757530  0.994210  0.252800  1.0  0.0903
  C  C254  1  0.739730  0.987880  0.198230  1.0  -0.1517
  C  C255  1  0.778050  0.986770  0.155070  1.0  -0.0871
  C  C256  1  0.834750  0.991390  0.166060  1.0  -0.1092
  C  C257  1  0.852030  0.996900  0.221120  1.0  -0.101
  C  C258  1  0.813870  0.998210  0.263890  1.0  -0.1155
  C  C259  1  0.634460  0.889530  0.377930  1.0  -0.2794
  C  C260  1  0.734370  0.098020  0.312840  1.0  -0.3776
  C  C261  1  0.717280  0.995690  0.691570  1.0  -0.0068
  C  C262  1  0.709540  0.044470  0.661710  1.0  -0.1505
  C  C263  1  0.676200  0.045770  0.614650  1.0  0.0437
  C  C264  1  0.650520  0.996790  0.596640  1.0  -0.0003
  C  C265  1  0.657750  0.948090  0.626770  1.0  -0.124
  C  C266  1  0.690870  0.946930  0.674110  1.0  0.0226
  C  C267  1  0.756870  0.995960  0.737830  1.0  0.089
  C  C268  1  0.739620  0.987570  0.792320  1.0  -0.1169
  C  C269  1  0.778060  0.987320  0.835320  1.0  -0.0816
  C  C270  1  0.834360  0.995410  0.824380  1.0  -0.1003
  C  C271  1  0.851030  0.004640  0.769650  1.0  -0.0815
  C  C272  1  0.812690  0.005060  0.726980  1.0  -0.1647
  C  C273  1  0.669460  0.099940  0.585200  1.0  -0.2909
  C  C274  1  0.699480  0.893220  0.703850  1.0  -0.3586
  C  C275  1  0.285490  0.979960  0.691670  1.0  -0.0068
  C  C276  1  0.310190  0.030030  0.676880  1.0  -0.1462
  C  C277  1  0.342900  0.034440  0.629490  1.0  0.0523
  C  C278  1  0.351650  0.987340  0.596460  1.0  -0.0006
  C  C279  1  0.328020  0.937050  0.611880  1.0  -0.1375
  C  C280  1  0.295460  0.932580  0.659290  1.0  0.0465
  C  C281  1  0.245860  0.979720  0.737980  1.0  0.0825
  C  C282  1  0.190350  0.967980  0.727830  1.0  -0.1259
  C  C283  1  0.152040  0.969470  0.770520  1.0  -0.099
  C  C284  1  0.168320  0.982950  0.824460  1.0  -0.095
  C  C285  1  0.224140  0.994520  0.834630  1.0  -0.0784
  C  C286  1  0.262540  0.993310  0.791590  1.0  -0.152
  C  C287  1  0.366280  0.090100  0.615290  1.0  -0.2743
  C  C288  1  0.273020  0.876620  0.673860  1.0  -0.2769
  C  C289  1  0.285770  0.294310  0.994280  1.0  -0.0054
  C  C290  1  0.289790  0.325880  0.946120  1.0  -0.1461
  C  C291  1  0.323160  0.372880  0.943820  1.0  0.0532
  C  C292  1  0.352660  0.389180  0.991230  1.0  -0.003
  C  C293  1  0.349200  0.357270  0.039240  1.0  -0.1131
  C  C294  1  0.316100  0.309930  0.041350  1.0  0.0262
  C  C295  1  0.246040  0.248140  0.995460  1.0  0.0829
  C  C296  1  0.263620  0.193280  0.999850  1.0  -0.1172
  C  C297  1  0.225130  0.150280  0.000190  1.0  -0.091
  C  C298  1  0.168460  0.161570  0.996070  1.0  -0.0939
  C  C299  1  0.151390  0.216800  0.991590  1.0  -0.0831
  C  C300  1  0.189750  0.259450  0.991110  1.0  -0.1518
  C  C301  1  0.325900  0.404070  0.890270  1.0  -0.291
  C  C302  1  0.311710  0.278210  0.094420  1.0  -0.3603
  C  C303  1  0.283610  0.686290  0.998560  1.0  -0.0115
  C  C304  1  0.311600  0.671900  0.950220  1.0  -0.1164
  C  C305  1  0.345270  0.625010  0.948070  1.0  0.0529
  C  C306  1  0.351720  0.592330  0.995830  1.0  -0.0021
  C  C307  1  0.324880  0.607590  0.044550  1.0  -0.131
  C  C308  1  0.290870  0.654230  0.046520  1.0  0.0462
  C  C309  1  0.244080  0.732560  0.996960  1.0  0.0753
  C  C310  1  0.187590  0.721580  0.998910  1.0  -0.1223
  C  C311  1  0.149570  0.764520  0.997580  1.0  -0.0883
  C  C312  1  0.167160  0.819660  0.994090  1.0  -0.1051
  C  C313  1  0.224010  0.830530  0.991330  1.0  -0.0882
  C  C314  1  0.262170  0.787220  0.992500  1.0  -0.1547
  C  C315  1  0.372090  0.610910  0.893950  1.0  -0.2877
  C  C316  1  0.263150  0.669450  0.099850  1.0  -0.3788
  C  C317  1  0.717970  0.687850  0.006110  1.0  -0.0078
  C  C318  1  0.693250  0.672830  0.956180  1.0  -0.1392
  C  C319  1  0.659990  0.625800  0.952300  1.0  0.0553
  C  C320  1  0.650730  0.593510  0.999810  1.0  0.0
  C  C321  1  0.674100  0.609420  0.050080  1.0  -0.1346
  C  C322  1  0.707620  0.656310  0.053860  1.0  0.0525
  C  C323  1  0.757370  0.734270  0.006400  1.0  0.0747
  C  C324  1  0.739790  0.788400  0.996590  1.0  -0.1526
  C  C325  1  0.777990  0.831630  0.995150  1.0  -0.0896
  C  C326  1  0.834430  0.821140  0.002810  1.0  -0.0988
  C  C327  1  0.851550  0.766620  0.012510  1.0  -0.1096
  C  C328  1  0.813470  0.723760  0.014090  1.0  -0.1267
  C  C329  1  0.636530  0.611180  0.896780  1.0  -0.2876
  C  C330  1  0.731300  0.672400  0.108860  1.0  -0.368
  C  C331  1  0.718950  0.296000  0.989870  1.0  -0.0096
  C  C332  1  0.712230  0.327440  0.941920  1.0  -0.1462
  C  C333  1  0.678730  0.374410  0.941360  1.0  0.0456
  C  C334  1  0.651720  0.390680  0.990240  1.0  -0.005
  C  C335  1  0.657980  0.359040  0.038100  1.0  -0.1203
  C  C336  1  0.691360  0.311850  0.038560  1.0  0.0185
  C  C337  1  0.758370  0.249520  0.988920  1.0  0.0934
  C  C338  1  0.814350  0.260170  0.980440  1.0  -0.1516
  C  C339  1  0.852450  0.217240  0.980470  1.0  -0.1053
  C  C340  1  0.835380  0.162470  0.988710  1.0  -0.0932
  C  C341  1  0.778940  0.151760  0.996050  1.0  -0.0792
  C  C342  1  0.740750  0.194980  0.996120  1.0  -0.1196
  C  C343  1  0.673200  0.405640  0.888050  1.0  -0.2937
  C  C344  1  0.698990  0.280610  0.091560  1.0  -0.3619
  C  C345  1  0.999330  0.297430  0.275640  1.0  -0.0113
  C  C346  1  0.047430  0.312350  0.303760  1.0  -0.1287
  C  C347  1  0.048980  0.359240  0.337480  1.0  0.0648
  C  C348  1  0.000820  0.391380  0.343890  1.0  -0.0024
  C  C349  1  0.952380  0.375640  0.316770  1.0  -0.1311
  C  C350  1  0.951040  0.329030  0.282690  1.0  0.0473
  C  C351  1  0.001440  0.251080  0.236200  1.0  0.0783
  C  C352  1  0.005120  0.196420  0.254440  1.0  -0.1501
  C  C353  1  0.006330  0.153020  0.216380  1.0  -0.0872
  C  C354  1  0.004390  0.163790  0.159470  1.0  -0.109
  C  C355  1  0.001760  0.218940  0.141740  1.0  -0.0874
  C  C356  1  0.000360  0.261970  0.179670  1.0  -0.1261
  C  C357  1  0.102870  0.373910  0.364430  1.0  -0.2811
  C  C358  1  0.898030  0.313340  0.254640  1.0  -0.3801
  C  C359  1  0.996490  0.292620  0.709160  1.0  -0.014
  C  C360  1  0.947970  0.323090  0.702130  1.0  -0.1477
  C  C361  1  0.946820  0.370420  0.669150  1.0  0.0447
  C  C362  1  0.995690  0.388110  0.643020  1.0  -0.0077
  C  C363  1  0.044100  0.357320  0.649420  1.0  -0.1205
  C  C364  1  0.045130  0.309720  0.682240  1.0  0.0217
  C  C365  1  0.996220  0.246330  0.748830  1.0  0.0855
  C  C366  1  0.004350  0.191730  0.731720  1.0  -0.1223
  C  C367  1  0.004590  0.148790  0.770310  1.0  -0.0916
  C  C368  1  0.996740  0.159920  0.826610  1.0  -0.1004
  C  C369  1  0.987690  0.214750  0.843110  1.0  -0.0845
  C  C370  1  0.987300  0.257310  0.804650  1.0  -0.1515
  C  C371  1  0.892910  0.400530  0.663310  1.0  -0.2964
  C  C372  1  0.098610  0.279370  0.690050  1.0  -0.3611
  C  C373  1  0.998500  0.685160  0.713930  1.0  -0.0117
  C  C374  1  0.046680  0.670530  0.685770  1.0  -0.13
  C  C375  1  0.048470  0.623710  0.651960  1.0  0.0657
  C  C376  1  0.000490  0.591320  0.645490  1.0  -0.0009
  C  C377  1  0.951960  0.606790  0.672600  1.0  -0.1293
  C  C378  1  0.950360  0.653350  0.706740  1.0  0.0512
  C  C379  1  0.000370  0.731500  0.753430  1.0  0.079
  C  C380  1  0.005180  0.786120  0.735280  1.0  -0.1594
  C  C381  1  0.006300  0.829510  0.773360  1.0  -0.0903
  C  C382  1  0.003120  0.818780  0.830220  1.0  -0.0984
  C  C383  1  0.999380  0.763690  0.847890  1.0  -0.091
  C  C384  1  0.998110  0.720670  0.809940  1.0  -0.1203
  C  C385  1  0.102440  0.609380  0.624970  1.0  -0.2813
  C  C386  1  0.897160  0.668800  0.734600  1.0  -0.3793
  C  C387  1  0.990170  0.690300  0.280670  1.0  -0.0175
  C  C388  1  0.039880  0.675670  0.306180  1.0  -0.1372
  C  C389  1  0.044040  0.628060  0.338640  1.0  0.0663
  C  C390  1  0.997050  0.594590  0.346240  1.0  -0.0016
  C  C391  1  0.947060  0.609920  0.321930  1.0  -0.1316
  C  C392  1  0.942820  0.657570  0.289670  1.0  0.048
  C  C393  1  0.990390  0.736560  0.240920  1.0  0.0875
  C  C394  1  0.979110  0.726220  0.185350  1.0  -0.1285
  C  C395  1  0.980870  0.768760  0.146910  1.0  -0.1022
  C  C396  1  0.994200  0.822780  0.163050  1.0  -0.073
  C  C397  1  0.005390  0.833180  0.218910  1.0  -0.0893
  C  C398  1  0.003900  0.790250  0.257480  1.0  -0.1507
  C  C399  1  0.099370  0.614060  0.362900  1.0  -0.2829
  C  C400  1  0.887140  0.671970  0.266420  1.0  -0.284
  O  O401  1  0.859250  0.992860  0.919770  1.0  -0.598
  O  O402  1  0.143450  0.987950  0.919730  1.0  -0.6009
  O  O403  1  0.999900  0.064590  0.852370  1.0  -0.6008
  O  O404  1  0.002500  0.914640  0.854070  1.0  -0.593
  O  O405  1  0.002340  0.849390  0.922730  1.0  -0.6089
  O  O406  1  0.999590  0.131370  0.919570  1.0  -0.6015
  O  O407  1  0.075480  0.986800  0.853440  1.0  -0.5995
  O  O408  1  0.927190  0.992300  0.853460  1.0  -0.6095
  O  O409  1  0.051420  0.940880  0.945520  1.0  -0.8951
  O  O410  1  0.951340  0.040400  0.944470  1.0  -0.931
  O  O411  1  0.051570  0.039840  0.944570  1.0  -0.8496
  O  O412  1  0.951060  0.941520  0.945750  1.0  -0.8495
  O  O413  1  0.143480  0.993270  0.070170  1.0  -0.6007
  O  O414  1  0.859310  0.991000  0.070370  1.0  -0.6022
  O  O415  1  0.075680  0.132010  0.994890  1.0  -0.6139
  O  O416  1  0.074590  0.849970  0.994840  1.0  -0.6166
  O  O417  1  0.927070  0.850610  0.998880  1.0  -0.5968
  O  O418  1  0.928060  0.132520  0.991090  1.0  -0.5958
  O  O419  1  0.003430  0.067930  0.135620  1.0  -0.5957
  O  O420  1  0.998970  0.917980  0.137320  1.0  -0.593
  O  O421  1  0.003500  0.133180  0.066970  1.0  -0.6076
  O  O422  1  0.998290  0.851170  0.070140  1.0  -0.5949
  O  O423  1  0.143720  0.065990  0.995790  1.0  -0.5959
  O  O424  1  0.859580  0.066930  0.992370  1.0  -0.5968
  O  O425  1  0.859000  0.916600  0.997950  1.0  -0.5997
  O  O426  1  0.143150  0.915460  0.994110  1.0  -0.5957
  O  O427  1  0.075470  0.994140  0.136370  1.0  -0.6154
  O  O428  1  0.927430  0.991670  0.136470  1.0  -0.6117
  O  O429  1  0.951000  0.942480  0.045420  1.0  -0.9315
  O  O430  1  0.051890  0.041360  0.044300  1.0  -0.9437
  O  O431  1  0.951570  0.041400  0.044010  1.0  -0.8493
  O  O432  1  0.051160  0.942290  0.045140  1.0  -0.8495
