# generated using pymatgen
data_Mn3H28(C12N5)4
_symmetry_space_group_name_H-M   'P 1'
_cell_length_a   19.90500000
_cell_length_b   20.55000000
_cell_length_c   20.55000000
_cell_angle_alpha   90.00000000
_cell_angle_beta   90.00000000
_cell_angle_gamma   90.00000000
_symmetry_Int_Tables_number   1
_chemical_formula_structural   Mn3H28(C12N5)4
_chemical_formula_sum   'Mn6 H56 C96 N40'
_cell_volume   8405.93126250
_cell_formula_units_Z   2
loop_
 _symmetry_equiv_pos_site_id
 _symmetry_equiv_pos_as_xyz
  1  'x, y, z'
loop_
 _atom_site_type_symbol
 _atom_site_label
 _atom_site_symmetry_multiplicity
 _atom_site_fract_x
 _atom_site_fract_y
 _atom_site_fract_z
 _atom_site_occupancy
 _atom_site_charge
  Mn  Mn1  1  0.500000  0.405880  0.594120  1.0  0.9931
  Mn  Mn2  1  0.500000  0.594120  0.594120  1.0  0.9923
  Mn  Mn3  1  0.000000  0.500000  0.000000  1.0  0.3619
  Mn  Mn4  1  0.500000  0.594120  0.405880  1.0  0.9928
  Mn  Mn5  1  0.000000  0.000000  0.500000  1.0  0.3619
  Mn  Mn6  1  0.500000  0.405880  0.405880  1.0  0.9937
  H  H7  1  0.725200  0.749100  0.598600  1.0  0.0972
  H  H8  1  0.813400  0.175500  0.401400  1.0  0.11
  H  H9  1  0.749500  0.061200  0.500000  1.0  0.1155
  H  H10  1  0.062600  0.756500  0.500000  1.0  0.1104
  H  H11  1  0.725200  0.598600  0.250900  1.0  0.0984
  H  H12  1  0.000000  0.500000  0.057000  1.0  0.135
  H  H13  1  0.274800  0.749100  0.598600  1.0  0.0973
  H  H14  1  0.000000  0.500000  0.943000  1.0  0.1343
  H  H15  1  0.813400  0.401400  0.175500  1.0  0.1106
  H  H16  1  0.186600  0.598600  0.175500  1.0  0.112
  H  H17  1  0.186600  0.824500  0.401400  1.0  0.1105
  H  H18  1  0.813400  0.598600  0.824500  1.0  0.1109
  H  H19  1  0.186600  0.824500  0.598600  1.0  0.1084
  H  H20  1  0.813400  0.401400  0.824500  1.0  0.1099
  H  H21  1  0.749500  0.500000  0.061200  1.0  0.1153
  H  H22  1  0.000000  0.057000  0.500000  1.0  0.1368
  H  H23  1  0.186600  0.175500  0.598600  1.0  0.1084
  H  H24  1  0.274800  0.749100  0.401400  1.0  0.0977
  H  H25  1  0.250500  0.061200  0.500000  1.0  0.1147
  H  H26  1  0.725200  0.749100  0.401400  1.0  0.0974
  H  H27  1  0.725200  0.250900  0.401400  1.0  0.0978
  H  H28  1  0.274800  0.401400  0.250900  1.0  0.098
  H  H29  1  0.937400  0.243500  0.500000  1.0  0.1098
  H  H30  1  0.062600  0.500000  0.756500  1.0  0.1097
  H  H31  1  0.749500  0.938800  0.500000  1.0  0.1153
  H  H32  1  0.941600  0.500000  0.000000  1.0  0.1536
  H  H33  1  0.250500  0.500000  0.938800  1.0  0.1143
  H  H34  1  0.062600  0.500000  0.243500  1.0  0.1091
  H  H35  1  0.274800  0.598600  0.749100  1.0  0.0984
  H  H36  1  0.813400  0.824500  0.598600  1.0  0.1083
  H  H37  1  0.058400  0.000000  0.500000  1.0  0.153
  H  H38  1  0.813400  0.824500  0.401400  1.0  0.1103
  H  H39  1  0.813400  0.598600  0.175500  1.0  0.1115
  H  H40  1  0.250500  0.500000  0.061200  1.0  0.1146
  H  H41  1  0.186600  0.175500  0.401400  1.0  0.1101
  H  H42  1  0.000000  0.943000  0.500000  1.0  0.1358
  H  H43  1  0.274800  0.250900  0.401400  1.0  0.0978
  H  H44  1  0.937400  0.500000  0.243500  1.0  0.1086
  H  H45  1  0.274800  0.401400  0.749100  1.0  0.0981
  H  H46  1  0.058400  0.500000  0.000000  1.0  0.153
  H  H47  1  0.274800  0.250900  0.598600  1.0  0.0975
  H  H48  1  0.725200  0.401400  0.749100  1.0  0.0981
  H  H49  1  0.725200  0.598600  0.749100  1.0  0.0984
  H  H50  1  0.937400  0.500000  0.756500  1.0  0.1093
  H  H51  1  0.062600  0.243500  0.500000  1.0  0.1098
  H  H52  1  0.749500  0.500000  0.938800  1.0  0.1152
  H  H53  1  0.941600  0.000000  0.500000  1.0  0.1536
  H  H54  1  0.725200  0.401400  0.250900  1.0  0.098
  H  H55  1  0.813400  0.175500  0.598600  1.0  0.1084
  H  H56  1  0.274800  0.598600  0.250900  1.0  0.0985
  H  H57  1  0.186600  0.598600  0.824500  1.0  0.1112
  H  H58  1  0.186600  0.401400  0.824500  1.0  0.1097
  H  H59  1  0.725200  0.250900  0.598600  1.0  0.0974
  H  H60  1  0.937400  0.756500  0.500000  1.0  0.1102
  H  H61  1  0.186600  0.401400  0.175500  1.0  0.1104
  H  H62  1  0.250500  0.938800  0.500000  1.0  0.1146
  C  C63  1  0.122100  0.500000  0.117300  1.0  -0.1357
  C  C64  1  0.715400  0.500000  0.256180  1.0  0.0161
  C  C65  1  0.205200  0.441370  0.190100  1.0  -0.1457
  C  C66  1  0.787600  0.500000  0.966800  1.0  -0.1067
  C  C67  1  0.742400  0.558600  0.765100  1.0  -0.0576
  C  C68  1  0.715400  0.743820  0.500000  1.0  0.0162
  C  C69  1  0.787600  0.033200  0.500000  1.0  -0.1061
  C  C70  1  0.820010  0.500000  0.166750  1.0  0.0165
  C  C71  1  0.715400  0.256180  0.500000  1.0  0.0166
  C  C72  1  0.284600  0.500000  0.256180  1.0  0.017
  C  C73  1  0.205200  0.190100  0.558630  1.0  -0.1451
  C  C74  1  0.854000  0.500000  0.948800  1.0  0.1863
  C  C75  1  0.179990  0.500000  0.833250  1.0  0.0173
  C  C76  1  0.205200  0.809900  0.558630  1.0  -0.1452
  C  C77  1  0.820010  0.500000  0.833250  1.0  0.0166
  C  C78  1  0.965700  0.206300  0.500000  1.0  -0.1012
  C  C79  1  0.146000  0.500000  0.948800  1.0  0.1846
  C  C80  1  0.794800  0.190100  0.558630  1.0  -0.1437
  C  C81  1  0.854000  0.948800  0.500000  1.0  0.184
  C  C82  1  0.794800  0.441370  0.190100  1.0  -0.145
  C  C83  1  0.787600  0.500000  0.033200  1.0  -0.1075
  C  C84  1  0.212400  0.500000  0.033200  1.0  -0.1064
  C  C85  1  0.965700  0.500000  0.793700  1.0  -0.1013
  C  C86  1  0.794800  0.809900  0.558630  1.0  -0.1438
  C  C87  1  0.257600  0.765100  0.441400  1.0  -0.0604
  C  C88  1  0.661500  0.500000  0.697800  1.0  0.3151
  C  C89  1  0.212400  0.033200  0.500000  1.0  -0.1056
  C  C90  1  0.257600  0.234900  0.441400  1.0  -0.061
  C  C91  1  0.284600  0.743820  0.500000  1.0  0.0169
  C  C92  1  0.338500  0.697800  0.500000  1.0  0.3163
  C  C93  1  0.205200  0.558630  0.190100  1.0  -0.1432
  C  C94  1  0.945300  0.500000  0.857400  1.0  0.0629
  C  C95  1  0.212400  0.500000  0.966800  1.0  -0.1081
  C  C96  1  0.854000  0.051200  0.500000  1.0  0.1841
  C  C97  1  0.945300  0.857400  0.500000  1.0  0.0623
  C  C98  1  0.146000  0.948800  0.500000  1.0  0.1819
  C  C99  1  0.742400  0.441400  0.765100  1.0  -0.0583
  C  C100  1  0.742400  0.558600  0.234900  1.0  -0.0574
  C  C101  1  0.877900  0.500000  0.882700  1.0  -0.1342
  C  C102  1  0.965700  0.500000  0.206300  1.0  -0.103
  C  C103  1  0.338500  0.500000  0.697800  1.0  0.3165
  C  C104  1  0.146000  0.051200  0.500000  1.0  0.1822
  C  C105  1  0.742400  0.765100  0.558600  1.0  -0.0618
  C  C106  1  0.661500  0.697800  0.500000  1.0  0.3149
  C  C107  1  0.794800  0.558630  0.190100  1.0  -0.1422
  C  C108  1  0.338500  0.500000  0.302200  1.0  0.3164
  C  C109  1  0.212400  0.966800  0.500000  1.0  -0.1076
  C  C110  1  0.054700  0.142600  0.500000  1.0  0.0652
  C  C111  1  0.205200  0.809900  0.441370  1.0  -0.144
  C  C112  1  0.284600  0.500000  0.743820  1.0  0.0168
  C  C113  1  0.054700  0.500000  0.142600  1.0  0.0645
  C  C114  1  0.205200  0.190100  0.441370  1.0  -0.1439
  C  C115  1  0.661500  0.302200  0.500000  1.0  0.3147
  C  C116  1  0.034300  0.500000  0.206300  1.0  -0.1018
  C  C117  1  0.054700  0.500000  0.857400  1.0  0.0641
  C  C118  1  0.122100  0.500000  0.882700  1.0  -0.1357
  C  C119  1  0.661500  0.500000  0.302200  1.0  0.3148
  C  C120  1  0.122100  0.882700  0.500000  1.0  -0.1358
  C  C121  1  0.820010  0.166750  0.500000  1.0  0.0163
  C  C122  1  0.205200  0.441370  0.809900  1.0  -0.1456
  C  C123  1  0.257600  0.441400  0.234900  1.0  -0.0594
  C  C124  1  0.820010  0.833250  0.500000  1.0  0.0164
  C  C125  1  0.742400  0.234900  0.441400  1.0  -0.061
  C  C126  1  0.338500  0.302200  0.500000  1.0  0.3162
  C  C127  1  0.877900  0.882700  0.500000  1.0  -0.1342
  C  C128  1  0.742400  0.234900  0.558600  1.0  -0.063
  C  C129  1  0.034300  0.206300  0.500000  1.0  -0.1008
  C  C130  1  0.965700  0.793700  0.500000  1.0  -0.0999
  C  C131  1  0.877900  0.500000  0.117300  1.0  -0.1342
  C  C132  1  0.945300  0.142600  0.500000  1.0  0.0646
  C  C133  1  0.877900  0.117300  0.500000  1.0  -0.1341
  C  C134  1  0.257600  0.558600  0.765100  1.0  -0.0572
  C  C135  1  0.945300  0.500000  0.142600  1.0  0.0635
  C  C136  1  0.257600  0.441400  0.765100  1.0  -0.0597
  C  C137  1  0.179990  0.500000  0.166750  1.0  0.0173
  C  C138  1  0.715400  0.500000  0.743820  1.0  0.0157
  C  C139  1  0.034300  0.793700  0.500000  1.0  -0.0999
  C  C140  1  0.794800  0.809900  0.441370  1.0  -0.1444
  C  C141  1  0.794800  0.441370  0.809900  1.0  -0.146
  C  C142  1  0.742400  0.765100  0.441400  1.0  -0.0611
  C  C143  1  0.257600  0.558600  0.234900  1.0  -0.0577
  C  C144  1  0.794800  0.190100  0.441370  1.0  -0.1443
  C  C145  1  0.179990  0.833250  0.500000  1.0  0.017
  C  C146  1  0.787600  0.966800  0.500000  1.0  -0.1079
  C  C147  1  0.205200  0.558630  0.809900  1.0  -0.1432
  C  C148  1  0.742400  0.441400  0.234900  1.0  -0.0582
  C  C149  1  0.854000  0.500000  0.051200  1.0  0.1847
  C  C150  1  0.284600  0.256180  0.500000  1.0  0.0172
  C  C151  1  0.054700  0.857400  0.500000  1.0  0.0637
  C  C152  1  0.794800  0.558630  0.809900  1.0  -0.1418
  C  C153  1  0.179990  0.166750  0.500000  1.0  0.0173
  C  C154  1  0.122100  0.117300  0.500000  1.0  -0.1356
  C  C155  1  0.257600  0.234900  0.558600  1.0  -0.0622
  C  C156  1  0.146000  0.500000  0.051200  1.0  0.1826
  C  C157  1  0.257600  0.765100  0.558600  1.0  -0.0623
  C  C158  1  0.034300  0.500000  0.793700  1.0  -0.1009
  N  N159  1  0.423040  0.467320  0.641930  1.0  -0.1103
  N  N160  1  0.371580  0.322290  0.554300  1.0  -0.3286
  N  N161  1  0.576960  0.641930  0.467320  1.0  -0.1076
  N  N162  1  0.371580  0.445700  0.322290  1.0  -0.3241
  N  N163  1  0.576960  0.358070  0.467320  1.0  -0.108
  N  N164  1  0.371580  0.677710  0.554300  1.0  -0.3283
  N  N165  1  0.423040  0.358070  0.532680  1.0  -0.1091
  N  N166  1  0.628420  0.322290  0.445700  1.0  -0.3296
  N  N167  1  0.371580  0.677710  0.445700  1.0  -0.3284
  N  N168  1  0.628420  0.445700  0.677710  1.0  -0.3289
  N  N169  1  0.628420  0.445700  0.322290  1.0  -0.3285
  N  N170  1  0.371580  0.322290  0.445700  1.0  -0.3331
  N  N171  1  0.000000  0.500000  0.900200  1.0  -0.3551
  N  N172  1  0.423040  0.641930  0.467320  1.0  -0.1088
  N  N173  1  0.897400  0.000000  0.500000  1.0  -0.3261
  N  N174  1  0.000000  0.500000  0.099800  1.0  -0.3554
  N  N175  1  0.423040  0.532680  0.358070  1.0  -0.109
  N  N176  1  0.371580  0.554300  0.677710  1.0  -0.3307
  N  N177  1  0.628420  0.322290  0.554300  1.0  -0.3248
  N  N178  1  0.628420  0.554300  0.677710  1.0  -0.3265
  N  N179  1  0.423040  0.358070  0.467320  1.0  -0.1083
  N  N180  1  0.628420  0.677710  0.445700  1.0  -0.3294
  N  N181  1  0.576960  0.532680  0.641930  1.0  -0.1092
  N  N182  1  0.423040  0.467320  0.358070  1.0  -0.1097
  N  N183  1  0.102600  0.000000  0.500000  1.0  -0.33
  N  N184  1  0.628420  0.554300  0.322290  1.0  -0.3266
  N  N185  1  0.628420  0.677710  0.554300  1.0  -0.3242
  N  N186  1  0.576960  0.532680  0.358070  1.0  -0.109
  N  N187  1  0.576960  0.641930  0.532680  1.0  -0.1098
  N  N188  1  0.371580  0.554300  0.322290  1.0  -0.3265
  N  N189  1  0.576960  0.467320  0.358070  1.0  -0.1098
  N  N190  1  0.371580  0.445700  0.677710  1.0  -0.3281
  N  N191  1  0.000000  0.099800  0.500000  1.0  -0.3592
  N  N192  1  0.423040  0.532680  0.641930  1.0  -0.1096
  N  N193  1  0.576960  0.467320  0.641930  1.0  -0.1103
  N  N194  1  0.423040  0.641930  0.532680  1.0  -0.1099
  N  N195  1  0.897400  0.500000  0.000000  1.0  -0.3265
  N  N196  1  0.000000  0.900200  0.500000  1.0  -0.3611
  N  N197  1  0.576960  0.358070  0.532680  1.0  -0.1093
  N  N198  1  0.102600  0.500000  0.000000  1.0  -0.3294
