# generated using pymatgen
data_FeHC4SO2
_symmetry_space_group_name_H-M   'P 1'
_cell_length_a   7.18740000
_cell_length_b   16.08600000
_cell_length_c   16.08600000
_cell_angle_alpha   62.17800000
_cell_angle_beta   81.43460000
_cell_angle_gamma   98.56540000
_symmetry_Int_Tables_number   1
_chemical_formula_structural   FeHC4SO2
_chemical_formula_sum   'Fe6 H6 C24 S6 O12'
_cell_volume   1574.91200914
_cell_formula_units_Z   6
loop_
 _symmetry_equiv_pos_site_id
 _symmetry_equiv_pos_as_xyz
  1  'x, y, z'
loop_
 _atom_site_type_symbol
 _atom_site_label
 _atom_site_symmetry_multiplicity
 _atom_site_fract_x
 _atom_site_fract_y
 _atom_site_fract_z
 _atom_site_occupancy
 _atom_site_charge
  Fe  Fe1  1  0.422580  0.410870  0.331580  1.0  1.0002
  Fe  Fe2  1  0.754160  0.331580  0.257550  1.0  1.0029
  Fe  Fe3  1  0.245840  0.668420  0.742450  1.0  1.0027
  Fe  Fe4  1  0.011710  0.257550  0.410870  1.0  1.003
  Fe  Fe5  1  0.988290  0.742450  0.589130  1.0  1.0004
  Fe  Fe6  1  0.577420  0.589130  0.668420  1.0  1.0027
  H  H7  1  0.735400  0.545000  0.443400  1.0  0.1142
  H  H8  1  0.821200  0.556600  0.988400  1.0  0.1156
  H  H9  1  0.809600  0.988400  0.455000  1.0  0.1153
  H  H10  1  0.264600  0.455000  0.556600  1.0  0.1141
  H  H11  1  0.178800  0.443400  0.011600  1.0  0.1153
  H  H12  1  0.190400  0.011600  0.545000  1.0  0.1164
  C  C13  1  0.800400  0.598600  0.817600  1.0  0.6838
  C  C14  1  0.091900  0.546100  0.545600  1.0  -0.165
  C  C15  1  0.311500  0.467000  0.006700  1.0  -0.0446
  C  C16  1  0.560700  0.488700  0.084300  1.0  -0.0486
  C  C17  1  0.645000  0.084300  0.427000  1.0  -0.0492
  C  C18  1  0.199600  0.401400  0.182400  1.0  0.6815
  C  C19  1  0.439300  0.511300  0.915700  1.0  -0.0541
  C  C20  1  0.844500  0.526300  0.467000  1.0  -0.0443
  C  C21  1  0.454200  0.091700  0.453900  1.0  -0.1644
  C  C22  1  0.201800  0.583800  0.598600  1.0  0.6833
  C  C23  1  0.382000  0.182400  0.416200  1.0  0.6828
  C  C24  1  0.545800  0.908300  0.546100  1.0  -0.1642
  C  C25  1  0.928000  0.573000  0.511300  1.0  -0.0574
  C  C26  1  0.681800  0.993300  0.473700  1.0  -0.0436
  C  C27  1  0.072000  0.427000  0.488700  1.0  -0.0519
  C  C28  1  0.355000  0.915700  0.573000  1.0  -0.0489
  C  C29  1  0.318200  0.006700  0.526300  1.0  -0.0434
  C  C30  1  0.155500  0.473700  0.533000  1.0  -0.0448
  C  C31  1  0.908100  0.453900  0.454400  1.0  -0.1645
  C  C32  1  0.688500  0.533000  0.993300  1.0  -0.0462
  C  C33  1  0.798200  0.416200  0.401400  1.0  0.683
  C  C34  1  0.618000  0.817600  0.583800  1.0  0.6815
  C  C35  1  0.637500  0.545600  0.908300  1.0  -0.1631
  C  C36  1  0.362500  0.454400  0.091700  1.0  -0.1622
  S  S37  1  0.818970  0.664000  0.513290  1.0  -0.2709
  S  S38  1  0.845030  0.177290  0.336000  1.0  -0.2688
  S  S39  1  0.667740  0.486710  0.177290  1.0  -0.2803
  S  S40  1  0.154970  0.822710  0.664000  1.0  -0.2713
  S  S41  1  0.332260  0.513290  0.822710  1.0  -0.278
  S  S42  1  0.181030  0.336000  0.486710  1.0  -0.2681
  O  O43  1  0.798170  0.830040  0.557630  1.0  -0.6061
  O  O44  1  0.230590  0.369290  0.266420  1.0  -0.6594
  O  O45  1  0.497010  0.266420  0.364290  1.0  -0.6609
  O  O46  1  0.861300  0.364290  0.369290  1.0  -0.6611
  O  O47  1  0.031870  0.387670  0.169960  1.0  -0.6059
  O  O48  1  0.968130  0.612330  0.830040  1.0  -0.6067
  O  O49  1  0.769410  0.630710  0.733580  1.0  -0.6623
  O  O50  1  0.138700  0.635710  0.630710  1.0  -0.6605
  O  O51  1  0.502990  0.733580  0.635710  1.0  -0.6606
  O  O52  1  0.644200  0.442370  0.387670  1.0  -0.6058
  O  O53  1  0.201830  0.169960  0.442370  1.0  -0.6053
  O  O54  1  0.355800  0.557630  0.612330  1.0  -0.6066
