# generated using pymatgen
data_Cd4H12C24N10Cl
_symmetry_space_group_name_H-M   'P 1'
_cell_length_a   20.45200000
_cell_length_b   27.84900000
_cell_length_c   27.84900000
_cell_angle_alpha   90.00000000
_cell_angle_beta   90.00000000
_cell_angle_gamma   90.00000000
_symmetry_Int_Tables_number   1
_chemical_formula_structural   Cd4H12C24N10Cl
_chemical_formula_sum   'Cd32 H96 C192 N80 Cl8'
_cell_volume   15861.89221405
_cell_formula_units_Z   8
loop_
 _symmetry_equiv_pos_site_id
 _symmetry_equiv_pos_as_xyz
  1  'x, y, z'
loop_
 _atom_site_type_symbol
 _atom_site_label
 _atom_site_symmetry_multiplicity
 _atom_site_fract_x
 _atom_site_fract_y
 _atom_site_fract_z
 _atom_site_occupancy
 _atom_site_charge
  Cd  Cd1  1  0.124710  0.315090  0.453910  1.0  0.7868
  Cd  Cd2  1  0.500000  0.179690  0.679690  1.0  0.9366
  Cd  Cd3  1  0.124710  0.815090  0.046090  1.0  0.776
  Cd  Cd4  1  0.875290  0.953910  0.815090  1.0  0.7796
  Cd  Cd5  1  0.875290  0.046090  0.184910  1.0  0.7746
  Cd  Cd6  1  0.875290  0.815090  0.046090  1.0  0.7768
  Cd  Cd7  1  0.000000  0.025400  0.096520  1.0  0.7312
  Cd  Cd8  1  0.875290  0.684910  0.546090  1.0  0.7833
  Cd  Cd9  1  0.124710  0.184910  0.953910  1.0  0.7751
  Cd  Cd10  1  0.124710  0.546090  0.315090  1.0  0.7874
  Cd  Cd11  1  0.875290  0.546090  0.315090  1.0  0.7874
  Cd  Cd12  1  0.000000  0.525400  0.403480  1.0  0.7318
  Cd  Cd13  1  0.000000  0.903480  0.025400  1.0  0.735
  Cd  Cd14  1  0.000000  0.596520  0.525400  1.0  0.734
  Cd  Cd15  1  0.875290  0.315090  0.453910  1.0  0.7872
  Cd  Cd16  1  0.500000  0.820310  0.320310  1.0  0.9222
  Cd  Cd17  1  0.500000  0.320310  0.179690  1.0  0.9276
  Cd  Cd18  1  0.875290  0.184910  0.953910  1.0  0.7757
  Cd  Cd19  1  0.000000  0.096520  0.974600  1.0  0.7339
  Cd  Cd20  1  0.875290  0.453910  0.684910  1.0  0.78
  Cd  Cd21  1  0.500000  0.721500  0.778500  1.0  0.8299
  Cd  Cd22  1  0.500000  0.278500  0.221500  1.0  0.8243
  Cd  Cd23  1  0.124710  0.684910  0.546090  1.0  0.7833
  Cd  Cd24  1  0.500000  0.679690  0.820310  1.0  0.9286
  Cd  Cd25  1  0.000000  0.974600  0.903480  1.0  0.7319
  Cd  Cd26  1  0.500000  0.778500  0.278500  1.0  0.831
  Cd  Cd27  1  0.500000  0.221500  0.721500  1.0  0.8235
  Cd  Cd28  1  0.000000  0.403480  0.474600  1.0  0.7352
  Cd  Cd29  1  0.124710  0.046090  0.184910  1.0  0.7738
  Cd  Cd30  1  0.124710  0.953910  0.815090  1.0  0.7791
  Cd  Cd31  1  0.000000  0.474600  0.596520  1.0  0.7313
  Cd  Cd32  1  0.124710  0.453910  0.684910  1.0  0.7797
  H  H33  1  0.676000  0.822100  0.156300  1.0  0.0764
  H  H34  1  0.684100  0.559300  0.740400  1.0  0.0764
  H  H35  1  0.560100  0.588400  0.661800  1.0  0.0695
  H  H36  1  0.224300  0.197800  0.032400  1.0  0.0564
  H  H37  1  0.684100  0.940700  0.240400  1.0  0.0758
  H  H38  1  0.315900  0.440700  0.259600  1.0  0.0764
  H  H39  1  0.743200  0.171400  0.737300  1.0  0.0797
  H  H40  1  0.767600  0.848900  0.113700  1.0  0.0605
  H  H41  1  0.324000  0.343700  0.677900  1.0  0.0751
  H  H42  1  0.224300  0.967600  0.197800  1.0  0.0577
  H  H43  1  0.256800  0.828600  0.262700  1.0  0.0795
  H  H44  1  0.324000  0.843700  0.822100  1.0  0.0756
  H  H45  1  0.560100  0.088400  0.838200  1.0  0.0702
  H  H46  1  0.324000  0.156300  0.177900  1.0  0.0754
  H  H47  1  0.684100  0.240400  0.059300  1.0  0.0749
  H  H48  1  0.315900  0.740400  0.440700  1.0  0.0763
  H  H49  1  0.560100  0.411600  0.338200  1.0  0.0701
  H  H50  1  0.324000  0.677900  0.656300  1.0  0.0766
  H  H51  1  0.743200  0.828600  0.262700  1.0  0.0793
  H  H52  1  0.775700  0.197800  0.032400  1.0  0.0566
  H  H53  1  0.775700  0.802200  0.967600  1.0  0.0565
  H  H54  1  0.676000  0.843700  0.822100  1.0  0.0758
  H  H55  1  0.439900  0.838200  0.911600  1.0  0.0701
  H  H56  1  0.743200  0.762700  0.328600  1.0  0.0799
  H  H57  1  0.315900  0.240400  0.059300  1.0  0.0746
  H  H58  1  0.743200  0.328600  0.237300  1.0  0.0794
  H  H59  1  0.224300  0.532400  0.697800  1.0  0.0574
  H  H60  1  0.767600  0.886300  0.848900  1.0  0.0597
  H  H61  1  0.560100  0.338200  0.588400  1.0  0.0695
  H  H62  1  0.232400  0.386300  0.651100  1.0  0.0601
  H  H63  1  0.256800  0.671400  0.762700  1.0  0.0795
  H  H64  1  0.676000  0.322100  0.343700  1.0  0.0763
  H  H65  1  0.232400  0.848900  0.113700  1.0  0.0606
  H  H66  1  0.775700  0.532400  0.697800  1.0  0.0575
  H  H67  1  0.256800  0.328600  0.237300  1.0  0.0795
  H  H68  1  0.224300  0.032400  0.802200  1.0  0.057
  H  H69  1  0.676000  0.177900  0.843700  1.0  0.0767
  H  H70  1  0.232400  0.151100  0.886300  1.0  0.0611
  H  H71  1  0.315900  0.759600  0.940700  1.0  0.0749
  H  H72  1  0.232400  0.886300  0.848900  1.0  0.06
  H  H73  1  0.684100  0.259600  0.559300  1.0  0.0744
  H  H74  1  0.560100  0.838200  0.911600  1.0  0.07
  H  H75  1  0.224300  0.697800  0.467600  1.0  0.0563
  H  H76  1  0.767600  0.113700  0.151100  1.0  0.0599
  H  H77  1  0.676000  0.156300  0.177900  1.0  0.0753
  H  H78  1  0.439900  0.661800  0.411600  1.0  0.0694
  H  H79  1  0.676000  0.343700  0.677900  1.0  0.075
  H  H80  1  0.767600  0.651100  0.613700  1.0  0.0606
  H  H81  1  0.232400  0.651100  0.613700  1.0  0.0608
  H  H82  1  0.232400  0.348900  0.386300  1.0  0.0611
  H  H83  1  0.684100  0.440700  0.259600  1.0  0.0766
  H  H84  1  0.315900  0.059300  0.759600  1.0  0.0747
  H  H85  1  0.324000  0.656300  0.322100  1.0  0.0756
  H  H86  1  0.439900  0.911600  0.161800  1.0  0.0692
  H  H87  1  0.676000  0.656300  0.322100  1.0  0.0756
  H  H88  1  0.775700  0.032400  0.802200  1.0  0.0573
  H  H89  1  0.775700  0.467600  0.302200  1.0  0.0578
  H  H90  1  0.439900  0.338200  0.588400  1.0  0.0696
  H  H91  1  0.767600  0.348900  0.386300  1.0  0.0609
  H  H92  1  0.256800  0.237300  0.671400  1.0  0.0802
  H  H93  1  0.560100  0.161800  0.088400  1.0  0.0696
  H  H94  1  0.232400  0.113700  0.151100  1.0  0.06
  H  H95  1  0.256800  0.762700  0.328600  1.0  0.0799
  H  H96  1  0.315900  0.940700  0.240400  1.0  0.0758
  H  H97  1  0.324000  0.822100  0.156300  1.0  0.0763
  H  H98  1  0.324000  0.177900  0.843700  1.0  0.0765
  H  H99  1  0.324000  0.322100  0.343700  1.0  0.0764
  H  H100  1  0.224300  0.802200  0.967600  1.0  0.0565
  H  H101  1  0.743200  0.237300  0.671400  1.0  0.08
  H  H102  1  0.439900  0.588400  0.661800  1.0  0.0691
  H  H103  1  0.232400  0.613700  0.348900  1.0  0.0597
  H  H104  1  0.743200  0.737300  0.828600  1.0  0.0799
  H  H105  1  0.560100  0.661800  0.411600  1.0  0.07
  H  H106  1  0.315900  0.559300  0.740400  1.0  0.0766
  H  H107  1  0.775700  0.697800  0.467600  1.0  0.0564
  H  H108  1  0.775700  0.302200  0.532400  1.0  0.0565
  H  H109  1  0.684100  0.059300  0.759600  1.0  0.0745
  H  H110  1  0.224300  0.302200  0.532400  1.0  0.0564
  H  H111  1  0.775700  0.967600  0.197800  1.0  0.0577
  H  H112  1  0.439900  0.088400  0.838200  1.0  0.0695
  H  H113  1  0.224300  0.467600  0.302200  1.0  0.0577
  H  H114  1  0.684100  0.740400  0.440700  1.0  0.0763
  H  H115  1  0.743200  0.262700  0.171400  1.0  0.0799
  H  H116  1  0.560100  0.911600  0.161800  1.0  0.0693
  H  H117  1  0.256800  0.737300  0.828600  1.0  0.08
  H  H118  1  0.315900  0.259600  0.559300  1.0  0.0746
  H  H119  1  0.256800  0.171400  0.737300  1.0  0.0795
  H  H120  1  0.439900  0.411600  0.338200  1.0  0.0696
  H  H121  1  0.767600  0.151100  0.886300  1.0  0.0609
  H  H122  1  0.676000  0.677900  0.656300  1.0  0.0771
  H  H123  1  0.767600  0.386300  0.651100  1.0  0.0598
  H  H124  1  0.684100  0.759600  0.940700  1.0  0.0747
  H  H125  1  0.439900  0.161800  0.088400  1.0  0.0691
  H  H126  1  0.767600  0.613700  0.348900  1.0  0.0596
  H  H127  1  0.743200  0.671400  0.762700  1.0  0.0795
  H  H128  1  0.256800  0.262700  0.171400  1.0  0.0799
  C  C129  1  0.303800  0.351600  0.335300  1.0  -0.1905
  C  C130  1  0.701000  0.922100  0.214700  1.0  -0.1664
  C  C131  1  0.750600  0.132400  0.860600  1.0  -0.1077
  C  C132  1  0.381000  0.765400  0.858500  1.0  -0.0938
  C  C133  1  0.750600  0.360600  0.632400  1.0  -0.1068
  C  C134  1  0.357400  0.825900  0.269300  1.0  0.1287
  C  C135  1  0.299000  0.714700  0.422100  1.0  -0.1654
  C  C136  1  0.219800  0.910800  0.151700  1.0  -0.0805
  C  C137  1  0.299000  0.785300  0.922100  1.0  -0.1666
  C  C138  1  0.244600  0.438000  0.310600  1.0  -0.0889
  C  C139  1  0.158900  0.125700  0.073360  1.0  0.4519
  C  C140  1  0.706000  0.722100  0.814900  1.0  -0.1787
  C  C141  1  0.158900  0.625700  0.426640  1.0  0.4518
  C  C142  1  0.249400  0.639400  0.367600  1.0  -0.1066
  C  C143  1  0.294000  0.185100  0.722100  1.0  -0.1791
  C  C144  1  0.219800  0.410800  0.348300  1.0  -0.0801
  C  C145  1  0.294000  0.685100  0.777900  1.0  -0.1786
  C  C146  1  0.467010  0.315100  0.603600  1.0  -0.1267
  C  C147  1  0.701000  0.285300  0.577900  1.0  -0.1658
  C  C148  1  0.619000  0.734600  0.358500  1.0  -0.0933
  C  C149  1  0.619000  0.141500  0.765400  1.0  -0.0917
  C  C150  1  0.696200  0.148400  0.835300  1.0  -0.1908
  C  C151  1  0.445900  0.871200  0.223400  1.0  0.1386
  C  C152  1  0.219800  0.651700  0.410800  1.0  -0.079
  C  C153  1  0.554100  0.128800  0.776600  1.0  0.1369
  C  C154  1  0.619000  0.265400  0.641500  1.0  -0.0936
  C  C155  1  0.750600  0.367600  0.360600  1.0  -0.1073
  C  C156  1  0.750600  0.632400  0.639400  1.0  -0.1075
  C  C157  1  0.445900  0.723400  0.371200  1.0  0.139
  C  C158  1  0.554100  0.723400  0.371200  1.0  0.1371
  C  C159  1  0.244600  0.689400  0.438000  1.0  -0.091
  C  C160  1  0.642600  0.230700  0.674100  1.0  0.1298
  C  C161  1  0.303800  0.851600  0.164700  1.0  -0.1934
  C  C162  1  0.445900  0.128800  0.776600  1.0  0.1393
  C  C163  1  0.696200  0.335300  0.648400  1.0  -0.1931
  C  C164  1  0.780200  0.848300  0.910800  1.0  -0.079
  C  C165  1  0.696200  0.164700  0.148400  1.0  -0.1929
  C  C166  1  0.671400  0.797600  0.878900  1.0  -0.0034
  C  C167  1  0.750600  0.139400  0.132400  1.0  -0.1063
  C  C168  1  0.244600  0.189400  0.062000  1.0  -0.088
  C  C169  1  0.619000  0.641500  0.734600  1.0  -0.0922
  C  C170  1  0.467010  0.103600  0.815100  1.0  -0.1259
  C  C171  1  0.303800  0.648400  0.664700  1.0  -0.1903
  C  C172  1  0.219800  0.089200  0.848300  1.0  -0.0805
  C  C173  1  0.328600  0.797600  0.878900  1.0  -0.0033
  C  C174  1  0.755400  0.189400  0.062000  1.0  -0.091
  C  C175  1  0.328600  0.702400  0.378900  1.0  -0.0033
  C  C176  1  0.532990  0.896400  0.184900  1.0  -0.1248
  C  C177  1  0.619000  0.358500  0.265400  1.0  -0.0918
  C  C178  1  0.328600  0.378900  0.297600  1.0  -0.0037
  C  C179  1  0.219800  0.151700  0.089200  1.0  -0.0795
  C  C180  1  0.249400  0.367600  0.360600  1.0  -0.1064
  C  C181  1  0.671400  0.378900  0.297600  1.0  -0.0037
  C  C182  1  0.755400  0.689400  0.438000  1.0  -0.0915
  C  C183  1  0.328600  0.297600  0.621100  1.0  -0.0035
  C  C184  1  0.249400  0.360600  0.632400  1.0  -0.1069
  C  C185  1  0.671400  0.702400  0.378900  1.0  -0.0039
  C  C186  1  0.841100  0.426640  0.374300  1.0  0.4542
  C  C187  1  0.445900  0.223400  0.128800  1.0  0.1382
  C  C188  1  0.467010  0.396400  0.315100  1.0  -0.1259
  C  C189  1  0.445900  0.776600  0.871200  1.0  0.1377
  C  C190  1  0.706000  0.685100  0.777900  1.0  -0.179
  C  C191  1  0.381000  0.858500  0.234600  1.0  -0.0921
  C  C192  1  0.780200  0.348300  0.589200  1.0  -0.079
  C  C193  1  0.294000  0.222100  0.685100  1.0  -0.178
  C  C194  1  0.445900  0.371200  0.276600  1.0  0.1388
  C  C195  1  0.671400  0.121100  0.797600  1.0  -0.004
  C  C196  1  0.696200  0.835300  0.851600  1.0  -0.1921
  C  C197  1  0.158900  0.926640  0.125700  1.0  0.4518
  C  C198  1  0.219800  0.348300  0.589200  1.0  -0.0788
  C  C199  1  0.467010  0.684900  0.396400  1.0  -0.1275
  C  C200  1  0.696200  0.648400  0.664700  1.0  -0.1915
  C  C201  1  0.328600  0.121100  0.797600  1.0  -0.0035
  C  C202  1  0.554100  0.871200  0.223400  1.0  0.1385
  C  C203  1  0.642600  0.825900  0.269300  1.0  0.1317
  C  C204  1  0.554100  0.371200  0.276600  1.0  0.1371
  C  C205  1  0.706000  0.185100  0.722100  1.0  -0.1786
  C  C206  1  0.841100  0.073360  0.874300  1.0  0.4543
  C  C207  1  0.701000  0.214700  0.077900  1.0  -0.1645
  C  C208  1  0.532990  0.315100  0.603600  1.0  -0.1262
  C  C209  1  0.381000  0.234600  0.141500  1.0  -0.093
  C  C210  1  0.381000  0.358500  0.265400  1.0  -0.0917
  C  C211  1  0.706000  0.314900  0.222100  1.0  -0.1786
  C  C212  1  0.671400  0.202400  0.121100  1.0  -0.0039
  C  C213  1  0.445900  0.276600  0.628800  1.0  0.1406
  C  C214  1  0.303800  0.835300  0.851600  1.0  -0.1917
  C  C215  1  0.701000  0.577900  0.714700  1.0  -0.1663
  C  C216  1  0.841100  0.874300  0.926640  1.0  0.454
  C  C217  1  0.841100  0.926640  0.125700  1.0  0.4542
  C  C218  1  0.381000  0.641500  0.734600  1.0  -0.092
  C  C219  1  0.328600  0.202400  0.121100  1.0  -0.0035
  C  C220  1  0.357400  0.674100  0.769300  1.0  0.1308
  C  C221  1  0.532990  0.103600  0.815100  1.0  -0.1248
  C  C222  1  0.357400  0.269300  0.174100  1.0  0.1312
  C  C223  1  0.554100  0.776600  0.871200  1.0  0.1379
  C  C224  1  0.467010  0.815100  0.896400  1.0  -0.1271
  C  C225  1  0.642600  0.325900  0.230700  1.0  0.1302
  C  C226  1  0.303800  0.148400  0.835300  1.0  -0.1898
  C  C227  1  0.554100  0.223400  0.128800  1.0  0.1391
  C  C228  1  0.701000  0.422100  0.285300  1.0  -0.1674
  C  C229  1  0.158900  0.073360  0.874300  1.0  0.4518
  C  C230  1  0.244600  0.938000  0.189400  1.0  -0.0895
  C  C231  1  0.445900  0.628800  0.723400  1.0  0.1386
  C  C232  1  0.642600  0.674100  0.769300  1.0  0.1287
  C  C233  1  0.701000  0.077900  0.785300  1.0  -0.1671
  C  C234  1  0.755400  0.810600  0.938000  1.0  -0.091
  C  C235  1  0.532990  0.684900  0.396400  1.0  -0.1267
  C  C236  1  0.642600  0.174100  0.730700  1.0  0.1314
  C  C237  1  0.532990  0.184900  0.103600  1.0  -0.127
  C  C238  1  0.381000  0.141500  0.765400  1.0  -0.0914
  C  C239  1  0.244600  0.562000  0.689400  1.0  -0.0892
  C  C240  1  0.357400  0.730700  0.825900  1.0  0.1294
  C  C241  1  0.357400  0.230700  0.674100  1.0  0.1301
  C  C242  1  0.249400  0.632400  0.639400  1.0  -0.1057
  C  C243  1  0.158900  0.874300  0.926640  1.0  0.4518
  C  C244  1  0.780200  0.651700  0.410800  1.0  -0.0794
  C  C245  1  0.706000  0.814900  0.277900  1.0  -0.1794
  C  C246  1  0.357400  0.769300  0.325900  1.0  0.132
  C  C247  1  0.696200  0.351600  0.335300  1.0  -0.1906
  C  C248  1  0.294000  0.277900  0.185100  1.0  -0.1791
  C  C249  1  0.755400  0.310600  0.562000  1.0  -0.0893
  C  C250  1  0.303800  0.335300  0.648400  1.0  -0.1909
  C  C251  1  0.532990  0.603600  0.684900  1.0  -0.1246
  C  C252  1  0.780200  0.410800  0.348300  1.0  -0.0804
  C  C253  1  0.554100  0.276600  0.628800  1.0  0.1382
  C  C254  1  0.750600  0.867600  0.139400  1.0  -0.1072
  C  C255  1  0.467010  0.603600  0.684900  1.0  -0.1255
  C  C256  1  0.299000  0.922100  0.214700  1.0  -0.1659
  C  C257  1  0.696200  0.851600  0.164700  1.0  -0.1916
  C  C258  1  0.619000  0.234600  0.141500  1.0  -0.093
  C  C259  1  0.701000  0.714700  0.422100  1.0  -0.1677
  C  C260  1  0.841100  0.573360  0.625700  1.0  0.4542
  C  C261  1  0.701000  0.785300  0.922100  1.0  -0.1672
  C  C262  1  0.706000  0.277900  0.185100  1.0  -0.1789
  C  C263  1  0.381000  0.265400  0.641500  1.0  -0.0934
  C  C264  1  0.841100  0.625700  0.426640  1.0  0.4542
  C  C265  1  0.467010  0.896400  0.184900  1.0  -0.1247
  C  C266  1  0.249400  0.139400  0.132400  1.0  -0.1064
  C  C267  1  0.532990  0.815100  0.896400  1.0  -0.1263
  C  C268  1  0.750600  0.639400  0.367600  1.0  -0.1082
  C  C269  1  0.696200  0.664700  0.351600  1.0  -0.1928
  C  C270  1  0.642600  0.730700  0.825900  1.0  0.133
  C  C271  1  0.299000  0.422100  0.285300  1.0  -0.1665
  C  C272  1  0.244600  0.062000  0.810600  1.0  -0.0898
  C  C273  1  0.299000  0.077900  0.785300  1.0  -0.1662
  C  C274  1  0.249400  0.867600  0.139400  1.0  -0.1066
  C  C275  1  0.249400  0.860600  0.867600  1.0  -0.1075
  C  C276  1  0.671400  0.297600  0.621100  1.0  -0.0034
  C  C277  1  0.357400  0.325900  0.230700  1.0  0.1304
  C  C278  1  0.294000  0.722100  0.814900  1.0  -0.1785
  C  C279  1  0.554100  0.628800  0.723400  1.0  0.139
  C  C280  1  0.642600  0.269300  0.174100  1.0  0.1295
  C  C281  1  0.706000  0.222100  0.685100  1.0  -0.1792
  C  C282  1  0.244600  0.310600  0.562000  1.0  -0.0887
  C  C283  1  0.381000  0.734600  0.358500  1.0  -0.0933
  C  C284  1  0.642600  0.769300  0.325900  1.0  0.1299
  C  C285  1  0.158900  0.573360  0.625700  1.0  0.4518
  C  C286  1  0.219800  0.589200  0.651700  1.0  -0.0813
  C  C287  1  0.780200  0.910800  0.151700  1.0  -0.0809
  C  C288  1  0.619000  0.765400  0.858500  1.0  -0.094
  C  C289  1  0.219800  0.848300  0.910800  1.0  -0.0786
  C  C290  1  0.755400  0.062000  0.810600  1.0  -0.092
  C  C291  1  0.357400  0.174100  0.730700  1.0  0.1318
  C  C292  1  0.619000  0.858500  0.234600  1.0  -0.0922
  C  C293  1  0.841100  0.374300  0.573360  1.0  0.4539
  C  C294  1  0.299000  0.214700  0.077900  1.0  -0.1638
  C  C295  1  0.303800  0.164700  0.148400  1.0  -0.1911
  C  C296  1  0.158900  0.374300  0.573360  1.0  0.4516
  C  C297  1  0.299000  0.577900  0.714700  1.0  -0.1647
  C  C298  1  0.532990  0.396400  0.315100  1.0  -0.1244
  C  C299  1  0.780200  0.589200  0.651700  1.0  -0.0817
  C  C300  1  0.328600  0.878900  0.202400  1.0  -0.0036
  C  C301  1  0.158900  0.426640  0.374300  1.0  0.4518
  C  C302  1  0.755400  0.562000  0.689400  1.0  -0.0902
  C  C303  1  0.299000  0.285300  0.577900  1.0  -0.1653
  C  C304  1  0.750600  0.860600  0.867600  1.0  -0.1081
  C  C305  1  0.294000  0.777900  0.314900  1.0  -0.1791
  C  C306  1  0.706000  0.777900  0.314900  1.0  -0.1779
  C  C307  1  0.671400  0.878900  0.202400  1.0  -0.0034
  C  C308  1  0.249400  0.132400  0.860600  1.0  -0.108
  C  C309  1  0.294000  0.314900  0.222100  1.0  -0.1788
  C  C310  1  0.755400  0.938000  0.189400  1.0  -0.089
  C  C311  1  0.755400  0.438000  0.310600  1.0  -0.089
  C  C312  1  0.244600  0.810600  0.938000  1.0  -0.0903
  C  C313  1  0.841100  0.125700  0.073360  1.0  0.4542
  C  C314  1  0.780200  0.089200  0.848300  1.0  -0.0807
  C  C315  1  0.328600  0.621100  0.702400  1.0  -0.0033
  C  C316  1  0.467010  0.184900  0.103600  1.0  -0.127
  C  C317  1  0.780200  0.151700  0.089200  1.0  -0.0799
  C  C318  1  0.294000  0.814900  0.277900  1.0  -0.1782
  C  C319  1  0.671400  0.621100  0.702400  1.0  -0.0037
  C  C320  1  0.303800  0.664700  0.351600  1.0  -0.193
  N  N321  1  0.130700  0.899800  0.093700  1.0  -0.3447
  N  N322  1  0.079200  0.395600  0.532500  1.0  -0.1511
  N  N323  1  0.396500  0.695200  0.804800  1.0  -0.3509
  N  N324  1  0.920800  0.467500  0.395600  1.0  -0.1493
  N  N325  1  0.500000  0.354400  0.250500  1.0  -0.4106
  N  N326  1  0.868700  0.032300  0.865800  1.0  -0.3991
  N  N327  1  0.131300  0.134200  0.032300  1.0  -0.399
  N  N328  1  0.869300  0.093700  0.100200  1.0  -0.344
  N  N329  1  0.131300  0.634200  0.467700  1.0  -0.3989
  N  N330  1  0.079200  0.604400  0.467500  1.0  -0.1519
  N  N331  1  0.130700  0.406300  0.600200  1.0  -0.3426
  N  N332  1  0.500000  0.749500  0.354400  1.0  -0.4095
  N  N333  1  0.868700  0.634200  0.467700  1.0  -0.3981
  N  N334  1  0.080000  0.574800  0.579000  1.0  -0.159
  N  N335  1  0.500000  0.854400  0.249500  1.0  -0.4147
  N  N336  1  0.079200  0.104400  0.032500  1.0  -0.1516
  N  N337  1  0.500000  0.145600  0.750500  1.0  -0.4095
  N  N338  1  0.868700  0.365800  0.532300  1.0  -0.39
  N  N339  1  0.396500  0.195200  0.695200  1.0  -0.3508
  N  N340  1  0.079200  0.467500  0.395600  1.0  -0.1501
  N  N341  1  0.603500  0.195200  0.695200  1.0  -0.3491
  N  N342  1  0.920000  0.079000  0.074800  1.0  -0.1569
  N  N343  1  0.920000  0.425200  0.421000  1.0  -0.1583
  N  N344  1  0.396500  0.804800  0.304800  1.0  -0.3489
  N  N345  1  0.500000  0.645600  0.749500  1.0  -0.4134
  N  N346  1  0.869300  0.399800  0.406300  1.0  -0.3426
  N  N347  1  0.080000  0.421000  0.574800  1.0  -0.1574
  N  N348  1  0.920000  0.925200  0.079000  1.0  -0.1593
  N  N349  1  0.396500  0.304800  0.195200  1.0  -0.3489
  N  N350  1  0.869300  0.593700  0.399800  1.0  -0.3454
  N  N351  1  0.920800  0.104400  0.032500  1.0  -0.1509
  N  N352  1  0.500000  0.249500  0.145600  1.0  -0.4098
  N  N353  1  0.080000  0.074800  0.921000  1.0  -0.1588
  N  N354  1  0.131300  0.365800  0.532300  1.0  -0.3941
  N  N355  1  0.920800  0.967500  0.104400  1.0  -0.1491
  N  N356  1  0.920000  0.574800  0.579000  1.0  -0.1588
  N  N357  1  0.131300  0.967700  0.134200  1.0  -0.4002
  N  N358  1  0.920800  0.895600  0.967500  1.0  -0.1501
  N  N359  1  0.131300  0.865800  0.967700  1.0  -0.3972
  N  N360  1  0.080000  0.425200  0.421000  1.0  -0.1591
  N  N361  1  0.868700  0.865800  0.967700  1.0  -0.3975
  N  N362  1  0.130700  0.399800  0.406300  1.0  -0.3405
  N  N363  1  0.869300  0.600200  0.593700  1.0  -0.3447
  N  N364  1  0.869300  0.906300  0.899800  1.0  -0.3449
  N  N365  1  0.920800  0.532500  0.604400  1.0  -0.1487
  N  N366  1  0.131300  0.032300  0.865800  1.0  -0.3923
  N  N367  1  0.080000  0.925200  0.079000  1.0  -0.1596
  N  N368  1  0.079200  0.532500  0.604400  1.0  -0.1502
  N  N369  1  0.079200  0.895600  0.967500  1.0  -0.1518
  N  N370  1  0.920000  0.421000  0.574800  1.0  -0.1573
  N  N371  1  0.079200  0.967500  0.104400  1.0  -0.1499
  N  N372  1  0.130700  0.600200  0.593700  1.0  -0.345
  N  N373  1  0.920000  0.074800  0.921000  1.0  -0.158
  N  N374  1  0.920000  0.579000  0.425200  1.0  -0.1571
  N  N375  1  0.869300  0.899800  0.093700  1.0  -0.3443
  N  N376  1  0.920800  0.032500  0.895600  1.0  -0.1489
  N  N377  1  0.920800  0.604400  0.467500  1.0  -0.1505
  N  N378  1  0.920000  0.921000  0.925200  1.0  -0.158
  N  N379  1  0.500000  0.750500  0.854400  1.0  -0.4112
  N  N380  1  0.130700  0.593700  0.399800  1.0  -0.3484
  N  N381  1  0.130700  0.100200  0.906300  1.0  -0.345
  N  N382  1  0.130700  0.906300  0.899800  1.0  -0.3481
  N  N383  1  0.603500  0.304800  0.195200  1.0  -0.3484
  N  N384  1  0.130700  0.093700  0.100200  1.0  -0.346
  N  N385  1  0.131300  0.467700  0.365800  1.0  -0.3932
  N  N386  1  0.868700  0.134200  0.032300  1.0  -0.399
  N  N387  1  0.868700  0.532300  0.634200  1.0  -0.3981
  N  N388  1  0.079200  0.032500  0.895600  1.0  -0.1504
  N  N389  1  0.868700  0.467700  0.365800  1.0  -0.4004
  N  N390  1  0.920800  0.395600  0.532500  1.0  -0.1503
  N  N391  1  0.131300  0.532300  0.634200  1.0  -0.3916
  N  N392  1  0.500000  0.250500  0.645600  1.0  -0.4121
  N  N393  1  0.869300  0.406300  0.600200  1.0  -0.3456
  N  N394  1  0.080000  0.579000  0.425200  1.0  -0.1578
  N  N395  1  0.603500  0.804800  0.304800  1.0  -0.3483
  N  N396  1  0.869300  0.100200  0.906300  1.0  -0.346
  N  N397  1  0.603500  0.695200  0.804800  1.0  -0.3486
  N  N398  1  0.868700  0.967700  0.134200  1.0  -0.3994
  N  N399  1  0.080000  0.921000  0.925200  1.0  -0.1579
  N  N400  1  0.080000  0.079000  0.074800  1.0  -0.1575
  Cl  Cl401  1  0.000000  0.951200  0.817810  1.0  -0.5194
  Cl  Cl402  1  0.000000  0.048800  0.182190  1.0  -0.5202
  Cl  Cl403  1  0.000000  0.548800  0.317810  1.0  -0.5213
  Cl  Cl404  1  0.000000  0.817810  0.048800  1.0  -0.5192
  Cl  Cl405  1  0.000000  0.451200  0.682190  1.0  -0.5211
  Cl  Cl406  1  0.000000  0.317810  0.451200  1.0  -0.52
  Cl  Cl407  1  0.000000  0.182190  0.951200  1.0  -0.5195
  Cl  Cl408  1  0.000000  0.682190  0.548800  1.0  -0.5194
