# generated using pymatgen
data_Li2Zr(CO2)8
_symmetry_space_group_name_H-M   'P 1'
_cell_length_a   8.42080000
_cell_length_b   8.49330000
_cell_length_c   16.31640000
_cell_angle_alpha   89.15200000
_cell_angle_beta   78.18500000
_cell_angle_gamma   70.29500000
_symmetry_Int_Tables_number   1
_chemical_formula_structural   Li2Zr(CO2)8
_chemical_formula_sum   'Li4 Zr2 C16 O32'
_cell_volume   1073.47970771
_cell_formula_units_Z   2
loop_
 _symmetry_equiv_pos_site_id
 _symmetry_equiv_pos_as_xyz
  1  'x, y, z'
loop_
 _atom_site_type_symbol
 _atom_site_label
 _atom_site_symmetry_multiplicity
 _atom_site_fract_x
 _atom_site_fract_y
 _atom_site_fract_z
 _atom_site_occupancy
 _atom_site_charge
  Li  Li1  1  0.516700  0.770300  0.627400  1.0  0.9879
  Li  Li2  1  0.163800  0.826900  0.683500  1.0  0.9553
  Li  Li3  1  0.846000  0.793600  0.623000  1.0  0.9534
  Li  Li4  1  0.516100  0.806500  0.150700  1.0  0.9395
  Zr  Zr5  1  0.399200  0.270700  0.415000  1.0  2.0277
  Zr  Zr6  1  0.623000  0.343200  0.887600  1.0  2.0084
  C  C7  1  0.368300  0.177500  0.981900  1.0  0.6374
  C  C8  1  0.657500  0.438800  0.326000  1.0  0.6164
  C  C9  1  0.535100  0.039000  0.549700  1.0  0.6407
  C  C10  1  0.476800  0.623900  0.024300  1.0  0.5719
  C  C11  1  0.967300  0.066000  0.808900  1.0  0.5541
  C  C12  1  0.835900  0.048300  0.759800  1.0  0.5819
  C  C13  1  0.673400  0.569900  0.016900  1.0  0.5801
  C  C14  1  0.050600  0.545900  0.492600  1.0  0.5826
  C  C15  1  0.347700  0.043400  0.559000  1.0  0.5958
  C  C16  1  0.353800  0.041600  0.285900  1.0  0.5631
  C  C17  1  0.476700  0.574000  0.753700  1.0  0.6258
  C  C18  1  0.504600  0.498200  0.280900  1.0  0.5928
  C  C19  1  0.550000  0.989400  0.279400  1.0  0.5714
  C  C20  1  0.180800  0.575600  0.539000  1.0  0.5934
  C  C21  1  0.661800  0.576200  0.744200  1.0  0.5996
  C  C22  1  0.525100  0.115200  0.024000  1.0  0.5965
  O  O23  1  0.291100  0.956700  0.611300  1.0  -0.6848
  O  O24  1  0.576300  0.139000  0.496800  1.0  -0.53
  O  O25  1  0.115900  0.425300  0.435800  1.0  -0.5295
  O  O26  1  0.498800  0.593500  0.223700  1.0  -0.617
  O  O27  1  0.896200  0.637900  0.512600  1.0  -0.4854
  O  O28  1  0.626700  0.356200  0.391900  1.0  -0.5301
  O  O29  1  0.384300  0.433800  0.311700  1.0  -0.5347
  O  O30  1  0.265600  0.142100  0.509500  1.0  -0.5512
  O  O31  1  0.338000  0.479400  0.511900  1.0  -0.5458
  O  O32  1  0.295600  0.969200  0.240600  1.0  -0.5011
  O  O33  1  0.791600  0.469000  0.300400  1.0  -0.371
  O  O34  1  0.902900  0.187200  0.866200  1.0  -0.5157
  O  O35  1  0.265700  0.163200  0.342000  1.0  -0.5262
  O  O36  1  0.643400  0.180700  0.991800  1.0  -0.5382
  O  O37  1  0.118700  0.968500  0.791200  1.0  -0.4859
  O  O38  1  0.650800  0.878200  0.227200  1.0  -0.4747
  O  O39  1  0.682900  0.153500  0.783100  1.0  -0.5292
  O  O40  1  0.124100  0.686700  0.596900  1.0  -0.6588
  O  O41  1  0.733000  0.641100  0.062200  1.0  -0.4782
  O  O42  1  0.591600  0.073200  0.332500  1.0  -0.5262
  O  O43  1  0.745600  0.485700  0.795400  1.0  -0.5527
  O  O44  1  0.629500  0.943200  0.592400  1.0  -0.6856
  O  O45  1  0.890500  0.935500  0.702200  1.0  -0.6483
  O  O46  1  0.437000  0.478500  0.809200  1.0  -0.5344
  O  O47  1  0.714600  0.661900  0.689600  1.0  -0.6661
  O  O48  1  0.382900  0.661400  0.707900  1.0  -0.674
  O  O49  1  0.232500  0.152700  0.011500  1.0  -0.3768
  O  O50  1  0.397600  0.256900  0.914900  1.0  -0.5212
  O  O51  1  0.432800  0.542700  0.971300  1.0  -0.5224
  O  O52  1  0.377600  0.734500  0.077500  1.0  -0.4763
  O  O53  1  0.759800  0.448500  0.960700  1.0  -0.502
  O  O54  1  0.535400  0.017600  0.080300  1.0  -0.6024
