# generated using pymatgen
data_Cd3H13C24N10Cl
_symmetry_space_group_name_H-M   'P 1'
_cell_length_a   20.60000000
_cell_length_b   27.80900000
_cell_length_c   27.80900000
_cell_angle_alpha   90.00000000
_cell_angle_beta   90.00000000
_cell_angle_gamma   90.00000000
_symmetry_Int_Tables_number   1
_chemical_formula_structural   Cd3H13C24N10Cl
_chemical_formula_sum   'Cd24 H104 C192 N80 Cl8'
_cell_volume   15930.81390860
_cell_formula_units_Z   8
loop_
 _symmetry_equiv_pos_site_id
 _symmetry_equiv_pos_as_xyz
  1  'x, y, z'
loop_
 _atom_site_type_symbol
 _atom_site_label
 _atom_site_symmetry_multiplicity
 _atom_site_fract_x
 _atom_site_fract_y
 _atom_site_fract_z
 _atom_site_occupancy
 _atom_site_charge
  Cd  Cd1  1  0.500000  0.016840  0.098870  1.0  0.7825
  Cd  Cd2  1  0.623780  0.531100  0.312530  1.0  0.8139
  Cd  Cd3  1  0.500000  0.598870  0.516840  1.0  0.7858
  Cd  Cd4  1  0.623780  0.312530  0.468900  1.0  0.8146
  Cd  Cd5  1  0.623780  0.187470  0.968900  1.0  0.8045
  Cd  Cd6  1  0.376220  0.812530  0.031100  1.0  0.8046
  Cd  Cd7  1  0.376220  0.968900  0.812530  1.0  0.806
  Cd  Cd8  1  0.376220  0.468900  0.687470  1.0  0.8103
  Cd  Cd9  1  0.376220  0.687470  0.531100  1.0  0.8171
  Cd  Cd10  1  0.500000  0.901130  0.016840  1.0  0.7873
  Cd  Cd11  1  0.623780  0.687470  0.531100  1.0  0.8163
  Cd  Cd12  1  0.376220  0.312530  0.468900  1.0  0.8154
  Cd  Cd13  1  0.623780  0.031100  0.187470  1.0  0.8002
  Cd  Cd14  1  0.500000  0.098870  0.983160  1.0  0.7862
  Cd  Cd15  1  0.623780  0.968900  0.812530  1.0  0.805
  Cd  Cd16  1  0.623780  0.812530  0.031100  1.0  0.8038
  Cd  Cd17  1  0.500000  0.983160  0.901130  1.0  0.7825
  Cd  Cd18  1  0.376220  0.031100  0.187470  1.0  0.8012
  Cd  Cd19  1  0.500000  0.401130  0.483160  1.0  0.7879
  Cd  Cd20  1  0.376220  0.187470  0.968900  1.0  0.8055
  Cd  Cd21  1  0.500000  0.516840  0.401130  1.0  0.7823
  Cd  Cd22  1  0.623780  0.468900  0.687470  1.0  0.8093
  Cd  Cd23  1  0.376220  0.531100  0.312530  1.0  0.8146
  Cd  Cd24  1  0.500000  0.483160  0.598870  1.0  0.7826
  H  H25  1  0.190100  0.738100  0.418500  1.0  0.0985
  H  H26  1  0.282700  0.199700  0.051600  1.0  0.0815
  H  H27  1  0.809900  0.261900  0.581500  1.0  0.0977
  H  H28  1  0.717300  0.300300  0.551600  1.0  0.0818
  H  H29  1  0.940100  0.347000  0.593400  1.0  0.0908
  H  H30  1  0.809900  0.918500  0.238100  1.0  0.0968
  H  H31  1  0.282700  0.051600  0.800300  1.0  0.081
  H  H32  1  0.059900  0.593400  0.653000  1.0  0.0909
  H  H33  1  0.282700  0.699700  0.448400  1.0  0.0817
  H  H34  1  0.831600  0.367500  0.680600  1.0  0.1003
  H  H35  1  0.168400  0.680600  0.632500  1.0  0.1007
  H  H36  1  0.241300  0.811300  0.250000  1.0  0.0928
  H  H37  1  0.831600  0.632500  0.319400  1.0  0.1
  H  H38  1  0.717300  0.551600  0.699700  1.0  0.081
  H  H39  1  0.168400  0.867500  0.819400  1.0  0.1005
  H  H40  1  0.717300  0.199700  0.051600  1.0  0.0816
  H  H41  1  0.282700  0.800300  0.948400  1.0  0.0817
  H  H42  1  0.738900  0.094000  0.150800  1.0  0.0875
  H  H43  1  0.241300  0.250000  0.188700  1.0  0.0929
  H  H44  1  0.831600  0.680600  0.632500  1.0  0.1002
  H  H45  1  0.758700  0.750000  0.811300  1.0  0.093
  H  H46  1  0.059900  0.847000  0.906600  1.0  0.0915
  H  H47  1  0.940100  0.593400  0.653000  1.0  0.0904
  H  H48  1  0.168400  0.819400  0.132500  1.0  0.0997
  H  H49  1  0.945600  0.221600  0.721600  1.0  0.2279
  H  H50  1  0.717300  0.800300  0.948400  1.0  0.082
  H  H51  1  0.758700  0.811300  0.250000  1.0  0.0931
  H  H52  1  0.717300  0.699700  0.448400  1.0  0.0817
  H  H53  1  0.054400  0.278400  0.221600  1.0  0.2274
  H  H54  1  0.190100  0.581500  0.738100  1.0  0.0978
  H  H55  1  0.738900  0.849200  0.094000  1.0  0.0874
  H  H56  1  0.059900  0.906600  0.153000  1.0  0.0907
  H  H57  1  0.738900  0.594000  0.349200  1.0  0.0874
  H  H58  1  0.054400  0.721600  0.778400  1.0  0.2272
  H  H59  1  0.190100  0.081500  0.761900  1.0  0.0966
  H  H60  1  0.054400  0.778400  0.278400  1.0  0.2273
  H  H61  1  0.190100  0.761900  0.918500  1.0  0.0967
  H  H62  1  0.738900  0.906000  0.849200  1.0  0.0874
  H  H63  1  0.945600  0.778400  0.278400  1.0  0.2284
  H  H64  1  0.261100  0.349200  0.406000  1.0  0.0873
  H  H65  1  0.809900  0.581500  0.738100  1.0  0.098
  H  H66  1  0.738900  0.650800  0.594000  1.0  0.0872
  H  H67  1  0.282700  0.448400  0.300300  1.0  0.0814
  H  H68  1  0.758700  0.250000  0.188700  1.0  0.093
  H  H69  1  0.940100  0.653000  0.406600  1.0  0.0912
  H  H70  1  0.717300  0.051600  0.800300  1.0  0.081
  H  H71  1  0.282700  0.551600  0.699700  1.0  0.0809
  H  H72  1  0.261100  0.650800  0.594000  1.0  0.0871
  H  H73  1  0.758700  0.750000  0.311300  1.0  0.093
  H  H74  1  0.758700  0.188700  0.750000  1.0  0.093
  H  H75  1  0.940100  0.906600  0.153000  1.0  0.0909
  H  H76  1  0.241300  0.750000  0.311300  1.0  0.0931
  H  H77  1  0.738900  0.150800  0.906000  1.0  0.0871
  H  H78  1  0.261100  0.906000  0.849200  1.0  0.0873
  H  H79  1  0.717300  0.948400  0.199700  1.0  0.0815
  H  H80  1  0.168400  0.180600  0.867500  1.0  0.1006
  H  H81  1  0.809900  0.238100  0.081500  1.0  0.0967
  H  H82  1  0.261100  0.150800  0.906000  1.0  0.0871
  H  H83  1  0.190100  0.238100  0.081500  1.0  0.0968
  H  H84  1  0.241300  0.750000  0.811300  1.0  0.093
  H  H85  1  0.940100  0.406600  0.347000  1.0  0.0906
  H  H86  1  0.168400  0.132500  0.180600  1.0  0.1004
  H  H87  1  0.940100  0.847000  0.906600  1.0  0.0912
  H  H88  1  0.241300  0.250000  0.688700  1.0  0.0928
  H  H89  1  0.282700  0.948400  0.199700  1.0  0.0814
  H  H90  1  0.758700  0.311300  0.250000  1.0  0.093
  H  H91  1  0.831600  0.819400  0.132500  1.0  0.0994
  H  H92  1  0.945600  0.721600  0.778400  1.0  0.2282
  H  H93  1  0.809900  0.761900  0.918500  1.0  0.0968
  H  H94  1  0.261100  0.594000  0.349200  1.0  0.0874
  H  H95  1  0.261100  0.849200  0.094000  1.0  0.0874
  H  H96  1  0.059900  0.153000  0.093400  1.0  0.091
  H  H97  1  0.831600  0.132500  0.180600  1.0  0.1003
  H  H98  1  0.738900  0.349200  0.406000  1.0  0.0873
  H  H99  1  0.282700  0.300300  0.551600  1.0  0.0816
  H  H100  1  0.831600  0.180600  0.867500  1.0  0.1004
  H  H101  1  0.940100  0.153000  0.093400  1.0  0.0905
  H  H102  1  0.945600  0.278400  0.221600  1.0  0.2282
  H  H103  1  0.168400  0.319400  0.367500  1.0  0.1005
  H  H104  1  0.809900  0.738100  0.418500  1.0  0.0986
  H  H105  1  0.758700  0.250000  0.688700  1.0  0.0932
  H  H106  1  0.261100  0.094000  0.150800  1.0  0.0875
  H  H107  1  0.717300  0.448400  0.300300  1.0  0.0816
  H  H108  1  0.809900  0.081500  0.761900  1.0  0.0968
  H  H109  1  0.831600  0.867500  0.819400  1.0  0.1003
  H  H110  1  0.168400  0.632500  0.319400  1.0  0.1003
  H  H111  1  0.241300  0.188700  0.750000  1.0  0.0932
  H  H112  1  0.190100  0.918500  0.238100  1.0  0.0967
  H  H113  1  0.758700  0.688700  0.750000  1.0  0.093
  H  H114  1  0.190100  0.261900  0.581500  1.0  0.0976
  H  H115  1  0.059900  0.347000  0.593400  1.0  0.0908
  H  H116  1  0.190100  0.418500  0.261900  1.0  0.0985
  H  H117  1  0.168400  0.367500  0.680600  1.0  0.1004
  H  H118  1  0.261100  0.406000  0.650800  1.0  0.0875
  H  H119  1  0.059900  0.406600  0.347000  1.0  0.091
  H  H120  1  0.241300  0.311300  0.250000  1.0  0.093
  H  H121  1  0.831600  0.319400  0.367500  1.0  0.1005
  H  H122  1  0.054400  0.221600  0.721600  1.0  0.2271
  H  H123  1  0.059900  0.093400  0.847000  1.0  0.0914
  H  H124  1  0.940100  0.093400  0.847000  1.0  0.0906
  H  H125  1  0.241300  0.688700  0.750000  1.0  0.0929
  H  H126  1  0.809900  0.418500  0.261900  1.0  0.0986
  H  H127  1  0.059900  0.653000  0.406600  1.0  0.0918
  H  H128  1  0.738900  0.406000  0.650800  1.0  0.0876
  C  C129  1  0.191600  0.353900  0.654400  1.0  -0.1379
  C  C130  1  0.053800  0.205600  0.147200  1.0  0.114
  C  C131  1  0.246700  0.136700  0.876700  1.0  -0.0994
  C  C132  1  0.259500  0.577800  0.686000  1.0  -0.0962
  C  C133  1  0.280600  0.143200  0.098400  1.0  -0.1396
  C  C134  1  0.808400  0.654400  0.646100  1.0  -0.1373
  C  C135  1  0.882000  0.716500  0.341300  1.0  -0.1301
  C  C136  1  0.882000  0.216500  0.158700  1.0  -0.1296
  C  C137  1  0.118000  0.341300  0.283500  1.0  -0.1302
  C  C138  1  0.170500  0.866100  0.188900  1.0  0.0682
  C  C139  1  0.032800  0.672400  0.386900  1.0  -0.1236
  C  C140  1  0.862600  0.247300  0.690700  1.0  -0.0266
  C  C141  1  0.967200  0.886900  0.172400  1.0  -0.1277
  C  C142  1  0.338400  0.417600  0.382100  1.0  0.4032
  C  C143  1  0.338400  0.882100  0.917600  1.0  0.4026
  C  C144  1  0.053800  0.794400  0.852800  1.0  0.1121
  C  C145  1  0.170500  0.811100  0.866100  1.0  0.0683
  C  C146  1  0.053800  0.147200  0.794400  1.0  0.1133
  C  C147  1  0.259500  0.686000  0.422200  1.0  -0.0972
  C  C148  1  0.661600  0.917600  0.117900  1.0  0.4027
  C  C149  1  0.967200  0.672400  0.386900  1.0  -0.1254
  C  C150  1  0.203900  0.297300  0.235800  1.0  -0.1654
  C  C151  1  0.032800  0.886900  0.172400  1.0  -0.1271
  C  C152  1  0.808400  0.345600  0.353900  1.0  -0.1381
  C  C153  1  0.246700  0.636700  0.623300  1.0  -0.0989
  C  C154  1  0.661600  0.117900  0.082400  1.0  0.402
  C  C155  1  0.808400  0.353900  0.654400  1.0  -0.1363
  C  C156  1  0.204500  0.291200  0.595500  1.0  -0.1356
  C  C157  1  0.118000  0.658700  0.716500  1.0  -0.13
  C  C158  1  0.740500  0.922200  0.186000  1.0  -0.0974
  C  C159  1  0.796100  0.235800  0.702700  1.0  -0.1655
  C  C160  1  0.719400  0.098400  0.856800  1.0  -0.139
  C  C161  1  0.338400  0.082400  0.882100  1.0  0.4031
  C  C162  1  0.661600  0.382100  0.582400  1.0  0.4026
  C  C163  1  0.137400  0.247300  0.690700  1.0  -0.0258
  C  C164  1  0.137400  0.809300  0.252700  1.0  -0.027
  C  C165  1  0.795500  0.904500  0.208800  1.0  -0.1367
  C  C166  1  0.808400  0.146100  0.154400  1.0  -0.138
  C  C167  1  0.829500  0.311100  0.633900  1.0  0.0682
  C  C168  1  0.032800  0.827600  0.886900  1.0  -0.124
  C  C169  1  0.280600  0.356800  0.598400  1.0  -0.1379
  C  C170  1  0.203900  0.202700  0.735800  1.0  -0.1653
  C  C171  1  0.946200  0.147200  0.794400  1.0  0.1128
  C  C172  1  0.170500  0.633900  0.688900  1.0  0.068
  C  C173  1  0.191600  0.345600  0.353900  1.0  -0.1379
  C  C174  1  0.338400  0.582400  0.617900  1.0  0.4032
  C  C175  1  0.882000  0.658700  0.716500  1.0  -0.13
  C  C176  1  0.740500  0.577800  0.686000  1.0  -0.0963
  C  C177  1  0.203900  0.735800  0.797300  1.0  -0.1652
  C  C178  1  0.808400  0.646100  0.345600  1.0  -0.1388
  C  C179  1  0.753300  0.623300  0.363300  1.0  -0.0974
  C  C180  1  0.259500  0.922200  0.186000  1.0  -0.0965
  C  C181  1  0.137400  0.747300  0.809300  1.0  -0.027
  C  C182  1  0.862600  0.809300  0.252700  1.0  -0.0275
  C  C183  1  0.118000  0.283500  0.658700  1.0  -0.1296
  C  C184  1  0.829500  0.366100  0.311100  1.0  0.0681
  C  C185  1  0.204500  0.595500  0.708800  1.0  -0.1378
  C  C186  1  0.032800  0.172400  0.113100  1.0  -0.124
  C  C187  1  0.032800  0.613100  0.672400  1.0  -0.1256
  C  C188  1  0.967200  0.827600  0.886900  1.0  -0.126
  C  C189  1  0.795500  0.208800  0.095500  1.0  -0.1346
  C  C190  1  0.753300  0.376700  0.636700  1.0  -0.0951
  C  C191  1  0.280600  0.098400  0.856800  1.0  -0.1371
  C  C192  1  0.246700  0.123300  0.136700  1.0  -0.0969
  C  C193  1  0.740500  0.686000  0.422200  1.0  -0.0962
  C  C194  1  0.032800  0.113100  0.827600  1.0  -0.1244
  C  C195  1  0.946200  0.852800  0.205600  1.0  0.1134
  C  C196  1  0.795500  0.595500  0.708800  1.0  -0.1368
  C  C197  1  0.338400  0.917600  0.117900  1.0  0.4025
  C  C198  1  0.795500  0.791200  0.904500  1.0  -0.1361
  C  C199  1  0.946200  0.647200  0.705600  1.0  0.1138
  C  C200  1  0.032800  0.327600  0.613100  1.0  -0.1232
  C  C201  1  0.967200  0.113100  0.827600  1.0  -0.1267
  C  C202  1  0.967200  0.613100  0.672400  1.0  -0.1258
  C  C203  1  0.204500  0.208800  0.095500  1.0  -0.1351
  C  C204  1  0.795500  0.095500  0.791200  1.0  -0.1378
  C  C205  1  0.753300  0.876700  0.863300  1.0  -0.0966
  C  C206  1  0.661600  0.582400  0.617900  1.0  0.4028
  C  C207  1  0.719400  0.856800  0.901600  1.0  -0.1391
  C  C208  1  0.795500  0.291200  0.595500  1.0  -0.1355
  C  C209  1  0.191600  0.853900  0.845600  1.0  -0.1374
  C  C210  1  0.137400  0.309300  0.247300  1.0  -0.0268
  C  C211  1  0.137400  0.690700  0.752700  1.0  -0.028
  C  C212  1  0.661600  0.617900  0.417600  1.0  0.4021
  C  C213  1  0.796100  0.702700  0.764200  1.0  -0.1652
  C  C214  1  0.740500  0.186000  0.077800  1.0  -0.0966
  C  C215  1  0.829500  0.866100  0.188900  1.0  0.0681
  C  C216  1  0.829500  0.633900  0.688900  1.0  0.0683
  C  C217  1  0.862600  0.690700  0.752700  1.0  -0.0285
  C  C218  1  0.740500  0.814000  0.922200  1.0  -0.0963
  C  C219  1  0.967200  0.172400  0.113100  1.0  -0.1246
  C  C220  1  0.882000  0.783500  0.841300  1.0  -0.1301
  C  C221  1  0.829500  0.188900  0.133900  1.0  0.0681
  C  C222  1  0.719400  0.143200  0.098400  1.0  -0.1382
  C  C223  1  0.862600  0.309300  0.247300  1.0  -0.0273
  C  C224  1  0.170500  0.688900  0.366100  1.0  0.0677
  C  C225  1  0.280600  0.643200  0.401600  1.0  -0.1375
  C  C226  1  0.246700  0.876700  0.863300  1.0  -0.095
  C  C227  1  0.882000  0.158700  0.783500  1.0  -0.1302
  C  C228  1  0.170500  0.311100  0.633900  1.0  0.0683
  C  C229  1  0.137400  0.752700  0.309300  1.0  -0.0282
  C  C230  1  0.719400  0.356800  0.598400  1.0  -0.1392
  C  C231  1  0.338400  0.382100  0.582400  1.0  0.4031
  C  C232  1  0.946200  0.794400  0.852800  1.0  0.1122
  C  C233  1  0.796100  0.297300  0.235800  1.0  -0.1654
  C  C234  1  0.170500  0.188900  0.133900  1.0  0.0677
  C  C235  1  0.808400  0.845600  0.146100  1.0  -0.1386
  C  C236  1  0.053800  0.647200  0.705600  1.0  0.1142
  C  C237  1  0.829500  0.133900  0.811100  1.0  0.0681
  C  C238  1  0.118000  0.716500  0.341300  1.0  -0.1301
  C  C239  1  0.740500  0.422200  0.314000  1.0  -0.0975
  C  C240  1  0.719400  0.401600  0.356800  1.0  -0.139
  C  C241  1  0.967200  0.327600  0.613100  1.0  -0.1255
  C  C242  1  0.203900  0.797300  0.264200  1.0  -0.165
  C  C243  1  0.740500  0.077800  0.814000  1.0  -0.096
  C  C244  1  0.053800  0.705600  0.352800  1.0  0.1127
  C  C245  1  0.203900  0.764200  0.297300  1.0  -0.1649
  C  C246  1  0.204500  0.904500  0.208800  1.0  -0.1371
  C  C247  1  0.796100  0.764200  0.297300  1.0  -0.1654
  C  C248  1  0.203900  0.235800  0.702700  1.0  -0.1651
  C  C249  1  0.259500  0.314000  0.577800  1.0  -0.0981
  C  C250  1  0.246700  0.863300  0.123300  1.0  -0.0973
  C  C251  1  0.246700  0.376700  0.636700  1.0  -0.0946
  C  C252  1  0.946200  0.205600  0.147200  1.0  0.1127
  C  C253  1  0.740500  0.314000  0.577800  1.0  -0.0953
  C  C254  1  0.795500  0.708800  0.404500  1.0  -0.1357
  C  C255  1  0.862600  0.190700  0.747300  1.0  -0.0283
  C  C256  1  0.882000  0.341300  0.283500  1.0  -0.1301
  C  C257  1  0.338400  0.117900  0.082400  1.0  0.4027
  C  C258  1  0.118000  0.216500  0.158700  1.0  -0.1297
  C  C259  1  0.946200  0.352800  0.294400  1.0  0.1127
  C  C260  1  0.719400  0.643200  0.401600  1.0  -0.1394
  C  C261  1  0.719400  0.901600  0.143200  1.0  -0.1389
  C  C262  1  0.246700  0.623300  0.363300  1.0  -0.0974
  C  C263  1  0.259500  0.077800  0.814000  1.0  -0.096
  C  C264  1  0.246700  0.363300  0.376700  1.0  -0.098
  C  C265  1  0.661600  0.882100  0.917600  1.0  0.4026
  C  C266  1  0.796100  0.202700  0.735800  1.0  -0.1662
  C  C267  1  0.967200  0.386900  0.327600  1.0  -0.1263
  C  C268  1  0.753300  0.136700  0.876700  1.0  -0.0989
  C  C269  1  0.204500  0.404500  0.291200  1.0  -0.137
  C  C270  1  0.280600  0.401600  0.356800  1.0  -0.1398
  C  C271  1  0.053800  0.852800  0.205600  1.0  0.1133
  C  C272  1  0.118000  0.158700  0.783500  1.0  -0.1301
  C  C273  1  0.862600  0.252700  0.190700  1.0  -0.0275
  C  C274  1  0.137400  0.252700  0.190700  1.0  -0.0267
  C  C275  1  0.796100  0.735800  0.797300  1.0  -0.1658
  C  C276  1  0.796100  0.797300  0.264200  1.0  -0.1654
  C  C277  1  0.032800  0.386900  0.327600  1.0  -0.1252
  C  C278  1  0.280600  0.901600  0.143200  1.0  -0.1392
  C  C279  1  0.259500  0.814000  0.922200  1.0  -0.0971
  C  C280  1  0.795500  0.404500  0.291200  1.0  -0.1373
  C  C281  1  0.203900  0.264200  0.202700  1.0  -0.1648
  C  C282  1  0.829500  0.688900  0.366100  1.0  0.0681
  C  C283  1  0.946200  0.294400  0.647200  1.0  0.1133
  C  C284  1  0.280600  0.598400  0.643200  1.0  -0.1371
  C  C285  1  0.118000  0.841300  0.216500  1.0  -0.13
  C  C286  1  0.862600  0.752700  0.309300  1.0  -0.0288
  C  C287  1  0.796100  0.264200  0.202700  1.0  -0.1644
  C  C288  1  0.204500  0.708800  0.404500  1.0  -0.1362
  C  C289  1  0.204500  0.791200  0.904500  1.0  -0.1367
  C  C290  1  0.191600  0.845600  0.146100  1.0  -0.1376
  C  C291  1  0.053800  0.352800  0.294400  1.0  0.1126
  C  C292  1  0.204500  0.095500  0.791200  1.0  -0.1376
  C  C293  1  0.808400  0.154400  0.853900  1.0  -0.1375
  C  C294  1  0.753300  0.863300  0.123300  1.0  -0.0981
  C  C295  1  0.829500  0.811100  0.866100  1.0  0.0684
  C  C296  1  0.753300  0.636700  0.623300  1.0  -0.0982
  C  C297  1  0.203900  0.702700  0.764200  1.0  -0.164
  C  C298  1  0.137400  0.190700  0.747300  1.0  -0.0279
  C  C299  1  0.753300  0.123300  0.136700  1.0  -0.0975
  C  C300  1  0.191600  0.646100  0.345600  1.0  -0.1381
  C  C301  1  0.862600  0.747300  0.809300  1.0  -0.0276
  C  C302  1  0.661600  0.082400  0.882100  1.0  0.4025
  C  C303  1  0.808400  0.853900  0.845600  1.0  -0.1378
  C  C304  1  0.053800  0.294400  0.647200  1.0  0.1131
  C  C305  1  0.753300  0.363300  0.376700  1.0  -0.0984
  C  C306  1  0.882000  0.841300  0.216500  1.0  -0.13
  C  C307  1  0.170500  0.133900  0.811100  1.0  0.0678
  C  C308  1  0.170500  0.366100  0.311100  1.0  0.0681
  C  C309  1  0.661600  0.417600  0.382100  1.0  0.4024
  C  C310  1  0.280600  0.856800  0.901600  1.0  -0.1376
  C  C311  1  0.719400  0.598400  0.643200  1.0  -0.1396
  C  C312  1  0.191600  0.654400  0.646100  1.0  -0.1363
  C  C313  1  0.259500  0.422200  0.314000  1.0  -0.0955
  C  C314  1  0.338400  0.617900  0.417600  1.0  0.4029
  C  C315  1  0.946200  0.705600  0.352800  1.0  0.112
  C  C316  1  0.118000  0.783500  0.841300  1.0  -0.1301
  C  C317  1  0.882000  0.283500  0.658700  1.0  -0.1296
  C  C318  1  0.259500  0.186000  0.077800  1.0  -0.0966
  C  C319  1  0.191600  0.146100  0.154400  1.0  -0.1379
  C  C320  1  0.191600  0.154400  0.853900  1.0  -0.1378
  N  N321  1  0.579100  0.099900  0.039700  1.0  -0.1303
  N  N322  1  0.368800  0.371300  0.541600  1.0  -0.3138
  N  N323  1  0.632400  0.584600  0.395300  1.0  -0.2215
  N  N324  1  0.579100  0.960300  0.099900  1.0  -0.13
  N  N325  1  0.097000  0.720300  0.779700  1.0  -0.3074
  N  N326  1  0.579100  0.573200  0.420500  1.0  -0.1342
  N  N327  1  0.579100  0.073200  0.079500  1.0  -0.1337
  N  N328  1  0.367600  0.915400  0.895300  1.0  -0.2259
  N  N329  1  0.420900  0.400100  0.539700  1.0  -0.1306
  N  N330  1  0.000000  0.166900  0.772700  1.0  -0.3873
  N  N331  1  0.631200  0.371300  0.541600  1.0  -0.3148
  N  N332  1  0.000000  0.666900  0.727300  1.0  -0.3892
  N  N333  1  0.367600  0.104700  0.915400  1.0  -0.2199
  N  N334  1  0.632400  0.104700  0.915400  1.0  -0.2202
  N  N335  1  0.420900  0.579500  0.573200  1.0  -0.1351
  N  N336  1  0.903000  0.220300  0.720300  1.0  -0.3078
  N  N337  1  0.631200  0.041600  0.871300  1.0  -0.3064
  N  N338  1  0.368800  0.871300  0.958400  1.0  -0.3127
  N  N339  1  0.631200  0.541600  0.628700  1.0  -0.3063
  N  N340  1  0.368800  0.958400  0.128700  1.0  -0.3132
  N  N341  1  0.420900  0.039700  0.900100  1.0  -0.1292
  N  N342  1  0.632400  0.415400  0.604700  1.0  -0.2263
  N  N343  1  0.631200  0.458400  0.371300  1.0  -0.3053
  N  N344  1  0.367600  0.084600  0.104700  1.0  -0.2209
  N  N345  1  0.000000  0.772700  0.833100  1.0  -0.389
  N  N346  1  0.420900  0.099900  0.039700  1.0  -0.1306
  N  N347  1  0.367600  0.415400  0.604700  1.0  -0.2247
  N  N348  1  0.579100  0.420500  0.426800  1.0  -0.1335
  N  N349  1  0.579100  0.400100  0.539700  1.0  -0.1308
  N  N350  1  0.420900  0.073200  0.079500  1.0  -0.1339
  N  N351  1  0.631200  0.128700  0.041600  1.0  -0.3152
  N  N352  1  0.632400  0.895300  0.084600  1.0  -0.2209
  N  N353  1  0.579100  0.599900  0.460300  1.0  -0.1309
  N  N354  1  0.000000  0.227300  0.166900  1.0  -0.388
  N  N355  1  0.579100  0.900100  0.960300  1.0  -0.1311
  N  N356  1  0.579100  0.579500  0.573200  1.0  -0.1342
  N  N357  1  0.420900  0.926800  0.920500  1.0  -0.134
  N  N358  1  0.579100  0.539700  0.599900  1.0  -0.1302
  N  N359  1  0.632400  0.084600  0.104700  1.0  -0.2214
  N  N360  1  0.368800  0.628700  0.458400  1.0  -0.3085
  N  N361  1  0.000000  0.333100  0.272700  1.0  -0.3875
  N  N362  1  0.097000  0.279700  0.220300  1.0  -0.3072
  N  N363  1  0.367600  0.584600  0.395300  1.0  -0.2218
  N  N364  1  0.632400  0.915400  0.895300  1.0  -0.2214
  N  N365  1  0.420900  0.420500  0.426800  1.0  -0.1336
  N  N366  1  0.420900  0.599900  0.460300  1.0  -0.1302
  N  N367  1  0.367600  0.895300  0.084600  1.0  -0.2247
  N  N368  1  0.579100  0.079500  0.926800  1.0  -0.1336
  N  N369  1  0.579100  0.426800  0.579500  1.0  -0.1331
  N  N370  1  0.579100  0.460300  0.400100  1.0  -0.1296
  N  N371  1  0.420900  0.539700  0.599900  1.0  -0.1296
  N  N372  1  0.368800  0.041600  0.871300  1.0  -0.3127
  N  N373  1  0.632400  0.395300  0.415400  1.0  -0.2201
  N  N374  1  0.368800  0.541600  0.628700  1.0  -0.3061
  N  N375  1  0.097000  0.779700  0.279700  1.0  -0.3075
  N  N376  1  0.420900  0.960300  0.099900  1.0  -0.1302
  N  N377  1  0.632400  0.604700  0.584600  1.0  -0.2254
  N  N378  1  0.367600  0.604700  0.584600  1.0  -0.2215
  N  N379  1  0.903000  0.779700  0.279700  1.0  -0.3081
  N  N380  1  0.631200  0.958400  0.128700  1.0  -0.3142
  N  N381  1  0.368800  0.458400  0.371300  1.0  -0.3076
  N  N382  1  0.000000  0.727300  0.333100  1.0  -0.3879
  N  N383  1  0.420900  0.920500  0.073200  1.0  -0.1351
  N  N384  1  0.097000  0.220300  0.720300  1.0  -0.3072
  N  N385  1  0.420900  0.900100  0.960300  1.0  -0.1302
  N  N386  1  0.420900  0.573200  0.420500  1.0  -0.1344
  N  N387  1  0.420900  0.079500  0.926800  1.0  -0.1342
  N  N388  1  0.368800  0.128700  0.041600  1.0  -0.3142
  N  N389  1  0.420900  0.460300  0.400100  1.0  -0.1299
  N  N390  1  0.000000  0.833100  0.227300  1.0  -0.3902
  N  N391  1  0.420900  0.426800  0.579500  1.0  -0.1343
  N  N392  1  0.579100  0.926800  0.920500  1.0  -0.1336
  N  N393  1  0.579100  0.920500  0.073200  1.0  -0.1345
  N  N394  1  0.367600  0.395300  0.415400  1.0  -0.2238
  N  N395  1  0.631200  0.628700  0.458400  1.0  -0.3091
  N  N396  1  0.903000  0.720300  0.779700  1.0  -0.3081
  N  N397  1  0.903000  0.279700  0.220300  1.0  -0.3078
  N  N398  1  0.579100  0.039700  0.900100  1.0  -0.1299
  N  N399  1  0.631200  0.871300  0.958400  1.0  -0.3071
  N  N400  1  0.000000  0.272700  0.666900  1.0  -0.39
  Cl  Cl401  1  0.500000  0.185370  0.967400  1.0  -0.4947
  Cl  Cl402  1  0.500000  0.967400  0.814630  1.0  -0.4961
  Cl  Cl403  1  0.500000  0.685370  0.532600  1.0  -0.5005
  Cl  Cl404  1  0.500000  0.032600  0.185370  1.0  -0.4963
  Cl  Cl405  1  0.500000  0.532600  0.314630  1.0  -0.5014
  Cl  Cl406  1  0.500000  0.314630  0.467400  1.0  -0.5015
  Cl  Cl407  1  0.500000  0.467400  0.685370  1.0  -0.5021
  Cl  Cl408  1  0.500000  0.814630  0.032600  1.0  -0.4959
