# generated using pymatgen
data_Na2Cd2H12C24N10Cl
_symmetry_space_group_name_H-M   'P 1'
_cell_length_a   20.29900000
_cell_length_b   20.33100000
_cell_length_c   20.33100000
_cell_angle_alpha   90.00000000
_cell_angle_beta   90.00000000
_cell_angle_gamma   90.00000000
_symmetry_Int_Tables_number   1
_chemical_formula_structural   Na2Cd2H12C24N10Cl
_chemical_formula_sum   'Na8 Cd8 H48 C96 N40 Cl4'
_cell_volume   8390.58273874
_cell_formula_units_Z   4
loop_
 _symmetry_equiv_pos_site_id
 _symmetry_equiv_pos_as_xyz
  1  'x, y, z'
loop_
 _atom_site_type_symbol
 _atom_site_label
 _atom_site_symmetry_multiplicity
 _atom_site_fract_x
 _atom_site_fract_y
 _atom_site_fract_z
 _atom_site_occupancy
 _atom_site_charge
  Na  Na1  1  0.865000  0.814600  0.814600  1.0  0.919
  Na  Na2  1  0.135000  0.814600  0.814600  1.0  0.9181
  Na  Na3  1  0.865000  0.185400  0.185400  1.0  0.9212
  Na  Na4  1  0.865000  0.185400  0.814600  1.0  0.9182
  Na  Na5  1  0.865000  0.814600  0.185400  1.0  0.9212
  Na  Na6  1  0.135000  0.185400  0.814600  1.0  0.917
  Na  Na7  1  0.135000  0.814600  0.185400  1.0  0.9203
  Na  Na8  1  0.135000  0.185400  0.185400  1.0  0.9199
  Cd  Cd9  1  0.000000  0.902900  0.902900  1.0  0.7702
  Cd  Cd10  1  0.000000  0.097100  0.902900  1.0  0.7684
  Cd  Cd11  1  0.000000  0.097100  0.097100  1.0  0.7683
  Cd  Cd12  1  0.000000  0.902900  0.097100  1.0  0.77
  Cd  Cd13  1  0.500000  0.948120  0.500000  1.0  0.861
  Cd  Cd14  1  0.500000  0.500000  0.051880  1.0  0.8556
  Cd  Cd15  1  0.500000  0.051880  0.500000  1.0  0.8635
  Cd  Cd16  1  0.500000  0.500000  0.948120  1.0  0.8623
  H  H17  1  0.229300  0.900400  0.753300  1.0  0.0522
  H  H18  1  0.770700  0.900400  0.246700  1.0  0.0523
  H  H19  1  0.229300  0.753300  0.099600  1.0  0.053
  H  H20  1  0.744900  0.000000  0.439500  1.0  0.0716
  H  H21  1  0.229300  0.099600  0.246700  1.0  0.0531
  H  H22  1  0.319900  0.682000  0.099700  1.0  0.0762
  H  H23  1  0.744900  0.439500  0.000000  1.0  0.0721
  H  H24  1  0.744900  0.000000  0.560500  1.0  0.0721
  H  H25  1  0.680100  0.099700  0.318000  1.0  0.0775
  H  H26  1  0.680100  0.682000  0.099700  1.0  0.0761
  H  H27  1  0.229300  0.753300  0.900400  1.0  0.0517
  H  H28  1  0.680100  0.682000  0.900300  1.0  0.077
  H  H29  1  0.560600  0.000000  0.747700  1.0  0.0678
  H  H30  1  0.319900  0.318000  0.099700  1.0  0.076
  H  H31  1  0.255100  0.439500  0.000000  1.0  0.0727
  H  H32  1  0.439400  0.000000  0.252300  1.0  0.0672
  H  H33  1  0.770700  0.753300  0.900400  1.0  0.0514
  H  H34  1  0.255100  0.000000  0.439500  1.0  0.0724
  H  H35  1  0.770700  0.099600  0.753300  1.0  0.0527
  H  H36  1  0.680100  0.318000  0.099700  1.0  0.076
  H  H37  1  0.319900  0.099700  0.318000  1.0  0.0773
  H  H38  1  0.319900  0.099700  0.682000  1.0  0.0776
  H  H39  1  0.319900  0.682000  0.900300  1.0  0.0773
  H  H40  1  0.560600  0.747700  0.000000  1.0  0.0678
  H  H41  1  0.680100  0.099700  0.682000  1.0  0.0778
  H  H42  1  0.560600  0.252300  0.000000  1.0  0.0667
  H  H43  1  0.319900  0.318000  0.900300  1.0  0.0774
  H  H44  1  0.255100  0.000000  0.560500  1.0  0.0723
  H  H45  1  0.319900  0.900300  0.682000  1.0  0.0767
  H  H46  1  0.744900  0.560500  0.000000  1.0  0.0723
  H  H47  1  0.680100  0.318000  0.900300  1.0  0.0773
  H  H48  1  0.680100  0.900300  0.682000  1.0  0.0765
  H  H49  1  0.229300  0.099600  0.753300  1.0  0.0531
  H  H50  1  0.770700  0.246700  0.099600  1.0  0.052
  H  H51  1  0.770700  0.246700  0.900400  1.0  0.0513
  H  H52  1  0.439400  0.000000  0.747700  1.0  0.067
  H  H53  1  0.255100  0.560500  0.000000  1.0  0.0726
  H  H54  1  0.439400  0.252300  0.000000  1.0  0.0679
  H  H55  1  0.770700  0.099600  0.246700  1.0  0.0528
  H  H56  1  0.439400  0.747700  0.000000  1.0  0.0676
  H  H57  1  0.229300  0.246700  0.099600  1.0  0.0528
  H  H58  1  0.229300  0.246700  0.900400  1.0  0.0517
  H  H59  1  0.229300  0.900400  0.246700  1.0  0.0523
  H  H60  1  0.680100  0.900300  0.318000  1.0  0.0763
  H  H61  1  0.560600  0.000000  0.252300  1.0  0.0678
  H  H62  1  0.770700  0.753300  0.099600  1.0  0.0522
  H  H63  1  0.319900  0.900300  0.318000  1.0  0.0766
  H  H64  1  0.770700  0.900400  0.753300  1.0  0.0521
  C  C65  1  0.300500  0.059240  0.304800  1.0  -0.1655
  C  C66  1  0.445190  0.646500  0.000000  1.0  0.0558
  C  C67  1  0.246700  0.737500  0.059220  1.0  -0.0945
  C  C68  1  0.699500  0.059240  0.304800  1.0  -0.1642
  C  C69  1  0.356500  0.554760  0.000000  1.0  0.121
  C  C70  1  0.674200  0.000000  0.327800  1.0  -0.0066
  C  C71  1  0.380400  0.000000  0.379700  1.0  -0.1463
  C  C72  1  0.246700  0.262500  0.940780  1.0  -0.0922
  C  C73  1  0.674200  0.327800  0.000000  1.0  -0.0063
  C  C74  1  0.533370  0.709700  0.000000  1.0  -0.1474
  C  C75  1  0.161000  0.201600  0.000000  1.0  0.2984
  C  C76  1  0.781600  0.243300  0.000000  1.0  -0.0327
  C  C77  1  0.325800  0.000000  0.672200  1.0  -0.0072
  C  C78  1  0.839000  0.201600  0.000000  1.0  0.2989
  C  C79  1  0.839000  0.798400  0.000000  1.0  0.2988
  C  C80  1  0.753300  0.262500  0.940780  1.0  -0.0952
  C  C81  1  0.380400  0.379700  0.000000  1.0  -0.1462
  C  C82  1  0.161000  0.000000  0.798400  1.0  0.2985
  C  C83  1  0.699500  0.304800  0.940760  1.0  -0.1645
  C  C84  1  0.356500  0.000000  0.554760  1.0  0.1192
  C  C85  1  0.753300  0.940780  0.262500  1.0  -0.0947
  C  C86  1  0.753300  0.737500  0.940780  1.0  -0.0962
  C  C87  1  0.445190  0.000000  0.353500  1.0  0.0548
  C  C88  1  0.466630  0.290300  0.000000  1.0  -0.1443
  C  C89  1  0.753300  0.737500  0.059220  1.0  -0.0956
  C  C90  1  0.300500  0.304800  0.059240  1.0  -0.1693
  C  C91  1  0.380400  0.620300  0.000000  1.0  -0.147
  C  C92  1  0.533370  0.000000  0.709700  1.0  -0.1454
  C  C93  1  0.246700  0.737500  0.940780  1.0  -0.0928
  C  C94  1  0.466630  0.000000  0.709700  1.0  -0.1445
  C  C95  1  0.554810  0.000000  0.646500  1.0  0.0551
  C  C96  1  0.619600  0.379700  0.000000  1.0  -0.1473
  C  C97  1  0.218400  0.243300  0.000000  1.0  -0.0334
  C  C98  1  0.643500  0.000000  0.445240  1.0  0.119
  C  C99  1  0.781600  0.000000  0.756700  1.0  -0.0324
  C  C100  1  0.753300  0.059220  0.737500  1.0  -0.0925
  C  C101  1  0.781600  0.000000  0.243300  1.0  -0.0325
  C  C102  1  0.699500  0.304800  0.059240  1.0  -0.1679
  C  C103  1  0.356500  0.445240  0.000000  1.0  0.1186
  C  C104  1  0.674200  0.672200  0.000000  1.0  -0.006
  C  C105  1  0.706900  0.533320  0.000000  1.0  -0.1381
  C  C106  1  0.753300  0.940780  0.737500  1.0  -0.0944
  C  C107  1  0.533370  0.000000  0.290300  1.0  -0.1446
  C  C108  1  0.445190  0.000000  0.646500  1.0  0.0557
  C  C109  1  0.619600  0.000000  0.620300  1.0  -0.1465
  C  C110  1  0.161000  0.000000  0.201600  1.0  0.2988
  C  C111  1  0.218400  0.000000  0.756700  1.0  -0.033
  C  C112  1  0.643500  0.000000  0.554760  1.0  0.1187
  C  C113  1  0.839000  0.000000  0.201600  1.0  0.2993
  C  C114  1  0.466630  0.709700  0.000000  1.0  -0.1479
  C  C115  1  0.753300  0.262500  0.059220  1.0  -0.0955
  C  C116  1  0.246700  0.940780  0.262500  1.0  -0.0931
  C  C117  1  0.300500  0.695200  0.059240  1.0  -0.1693
  C  C118  1  0.300500  0.940760  0.695200  1.0  -0.1681
  C  C119  1  0.325800  0.327800  0.000000  1.0  -0.0065
  C  C120  1  0.699500  0.695200  0.059240  1.0  -0.1685
  C  C121  1  0.246700  0.059220  0.737500  1.0  -0.0935
  C  C122  1  0.218400  0.756700  0.000000  1.0  -0.0327
  C  C123  1  0.325800  0.000000  0.327800  1.0  -0.0068
  C  C124  1  0.839000  0.000000  0.798400  1.0  0.299
  C  C125  1  0.293100  0.000000  0.466680  1.0  -0.138
  C  C126  1  0.619600  0.000000  0.379700  1.0  -0.1472
  C  C127  1  0.293100  0.533320  0.000000  1.0  -0.1389
  C  C128  1  0.300500  0.059240  0.695200  1.0  -0.166
  C  C129  1  0.674200  0.000000  0.672200  1.0  -0.0069
  C  C130  1  0.380400  0.000000  0.620300  1.0  -0.1455
  C  C131  1  0.643500  0.554760  0.000000  1.0  0.1196
  C  C132  1  0.246700  0.059220  0.262500  1.0  -0.0954
  C  C133  1  0.706900  0.000000  0.533320  1.0  -0.137
  C  C134  1  0.706900  0.466680  0.000000  1.0  -0.1366
  C  C135  1  0.533370  0.290300  0.000000  1.0  -0.1456
  C  C136  1  0.554810  0.353500  0.000000  1.0  0.0558
  C  C137  1  0.246700  0.940780  0.737500  1.0  -0.0947
  C  C138  1  0.781600  0.756700  0.000000  1.0  -0.0319
  C  C139  1  0.699500  0.059240  0.695200  1.0  -0.1651
  C  C140  1  0.753300  0.059220  0.262500  1.0  -0.0927
  C  C141  1  0.293100  0.466680  0.000000  1.0  -0.1398
  C  C142  1  0.619600  0.620300  0.000000  1.0  -0.1479
  C  C143  1  0.293100  0.000000  0.533320  1.0  -0.1382
  C  C144  1  0.300500  0.940760  0.304800  1.0  -0.1687
  C  C145  1  0.325800  0.672200  0.000000  1.0  -0.0064
  C  C146  1  0.445190  0.353500  0.000000  1.0  0.0564
  C  C147  1  0.161000  0.798400  0.000000  1.0  0.2982
  C  C148  1  0.218400  0.000000  0.243300  1.0  -0.0331
  C  C149  1  0.699500  0.695200  0.940760  1.0  -0.1638
  C  C150  1  0.699500  0.940760  0.304800  1.0  -0.1686
  C  C151  1  0.643500  0.445240  0.000000  1.0  0.1181
  C  C152  1  0.300500  0.304800  0.940760  1.0  -0.1667
  C  C153  1  0.246700  0.262500  0.059220  1.0  -0.0955
  C  C154  1  0.699500  0.940760  0.695200  1.0  -0.1676
  C  C155  1  0.706900  0.000000  0.466680  1.0  -0.137
  C  C156  1  0.356500  0.000000  0.445240  1.0  0.1198
  C  C157  1  0.554810  0.000000  0.353500  1.0  0.0547
  C  C158  1  0.466630  0.000000  0.290300  1.0  -0.1444
  C  C159  1  0.554810  0.646500  0.000000  1.0  0.0559
  C  C160  1  0.300500  0.695200  0.940760  1.0  -0.1668
  N  N161  1  0.500000  0.000000  0.604700  1.0  -0.3638
  N  N162  1  0.869600  0.055000  0.181600  1.0  -0.4491
  N  N163  1  0.130400  0.945000  0.818400  1.0  -0.4507
  N  N164  1  0.920620  0.146500  0.967880  1.0  -0.0535
  N  N165  1  0.130400  0.818400  0.945000  1.0  -0.4534
  N  N166  1  0.869600  0.181600  0.945000  1.0  -0.4525
  N  N167  1  0.869600  0.818400  0.055000  1.0  -0.4575
  N  N168  1  0.079380  0.032120  0.853500  1.0  -0.0536
  N  N169  1  0.079380  0.032120  0.146500  1.0  -0.0528
  N  N170  1  0.079380  0.853500  0.967880  1.0  -0.0533
  N  N171  1  0.920620  0.967880  0.853500  1.0  -0.0535
  N  N172  1  0.869600  0.055000  0.818400  1.0  -0.4471
  N  N173  1  0.130400  0.945000  0.181600  1.0  -0.4503
  N  N174  1  0.079380  0.146500  0.032120  1.0  -0.0539
  N  N175  1  0.869600  0.945000  0.818400  1.0  -0.4495
  N  N176  1  0.920620  0.967880  0.146500  1.0  -0.053
  N  N177  1  0.869600  0.818400  0.945000  1.0  -0.4604
  N  N178  1  0.500000  0.604700  0.000000  1.0  -0.3634
  N  N179  1  0.601700  0.000000  0.500000  1.0  -0.3359
  N  N180  1  0.130400  0.055000  0.181600  1.0  -0.4572
  N  N181  1  0.130400  0.181600  0.055000  1.0  -0.4589
  N  N182  1  0.920620  0.146500  0.032120  1.0  -0.0536
  N  N183  1  0.869600  0.945000  0.181600  1.0  -0.4489
  N  N184  1  0.398300  0.000000  0.500000  1.0  -0.3364
  N  N185  1  0.500000  0.395300  0.000000  1.0  -0.3633
  N  N186  1  0.920620  0.853500  0.967880  1.0  -0.0533
  N  N187  1  0.920620  0.032120  0.853500  1.0  -0.0535
  N  N188  1  0.920620  0.032120  0.146500  1.0  -0.0528
  N  N189  1  0.398300  0.500000  0.000000  1.0  -0.3364
  N  N190  1  0.079380  0.967880  0.146500  1.0  -0.0532
  N  N191  1  0.130400  0.055000  0.818400  1.0  -0.4578
  N  N192  1  0.601700  0.500000  0.000000  1.0  -0.3359
  N  N193  1  0.079380  0.967880  0.853500  1.0  -0.0538
  N  N194  1  0.500000  0.000000  0.395300  1.0  -0.3646
  N  N195  1  0.869600  0.181600  0.055000  1.0  -0.4508
  N  N196  1  0.130400  0.818400  0.055000  1.0  -0.451
  N  N197  1  0.920620  0.853500  0.032120  1.0  -0.0534
  N  N198  1  0.130400  0.181600  0.945000  1.0  -0.4504
  N  N199  1  0.079380  0.146500  0.967880  1.0  -0.0538
  N  N200  1  0.079380  0.853500  0.032120  1.0  -0.0536
  Cl  Cl201  1  0.000000  0.820600  0.179400  1.0  -0.5021
  Cl  Cl202  1  0.000000  0.179400  0.179400  1.0  -0.503
  Cl  Cl203  1  0.000000  0.820600  0.820600  1.0  -0.5021
  Cl  Cl204  1  0.000000  0.179400  0.820600  1.0  -0.5041
