# generated using pymatgen
data_Li2Zr(CO2)8
_symmetry_space_group_name_H-M   'P 1'
_cell_length_a   13.79950000
_cell_length_b   13.79950000
_cell_length_c   13.92850000
_cell_angle_alpha   70.52870000
_cell_angle_beta   67.24260000
_cell_angle_gamma   105.84900000
_symmetry_Int_Tables_number   1
_chemical_formula_structural   Li2Zr(CO2)8
_chemical_formula_sum   'Li8 Zr4 C32 O64'
_cell_volume   2044.60906527
_cell_formula_units_Z   4
loop_
 _symmetry_equiv_pos_site_id
 _symmetry_equiv_pos_as_xyz
  1  'x, y, z'
loop_
 _atom_site_type_symbol
 _atom_site_label
 _atom_site_symmetry_multiplicity
 _atom_site_fract_x
 _atom_site_fract_y
 _atom_site_fract_z
 _atom_site_occupancy
 _atom_site_charge
  Li  Li1  1  0.081600  0.754400  0.063800  1.0  0.9616
  Li  Li2  1  0.337600  0.260200  0.312200  1.0  0.9771
  Li  Li3  1  0.181800  0.354600  0.563800  1.0  0.9616
  Li  Li4  1  0.427600  0.850200  0.812200  1.0  0.9791
  Li  Li5  1  0.818200  0.645400  0.436200  1.0  0.9599
  Li  Li6  1  0.572400  0.149800  0.187800  1.0  0.9765
  Li  Li7  1  0.662400  0.739800  0.687800  1.0  0.9773
  Li  Li8  1  0.918400  0.245600  0.936200  1.0  0.9606
  Zr  Zr9  1  0.375490  0.249090  0.874720  1.0  2.0474
  Zr  Zr10  1  0.123810  0.750200  0.625280  1.0  2.0467
  Zr  Zr11  1  0.624520  0.750910  0.125280  1.0  2.0469
  Zr  Zr12  1  0.876190  0.249790  0.374720  1.0  2.0479
  C  C13  1  0.119230  0.287640  0.342490  1.0  0.6229
  C  C14  1  0.038910  0.490140  0.724710  1.0  0.6245
  C  C15  1  0.369870  0.038280  0.842490  1.0  0.6234
  C  C16  1  0.961090  0.509860  0.275290  1.0  0.6253
  C  C17  1  0.493940  0.513550  0.752530  1.0  0.6138
  C  C18  1  0.039300  0.256950  0.473650  1.0  0.638
  C  C19  1  0.785150  0.736380  0.224710  1.0  0.6225
  C  C20  1  0.506060  0.486450  0.247470  1.0  0.6148
  C  C21  1  0.269400  0.987050  0.973650  1.0  0.6365
  C  C22  1  0.135340  0.223570  0.909250  1.0  0.6123
  C  C23  1  0.150770  0.739830  0.834980  1.0  0.6548
  C  C24  1  0.730600  0.012950  0.026350  1.0  0.637
  C  C25  1  0.960700  0.743050  0.526350  1.0  0.6382
  C  C26  1  0.733920  0.253530  0.252530  1.0  0.6154
  C  C27  1  0.596600  0.761790  0.915990  1.0  0.6646
  C  C28  1  0.880770  0.712360  0.657510  1.0  0.6232
  C  C29  1  0.867180  0.455410  0.409250  1.0  0.6118
  C  C30  1  0.214850  0.263620  0.775290  1.0  0.625
  C  C31  1  0.132820  0.544590  0.590750  1.0  0.6124
  C  C32  1  0.504970  0.218660  0.008730  1.0  0.6258
  C  C33  1  0.864660  0.776430  0.090750  1.0  0.6129
  C  C34  1  0.574810  0.485750  0.665020  1.0  0.6525
  C  C35  1  0.403400  0.238210  0.084010  1.0  0.6648
  C  C36  1  0.425190  0.514250  0.334980  1.0  0.6538
  C  C37  1  0.630130  0.961720  0.157510  1.0  0.6232
  C  C38  1  0.227390  0.013700  0.491270  1.0  0.6228
  C  C39  1  0.495030  0.781340  0.991270  1.0  0.6259
  C  C40  1  0.266080  0.746470  0.747470  1.0  0.6155
  C  C41  1  0.849230  0.260170  0.165020  1.0  0.6548
  C  C42  1  0.677780  0.012590  0.584010  1.0  0.664
  C  C43  1  0.772610  0.986300  0.508730  1.0  0.6236
  C  C44  1  0.322220  0.987410  0.415990  1.0  0.6646
  O  O45  1  0.224330  0.315700  0.298210  1.0  -0.59
  O  O46  1  0.807590  0.775650  0.036300  1.0  -0.555
  O  O47  1  0.511890  0.230220  0.910190  1.0  -0.545
  O  O48  1  0.917210  0.249820  0.205990  1.0  -0.5424
  O  O49  1  0.681860  0.727900  0.252960  1.0  -0.5372
  O  O50  1  0.291320  0.878810  0.456150  1.0  -0.5435
  O  O51  1  0.970440  0.805750  0.044410  1.0  -0.581
  O  O52  1  0.264460  0.740410  0.657350  1.0  -0.5375
  O  O53  1  0.396120  0.244050  0.171470  1.0  -0.6025
  O  O54  1  0.921080  0.742160  0.462120  1.0  -0.5986
  O  O55  1  0.735240  0.935090  0.996170  1.0  -0.5383
  O  O56  1  0.868160  0.275750  0.066710  1.0  -0.6069
  O  O57  1  0.019140  0.565180  0.752960  1.0  -0.5364
  O  O58  1  0.029560  0.194250  0.955590  1.0  -0.5811
  O  O59  1  0.264760  0.064910  0.003830  1.0  -0.5371
  O  O60  1  0.602240  0.578190  0.157350  1.0  -0.5355
  O  O61  1  0.131840  0.724250  0.933290  1.0  -0.6066
  O  O62  1  0.735540  0.259590  0.342650  1.0  -0.5374
  O  O63  1  0.149840  0.485150  0.544410  1.0  -0.5794
  O  O64  1  0.990470  0.385720  0.791070  1.0  -0.6078
  O  O65  1  0.342460  0.434870  0.433290  1.0  -0.6069
  O  O66  1  0.062440  0.280900  0.287800  1.0  -0.5545
  O  O67  1  0.980860  0.434820  0.247040  1.0  -0.5363
  O  O68  1  0.480420  0.388280  0.264320  1.0  -0.5586
  O  O69  1  0.347400  0.755260  0.764320  1.0  -0.5572
  O  O70  1  0.397760  0.421810  0.842650  1.0  -0.5381
  O  O71  1  0.519580  0.611720  0.735680  1.0  -0.5579
  O  O72  1  0.931260  0.231410  0.503830  1.0  -0.5396
  O  O73  1  0.318140  0.272100  0.747040  1.0  -0.5356
  O  O74  1  0.204280  0.883200  0.037880  1.0  -0.5962
  O  O75  1  0.937560  0.719100  0.712200  1.0  -0.5546
  O  O76  1  0.775670  0.684300  0.701790  1.0  -0.5905
  O  O77  1  0.415520  0.067590  0.328530  1.0  -0.6022
  O  O78  1  0.708680  0.121190  0.543850  1.0  -0.5435
  O  O79  1  0.334960  0.247470  0.043850  1.0  -0.5435
  O  O80  1  0.823210  0.718460  0.291070  1.0  -0.6097
  O  O81  1  0.795720  0.116800  0.962120  1.0  -0.5967
  O  O82  1  0.603880  0.755950  0.828530  1.0  -0.6004
  O  O83  1  0.237840  0.111420  0.458820  1.0  -0.5479
  O  O84  1  0.429760  0.803340  0.958820  1.0  -0.546
  O  O85  1  0.431300  0.149760  0.787800  1.0  -0.5526
  O  O86  1  0.455810  0.623200  0.294010  1.0  -0.5434
  O  O87  1  0.762160  0.888580  0.541180  1.0  -0.547
  O  O88  1  0.082790  0.750180  0.794010  1.0  -0.5419
  O  O89  1  0.850160  0.514850  0.455590  1.0  -0.5835
  O  O90  1  0.568700  0.850240  0.212200  1.0  -0.5513
  O  O91  1  0.386090  0.977460  0.798210  1.0  -0.5882
  O  O92  1  0.488110  0.769780  0.089810  1.0  -0.5462
  O  O93  1  0.009530  0.614280  0.208930  1.0  -0.6111
  O  O94  1  0.613910  0.022540  0.201790  1.0  -0.595
  O  O95  1  0.544190  0.376800  0.705990  1.0  -0.5428
  O  O96  1  0.078920  0.257840  0.537880  1.0  -0.5998
  O  O97  1  0.192410  0.224350  0.963700  1.0  -0.5543
  O  O98  1  0.859590  0.077920  0.410190  1.0  -0.544
  O  O99  1  0.068740  0.768590  0.496170  1.0  -0.5381
  O  O100  1  0.652600  0.244740  0.235680  1.0  -0.5585
  O  O101  1  0.584480  0.932410  0.671470  1.0  -0.6041
  O  O102  1  0.140410  0.922080  0.589810  1.0  -0.5445
  O  O103  1  0.188050  0.656110  0.536300  1.0  -0.5501
  O  O104  1  0.176790  0.281540  0.708930  1.0  -0.6077
  O  O105  1  0.811950  0.343890  0.463700  1.0  -0.55
  O  O106  1  0.570240  0.196660  0.041180  1.0  -0.5454
  O  O107  1  0.657540  0.565130  0.566710  1.0  -0.6063
  O  O108  1  0.665040  0.752530  0.956150  1.0  -0.5428
