# generated using pymatgen
data_Li2Zr(CO2)8
_symmetry_space_group_name_H-M   'P 1'
_cell_length_a   8.47520000
_cell_length_b   8.47970000
_cell_length_c   16.17250000
_cell_angle_alpha   78.17700000
_cell_angle_beta   89.23200000
_cell_angle_gamma   69.33400000
_symmetry_Int_Tables_number   1
_chemical_formula_structural   Li2Zr(CO2)8
_chemical_formula_sum   'Li4 Zr2 C16 O32'
_cell_volume   1062.20871398
_cell_formula_units_Z   2
loop_
 _symmetry_equiv_pos_site_id
 _symmetry_equiv_pos_as_xyz
  1  'x, y, z'
loop_
 _atom_site_type_symbol
 _atom_site_label
 _atom_site_symmetry_multiplicity
 _atom_site_fract_x
 _atom_site_fract_y
 _atom_site_fract_z
 _atom_site_occupancy
 _atom_site_charge
  Li  Li1  1  0.760000  0.580000  0.374000  1.0  0.9309
  Li  Li2  1  0.796000  0.901000  0.434700  1.0  0.9338
  Li  Li3  1  0.758000  0.243000  0.908800  1.0  0.9856
  Li  Li4  1  0.813000  0.226000  0.427700  1.0  0.984
  Zr  Zr5  1  0.237130  0.129790  0.164430  1.0  2.02
  Zr  Zr6  1  0.314080  0.344420  0.640190  1.0  2.0258
  C  C7  1  0.010300  0.558400  0.515100  1.0  0.5728
  C  C8  1  0.009700  0.266100  0.301200  1.0  0.6807
  C  C9  1  0.538700  0.212800  0.501100  1.0  0.6651
  C  C10  1  0.535100  0.394900  0.492100  1.0  0.6098
  C  C11  1  0.541500  0.910300  0.290900  1.0  0.5951
  C  C12  1  0.000600  0.083200  0.037600  1.0  0.5979
  C  C13  1  0.022400  0.069900  0.311500  1.0  0.6156
  C  C14  1  0.950200  0.277000  0.031800  1.0  0.6308
  C  C15  1  0.157000  0.084000  0.730300  1.0  0.6351
  C  C16  1  0.391200  0.389000  0.075000  1.0  0.5846
  C  C17  1  0.114000  0.230000  0.781200  1.0  0.6719
  C  C18  1  0.031600  0.691500  0.564500  1.0  0.5712
  C  C19  1  0.548000  0.393000  0.765000  1.0  0.5774
  C  C20  1  0.519600  0.784600  0.240800  1.0  0.5787
  C  C21  1  0.606100  0.191500  0.775400  1.0  0.5703
  C  C22  1  0.447300  0.244000  0.025300  1.0  0.6115
  O  O23  1  0.894700  0.619700  0.456800  1.0  -0.6681
  O  O24  1  0.520000  0.151400  0.720500  1.0  -0.5277
  O  O25  1  0.611100  0.456200  0.437800  1.0  -0.6218
  O  O26  1  0.127000  0.955200  0.753300  1.0  -0.4075
  O  O27  1  0.420500  0.523000  0.049900  1.0  -0.4038
  O  O28  1  0.228900  0.121600  0.665600  1.0  -0.5445
  O  O29  1  0.127700  0.994200  0.094300  1.0  -0.5512
  O  O30  1  0.931100  0.840400  0.546800  1.0  -0.4895
  O  O31  1  0.633600  0.116800  0.457200  1.0  -0.7046
  O  O32  1  0.923600  0.353200  0.346400  1.0  -0.6397
  O  O33  1  0.837600  0.379100  0.975600  1.0  -0.4941
  O  O34  1  0.162100  0.352500  0.747800  1.0  -0.5717
  O  O35  1  0.651300  0.855800  0.347200  1.0  -0.6569
  O  O36  1  0.015200  0.234900  0.836800  1.0  -0.6496
  O  O37  1  0.151200  0.624100  0.622200  1.0  -0.5172
  O  O38  1  0.397600  0.114600  0.059900  1.0  -0.5472
  O  O39  1  0.504200  0.261500  0.956500  1.0  -0.5773
  O  O40  1  0.112600  0.407400  0.539900  1.0  -0.5392
  O  O41  1  0.433600  0.478400  0.543900  1.0  -0.5571
  O  O42  1  0.441500  0.066200  0.265900  1.0  -0.575
  O  O43  1  0.104100  0.302500  0.248200  1.0  -0.5621
  O  O44  1  0.399800  0.850100  0.183000  1.0  -0.545
  O  O45  1  0.630500  0.451000  0.807400  1.0  -0.4844
  O  O46  1  0.314500  0.353700  0.144500  1.0  -0.5344
  O  O47  1  0.447200  0.165100  0.558300  1.0  -0.5708
  O  O48  1  0.714500  0.098100  0.826900  1.0  -0.4696
  O  O49  1  0.033500  0.320800  0.080800  1.0  -0.5328
  O  O50  1  0.110400  0.995100  0.261200  1.0  -0.5393
  O  O51  1  0.935600  0.019700  0.365600  1.0  -0.6704
  O  O52  1  0.929400  0.027700  0.996700  1.0  -0.4915
  O  O53  1  0.424200  0.477800  0.711800  1.0  -0.5209
  O  O54  1  0.611100  0.631100  0.259200  1.0  -0.4842
