# generated using pymatgen
data_CaH20(C17O4)2
_symmetry_space_group_name_H-M   'P 1'
_cell_length_a   5.15940000
_cell_length_b   11.02740000
_cell_length_c   15.27400000
_cell_angle_alpha   83.31000000
_cell_angle_beta   87.65700000
_cell_angle_gamma   83.12800000
_symmetry_Int_Tables_number   1
_chemical_formula_structural   CaH20(C17O4)2
_chemical_formula_sum   'Ca1 H20 C34 O8'
_cell_volume   856.57313367
_cell_formula_units_Z   1
loop_
 _symmetry_equiv_pos_site_id
 _symmetry_equiv_pos_as_xyz
  1  'x, y, z'
loop_
 _atom_site_type_symbol
 _atom_site_label
 _atom_site_symmetry_multiplicity
 _atom_site_fract_x
 _atom_site_fract_y
 _atom_site_fract_z
 _atom_site_occupancy
 _atom_site_charge
  Ca  Ca1  1  0.000000  0.000000  0.000000  1.0  1.5128
  H  H2  1  0.964600  0.710800  0.484200  1.0  0.1075
  H  H3  1  0.499400  0.260500  0.607500  1.0  0.1146
  H  H4  1  0.651600  0.151600  0.737300  1.0  0.0996
  H  H5  1  0.034900  0.304000  0.869000  1.0  0.1055
  H  H6  1  0.896900  0.420700  0.741400  1.0  0.0905
  H  H7  1  0.497300  0.529000  0.668900  1.0  0.0909
  H  H8  1  0.602100  0.632100  0.782800  1.0  0.1007
  H  H9  1  0.952400  0.867600  0.743900  1.0  0.0977
  H  H10  1  0.850200  0.765100  0.629400  1.0  0.1049
  H  H11  1  0.586900  0.821800  0.929600  1.0  0.3993
  H  H12  1  0.035400  0.289200  0.515800  1.0  0.1091
  H  H13  1  0.500600  0.739500  0.392500  1.0  0.114
  H  H14  1  0.348400  0.848400  0.262700  1.0  0.0999
  H  H15  1  0.965100  0.696000  0.131000  1.0  0.1057
  H  H16  1  0.103100  0.579300  0.258600  1.0  0.0903
  H  H17  1  0.502700  0.471000  0.331100  1.0  0.0909
  H  H18  1  0.397900  0.367900  0.217200  1.0  0.1005
  H  H19  1  0.047600  0.132400  0.256100  1.0  0.0974
  H  H20  1  0.149800  0.234900  0.370600  1.0  0.1047
  H  H21  1  0.413100  0.178200  0.070400  1.0  0.398
  C  C22  1  0.979500  0.625400  0.490550  1.0  -0.0868
  C  C23  1  0.077200  0.562080  0.568940  1.0  0.0133
  C  C24  1  0.096600  0.432660  0.578480  1.0  0.0055
  C  C25  1  0.185000  0.356000  0.661350  1.0  0.03
  C  C26  1  0.409200  0.271900  0.660400  1.0  -0.1213
  C  C27  1  0.498000  0.205000  0.738220  1.0  -0.0578
  C  C28  1  0.361100  0.217000  0.817000  1.0  -0.1365
  C  C29  1  0.132400  0.297000  0.816920  1.0  -0.0339
  C  C30  1  0.048600  0.366100  0.740080  1.0  -0.1117
  C  C31  1  0.464500  0.150200  0.901980  1.0  0.6867
  C  C32  1  0.157300  0.633530  0.638920  1.0  0.0095
  C  C33  1  0.385800  0.596200  0.684480  1.0  -0.1092
  C  C34  1  0.448700  0.658200  0.752680  1.0  -0.0349
  C  C35  1  0.285500  0.758950  0.776790  1.0  -0.1896
  C  C36  1  0.061400  0.798900  0.729500  1.0  -0.0254
  C  C37  1  0.999800  0.737000  0.661130  1.0  -0.1087
  C  C38  1  0.338700  0.820600  0.854210  1.0  0.659
  C  C39  1  0.020500  0.374600  0.509450  1.0  -0.0867
  C  C40  1  0.922800  0.437920  0.431060  1.0  0.0118
  C  C41  1  0.903400  0.567340  0.421520  1.0  0.0052
  C  C42  1  0.815000  0.644000  0.338650  1.0  0.03
  C  C43  1  0.590800  0.728100  0.339600  1.0  -0.1225
  C  C44  1  0.502000  0.795000  0.261780  1.0  -0.0555
  C  C45  1  0.638900  0.783000  0.183000  1.0  -0.1378
  C  C46  1  0.867600  0.703000  0.183080  1.0  -0.0348
  C  C47  1  0.951400  0.633900  0.259920  1.0  -0.1129
  C  C48  1  0.535500  0.849800  0.098020  1.0  0.6867
  C  C49  1  0.842700  0.366470  0.361080  1.0  0.0099
  C  C50  1  0.614200  0.403800  0.315520  1.0  -0.1107
  C  C51  1  0.551300  0.341800  0.247320  1.0  -0.036
  C  C52  1  0.714500  0.241050  0.223210  1.0  -0.1902
  C  C53  1  0.938600  0.201100  0.270500  1.0  -0.027
  C  C54  1  0.000200  0.263000  0.338870  1.0  -0.1104
  C  C55  1  0.661300  0.179400  0.145790  1.0  0.6578
  O  O56  1  0.304800  0.141970  0.967940  1.0  -0.6392
  O  O57  1  0.698300  0.109580  0.904230  1.0  -0.6973
  O  O58  1  0.181800  0.898160  0.883250  1.0  -0.6089
  O  O59  1  0.568600  0.784650  0.887190  1.0  -0.5026
  O  O60  1  0.695200  0.858030  0.032060  1.0  -0.6408
  O  O61  1  0.301700  0.890420  0.095770  1.0  -0.6989
  O  O62  1  0.818200  0.101840  0.116750  1.0  -0.6091
  O  O63  1  0.431400  0.215350  0.112810  1.0  -0.503
