# generated using pymatgen
data_Li2Zr(CO2)8
_symmetry_space_group_name_H-M   'P 1'
_cell_length_a   8.53020000
_cell_length_b   8.59020000
_cell_length_c   16.15820000
_cell_angle_alpha   89.30900000
_cell_angle_beta   78.00400000
_cell_angle_gamma   68.81200000
_symmetry_Int_Tables_number   1
_chemical_formula_structural   Li2Zr(CO2)8
_chemical_formula_sum   'Li4 Zr2 C16 O32'
_cell_volume   1077.27787108
_cell_formula_units_Z   2
loop_
 _symmetry_equiv_pos_site_id
 _symmetry_equiv_pos_as_xyz
  1  'x, y, z'
loop_
 _atom_site_type_symbol
 _atom_site_label
 _atom_site_symmetry_multiplicity
 _atom_site_fract_x
 _atom_site_fract_y
 _atom_site_fract_z
 _atom_site_occupancy
 _atom_site_charge
  Li  Li1  1  0.852000  0.782000  0.621300  1.0  0.9302
  Li  Li2  1  0.175000  0.815000  0.678000  1.0  0.9284
  Li  Li3  1  0.523000  0.795000  0.150000  1.0  1.0472
  Li  Li4  1  0.530800  0.758000  0.622200  1.0  0.9792
  Zr  Zr5  1  0.403070  0.262200  0.414050  1.0  2.011
  Zr  Zr6  1  0.622190  0.342400  0.888350  1.0  2.0377
  C  C7  1  0.184000  0.562500  0.539600  1.0  0.6121
  C  C8  1  0.554000  0.982900  0.281300  1.0  0.5997
  C  C9  1  0.678500  0.560800  0.743700  1.0  0.6044
  C  C10  1  0.664400  0.579300  0.019800  1.0  0.4673
  C  C11  1  0.058400  0.546500  0.491100  1.0  0.6281
  C  C12  1  0.509000  0.480000  0.279500  1.0  0.6693
  C  C13  1  0.834200  0.039000  0.761000  1.0  0.6262
  C  C14  1  0.475000  0.634000  0.026300  1.0  0.5699
  C  C15  1  0.488500  0.568400  0.751000  1.0  0.6267
  C  C16  1  0.965700  0.060000  0.810700  1.0  0.5961
  C  C17  1  0.538000  0.032400  0.549900  1.0  0.6824
  C  C18  1  0.661700  0.424100  0.325700  1.0  0.6326
  C  C19  1  0.505000  0.147000  0.028600  1.0  0.6673
  C  C20  1  0.354800  0.037100  0.559000  1.0  0.6484
  C  C21  1  0.346900  0.048000  0.291600  1.0  0.601
  C  C22  1  0.367000  0.198000  0.976600  1.0  0.6179
  O  O23  1  0.393800  0.422800  0.309400  1.0  -0.5704
  O  O24  1  0.295600  0.958000  0.611500  1.0  -0.6525
  O  O25  1  0.637700  0.185700  0.992200  1.0  -0.5294
  O  O26  1  0.650300  0.865900  0.226400  1.0  -0.5103
  O  O27  1  0.397700  0.658300  0.707700  1.0  -0.651
  O  O28  1  0.131700  0.679500  0.597900  1.0  -0.6998
  O  O29  1  0.396700  0.270200  0.911300  1.0  -0.5334
  O  O30  1  0.682500  0.146200  0.785900  1.0  -0.561
  O  O31  1  0.227800  0.166200  0.000900  1.0  -0.4182
  O  O32  1  0.447300  0.476300  0.805500  1.0  -0.571
  O  O33  1  0.339600  0.462700  0.515900  1.0  -0.5674
  O  O34  1  0.270500  0.157800  0.339600  1.0  -0.5201
  O  O35  1  0.891300  0.932000  0.704700  1.0  -0.6047
  O  O36  1  0.497100  0.072000  0.091400  1.0  -0.601
  O  O37  1  0.114900  0.964300  0.793000  1.0  -0.498
  O  O38  1  0.579500  0.124900  0.495800  1.0  -0.5652
  O  O39  1  0.301200  0.961100  0.244900  1.0  -0.5913
  O  O40  1  0.757800  0.468600  0.794200  1.0  -0.5442
  O  O41  1  0.729400  0.642300  0.060400  1.0  -0.4744
  O  O42  1  0.505400  0.564600  0.221500  1.0  -0.6142
  O  O43  1  0.274000  0.137500  0.510000  1.0  -0.5775
  O  O44  1  0.125400  0.424200  0.434100  1.0  -0.5428
  O  O45  1  0.628100  0.941000  0.595300  1.0  -0.6666
  O  O46  1  0.626500  0.341800  0.390000  1.0  -0.5718
  O  O47  1  0.783400  0.452800  0.304100  1.0  -0.3775
  O  O48  1  0.903000  0.180900  0.867000  1.0  -0.5274
  O  O49  1  0.729700  0.644700  0.690200  1.0  -0.6469
  O  O50  1  0.594600  0.060000  0.329800  1.0  -0.5051
  O  O51  1  0.909800  0.645600  0.509700  1.0  -0.4881
  O  O52  1  0.432900  0.550200  0.969700  1.0  -0.5445
  O  O53  1  0.759300  0.444400  0.958500  1.0  -0.5797
  O  O54  1  0.376600  0.737100  0.078200  1.0  -0.4776
