# generated using pymatgen
data_Li2Zr(CO2)8
_symmetry_space_group_name_H-M   'P 1'
_cell_length_a   13.84890000
_cell_length_b   13.84890000
_cell_length_c   14.03030000
_cell_angle_alpha   70.67890000
_cell_angle_beta   67.43100000
_cell_angle_gamma   106.02100000
_symmetry_Int_Tables_number   1
_chemical_formula_structural   Li2Zr(CO2)8
_chemical_formula_sum   'Li8 Zr4 C32 O64'
_cell_volume   2079.09000507
_cell_formula_units_Z   4
loop_
 _symmetry_equiv_pos_site_id
 _symmetry_equiv_pos_as_xyz
  1  'x, y, z'
loop_
 _atom_site_type_symbol
 _atom_site_label
 _atom_site_symmetry_multiplicity
 _atom_site_fract_x
 _atom_site_fract_y
 _atom_site_fract_z
 _atom_site_occupancy
 _atom_site_charge
  Li  Li1  1  0.316500  0.644800  0.936900  1.0  0.9522
  Li  Li2  1  0.069200  0.147400  0.688600  1.0  0.9645
  Li  Li3  1  0.683500  0.355200  0.063100  1.0  0.9535
  Li  Li4  1  0.930800  0.852600  0.311400  1.0  0.966
  Li  Li5  1  0.836000  0.257800  0.811400  1.0  0.9656
  Li  Li6  1  0.418300  0.246600  0.436900  1.0  0.9527
  Li  Li7  1  0.581700  0.753400  0.563100  1.0  0.9529
  Li  Li8  1  0.164000  0.742200  0.188600  1.0  0.9648
  Zr  Zr9  1  0.876750  0.249990  0.374150  1.0  2.0482
  Zr  Zr10  1  0.123250  0.750010  0.625850  1.0  2.0446
  Zr  Zr11  1  0.375860  0.249100  0.874150  1.0  2.046
  Zr  Zr12  1  0.624140  0.750900  0.125850  1.0  2.0449
  C  C13  1  0.270650  0.987210  0.010000  1.0  0.6361
  C  C14  1  0.383900  0.714940  0.155800  1.0  0.67
  C  C15  1  0.178860  0.014580  0.084540  1.0  0.676
  C  C16  1  0.099120  0.763400  0.415460  1.0  0.6755
  C  C17  1  0.369230  0.457620  0.900430  1.0  0.6871
  C  C18  1  0.641950  0.230340  0.400430  1.0  0.6871
  C  C19  1  0.002790  0.219350  0.510000  1.0  0.6357
  C  C20  1  0.721550  0.266240  0.269610  1.0  0.6388
  C  C21  1  0.729350  0.012790  0.990000  1.0  0.634
  C  C22  1  0.347440  0.254830  0.667610  1.0  0.6458
  C  C23  1  0.077560  0.484950  0.167610  1.0  0.6425
  C  C24  1  0.001950  0.486920  0.746150  1.0  0.6219
  C  C25  1  0.616100  0.285060  0.844200  1.0  0.6721
  C  C26  1  0.464150  0.508840  0.769610  1.0  0.6395
  C  C27  1  0.997210  0.780650  0.490000  1.0  0.6354
  C  C28  1  0.358050  0.769660  0.599570  1.0  0.6865
  C  C29  1  0.652560  0.745170  0.332390  1.0  0.6451
  C  C30  1  0.998050  0.513080  0.253850  1.0  0.6223
  C  C31  1  0.129260  0.960300  0.655800  1.0  0.6707
  C  C32  1  0.539480  0.260550  0.971610  1.0  0.6553
  C  C33  1  0.460520  0.739450  0.028390  1.0  0.6552
  C  C34  1  0.767840  0.988910  0.471610  1.0  0.6533
  C  C35  1  0.870740  0.039700  0.344200  1.0  0.6719
  C  C36  1  0.233070  0.248100  0.753850  1.0  0.6241
  C  C37  1  0.766930  0.751900  0.246150  1.0  0.6236
  C  C38  1  0.630770  0.542380  0.099570  1.0  0.6861
  C  C39  1  0.922440  0.515050  0.832390  1.0  0.6434
  C  C40  1  0.900880  0.236600  0.584540  1.0  0.6755
  C  C41  1  0.278450  0.733760  0.730390  1.0  0.6386
  C  C42  1  0.535850  0.491160  0.230390  1.0  0.6381
  C  C43  1  0.232160  0.011090  0.528390  1.0  0.6535
  C  C44  1  0.821140  0.985420  0.915460  1.0  0.676
  O  O45  1  0.913330  0.064100  0.828710  1.0  -0.614
  O  O46  1  0.634340  0.730400  0.429140  1.0  -0.6052
  O  O47  1  0.045450  0.376290  0.208140  1.0  -0.5422
  O  O48  1  0.259320  0.889500  0.042000  1.0  -0.5562
  O  O49  1  0.720180  0.309490  0.801310  1.0  -0.615
  O  O50  1  0.833330  0.245750  0.543560  1.0  -0.5436
  O  O51  1  0.765460  0.745370  0.157210  1.0  -0.5633
  O  O52  1  0.415570  0.246410  0.708140  1.0  -0.5416
  O  O53  1  0.560440  0.277900  0.789560  1.0  -0.5539
  O  O54  1  0.279820  0.690510  0.198690  1.0  -0.6161
  O  O55  1  0.976210  0.389120  0.763110  1.0  -0.5638
  O  O56  1  0.234540  0.254630  0.842790  1.0  -0.5624
  O  O57  1  0.086670  0.935900  0.171290  1.0  -0.6142
  O  O58  1  0.889200  0.978510  0.301310  1.0  -0.6153
  O  O59  1  0.356800  0.076750  0.912390  1.0  -0.5521
  O  O60  1  0.237010  0.932870  0.499460  1.0  -0.5435
  O  O61  1  0.159540  0.563480  0.070860  1.0  -0.6055
  O  O62  1  0.823670  0.274120  0.244450  1.0  -0.5468
  O  O63  1  0.314690  0.717710  0.796920  1.0  -0.6185
  O  O64  1  0.067460  0.850000  0.710440  1.0  -0.5507
  O  O65  1  0.840460  0.436520  0.929140  1.0  -0.6047
  O  O66  1  0.537440  0.204370  0.444130  1.0  -0.6145
  O  O67  1  0.097420  0.577330  0.657210  1.0  -0.5619
  O  O68  1  0.107190  0.757960  0.328710  1.0  -0.6115
  O  O69  1  0.297780  0.113410  0.465590  1.0  -0.6079
  O  O70  1  0.789310  0.876890  0.956440  1.0  -0.5439
  O  O71  1  0.210690  0.123110  0.043560  1.0  -0.5437
  O  O72  1  0.421000  0.736630  0.965590  1.0  -0.61
  O  O73  1  0.702220  0.886590  0.534410  1.0  -0.6075
  O  O74  1  0.110800  0.021490  0.698690  1.0  -0.618
  O  O75  1  0.954550  0.623710  0.791860  1.0  -0.543
  O  O76  1  0.648500  0.481570  0.055870  1.0  -0.6181
  O  O77  1  0.351500  0.518430  0.944130  1.0  -0.6184
  O  O78  1  0.686540  0.652530  0.043090  1.0  -0.5477
  O  O79  1  0.068500  0.198680  0.542000  1.0  -0.5546
  O  O80  1  0.166670  0.754250  0.456440  1.0  -0.5431
  O  O81  1  0.989140  0.769190  0.587610  1.0  -0.5535
  O  O82  1  0.514630  0.611610  0.703080  1.0  -0.6221
  O  O83  1  0.313460  0.347470  0.956910  1.0  -0.5479
  O  O84  1  0.176330  0.725880  0.755550  1.0  -0.5486
  O  O85  1  0.485370  0.388390  0.296920  1.0  -0.6198
  O  O86  1  0.365660  0.269600  0.570860  1.0  -0.6028
  O  O87  1  0.518570  0.568120  0.255550  1.0  -0.5467
  O  O88  1  0.685310  0.282290  0.203080  1.0  -0.6183
  O  O89  1  0.439560  0.722100  0.210440  1.0  -0.5561
  O  O90  1  0.579000  0.263370  0.034410  1.0  -0.6117
  O  O91  1  0.695620  0.229630  0.456910  1.0  -0.55
  O  O92  1  0.432330  0.236470  0.000540  1.0  -0.5454
  O  O93  1  0.462560  0.795630  0.555870  1.0  -0.6185
  O  O94  1  0.932540  0.150000  0.289560  1.0  -0.5513
  O  O95  1  0.304380  0.770370  0.543090  1.0  -0.5483
  O  O96  1  0.010860  0.230810  0.412390  1.0  -0.5534
  O  O97  1  0.567670  0.763530  0.999460  1.0  -0.5451
  O  O98  1  0.931500  0.801320  0.458000  1.0  -0.5546
  O  O99  1  0.152230  0.239320  0.736890  1.0  -0.564
  O  O100  1  0.023790  0.610880  0.236890  1.0  -0.5634
  O  O101  1  0.481430  0.431880  0.744450  1.0  -0.5469
  O  O102  1  0.643200  0.923250  0.087610  1.0  -0.5526
  O  O103  1  0.847770  0.760680  0.263110  1.0  -0.5625
  O  O104  1  0.892810  0.242040  0.671290  1.0  -0.6133
  O  O105  1  0.902580  0.422670  0.342790  1.0  -0.5624
  O  O106  1  0.584430  0.753590  0.291860  1.0  -0.5417
  O  O107  1  0.740680  0.110500  0.958000  1.0  -0.5564
  O  O108  1  0.762990  0.067130  0.500540  1.0  -0.5427
