# generated using pymatgen
data_Li2Zr(CO2)8
_symmetry_space_group_name_H-M   'P 1'
_cell_length_a   8.47300000
_cell_length_b   8.87030000
_cell_length_c   15.96130000
_cell_angle_alpha   88.11300000
_cell_angle_beta   75.34900000
_cell_angle_gamma   68.28500000
_symmetry_Int_Tables_number   1
_chemical_formula_structural   Li2Zr(CO2)8
_chemical_formula_sum   'Li4 Zr2 C16 O32'
_cell_volume   1075.79397898
_cell_formula_units_Z   2
loop_
 _symmetry_equiv_pos_site_id
 _symmetry_equiv_pos_as_xyz
  1  'x, y, z'
loop_
 _atom_site_type_symbol
 _atom_site_label
 _atom_site_symmetry_multiplicity
 _atom_site_fract_x
 _atom_site_fract_y
 _atom_site_fract_z
 _atom_site_occupancy
 _atom_site_charge
  Li  Li1  1  0.850200  0.798400  0.626700  1.0  0.9358
  Li  Li2  1  0.518100  0.797700  0.646600  1.0  1.0267
  Li  Li3  1  0.175000  0.811600  0.675400  1.0  0.9352
  Li  Li4  1  0.512600  0.805500  0.150500  1.0  0.9499
  Zr  Zr5  1  0.393100  0.268600  0.413200  1.0  2.0194
  Zr  Zr6  1  0.630300  0.341400  0.889000  1.0  2.0142
  C  C7  1  0.361800  0.020600  0.549100  1.0  0.5926
  C  C8  1  0.345000  0.054800  0.281800  1.0  0.5725
  C  C9  1  0.678200  0.555600  0.020200  1.0  0.5707
  C  C10  1  0.983200  0.068500  0.800200  1.0  0.5817
  C  C11  1  0.847800  0.051700  0.756300  1.0  0.6167
  C  C12  1  0.376900  0.172800  0.981500  1.0  0.6169
  C  C13  1  0.537900  0.102800  0.019800  1.0  0.558
  C  C14  1  0.175400  0.559000  0.545600  1.0  0.6213
  C  C15  1  0.538100  0.035900  0.547000  1.0  0.6315
  C  C16  1  0.480300  0.623800  0.025100  1.0  0.57
  C  C17  1  0.646900  0.436800  0.320700  1.0  0.6137
  C  C18  1  0.663700  0.587200  0.752100  1.0  0.6099
  C  C19  1  0.485900  0.507000  0.282400  1.0  0.5594
  C  C20  1  0.039900  0.540800  0.502200  1.0  0.5903
  C  C21  1  0.487400  0.572500  0.754000  1.0  0.6304
  C  C22  1  0.542700  0.985700  0.277500  1.0  0.5759
  O  O23  1  0.585300  0.062500  0.330700  1.0  -0.5438
  O  O24  1  0.468700  0.613700  0.231000  1.0  -0.6234
  O  O25  1  0.372400  0.436400  0.311800  1.0  -0.5478
  O  O26  1  0.644400  0.868700  0.226200  1.0  -0.4722
  O  O27  1  0.629100  0.948100  0.593900  1.0  -0.6502
  O  O28  1  0.449500  0.471500  0.805900  1.0  -0.5497
  O  O29  1  0.286400  0.988100  0.237000  1.0  -0.4783
  O  O30  1  0.766700  0.427500  0.966900  1.0  -0.5018
  O  O31  1  0.691700  0.157800  0.783400  1.0  -0.5398
  O  O32  1  0.707400  0.688600  0.705400  1.0  -0.6684
  O  O33  1  0.437700  0.546600  0.972100  1.0  -0.5436
  O  O34  1  0.105500  0.420100  0.444600  1.0  -0.5231
  O  O35  1  0.917900  0.189200  0.857800  1.0  -0.5055
  O  O36  1  0.884700  0.638100  0.524300  1.0  -0.4892
  O  O37  1  0.331700  0.453500  0.518300  1.0  -0.546
  O  O38  1  0.555300  0.995900  0.071100  1.0  -0.6086
  O  O39  1  0.247200  0.135600  0.007500  1.0  -0.4203
  O  O40  1  0.776600  0.474100  0.294800  1.0  -0.4198
  O  O41  1  0.651200  0.173600  0.990500  1.0  -0.548
  O  O42  1  0.378500  0.740500  0.076500  1.0  -0.4717
  O  O43  1  0.750300  0.491000  0.800300  1.0  -0.5496
  O  O44  1  0.137900  0.970400  0.778300  1.0  -0.4794
  O  O45  1  0.901400  0.938900  0.698900  1.0  -0.6428
  O  O46  1  0.121700  0.672100  0.602900  1.0  -0.6412
  O  O47  1  0.256700  0.182700  0.335200  1.0  -0.4977
  O  O48  1  0.628000  0.336800  0.380400  1.0  -0.5124
  O  O49  1  0.736900  0.622900  0.064600  1.0  -0.4736
  O  O50  1  0.398400  0.658000  0.705600  1.0  -0.6601
  O  O51  1  0.273600  0.118500  0.502000  1.0  -0.5506
  O  O52  1  0.573700  0.139400  0.496500  1.0  -0.5508
  O  O53  1  0.396000  0.272400  0.921600  1.0  -0.5083
  O  O54  1  0.320000  0.917300  0.594800  1.0  -0.6749
