# generated using pymatgen
data_Li2Zr(CO2)8
_symmetry_space_group_name_H-M   'P 1'
_cell_length_a   13.73600000
_cell_length_b   13.73600000
_cell_length_c   14.03010000
_cell_angle_alpha   108.11200000
_cell_angle_beta   113.53400000
_cell_angle_gamma   105.94000000
_symmetry_Int_Tables_number   1
_chemical_formula_structural   Li2Zr(CO2)8
_chemical_formula_sum   'Li8 Zr4 C32 O64'
_cell_volume   2051.03235028
_cell_formula_units_Z   4
loop_
 _symmetry_equiv_pos_site_id
 _symmetry_equiv_pos_as_xyz
  1  'x, y, z'
loop_
 _atom_site_type_symbol
 _atom_site_label
 _atom_site_symmetry_multiplicity
 _atom_site_fract_x
 _atom_site_fract_y
 _atom_site_fract_z
 _atom_site_occupancy
 _atom_site_charge
  Li  Li1  1  0.337200  0.652000  0.577400  1.0  0.9667
  Li  Li2  1  0.180200  0.748000  0.322800  1.0  0.9345
  Li  Li3  1  0.925200  0.857400  0.177200  1.0  0.9285
  Li  Li4  1  0.074800  0.142600  0.822800  1.0  0.9322
  Li  Li5  1  0.425400  0.240200  0.077400  1.0  0.9679
  Li  Li6  1  0.819800  0.252000  0.677200  1.0  0.9245
  Li  Li7  1  0.662800  0.348000  0.422600  1.0  0.9632
  Li  Li8  1  0.574600  0.759800  0.922600  1.0  0.9622
  Zr  Zr9  1  0.625600  0.752000  0.373600  1.0  2.0161
  Zr  Zr10  1  0.121600  0.748000  0.873600  1.0  2.0159
  Zr  Zr11  1  0.374400  0.248000  0.626400  1.0  2.0188
  Zr  Zr12  1  0.878400  0.252000  0.126400  1.0  2.0178
  C  C13  1  0.860000  0.279600  0.910200  1.0  0.6347
  C  C14  1  0.845100  0.009800  0.083700  1.0  0.6401
  C  C15  1  0.044900  0.763400  0.052700  1.0  0.6535
  C  C16  1  0.679500  0.261000  0.170700  1.0  0.6738
  C  C17  1  0.590300  0.508800  0.329300  1.0  0.6749
  C  C18  1  0.959900  0.486700  0.718400  1.0  0.6558
  C  C19  1  0.487700  0.244200  0.476100  1.0  0.6201
  C  C20  1  0.512300  0.755800  0.523900  1.0  0.6194
  C  C21  1  0.789300  0.007800  0.552700  1.0  0.6516
  C  C22  1  0.778500  0.282000  0.289900  1.0  0.6197
  C  C23  1  0.210700  0.992200  0.447300  1.0  0.6525
  C  C24  1  0.409700  0.491200  0.670700  1.0  0.6729
  C  C25  1  0.130600  0.050200  0.410200  1.0  0.6369
  C  C26  1  0.877600  0.538700  0.667500  1.0  0.6098
  C  C27  1  0.492100  0.488600  0.210100  1.0  0.6189
  C  C28  1  0.371200  0.210100  0.832500  1.0  0.609
  C  C29  1  0.154900  0.990200  0.916300  1.0  0.6387
  C  C30  1  0.268300  0.241500  0.781600  1.0  0.6589
  C  C31  1  0.320500  0.739000  0.829300  1.0  0.6748
  C  C32  1  0.221500  0.718000  0.710100  1.0  0.6183
  C  C33  1  0.573900  0.238600  0.583700  1.0  0.6406
  C  C34  1  0.731700  0.758500  0.218400  1.0  0.6588
  C  C35  1  0.040100  0.513300  0.281600  1.0  0.6567
  C  C36  1  0.268100  0.011600  0.023900  1.0  0.618
  C  C37  1  0.628800  0.789900  0.167500  1.0  0.6086
  C  C38  1  0.955100  0.236600  0.947300  1.0  0.6534
  C  C39  1  0.869400  0.949800  0.589800  1.0  0.6368
  C  C40  1  0.507900  0.511400  0.789900  1.0  0.6192
  C  C41  1  0.122400  0.461300  0.332500  1.0  0.6096
  C  C42  1  0.426100  0.761400  0.416300  1.0  0.6398
  C  C43  1  0.140000  0.720400  0.089800  1.0  0.6355
  C  C44  1  0.731900  0.988400  0.976100  1.0  0.6198
  O  O45  1  0.344100  0.383600  0.591300  1.0  -0.5432
  O  O46  1  0.931200  0.651000  0.722800  1.0  -0.5283
  O  O47  1  0.388400  0.233200  0.470800  1.0  -0.5304
  O  O48  1  0.137300  0.073000  0.913700  1.0  -0.5843
  O  O49  1  0.425500  0.391600  0.122700  1.0  -0.5645
  O  O50  1  0.200000  0.240300  0.818300  1.0  -0.6184
  O  O51  1  0.584600  0.257900  0.158700  1.0  -0.6296
  O  O52  1  0.922000  0.381700  0.681700  1.0  -0.6168
  O  O53  1  0.068800  0.349000  0.277200  1.0  -0.5264
  O  O54  1  0.772700  0.477900  0.584400  1.0  -0.6231
  O  O55  1  0.686900  0.937100  0.455600  1.0  -0.5454
  O  O56  1  0.488400  0.583300  0.214300  1.0  -0.5427
  O  O57  1  0.599200  0.425900  0.341300  1.0  -0.6305
  O  O58  1  0.862700  0.927000  0.086300  1.0  -0.5844
  O  O59  1  0.707700  0.247200  0.091300  1.0  -0.5447
  O  O60  1  0.513200  0.256500  0.404100  1.0  -0.542
  O  O61  1  0.068100  0.564200  0.800900  1.0  -0.5359
  O  O62  1  0.131000  0.725900  0.714300  1.0  -0.5427
  O  O63  1  0.486800  0.743500  0.595900  1.0  -0.5408
  O  O64  1  0.571800  0.791600  0.222800  1.0  -0.5285
  O  O65  1  0.078000  0.618300  0.318300  1.0  -0.6163
  O  O66  1  0.511600  0.416700  0.785700  1.0  -0.5446
  O  O67  1  0.340700  0.776400  0.413700  1.0  -0.5853
  O  O68  1  0.173400  0.888100  0.386900  1.0  -0.6404
  O  O69  1  0.611600  0.766800  0.529200  1.0  -0.5298
  O  O70  1  0.655900  0.616400  0.408700  1.0  -0.5444
  O  O71  1  0.455400  0.750600  0.337800  1.0  -0.5285
  O  O72  1  0.087200  0.882400  0.837800  1.0  -0.5279
  O  O73  1  0.981500  0.231300  0.044400  1.0  -0.5487
  O  O74  1  0.313100  0.062900  0.544400  1.0  -0.5482
  O  O75  1  0.813200  0.838200  0.527200  1.0  -0.5216
  O  O76  1  0.262400  0.917600  0.029200  1.0  -0.5292
  O  O77  1  0.393500  0.188300  0.915600  1.0  -0.6185
  O  O78  1  0.415400  0.742100  0.841300  1.0  -0.6282
  O  O79  1  0.606500  0.811700  0.084400  1.0  -0.6211
  O  O80  1  0.736700  0.732800  0.300900  1.0  -0.5413
  O  O81  1  0.024300  0.993800  0.329900  1.0  -0.5381
  O  O82  1  0.263300  0.267200  0.699100  1.0  -0.5402
  O  O83  1  0.800000  0.759700  0.181700  1.0  -0.6208
  O  O84  1  0.826600  0.111900  0.613100  1.0  -0.642
  O  O85  1  0.975700  0.006200  0.670100  1.0  -0.5372
  O  O86  1  0.231100  0.697200  0.622700  1.0  -0.5625
  O  O87  1  0.912800  0.117600  0.162200  1.0  -0.5273
  O  O88  1  0.227300  0.522100  0.415600  1.0  -0.6214
  O  O89  1  0.001200  0.786500  0.113100  1.0  -0.641
  O  O90  1  0.737600  0.082400  0.970800  1.0  -0.5272
  O  O91  1  0.018500  0.768700  0.955600  1.0  -0.5488
  O  O92  1  0.292300  0.752800  0.908700  1.0  -0.5453
  O  O93  1  0.768900  0.302800  0.377300  1.0  -0.564
  O  O94  1  0.400800  0.574100  0.658700  1.0  -0.6303
  O  O95  1  0.352400  0.109100  0.095900  1.0  -0.5399
  O  O96  1  0.869000  0.274100  0.285700  1.0  -0.544
  O  O97  1  0.163900  0.694400  0.170100  1.0  -0.5366
  O  O98  1  0.544600  0.249400  0.662200  1.0  -0.527
  O  O99  1  0.647600  0.890900  0.904100  1.0  -0.5402
  O  O100  1  0.574500  0.608400  0.877300  1.0  -0.5648
  O  O101  1  0.836100  0.305600  0.829900  1.0  -0.5378
  O  O102  1  0.186800  0.161800  0.472800  1.0  -0.5258
  O  O103  1  0.189000  0.714000  0.027200  1.0  -0.525
  O  O104  1  0.931900  0.435800  0.199100  1.0  -0.5367
  O  O105  1  0.428200  0.208400  0.777200  1.0  -0.5289
  O  O106  1  0.811000  0.286000  0.972800  1.0  -0.5266
  O  O107  1  0.659300  0.223600  0.586300  1.0  -0.5843
  O  O108  1  0.998800  0.213500  0.886900  1.0  -0.639
