# generated using pymatgen
data_Cd3H12C24N10Cl
_symmetry_space_group_name_H-M   'P 1'
_cell_length_a   19.38300000
_cell_length_b   21.59900000
_cell_length_c   21.59900000
_cell_angle_alpha   90.00000000
_cell_angle_beta   90.00000000
_cell_angle_gamma   90.00000000
_symmetry_Int_Tables_number   1
_chemical_formula_structural   Cd3H12C24N10Cl
_chemical_formula_sum   'Cd12 H48 C96 N40 Cl4'
_cell_volume   9042.49515378
_cell_formula_units_Z   4
loop_
 _symmetry_equiv_pos_site_id
 _symmetry_equiv_pos_as_xyz
  1  'x, y, z'
loop_
 _atom_site_type_symbol
 _atom_site_label
 _atom_site_symmetry_multiplicity
 _atom_site_fract_x
 _atom_site_fract_y
 _atom_site_fract_z
 _atom_site_occupancy
 _atom_site_charge
  Cd  Cd1  1  0.000000  0.091400  0.908600  1.0  0.78
  Cd  Cd2  1  0.000000  0.908600  0.091400  1.0  0.7808
  Cd  Cd3  1  0.867300  0.173200  0.826800  1.0  0.8184
  Cd  Cd4  1  0.867300  0.173200  0.173200  1.0  0.819
  Cd  Cd5  1  0.000000  0.091400  0.091400  1.0  0.7803
  Cd  Cd6  1  0.000000  0.908600  0.908600  1.0  0.7809
  Cd  Cd7  1  0.500000  0.500000  0.962390  1.0  0.9198
  Cd  Cd8  1  0.500000  0.500000  0.037610  1.0  0.9063
  Cd  Cd9  1  0.500000  0.962390  0.500000  1.0  0.9192
  Cd  Cd10  1  0.500000  0.037610  0.500000  1.0  0.9161
  Cd  Cd11  1  0.867300  0.826800  0.826800  1.0  0.8194
  Cd  Cd12  1  0.867300  0.826800  0.173200  1.0  0.8196
  H  H13  1  0.756400  0.000000  0.556600  1.0  0.0843
  H  H14  1  0.776100  0.093000  0.255200  1.0  0.0705
  H  H15  1  0.310100  0.093100  0.329800  1.0  0.0866
  H  H16  1  0.689900  0.906900  0.670200  1.0  0.0855
  H  H17  1  0.689900  0.093100  0.329800  1.0  0.0859
  H  H18  1  0.310100  0.670200  0.093100  1.0  0.0851
  H  H19  1  0.223900  0.744800  0.907000  1.0  0.074
  H  H20  1  0.243600  0.000000  0.556600  1.0  0.0833
  H  H21  1  0.689900  0.670200  0.093100  1.0  0.0844
  H  H22  1  0.776100  0.255200  0.093000  1.0  0.0697
  H  H23  1  0.436700  0.731500  0.000000  1.0  0.0919
  H  H24  1  0.776100  0.907000  0.255200  1.0  0.0703
  H  H25  1  0.223900  0.093000  0.744800  1.0  0.0748
  H  H26  1  0.776100  0.907000  0.744800  1.0  0.0703
  H  H27  1  0.756400  0.000000  0.443400  1.0  0.0842
  H  H28  1  0.689900  0.093100  0.670200  1.0  0.0865
  H  H29  1  0.310100  0.093100  0.670200  1.0  0.0869
  H  H30  1  0.756400  0.443400  0.000000  1.0  0.0842
  H  H31  1  0.776100  0.255200  0.907000  1.0  0.0697
  H  H32  1  0.436700  0.000000  0.268500  1.0  0.0908
  H  H33  1  0.310100  0.906900  0.670200  1.0  0.0864
  H  H34  1  0.310100  0.906900  0.329800  1.0  0.0861
  H  H35  1  0.436700  0.000000  0.731500  1.0  0.0911
  H  H36  1  0.223900  0.744800  0.093000  1.0  0.0739
  H  H37  1  0.563300  0.000000  0.731500  1.0  0.0916
  H  H38  1  0.689900  0.906900  0.329800  1.0  0.0851
  H  H39  1  0.310100  0.329800  0.906900  1.0  0.0867
  H  H40  1  0.223900  0.907000  0.744800  1.0  0.0745
  H  H41  1  0.223900  0.907000  0.255200  1.0  0.0748
  H  H42  1  0.689900  0.329800  0.906900  1.0  0.086
  H  H43  1  0.223900  0.255200  0.093000  1.0  0.0741
  H  H44  1  0.563300  0.268500  0.000000  1.0  0.0919
  H  H45  1  0.776100  0.093000  0.744800  1.0  0.0707
  H  H46  1  0.563300  0.000000  0.268500  1.0  0.0913
  H  H47  1  0.776100  0.744800  0.093000  1.0  0.07
  H  H48  1  0.223900  0.255200  0.907000  1.0  0.074
  H  H49  1  0.436700  0.268500  0.000000  1.0  0.0916
  H  H50  1  0.310100  0.329800  0.093100  1.0  0.0851
  H  H51  1  0.243600  0.443400  0.000000  1.0  0.0838
  H  H52  1  0.689900  0.329800  0.093100  1.0  0.0844
  H  H53  1  0.243600  0.556600  0.000000  1.0  0.084
  H  H54  1  0.223900  0.093000  0.255200  1.0  0.075
  H  H55  1  0.243600  0.000000  0.443400  1.0  0.0838
  H  H56  1  0.689900  0.670200  0.906900  1.0  0.0856
  H  H57  1  0.756400  0.556600  0.000000  1.0  0.0843
  H  H58  1  0.776100  0.744800  0.907000  1.0  0.07
  H  H59  1  0.563300  0.731500  0.000000  1.0  0.092
  H  H60  1  0.310100  0.670200  0.906900  1.0  0.0865
  C  C61  1  0.717700  0.468700  0.000000  1.0  -0.1152
  C  C62  1  0.840800  0.800300  0.000000  1.0  0.3734
  C  C63  1  0.465100  0.000000  0.303200  1.0  -0.1175
  C  C64  1  0.292700  0.315000  0.055780  1.0  -0.1315
  C  C65  1  0.784800  0.000000  0.248160  1.0  -0.0163
  C  C66  1  0.159200  0.000000  0.199700  1.0  0.3682
  C  C67  1  0.215200  0.000000  0.248160  1.0  -0.018
  C  C68  1  0.241100  0.944240  0.270300  1.0  -0.075
  C  C69  1  0.555500  0.637600  0.000000  1.0  0.1512
  C  C70  1  0.758900  0.055760  0.729700  1.0  -0.0761
  C  C71  1  0.215200  0.751840  0.000000  1.0  -0.016
  C  C72  1  0.784800  0.248160  0.000000  1.0  -0.0153
  C  C73  1  0.292700  0.944220  0.315000  1.0  -0.1287
  C  C74  1  0.292700  0.685000  0.055780  1.0  -0.1318
  C  C75  1  0.465100  0.303200  0.000000  1.0  -0.1187
  C  C76  1  0.624800  0.612800  0.000000  1.0  -0.1799
  C  C77  1  0.717700  0.000000  0.468700  1.0  -0.1136
  C  C78  1  0.758900  0.270300  0.944240  1.0  -0.0821
  C  C79  1  0.758900  0.729700  0.944240  1.0  -0.0827
  C  C80  1  0.282300  0.468700  0.000000  1.0  -0.1152
  C  C81  1  0.348200  0.550400  0.000000  1.0  0.1286
  C  C82  1  0.651800  0.550400  0.000000  1.0  0.1271
  C  C83  1  0.292700  0.315000  0.944220  1.0  -0.129
  C  C84  1  0.292700  0.055780  0.315000  1.0  -0.1285
  C  C85  1  0.282300  0.531300  0.000000  1.0  -0.1154
  C  C86  1  0.465100  0.696800  0.000000  1.0  -0.1203
  C  C87  1  0.348200  0.000000  0.449600  1.0  0.1267
  C  C88  1  0.784800  0.751840  0.000000  1.0  -0.0146
  C  C89  1  0.651800  0.449600  0.000000  1.0  0.1274
  C  C90  1  0.318300  0.000000  0.337500  1.0  0.0675
  C  C91  1  0.215200  0.248160  0.000000  1.0  -0.0164
  C  C92  1  0.840800  0.000000  0.800300  1.0  0.3731
  C  C93  1  0.758900  0.944240  0.270300  1.0  -0.0783
  C  C94  1  0.707300  0.685000  0.944220  1.0  -0.1288
  C  C95  1  0.375200  0.000000  0.612800  1.0  -0.1788
  C  C96  1  0.375200  0.612800  0.000000  1.0  -0.1797
  C  C97  1  0.241100  0.055760  0.729700  1.0  -0.0749
  C  C98  1  0.241100  0.055760  0.270300  1.0  -0.0754
  C  C99  1  0.681700  0.337500  0.000000  1.0  0.0682
  C  C100  1  0.758900  0.729700  0.055760  1.0  -0.0802
  C  C101  1  0.444500  0.000000  0.362400  1.0  0.15
  C  C102  1  0.758900  0.270300  0.055760  1.0  -0.0798
  C  C103  1  0.681700  0.662500  0.000000  1.0  0.0685
  C  C104  1  0.624800  0.000000  0.612800  1.0  -0.179
  C  C105  1  0.707300  0.944220  0.685000  1.0  -0.129
  C  C106  1  0.555500  0.000000  0.362400  1.0  0.1504
  C  C107  1  0.681700  0.000000  0.337500  1.0  0.0679
  C  C108  1  0.215200  0.000000  0.751840  1.0  -0.0178
  C  C109  1  0.784800  0.000000  0.751840  1.0  -0.0168
  C  C110  1  0.534900  0.000000  0.696800  1.0  -0.1168
  C  C111  1  0.707300  0.315000  0.055780  1.0  -0.1322
  C  C112  1  0.534900  0.000000  0.303200  1.0  -0.118
  C  C113  1  0.444500  0.362400  0.000000  1.0  0.1507
  C  C114  1  0.624800  0.000000  0.387200  1.0  -0.1795
  C  C115  1  0.292700  0.944220  0.685000  1.0  -0.1279
  C  C116  1  0.292700  0.685000  0.944220  1.0  -0.1288
  C  C117  1  0.758900  0.055760  0.270300  1.0  -0.0776
  C  C118  1  0.651800  0.000000  0.449600  1.0  0.1261
  C  C119  1  0.159200  0.000000  0.800300  1.0  0.3684
  C  C120  1  0.555500  0.000000  0.637600  1.0  0.1511
  C  C121  1  0.717700  0.000000  0.531300  1.0  -0.1132
  C  C122  1  0.241100  0.944240  0.729700  1.0  -0.0742
  C  C123  1  0.707300  0.055780  0.685000  1.0  -0.1291
  C  C124  1  0.534900  0.696800  0.000000  1.0  -0.1195
  C  C125  1  0.707300  0.055780  0.315000  1.0  -0.1299
  C  C126  1  0.159200  0.199700  0.000000  1.0  0.3691
  C  C127  1  0.241100  0.729700  0.055760  1.0  -0.0808
  C  C128  1  0.444500  0.637600  0.000000  1.0  0.1508
  C  C129  1  0.241100  0.270300  0.055760  1.0  -0.0798
  C  C130  1  0.375200  0.000000  0.387200  1.0  -0.1792
  C  C131  1  0.375200  0.387200  0.000000  1.0  -0.1795
  C  C132  1  0.282300  0.000000  0.531300  1.0  -0.114
  C  C133  1  0.282300  0.000000  0.468700  1.0  -0.114
  C  C134  1  0.318300  0.000000  0.662500  1.0  0.0674
  C  C135  1  0.465100  0.000000  0.696800  1.0  -0.1163
  C  C136  1  0.534900  0.303200  0.000000  1.0  -0.1186
  C  C137  1  0.555500  0.362400  0.000000  1.0  0.1521
  C  C138  1  0.707300  0.685000  0.055780  1.0  -0.1322
  C  C139  1  0.707300  0.944220  0.315000  1.0  -0.1289
  C  C140  1  0.348200  0.000000  0.550400  1.0  0.1265
  C  C141  1  0.651800  0.000000  0.550400  1.0  0.1253
  C  C142  1  0.292700  0.055780  0.685000  1.0  -0.1282
  C  C143  1  0.840800  0.199700  0.000000  1.0  0.3735
  C  C144  1  0.318300  0.337500  0.000000  1.0  0.0676
  C  C145  1  0.159200  0.800300  0.000000  1.0  0.3688
  C  C146  1  0.348200  0.449600  0.000000  1.0  0.1286
  C  C147  1  0.318300  0.662500  0.000000  1.0  0.0681
  C  C148  1  0.241100  0.270300  0.944240  1.0  -0.0787
  C  C149  1  0.241100  0.729700  0.944240  1.0  -0.0794
  C  C150  1  0.681700  0.000000  0.662500  1.0  0.0679
  C  C151  1  0.444500  0.000000  0.637600  1.0  0.1489
  C  C152  1  0.840800  0.000000  0.199700  1.0  0.3731
  C  C153  1  0.758900  0.944240  0.729700  1.0  -0.0778
  C  C154  1  0.624800  0.387200  0.000000  1.0  -0.1798
  C  C155  1  0.717700  0.531300  0.000000  1.0  -0.1152
  C  C156  1  0.707300  0.315000  0.944220  1.0  -0.1281
  N  N157  1  0.500000  0.000000  0.402000  1.0  -0.373
  N  N158  1  0.869500  0.180000  0.948000  1.0  -0.4404
  N  N159  1  0.081220  0.859310  0.030620  1.0  -0.0927
  N  N160  1  0.130500  0.052000  0.180000  1.0  -0.3679
  N  N161  1  0.130500  0.052000  0.820000  1.0  -0.3632
  N  N162  1  0.130500  0.180000  0.052000  1.0  -0.3589
  N  N163  1  0.081220  0.030620  0.859310  1.0  -0.0921
  N  N164  1  0.130500  0.948000  0.180000  1.0  -0.367
  N  N165  1  0.918780  0.030620  0.140690  1.0  -0.1011
  N  N166  1  0.869500  0.948000  0.820000  1.0  -0.4457
  N  N167  1  0.081220  0.969380  0.140690  1.0  -0.0916
  N  N168  1  0.130500  0.820000  0.052000  1.0  -0.3545
  N  N169  1  0.500000  0.402000  0.000000  1.0  -0.3741
  N  N170  1  0.500000  0.598000  0.000000  1.0  -0.3741
  N  N171  1  0.500000  0.000000  0.598000  1.0  -0.3721
  N  N172  1  0.130500  0.820000  0.948000  1.0  -0.3569
  N  N173  1  0.130500  0.180000  0.948000  1.0  -0.3573
  N  N174  1  0.918780  0.140690  0.030620  1.0  -0.1015
  N  N175  1  0.918780  0.140690  0.969380  1.0  -0.1022
  N  N176  1  0.081220  0.140690  0.969380  1.0  -0.0937
  N  N177  1  0.918780  0.969380  0.859310  1.0  -0.101
  N  N178  1  0.081220  0.859310  0.969380  1.0  -0.0933
  N  N179  1  0.869500  0.948000  0.180000  1.0  -0.4364
  N  N180  1  0.918780  0.859310  0.030620  1.0  -0.1017
  N  N181  1  0.869500  0.180000  0.052000  1.0  -0.4457
  N  N182  1  0.869500  0.820000  0.052000  1.0  -0.4465
  N  N183  1  0.130500  0.948000  0.820000  1.0  -0.3665
  N  N184  1  0.869500  0.052000  0.180000  1.0  -0.444
  N  N185  1  0.081220  0.030620  0.140690  1.0  -0.0916
  N  N186  1  0.391400  0.000000  0.500000  1.0  -0.348
  N  N187  1  0.869500  0.820000  0.948000  1.0  -0.4494
  N  N188  1  0.869500  0.052000  0.820000  1.0  -0.4453
  N  N189  1  0.918780  0.969380  0.140690  1.0  -0.1015
  N  N190  1  0.081220  0.140690  0.030620  1.0  -0.0937
  N  N191  1  0.918780  0.859310  0.969380  1.0  -0.1031
  N  N192  1  0.081220  0.969380  0.859310  1.0  -0.0923
  N  N193  1  0.918780  0.030620  0.859310  1.0  -0.1007
  N  N194  1  0.391400  0.500000  0.000000  1.0  -0.348
  N  N195  1  0.608600  0.500000  0.000000  1.0  -0.3484
  N  N196  1  0.608600  0.000000  0.500000  1.0  -0.3484
  Cl  Cl197  1  0.000000  0.830700  0.169300  1.0  -0.5212
  Cl  Cl198  1  0.000000  0.169300  0.830700  1.0  -0.5228
  Cl  Cl199  1  0.000000  0.830700  0.830700  1.0  -0.5213
  Cl  Cl200  1  0.000000  0.169300  0.169300  1.0  -0.5203
