# generated using pymatgen
data_CoH24C30(NO)6
_symmetry_space_group_name_H-M   'P 1'
_cell_length_a   20.05760000
_cell_length_b   20.05740000
_cell_length_c   20.05740000
_cell_angle_alpha   109.47100000
_cell_angle_beta   109.47100000
_cell_angle_gamma   109.47100000
_symmetry_Int_Tables_number   1
_chemical_formula_structural   CoH24C30(NO)6
_chemical_formula_sum   'Co4 H96 C120 N24 O24'
_cell_volume   6211.69172313
_cell_formula_units_Z   4
loop_
 _symmetry_equiv_pos_site_id
 _symmetry_equiv_pos_as_xyz
  1  'x, y, z'
loop_
 _atom_site_type_symbol
 _atom_site_label
 _atom_site_symmetry_multiplicity
 _atom_site_fract_x
 _atom_site_fract_y
 _atom_site_fract_z
 _atom_site_occupancy
 _atom_site_charge
  Co  Co1  1  0.500000  0.000000  0.000000  1.0  0.8471
  Co  Co2  1  0.000000  0.500000  0.000000  1.0  0.8471
  Co  Co3  1  0.500000  0.500000  0.500000  1.0  0.8471
  Co  Co4  1  0.000000  0.000000  0.500000  1.0  0.8471
  H  H5  1  0.730500  0.848500  0.665400  1.0  0.1114
  H  H6  1  0.665500  0.920000  0.032100  1.0  0.1089
  H  H7  1  0.189700  0.892200  0.613300  1.0  0.1147
  H  H8  1  0.882000  0.816900  0.151500  1.0  0.1091
  H  H9  1  0.613300  0.189700  0.892200  1.0  0.1152
  H  H10  1  0.892200  0.613300  0.189700  1.0  0.1163
  H  H11  1  0.032100  0.112100  0.366600  1.0  0.1082
  H  H12  1  0.934900  0.665400  0.816900  1.0  0.1117
  H  H13  1  0.898300  0.805100  0.381200  1.0  0.1195
  H  H14  1  0.576400  0.297500  0.189700  1.0  0.1147
  H  H15  1  0.702500  0.810300  0.423600  1.0  0.1132
  H  H16  1  0.882000  0.730500  0.065100  1.0  0.1096
  H  H17  1  0.613300  0.721100  0.423600  1.0  0.116
  H  H18  1  0.254500  0.334500  0.366600  1.0  0.1081
  H  H19  1  0.482900  0.381200  0.576100  1.0  0.1171
  H  H20  1  0.334600  0.183100  0.065100  1.0  0.1073
  H  H21  1  0.848500  0.665400  0.730500  1.0  0.1096
  H  H22  1  0.892200  0.702500  0.278900  1.0  0.1158
  H  H23  1  0.183100  0.848500  0.118000  1.0  0.1095
  H  H24  1  0.118000  0.269500  0.934900  1.0  0.1092
  H  H25  1  0.633400  0.967900  0.887900  1.0  0.1076
  H  H26  1  0.810300  0.107800  0.386700  1.0  0.1154
  H  H27  1  0.334600  0.269500  0.151500  1.0  0.1094
  H  H28  1  0.665400  0.816900  0.934900  1.0  0.1086
  H  H29  1  0.107800  0.386700  0.810300  1.0  0.1163
  H  H30  1  0.093200  0.576100  0.194900  1.0  0.1181
  H  H31  1  0.381200  0.898300  0.805100  1.0  0.1183
  H  H32  1  0.618800  0.423900  0.517100  1.0  0.1164
  H  H33  1  0.816900  0.934900  0.665400  1.0  0.1108
  H  H34  1  0.381200  0.576100  0.482900  1.0  0.1168
  H  H35  1  0.101700  0.482900  0.906800  1.0  0.1205
  H  H36  1  0.423900  0.517100  0.618800  1.0  0.118
  H  H37  1  0.816900  0.151500  0.882000  1.0  0.1093
  H  H38  1  0.297500  0.189700  0.576400  1.0  0.1142
  H  H39  1  0.920000  0.032100  0.665500  1.0  0.1092
  H  H40  1  0.517100  0.093200  0.898300  1.0  0.1168
  H  H41  1  0.576400  0.386700  0.278900  1.0  0.114
  H  H42  1  0.576100  0.194900  0.093200  1.0  0.1183
  H  H43  1  0.633400  0.745500  0.665500  1.0  0.1101
  H  H44  1  0.189700  0.576400  0.297500  1.0  0.1172
  H  H45  1  0.269500  0.151500  0.334600  1.0  0.1119
  H  H46  1  0.721100  0.423600  0.613300  1.0  0.117
  H  H47  1  0.366600  0.254500  0.334500  1.0  0.1103
  H  H48  1  0.032100  0.665500  0.920000  1.0  0.1098
  H  H49  1  0.745500  0.112100  0.080000  1.0  0.109
  H  H50  1  0.898300  0.517100  0.093200  1.0  0.1203
  H  H51  1  0.386700  0.810300  0.107800  1.0  0.1151
  H  H52  1  0.065100  0.334600  0.183100  1.0  0.1121
  H  H53  1  0.576100  0.482900  0.381200  1.0  0.117
  H  H54  1  0.080000  0.967900  0.334500  1.0  0.1087
  H  H55  1  0.334500  0.366600  0.254500  1.0  0.1114
  H  H56  1  0.810300  0.423600  0.702500  1.0  0.1166
  H  H57  1  0.906800  0.423900  0.805100  1.0  0.1181
  H  H58  1  0.297500  0.721100  0.107800  1.0  0.1146
  H  H59  1  0.423600  0.702500  0.810300  1.0  0.1139
  H  H60  1  0.107800  0.297500  0.721100  1.0  0.1153
  H  H61  1  0.934900  0.118000  0.269500  1.0  0.1104
  H  H62  1  0.702500  0.278900  0.892200  1.0  0.1137
  H  H63  1  0.080000  0.745500  0.112100  1.0  0.1099
  H  H64  1  0.101700  0.194900  0.618800  1.0  0.1191
  H  H65  1  0.112100  0.366600  0.032100  1.0  0.1092
  H  H66  1  0.967900  0.334500  0.080000  1.0  0.1091
  H  H67  1  0.745500  0.665500  0.633400  1.0  0.108
  H  H68  1  0.112100  0.080000  0.745500  1.0  0.1067
  H  H69  1  0.805100  0.906800  0.423900  1.0  0.1202
  H  H70  1  0.151500  0.882000  0.816900  1.0  0.1068
  H  H71  1  0.887900  0.633400  0.967900  1.0  0.109
  H  H72  1  0.194900  0.618800  0.101700  1.0  0.1162
  H  H73  1  0.517100  0.618800  0.423900  1.0  0.1175
  H  H74  1  0.920000  0.254500  0.887900  1.0  0.1089
  H  H75  1  0.730500  0.065100  0.882000  1.0  0.109
  H  H76  1  0.183100  0.065100  0.334600  1.0  0.1109
  H  H77  1  0.721100  0.107800  0.297500  1.0  0.116
  H  H78  1  0.278900  0.892200  0.702500  1.0  0.1157
  H  H79  1  0.151500  0.334600  0.269500  1.0  0.1104
  H  H80  1  0.366600  0.032100  0.112100  1.0  0.1078
  H  H81  1  0.906800  0.101700  0.482900  1.0  0.1186
  H  H82  1  0.665400  0.730500  0.848500  1.0  0.1102
  H  H83  1  0.423600  0.613300  0.721100  1.0  0.1133
  H  H84  1  0.386700  0.278900  0.576400  1.0  0.1168
  H  H85  1  0.887900  0.920000  0.254500  1.0  0.106
  H  H86  1  0.423900  0.805100  0.906800  1.0  0.1181
  H  H87  1  0.334500  0.080000  0.967900  1.0  0.109
  H  H88  1  0.805100  0.381200  0.898300  1.0  0.1163
  H  H89  1  0.254500  0.887900  0.920000  1.0  0.1096
  H  H90  1  0.967900  0.887900  0.633400  1.0  0.1084
  H  H91  1  0.278900  0.576400  0.386700  1.0  0.1173
  H  H92  1  0.118000  0.183100  0.848500  1.0  0.1086
  H  H93  1  0.482900  0.906800  0.101700  1.0  0.1177
  H  H94  1  0.065100  0.882000  0.730500  1.0  0.1107
  H  H95  1  0.194900  0.093200  0.576100  1.0  0.1197
  H  H96  1  0.093200  0.898300  0.517100  1.0  0.1187
  H  H97  1  0.618800  0.101700  0.194900  1.0  0.1186
  H  H98  1  0.848500  0.118000  0.183100  1.0  0.1068
  H  H99  1  0.665500  0.633400  0.745500  1.0  0.1096
  H  H100  1  0.269500  0.934900  0.118000  1.0  0.1086
  C  C101  1  0.561000  0.665000  0.472600  1.0  -0.0164
  C  C102  1  0.892100  0.618300  0.145200  1.0  -0.1405
  C  C103  1  0.527400  0.439000  0.335000  1.0  -0.0195
  C  C104  1  0.138300  0.887900  0.685400  1.0  0.0649
  C  C105  1  0.807600  0.335000  0.896000  1.0  -0.0194
  C  C106  1  0.123700  0.013600  0.383500  1.0  -0.044
  C  C107  1  0.927500  0.615900  0.813600  1.0  -0.1379
  C  C108  1  0.253100  0.145200  0.526900  1.0  -0.1405
  C  C109  1  0.335000  0.896000  0.807600  1.0  -0.0157
  C  C110  1  0.192400  0.088400  0.527400  1.0  -0.0148
  C  C111  1  0.145200  0.892100  0.618300  1.0  -0.1426
  C  C112  1  0.927500  0.113900  0.311600  1.0  -0.1397
  C  C113  1  0.273800  0.526900  0.381700  1.0  -0.1436
  C  C114  1  0.547100  0.685400  0.797500  1.0  0.0642
  C  C115  1  0.665000  0.472600  0.561000  1.0  -0.016
  C  C116  1  0.384100  0.186400  0.072500  1.0  -0.1373
  C  C117  1  0.685400  0.797500  0.547100  1.0  0.0654
  C  C118  1  0.887900  0.685400  0.138300  1.0  0.0611
  C  C119  1  0.889900  0.630100  0.013600  1.0  -0.0415
  C  C120  1  0.112100  0.250400  0.797500  1.0  0.0655
  C  C121  1  0.250400  0.797500  0.112100  1.0  0.0641
  C  C122  1  0.110100  0.123700  0.740200  1.0  -0.0412
  C  C123  1  0.797500  0.112100  0.250400  1.0  0.067
  C  C124  1  0.311600  0.197700  0.384100  1.0  -0.1393
  C  C125  1  0.876300  0.986400  0.616500  1.0  -0.0425
  C  C126  1  0.861700  0.112100  0.314600  1.0  0.0629
  C  C127  1  0.618300  0.145200  0.892100  1.0  -0.1402
  C  C128  1  0.369900  0.986400  0.110100  1.0  -0.0474
  C  C129  1  0.526900  0.253100  0.145200  1.0  -0.1487
  C  C130  1  0.186400  0.072500  0.384100  1.0  -0.1371
  C  C131  1  0.013600  0.383500  0.123700  1.0  -0.0437
  C  C132  1  0.123700  0.740200  0.110100  1.0  -0.0444
  C  C133  1  0.202500  0.887900  0.749600  1.0  0.0662
  C  C134  1  0.615900  0.688400  0.802300  1.0  -0.1347
  C  C135  1  0.088400  0.896000  0.561000  1.0  -0.0127
  C  C136  1  0.202500  0.452900  0.314600  1.0  0.0668
  C  C137  1  0.616500  0.876300  0.986400  1.0  -0.0416
  C  C138  1  0.726200  0.107900  0.253100  1.0  -0.1407
  C  C139  1  0.383500  0.369900  0.259800  1.0  -0.0436
  C  C140  1  0.688400  0.072500  0.886100  1.0  -0.1372
  C  C141  1  0.746900  0.273800  0.892100  1.0  -0.1398
  C  C142  1  0.369900  0.259800  0.383500  1.0  -0.0414
  C  C143  1  0.197700  0.886100  0.813600  1.0  -0.1358
  C  C144  1  0.561000  0.088400  0.896000  1.0  -0.0187
  C  C145  1  0.876300  0.259800  0.889900  1.0  -0.0406
  C  C146  1  0.439000  0.911600  0.104000  1.0  -0.0172
  C  C147  1  0.452900  0.250400  0.138300  1.0  0.0662
  C  C148  1  0.472600  0.561000  0.665000  1.0  -0.018
  C  C149  1  0.526900  0.381700  0.273800  1.0  -0.139
  C  C150  1  0.618300  0.726200  0.473100  1.0  -0.1408
  C  C151  1  0.813600  0.197700  0.886100  1.0  -0.1408
  C  C152  1  0.749600  0.202500  0.887900  1.0  0.0628
  C  C153  1  0.104000  0.192400  0.665000  1.0  -0.0173
  C  C154  1  0.250400  0.138300  0.452900  1.0  0.0642
  C  C155  1  0.072500  0.886100  0.688400  1.0  -0.1368
  C  C156  1  0.886100  0.688400  0.072500  1.0  -0.1412
  C  C157  1  0.630100  0.013600  0.889900  1.0  -0.0448
  C  C158  1  0.088400  0.527400  0.192400  1.0  -0.0214
  C  C159  1  0.802300  0.615900  0.688400  1.0  -0.1429
  C  C160  1  0.630100  0.740200  0.616500  1.0  -0.0405
  C  C161  1  0.381700  0.854800  0.107900  1.0  -0.1404
  C  C162  1  0.107900  0.253100  0.726200  1.0  -0.1464
  C  C163  1  0.113900  0.186400  0.802300  1.0  -0.139
  C  C164  1  0.253100  0.726200  0.107900  1.0  -0.1364
  C  C165  1  0.892100  0.746900  0.273800  1.0  -0.1456
  C  C166  1  0.547100  0.749600  0.861700  1.0  0.0666
  C  C167  1  0.527400  0.192400  0.088400  1.0  -0.019
  C  C168  1  0.112100  0.314600  0.861700  1.0  0.0611
  C  C169  1  0.887900  0.749600  0.202500  1.0  0.0654
  C  C170  1  0.452900  0.314600  0.202500  1.0  0.0654
  C  C171  1  0.896000  0.807600  0.335000  1.0  -0.0185
  C  C172  1  0.383500  0.123700  0.013600  1.0  -0.0423
  C  C173  1  0.889900  0.876300  0.259800  1.0  -0.0454
  C  C174  1  0.797500  0.547100  0.685400  1.0  0.0673
  C  C175  1  0.854800  0.107900  0.381700  1.0  -0.145
  C  C176  1  0.013600  0.889900  0.630100  1.0  -0.0448
  C  C177  1  0.314600  0.861700  0.112100  1.0  0.0654
  C  C178  1  0.381700  0.273800  0.526900  1.0  -0.138
  C  C179  1  0.746900  0.854800  0.473100  1.0  -0.1412
  C  C180  1  0.802300  0.113900  0.186400  1.0  -0.1351
  C  C181  1  0.335000  0.527400  0.439000  1.0  -0.0165
  C  C182  1  0.616500  0.630100  0.740200  1.0  -0.0408
  C  C183  1  0.072500  0.384100  0.186400  1.0  -0.138
  C  C184  1  0.911600  0.472600  0.807600  1.0  -0.0199
  C  C185  1  0.749600  0.861700  0.547100  1.0  0.0638
  C  C186  1  0.186400  0.802300  0.113900  1.0  -0.139
  C  C187  1  0.439000  0.335000  0.527400  1.0  -0.0181
  C  C188  1  0.110100  0.369900  0.986400  1.0  -0.0428
  C  C189  1  0.472600  0.807600  0.911600  1.0  -0.0175
  C  C190  1  0.896000  0.561000  0.088400  1.0  -0.0171
  C  C191  1  0.259800  0.383500  0.369900  1.0  -0.0429
  C  C192  1  0.986400  0.110100  0.369900  1.0  -0.04
  C  C193  1  0.726200  0.473100  0.618300  1.0  -0.1445
  C  C194  1  0.854800  0.473100  0.746900  1.0  -0.1457
  C  C195  1  0.107900  0.381700  0.854800  1.0  -0.1415
  C  C196  1  0.384100  0.311600  0.197700  1.0  -0.1291
  C  C197  1  0.740200  0.110100  0.123700  1.0  -0.0407
  C  C198  1  0.665000  0.104000  0.192400  1.0  -0.0172
  C  C199  1  0.986400  0.616500  0.876300  1.0  -0.043
  C  C200  1  0.314600  0.202500  0.452900  1.0  0.0666
  C  C201  1  0.473100  0.618300  0.726200  1.0  -0.141
  C  C202  1  0.273800  0.892100  0.746900  1.0  -0.143
  C  C203  1  0.740200  0.616500  0.630100  1.0  -0.0384
  C  C204  1  0.138300  0.452900  0.250400  1.0  0.069
  C  C205  1  0.911600  0.104000  0.439000  1.0  -0.0127
  C  C206  1  0.688400  0.802300  0.615900  1.0  -0.1416
  C  C207  1  0.685400  0.138300  0.887900  1.0  0.0655
  C  C208  1  0.113900  0.311600  0.927500  1.0  -0.1384
  C  C209  1  0.813600  0.927500  0.615900  1.0  -0.1348
  C  C210  1  0.473100  0.746900  0.854800  1.0  -0.1435
  C  C211  1  0.807600  0.911600  0.472600  1.0  -0.0137
  C  C212  1  0.145200  0.526900  0.253100  1.0  -0.1441
  C  C213  1  0.104000  0.439000  0.911600  1.0  -0.0163
  C  C214  1  0.615900  0.813600  0.927500  1.0  -0.133
  C  C215  1  0.259800  0.889900  0.876300  1.0  -0.0354
  C  C216  1  0.886100  0.813600  0.197700  1.0  -0.1432
  C  C217  1  0.311600  0.927500  0.113900  1.0  -0.1391
  C  C218  1  0.192400  0.665000  0.104000  1.0  -0.0176
  C  C219  1  0.197700  0.384100  0.311600  1.0  -0.1428
  C  C220  1  0.861700  0.547100  0.749600  1.0  0.069
  N  N221  1  0.872400  0.325400  0.896400  1.0  0.239
  N  N222  1  0.674600  0.103600  0.127600  1.0  0.242
  N  N223  1  0.024000  0.896400  0.571000  1.0  0.238
  N  N224  1  0.547000  0.872400  0.976000  1.0  0.2378
  N  N225  1  0.872400  0.976000  0.547000  1.0  0.2393
  N  N226  1  0.103600  0.429000  0.976000  1.0  0.2393
  N  N227  1  0.453000  0.429000  0.325400  1.0  0.2376
  N  N228  1  0.571000  0.674600  0.547000  1.0  0.2354
  N  N229  1  0.896400  0.872400  0.325400  1.0  0.2344
  N  N230  1  0.024000  0.453000  0.127600  1.0  0.2349
  N  N231  1  0.127600  0.024000  0.453000  1.0  0.2411
  N  N232  1  0.429000  0.325400  0.453000  1.0  0.2375
  N  N233  1  0.896400  0.571000  0.024000  1.0  0.2387
  N  N234  1  0.976000  0.103600  0.429000  1.0  0.2375
  N  N235  1  0.103600  0.127600  0.674600  1.0  0.2352
  N  N236  1  0.976000  0.547000  0.872400  1.0  0.2328
  N  N237  1  0.429000  0.976000  0.103600  1.0  0.2394
  N  N238  1  0.547000  0.571000  0.674600  1.0  0.2343
  N  N239  1  0.571000  0.024000  0.896400  1.0  0.237
  N  N240  1  0.325400  0.896400  0.872400  1.0  0.2378
  N  N241  1  0.674600  0.547000  0.571000  1.0  0.2417
  N  N242  1  0.127600  0.674600  0.103600  1.0  0.2367
  N  N243  1  0.453000  0.127600  0.024000  1.0  0.2399
  N  N244  1  0.325400  0.453000  0.429000  1.0  0.2386
  O  O245  1  0.967000  0.451700  0.067100  1.0  -0.5658
  O  O246  1  0.100100  0.484700  0.033000  1.0  -0.5636
  O  O247  1  0.451700  0.484700  0.384600  1.0  -0.5487
  O  O248  1  0.515300  0.967000  0.899900  1.0  -0.5654
  O  O249  1  0.484700  0.384600  0.451700  1.0  -0.5664
  O  O250  1  0.548300  0.515300  0.615400  1.0  -0.5496
  O  O251  1  0.100100  0.067100  0.615400  1.0  -0.5466
  O  O252  1  0.899900  0.515300  0.967000  1.0  -0.5638
  O  O253  1  0.515300  0.615400  0.548300  1.0  -0.5668
  O  O254  1  0.615400  0.548300  0.515300  1.0  -0.5496
  O  O255  1  0.899900  0.932900  0.384600  1.0  -0.5471
  O  O256  1  0.932900  0.033000  0.548300  1.0  -0.5527
  O  O257  1  0.484700  0.033000  0.100100  1.0  -0.5679
  O  O258  1  0.033000  0.100100  0.484700  1.0  -0.5648
  O  O259  1  0.384600  0.451700  0.484700  1.0  -0.5491
  O  O260  1  0.384600  0.899900  0.932900  1.0  -0.5511
  O  O261  1  0.451700  0.067100  0.967000  1.0  -0.5518
  O  O262  1  0.548300  0.932900  0.033000  1.0  -0.551
  O  O263  1  0.967000  0.899900  0.515300  1.0  -0.5657
  O  O264  1  0.067100  0.967000  0.451700  1.0  -0.5508
  O  O265  1  0.033000  0.548300  0.932900  1.0  -0.5633
  O  O266  1  0.932900  0.384600  0.899900  1.0  -0.554
  O  O267  1  0.615400  0.100100  0.067100  1.0  -0.5495
  O  O268  1  0.067100  0.615400  0.100100  1.0  -0.5525
