# generated using pymatgen
data_Ti2H6(C4O3)3
_symmetry_space_group_name_H-M   'P 1'
_cell_length_a   16.00960000
_cell_length_b   16.00930000
_cell_length_c   16.00930000
_cell_angle_alpha   108.73100000
_cell_angle_beta   108.73200000
_cell_angle_gamma   110.96200000
_symmetry_Int_Tables_number   1
_chemical_formula_structural   Ti2H6(C4O3)3
_chemical_formula_sum   'Ti8 H24 C48 O36'
_cell_volume   3157.01694770
_cell_formula_units_Z   4
loop_
 _symmetry_equiv_pos_site_id
 _symmetry_equiv_pos_as_xyz
  1  'x, y, z'
loop_
 _atom_site_type_symbol
 _atom_site_label
 _atom_site_symmetry_multiplicity
 _atom_site_fract_x
 _atom_site_fract_y
 _atom_site_fract_z
 _atom_site_occupancy
 _atom_site_charge
  Ti  Ti1  1  0.289070  0.579330  0.870450  1.0  1.9467
  Ti  Ti2  1  0.576260  0.709690  0.282850  1.0  1.9471
  Ti  Ti3  1  0.422100  0.296180  0.717540  1.0  1.9606
  Ti  Ti4  1  0.573610  0.291220  0.871210  1.0  1.9762
  Ti  Ti5  1  0.704550  0.578640  0.282460  1.0  1.9606
  Ti  Ti6  1  0.418630  0.708890  0.129550  1.0  1.9476
  Ti  Ti7  1  0.293410  0.426840  0.717150  1.0  1.9463
  Ti  Ti8  1  0.702400  0.420010  0.128790  1.0  1.9757
  H  H9  1  0.931880  0.385090  0.318390  1.0  0.1001
  H  H10  1  0.471860  0.991950  0.836490  1.0  0.1023
  H  H11  1  0.833360  0.372460  0.836290  1.0  0.1032
  H  H12  1  0.613490  0.066690  0.681610  1.0  0.1013
  H  H13  1  0.408940  0.828440  0.836510  1.0  0.0977
  H  H14  1  0.998190  0.165620  0.540820  1.0  0.1013
  H  H15  1  0.624940  0.465060  0.463110  1.0  0.1036
  H  H16  1  0.161830  0.001960  0.536890  1.0  0.1035
  H  H17  1  0.635440  0.155460  0.163510  1.0  0.1035
  H  H18  1  0.572500  0.991920  0.163480  1.0  0.0974
  H  H19  1  0.380450  0.934480  0.319460  1.0  0.099
  H  H20  1  0.380640  0.065500  0.450400  1.0  0.1007
  H  H21  1  0.613430  0.935750  0.550630  1.0  0.0996
  H  H22  1  0.377880  0.544870  0.540950  1.0  0.0985
  H  H23  1  0.997080  0.536180  0.163720  1.0  0.1002
  H  H24  1  0.545440  0.385120  0.544910  1.0  0.1019
  H  H25  1  0.060980  0.615010  0.680540  1.0  0.0992
  H  H26  1  0.930240  0.615100  0.549600  1.0  0.1004
  H  H27  1  0.836930  0.003920  0.459060  1.0  0.0989
  H  H28  1  0.000540  0.840210  0.455090  1.0  0.1015
  H  H29  1  0.994560  0.453260  0.836280  1.0  0.0983
  H  H30  1  0.062810  0.385130  0.449370  1.0  0.1004
  H  H31  1  0.457370  0.624800  0.459180  1.0  0.1002
  H  H32  1  0.158290  0.616990  0.163720  1.0  0.1003
  C  C33  1  0.959320  0.435700  0.397150  1.0  -0.0861
  C  C34  1  0.494960  0.993450  0.908620  1.0  -0.0966
  C  C35  1  0.903750  0.425120  0.908390  1.0  -0.0668
  C  C36  1  0.805230  0.808470  0.394780  1.0  0.7122
  C  C37  1  0.193560  0.197490  0.602380  1.0  0.717
  C  C38  1  0.562170  0.038550  0.602850  1.0  -0.0847
  C  C39  1  0.089860  0.542900  0.000000  1.0  -0.1145
  C  C40  1  0.458530  0.899070  0.908630  1.0  -0.1112
  C  C41  1  0.497050  0.844370  0.343760  1.0  0.687
  C  C42  1  0.558200  0.088270  0.000000  1.0  -0.1241
  C  C43  1  0.093600  0.097460  0.544800  1.0  -0.1168
  C  C44  1  0.496960  0.924180  0.424150  1.0  -0.1121
  C  C45  1  0.999930  0.095190  0.522030  1.0  -0.0781
  C  C46  1  0.905140  0.908390  0.451200  1.0  -0.1153
  C  C47  1  0.591170  0.595110  0.397610  1.0  0.7167
  C  C48  1  0.571620  0.483770  0.480150  1.0  -0.0718
  C  C49  1  0.091470  0.003620  0.519850  1.0  -0.072
  C  C50  1  0.586380  0.084820  0.091370  1.0  -0.0986
  C  C51  1  0.153290  0.500610  0.656250  1.0  0.6852
  C  C52  1  0.549950  0.990440  0.091360  1.0  -0.1119
  C  C53  1  0.431740  0.962560  0.398210  1.0  -0.0835
  C  C54  1  0.431860  0.037930  0.473440  1.0  -0.0832
  C  C55  1  0.483140  0.895640  0.000000  1.0  -0.1191
  C  C56  1  0.591010  0.189480  0.000000  1.0  0.7068
  C  C57  1  0.562180  0.963300  0.527600  1.0  -0.0849
  C  C58  1  0.431300  0.526260  0.524050  1.0  -0.0712
  C  C59  1  0.995360  0.516730  0.091610  1.0  -0.0668
  C  C60  1  0.072810  0.500030  0.575860  1.0  -0.1131
  C  C61  1  0.525030  0.436880  0.526250  1.0  -0.0809
  C  C62  1  0.901770  0.446700  0.000000  1.0  -0.1198
  C  C63  1  0.033520  0.564350  0.601790  1.0  -0.0856
  C  C64  1  0.840130  0.500110  0.342810  1.0  0.6888
  C  C65  1  0.958420  0.564490  0.526560  1.0  -0.0871
  C  C66  1  0.434930  0.792810  0.000000  1.0  0.1484
  C  C67  1  0.907250  0.002210  0.475950  1.0  -0.0702
  C  C68  1  0.998780  0.910630  0.473750  1.0  -0.0811
  C  C69  1  0.548790  0.552660  0.455200  1.0  -0.1177
  C  C70  1  0.453950  0.457200  0.548810  1.0  -0.1068
  C  C71  1  0.996350  0.472440  0.908390  1.0  -0.0777
  C  C72  1  0.189370  0.587740  0.000000  1.0  0.7127
  C  C73  1  0.034580  0.435700  0.472400  1.0  -0.0854
  C  C74  1  0.477900  0.573150  0.477970  1.0  -0.0783
  C  C75  1  0.497090  0.077080  0.576890  1.0  -0.1148
  C  C76  1  0.920190  0.500180  0.423110  1.0  -0.1162
  C  C77  1  0.802050  0.404420  0.000000  1.0  0.7208
  C  C78  1  0.410450  0.413700  0.605230  1.0  0.7123
  C  C79  1  0.497320  0.157300  0.657190  1.0  0.6883
  C  C80  1  0.087960  0.564060  0.091610  1.0  -0.0793
  O  O81  1  0.351500  0.439280  0.628890  1.0  -0.6013
  O  O82  1  0.645740  0.272840  0.084370  1.0  -0.5909
  O  O83  1  0.184360  0.557890  0.748550  1.0  -0.606
  O  O84  1  0.379710  0.578110  0.810160  1.0  -0.6909
  O  O85  1  0.561370  0.188470  0.915630  1.0  -0.5908
  O  O86  1  0.759480  0.570370  0.187760  1.0  -0.66
  O  O87  1  0.336910  0.727040  0.916300  1.0  -0.6412
  O  O88  1  0.435810  0.809350  0.251450  1.0  -0.6043
  O  O89  1  0.803420  0.431080  0.084100  1.0  -0.6095
  O  O90  1  0.805380  0.439290  0.250460  1.0  -0.6087
  O  O91  1  0.597040  0.395690  0.000000  1.0  -0.6861
  O  O92  1  0.722610  0.810390  0.371120  1.0  -0.6018
  O  O93  1  0.189790  0.444250  0.631520  1.0  -0.61
  O  O94  1  0.276180  0.195960  0.626920  1.0  -0.607
  O  O95  1  0.396090  0.605400  0.000000  1.0  -0.7016
  O  O96  1  0.440080  0.192890  0.632270  1.0  -0.6043
  O  O97  1  0.554920  0.188830  0.749550  1.0  -0.6085
  O  O98  1  0.423720  0.236760  0.809170  1.0  -0.6278
  O  O99  1  0.272140  0.646740  0.084500  1.0  -0.6042
  O  O100  1  0.719330  0.346980  0.915910  1.0  -0.6093
  O  O101  1  0.564180  0.652150  0.371690  1.0  -0.6064
  O  O102  1  0.614550  0.427590  0.190830  1.0  -0.6243
  O  O103  1  0.558270  0.812730  0.368480  1.0  -0.612
  O  O104  1  0.569550  0.767950  0.189840  1.0  -0.6954
  O  O105  1  0.807800  0.560620  0.367730  1.0  -0.6063
  O  O106  1  0.649260  0.569040  0.373080  1.0  -0.6063
  O  O107  1  0.420630  0.810750  0.083710  1.0  -0.6455
  O  O108  1  0.236900  0.430140  0.810090  1.0  -0.6676
  O  O109  1  0.806370  0.725330  0.369260  1.0  -0.5948
  O  O110  1  0.192490  0.280460  0.628310  1.0  -0.6061
  O  O111  1  0.187630  0.562230  0.915500  1.0  -0.5973
  O  O112  1  0.437110  0.356070  0.630740  1.0  -0.5949
  O  O113  1  0.571720  0.382610  0.812240  1.0  -0.6439
  O  O114  1  0.398860  0.402740  0.799150  1.0  -0.6743
  O  O115  1  0.426800  0.620050  0.189910  1.0  -0.6615
  O  O116  1  0.599700  0.603580  0.200850  1.0  -0.6858
