# generated using pymatgen
data_CoH24C30(NO)6
_symmetry_space_group_name_H-M   'P 1'
_cell_length_a   20.11730000
_cell_length_b   20.11710000
_cell_length_c   20.11710000
_cell_angle_alpha   109.47100000
_cell_angle_beta   109.47100000
_cell_angle_gamma   109.47100000
_symmetry_Int_Tables_number   1
_chemical_formula_structural   CoH24C30(NO)6
_chemical_formula_sum   'Co4 H96 C120 N24 O24'
_cell_volume   6267.32330568
_cell_formula_units_Z   4
loop_
 _symmetry_equiv_pos_site_id
 _symmetry_equiv_pos_as_xyz
  1  'x, y, z'
loop_
 _atom_site_type_symbol
 _atom_site_label
 _atom_site_symmetry_multiplicity
 _atom_site_fract_x
 _atom_site_fract_y
 _atom_site_fract_z
 _atom_site_occupancy
 _atom_site_charge
  Co  Co1  1  0.500000  0.500000  0.500000  1.0  0.825
  Co  Co2  1  0.000000  0.000000  0.500000  1.0  0.8251
  Co  Co3  1  0.000000  0.500000  0.000000  1.0  0.8251
  Co  Co4  1  0.500000  0.000000  0.000000  1.0  0.825
  H  H5  1  0.620200  0.104800  0.196800  1.0  0.1134
  H  H6  1  0.745100  0.663500  0.636000  1.0  0.1085
  H  H7  1  0.663600  0.815800  0.936800  1.0  0.1122
  H  H8  1  0.196800  0.620200  0.104800  1.0  0.111
  H  H9  1  0.918400  0.254900  0.890900  1.0  0.1092
  H  H10  1  0.803200  0.379800  0.895200  1.0  0.1113
  H  H11  1  0.027500  0.663500  0.918400  1.0  0.1109
  H  H12  1  0.063200  0.879000  0.726800  1.0  0.1129
  H  H13  1  0.893100  0.700600  0.279300  1.0  0.1106
  H  H14  1  0.423400  0.515400  0.620200  1.0  0.1113
  H  H15  1  0.893100  0.613800  0.192500  1.0  0.1109
  H  H16  1  0.918400  0.027500  0.663500  1.0  0.1086
  H  H17  1  0.613800  0.192500  0.893100  1.0  0.1065
  H  H18  1  0.890900  0.636000  0.972500  1.0  0.1097
  H  H19  1  0.336400  0.273200  0.152200  1.0  0.1122
  H  H20  1  0.121000  0.273200  0.936800  1.0  0.115
  H  H21  1  0.700600  0.279300  0.893100  1.0  0.1057
  H  H22  1  0.081600  0.745100  0.109100  1.0  0.1102
  H  H23  1  0.184200  0.063200  0.336400  1.0  0.1133
  H  H24  1  0.815800  0.936800  0.663600  1.0  0.1132
  H  H25  1  0.663500  0.918400  0.027500  1.0  0.1083
  H  H26  1  0.109100  0.081600  0.745100  1.0  0.1088
  H  H27  1  0.196800  0.092000  0.576600  1.0  0.1136
  H  H28  1  0.152200  0.336400  0.273200  1.0  0.1158
  H  H29  1  0.745100  0.109100  0.081600  1.0  0.1086
  H  H30  1  0.152200  0.879000  0.815800  1.0  0.1144
  H  H31  1  0.720700  0.106900  0.299400  1.0  0.1098
  H  H32  1  0.636000  0.745100  0.663500  1.0  0.1089
  H  H33  1  0.336500  0.364000  0.254900  1.0  0.1113
  H  H34  1  0.620200  0.423400  0.515400  1.0  0.1113
  H  H35  1  0.613800  0.720700  0.421300  1.0  0.1105
  H  H36  1  0.700600  0.807500  0.421300  1.0  0.1084
  H  H37  1  0.815800  0.152200  0.879000  1.0  0.1121
  H  H38  1  0.484600  0.379800  0.576600  1.0  0.1104
  H  H39  1  0.972500  0.890900  0.636000  1.0  0.1082
  H  H40  1  0.421300  0.613800  0.720700  1.0  0.108
  H  H41  1  0.106900  0.386200  0.807500  1.0  0.1107
  H  H42  1  0.081600  0.972500  0.336500  1.0  0.1084
  H  H43  1  0.720700  0.421300  0.613800  1.0  0.1102
  H  H44  1  0.336400  0.184200  0.063200  1.0  0.1111
  H  H45  1  0.299400  0.192500  0.578700  1.0  0.1093
  H  H46  1  0.576600  0.484600  0.379800  1.0  0.1111
  H  H47  1  0.104800  0.484600  0.908000  1.0  0.1142
  H  H48  1  0.092000  0.895200  0.515400  1.0  0.1132
  H  H49  1  0.279300  0.578700  0.386200  1.0  0.1106
  H  H50  1  0.807500  0.106900  0.386200  1.0  0.1093
  H  H51  1  0.192500  0.578700  0.299400  1.0  0.1099
  H  H52  1  0.847800  0.121000  0.184200  1.0  0.1136
  H  H53  1  0.121000  0.184200  0.847800  1.0  0.1149
  H  H54  1  0.386200  0.279300  0.578700  1.0  0.1103
  H  H55  1  0.895200  0.515400  0.092000  1.0  0.1138
  H  H56  1  0.936800  0.663600  0.815800  1.0  0.1151
  H  H57  1  0.578700  0.299400  0.192500  1.0  0.109
  H  H58  1  0.663600  0.726800  0.847800  1.0  0.1125
  H  H59  1  0.027500  0.109100  0.364000  1.0  0.1084
  H  H60  1  0.890900  0.918400  0.254900  1.0  0.1083
  H  H61  1  0.515400  0.620200  0.423400  1.0  0.111
  H  H62  1  0.663500  0.636000  0.745100  1.0  0.1089
  H  H63  1  0.063200  0.336400  0.184200  1.0  0.1149
  H  H64  1  0.254900  0.890900  0.918400  1.0  0.1094
  H  H65  1  0.423400  0.803200  0.908000  1.0  0.1118
  H  H66  1  0.254900  0.336500  0.364000  1.0  0.1078
  H  H67  1  0.726800  0.847800  0.663600  1.0  0.1148
  H  H68  1  0.299400  0.720700  0.106900  1.0  0.1058
  H  H69  1  0.895200  0.803200  0.379800  1.0  0.1124
  H  H70  1  0.279300  0.893100  0.700600  1.0  0.1097
  H  H71  1  0.726800  0.063200  0.879000  1.0  0.1125
  H  H72  1  0.092000  0.576600  0.196800  1.0  0.1125
  H  H73  1  0.936800  0.121000  0.273200  1.0  0.1124
  H  H74  1  0.807500  0.421300  0.700600  1.0  0.1085
  H  H75  1  0.421300  0.700600  0.807500  1.0  0.1093
  H  H76  1  0.576600  0.196800  0.092000  1.0  0.113
  H  H77  1  0.578700  0.386200  0.279300  1.0  0.1078
  H  H78  1  0.515400  0.092000  0.895200  1.0  0.1112
  H  H79  1  0.379800  0.576600  0.484600  1.0  0.1109
  H  H80  1  0.908000  0.423400  0.803200  1.0  0.1123
  H  H81  1  0.109100  0.364000  0.027500  1.0  0.1099
  H  H82  1  0.484600  0.908000  0.104800  1.0  0.1116
  H  H83  1  0.972500  0.336500  0.081600  1.0  0.1109
  H  H84  1  0.879000  0.815800  0.152200  1.0  0.1149
  H  H85  1  0.379800  0.895200  0.803200  1.0  0.1133
  H  H86  1  0.364000  0.254900  0.336500  1.0  0.1086
  H  H87  1  0.106900  0.299400  0.720700  1.0  0.1104
  H  H88  1  0.879000  0.726800  0.063200  1.0  0.115
  H  H89  1  0.847800  0.663600  0.726800  1.0  0.1154
  H  H90  1  0.803200  0.908000  0.423400  1.0  0.1136
  H  H91  1  0.336500  0.081600  0.972500  1.0  0.1081
  H  H92  1  0.104800  0.196800  0.620200  1.0  0.1129
  H  H93  1  0.184200  0.847800  0.121000  1.0  0.1124
  H  H94  1  0.636000  0.972500  0.890900  1.0  0.1082
  H  H95  1  0.273200  0.936800  0.121000  1.0  0.1125
  H  H96  1  0.908000  0.104800  0.484600  1.0  0.1132
  H  H97  1  0.364000  0.027500  0.109100  1.0  0.109
  H  H98  1  0.273200  0.152200  0.336400  1.0  0.1146
  H  H99  1  0.192500  0.893100  0.613800  1.0  0.1082
  H  H100  1  0.386200  0.807500  0.106900  1.0  0.1063
  C  C101  1  0.541030  0.746110  0.858660  1.0  0.0429
  C  C102  1  0.105240  0.193400  0.665300  1.0  -0.0138
  C  C103  1  0.614330  0.631280  0.740450  1.0  -0.0131
  C  C104  1  0.253890  0.794920  0.112550  1.0  0.0371
  C  C105  1  0.458970  0.253890  0.141340  1.0  0.0449
  C  C106  1  0.744070  0.273150  0.891880  1.0  -0.1535
  C  C107  1  0.873880  0.259550  0.890830  1.0  -0.0204
  C  C108  1  0.199150  0.385640  0.314230  1.0  -0.1635
  C  C109  1  0.744070  0.852190  0.470920  1.0  -0.1521
  C  C110  1  0.740450  0.109170  0.126120  1.0  -0.0167
  C  C111  1  0.470920  0.744070  0.852190  1.0  -0.154
  C  C112  1  0.108120  0.255930  0.726850  1.0  -0.1573
  C  C113  1  0.186490  0.071410  0.385640  1.0  -0.1608
  C  C114  1  0.273150  0.891880  0.744070  1.0  -0.1569
  C  C115  1  0.665300  0.105240  0.193400  1.0  -0.0157
  C  C116  1  0.193400  0.088160  0.528100  1.0  -0.0151
  C  C117  1  0.141340  0.458970  0.253890  1.0  0.0486
  C  C118  1  0.253890  0.141340  0.458970  1.0  0.036
  C  C119  1  0.614360  0.685770  0.800850  1.0  -0.1589
  C  C120  1  0.334700  0.528100  0.439940  1.0  -0.0147
  C  C121  1  0.928590  0.115080  0.314230  1.0  -0.164
  C  C122  1  0.088160  0.528100  0.193400  1.0  -0.0229
  C  C123  1  0.884920  0.813510  0.199150  1.0  -0.1638
  C  C124  1  0.112550  0.317630  0.858660  1.0  0.0423
  C  C125  1  0.529080  0.255930  0.147810  1.0  -0.1582
  C  C126  1  0.631280  0.016950  0.890830  1.0  -0.0217
  C  C127  1  0.385670  0.368720  0.259550  1.0  -0.0134
  C  C128  1  0.259550  0.890830  0.873880  1.0  -0.0156
  C  C129  1  0.471900  0.560060  0.665300  1.0  -0.0177
  C  C130  1  0.983050  0.614330  0.873880  1.0  -0.0215
  C  C131  1  0.126120  0.016950  0.385670  1.0  -0.0224
  C  C132  1  0.726850  0.470920  0.618730  1.0  -0.1573
  C  C133  1  0.314230  0.928590  0.115080  1.0  -0.1624
  C  C134  1  0.614330  0.873880  0.983050  1.0  -0.0147
  C  C135  1  0.884920  0.685770  0.071410  1.0  -0.1621
  C  C136  1  0.071410  0.385640  0.186490  1.0  -0.1638
  C  C137  1  0.806600  0.911840  0.471900  1.0  -0.0132
  C  C138  1  0.746110  0.858660  0.541030  1.0  0.0366
  C  C139  1  0.193400  0.665300  0.105240  1.0  -0.0149
  C  C140  1  0.852190  0.108120  0.381270  1.0  -0.1569
  C  C141  1  0.806600  0.334700  0.894760  1.0  -0.0166
  C  C142  1  0.813510  0.928590  0.614360  1.0  -0.1618
  C  C143  1  0.255930  0.726850  0.108120  1.0  -0.1508
  C  C144  1  0.726850  0.108120  0.255930  1.0  -0.1527
  C  C145  1  0.470920  0.618730  0.726850  1.0  -0.1505
  C  C146  1  0.115080  0.186490  0.800850  1.0  -0.1597
  C  C147  1  0.314230  0.199150  0.385640  1.0  -0.1659
  C  C148  1  0.259550  0.385670  0.368720  1.0  -0.0211
  C  C149  1  0.800850  0.614360  0.685770  1.0  -0.1641
  C  C150  1  0.205080  0.887450  0.746110  1.0  0.0392
  C  C151  1  0.740450  0.614330  0.631280  1.0  -0.0181
  C  C152  1  0.528100  0.193400  0.088160  1.0  -0.0154
  C  C153  1  0.334700  0.894760  0.806600  1.0  -0.0139
  C  C154  1  0.813510  0.199150  0.884920  1.0  -0.1634
  C  C155  1  0.631280  0.740450  0.614330  1.0  -0.0176
  C  C156  1  0.439940  0.911840  0.105240  1.0  -0.0177
  C  C157  1  0.618730  0.147810  0.891880  1.0  -0.1499
  C  C158  1  0.887450  0.746110  0.205080  1.0  0.042
  C  C159  1  0.614360  0.813510  0.928590  1.0  -0.157
  C  C160  1  0.682370  0.794920  0.541030  1.0  0.0462
  C  C161  1  0.858660  0.112550  0.317630  1.0  0.042
  C  C162  1  0.255930  0.147810  0.529080  1.0  -0.154
  C  C163  1  0.890830  0.631280  0.016950  1.0  -0.0188
  C  C164  1  0.317630  0.205080  0.458970  1.0  0.0457
  C  C165  1  0.141340  0.887450  0.682370  1.0  0.0419
  C  C166  1  0.794920  0.112550  0.253890  1.0  0.0397
  C  C167  1  0.911840  0.105240  0.439940  1.0  -0.009
  C  C168  1  0.894760  0.560060  0.088160  1.0  -0.015
  C  C169  1  0.385670  0.126120  0.016950  1.0  -0.0143
  C  C170  1  0.016950  0.890830  0.631280  1.0  -0.0197
  C  C171  1  0.858660  0.541030  0.746110  1.0  0.0494
  C  C172  1  0.746110  0.205080  0.887450  1.0  0.037
  C  C173  1  0.205080  0.458970  0.317630  1.0  0.0418
  C  C174  1  0.368720  0.259550  0.385670  1.0  -0.0175
  C  C175  1  0.385640  0.314230  0.199150  1.0  -0.1586
  C  C176  1  0.186490  0.800850  0.115080  1.0  -0.162
  C  C177  1  0.147810  0.891880  0.618730  1.0  -0.153
  C  C178  1  0.126120  0.740450  0.109170  1.0  -0.0197
  C  C179  1  0.385640  0.186490  0.071410  1.0  -0.1576
  C  C180  1  0.471900  0.806600  0.911840  1.0  -0.0148
  C  C181  1  0.115080  0.314230  0.928590  1.0  -0.1605
  C  C182  1  0.891880  0.744070  0.273150  1.0  -0.1592
  C  C183  1  0.891880  0.618730  0.147810  1.0  -0.1523
  C  C184  1  0.109170  0.126120  0.740450  1.0  -0.0175
  C  C185  1  0.800850  0.115080  0.186490  1.0  -0.1598
  C  C186  1  0.199150  0.884920  0.813510  1.0  -0.1588
  C  C187  1  0.108120  0.381270  0.852190  1.0  -0.1547
  C  C188  1  0.381270  0.273150  0.529080  1.0  -0.1514
  C  C189  1  0.685770  0.800850  0.614360  1.0  -0.1651
  C  C190  1  0.873880  0.983050  0.614330  1.0  -0.0188
  C  C191  1  0.887450  0.682370  0.141340  1.0  0.042
  C  C192  1  0.368720  0.983050  0.109170  1.0  -0.0211
  C  C193  1  0.560060  0.088160  0.894760  1.0  -0.0161
  C  C194  1  0.618730  0.726850  0.470920  1.0  -0.153
  C  C195  1  0.685770  0.071410  0.884920  1.0  -0.1607
  C  C196  1  0.665300  0.471900  0.560060  1.0  -0.0141
  C  C197  1  0.682370  0.141340  0.887450  1.0  0.0446
  C  C198  1  0.852190  0.470920  0.744070  1.0  -0.1563
  C  C199  1  0.560060  0.665300  0.471900  1.0  -0.0132
  C  C200  1  0.983050  0.109170  0.368720  1.0  -0.019
  C  C201  1  0.528100  0.439940  0.334700  1.0  -0.018
  C  C202  1  0.794920  0.541030  0.682370  1.0  0.0418
  C  C203  1  0.529080  0.381270  0.273150  1.0  -0.1504
  C  C204  1  0.911840  0.471900  0.806600  1.0  -0.0205
  C  C205  1  0.890830  0.873880  0.259550  1.0  -0.0199
  C  C206  1  0.381270  0.852190  0.108120  1.0  -0.1518
  C  C207  1  0.273150  0.529080  0.381270  1.0  -0.1551
  C  C208  1  0.928590  0.614360  0.813510  1.0  -0.1626
  C  C209  1  0.088160  0.894760  0.560060  1.0  -0.0109
  C  C210  1  0.109170  0.368720  0.983050  1.0  -0.0203
  C  C211  1  0.112550  0.253890  0.794920  1.0  0.0425
  C  C212  1  0.894760  0.806600  0.334700  1.0  -0.0143
  C  C213  1  0.071410  0.884920  0.685770  1.0  -0.1593
  C  C214  1  0.439940  0.334700  0.528100  1.0  -0.0164
  C  C215  1  0.458970  0.317630  0.205080  1.0  0.0446
  C  C216  1  0.016950  0.385670  0.126120  1.0  -0.0232
  C  C217  1  0.147810  0.529080  0.255930  1.0  -0.1558
  C  C218  1  0.317630  0.858660  0.112550  1.0  0.0456
  C  C219  1  0.105240  0.439940  0.911840  1.0  -0.0135
  C  C220  1  0.541030  0.682370  0.794920  1.0  0.0447
  N  N221  1  0.974120  0.543350  0.870910  1.0  0.2806
  N  N222  1  0.025880  0.896790  0.569230  1.0  0.2851
  N  N223  1  0.430770  0.974120  0.103210  1.0  0.2813
  N  N224  1  0.896790  0.569230  0.025880  1.0  0.2843
  N  N225  1  0.327560  0.456650  0.430770  1.0  0.2854
  N  N226  1  0.430770  0.327560  0.456650  1.0  0.2854
  N  N227  1  0.456650  0.430770  0.327560  1.0  0.2822
  N  N228  1  0.569230  0.025880  0.896790  1.0  0.2846
  N  N229  1  0.896790  0.870910  0.327560  1.0  0.2726
  N  N230  1  0.672440  0.103210  0.129090  1.0  0.2869
  N  N231  1  0.129090  0.672440  0.103210  1.0  0.2747
  N  N232  1  0.129090  0.025880  0.456650  1.0  0.2843
  N  N233  1  0.543350  0.870910  0.974120  1.0  0.2854
  N  N234  1  0.870910  0.327560  0.896790  1.0  0.2773
  N  N235  1  0.569230  0.672440  0.543350  1.0  0.2854
  N  N236  1  0.103210  0.129090  0.672440  1.0  0.2727
  N  N237  1  0.543350  0.569230  0.672440  1.0  0.2803
  N  N238  1  0.974120  0.103210  0.430770  1.0  0.2751
  N  N239  1  0.870910  0.974120  0.543350  1.0  0.2757
  N  N240  1  0.103210  0.430770  0.974120  1.0  0.2875
  N  N241  1  0.456650  0.129090  0.025880  1.0  0.2775
  N  N242  1  0.672440  0.543350  0.569230  1.0  0.2883
  N  N243  1  0.025880  0.456650  0.129090  1.0  0.2811
  N  N244  1  0.327560  0.896790  0.870910  1.0  0.2778
  O  O245  1  0.067380  0.967330  0.452270  1.0  -0.5523
  O  O246  1  0.899950  0.932620  0.384890  1.0  -0.5461
  O  O247  1  0.515060  0.615110  0.547730  1.0  -0.5659
  O  O248  1  0.484940  0.384890  0.452270  1.0  -0.5658
  O  O249  1  0.452270  0.067380  0.967330  1.0  -0.5515
  O  O250  1  0.615110  0.547730  0.515060  1.0  -0.5459
  O  O251  1  0.384890  0.899950  0.932620  1.0  -0.5482
  O  O252  1  0.452270  0.484940  0.384890  1.0  -0.5495
  O  O253  1  0.032670  0.100050  0.484940  1.0  -0.5641
  O  O254  1  0.615110  0.100050  0.067380  1.0  -0.5467
  O  O255  1  0.032670  0.547730  0.932620  1.0  -0.5614
  O  O256  1  0.067380  0.615110  0.100050  1.0  -0.553
  O  O257  1  0.967330  0.899950  0.515060  1.0  -0.5652
  O  O258  1  0.547730  0.515060  0.615110  1.0  -0.5505
  O  O259  1  0.547730  0.932620  0.032670  1.0  -0.5515
  O  O260  1  0.100050  0.484940  0.032670  1.0  -0.563
  O  O261  1  0.932620  0.032670  0.547730  1.0  -0.5534
  O  O262  1  0.484940  0.032670  0.100050  1.0  -0.5662
  O  O263  1  0.899950  0.515060  0.967330  1.0  -0.5643
  O  O264  1  0.932620  0.384890  0.899950  1.0  -0.5536
  O  O265  1  0.100050  0.067380  0.615110  1.0  -0.5456
  O  O266  1  0.384890  0.452270  0.484940  1.0  -0.5463
  O  O267  1  0.515060  0.967330  0.899950  1.0  -0.5643
  O  O268  1  0.967330  0.452270  0.067380  1.0  -0.5646
