# generated using pymatgen
data_CoH24C30(NO)6
_symmetry_space_group_name_H-M   'P 1'
_cell_length_a   20.04830000
_cell_length_b   20.04810000
_cell_length_c   20.04810000
_cell_angle_alpha   109.47100000
_cell_angle_beta   109.47100000
_cell_angle_gamma   109.47100000
_symmetry_Int_Tables_number   1
_chemical_formula_structural   CoH24C30(NO)6
_chemical_formula_sum   'Co4 H96 C120 N24 O24'
_cell_volume   6203.05524585
_cell_formula_units_Z   4
loop_
 _symmetry_equiv_pos_site_id
 _symmetry_equiv_pos_as_xyz
  1  'x, y, z'
loop_
 _atom_site_type_symbol
 _atom_site_label
 _atom_site_symmetry_multiplicity
 _atom_site_fract_x
 _atom_site_fract_y
 _atom_site_fract_z
 _atom_site_occupancy
 _atom_site_charge
  Co  Co1  1  0.500000  0.000000  0.000000  1.0  0.8311
  Co  Co2  1  0.000000  0.000000  0.500000  1.0  0.8311
  Co  Co3  1  0.000000  0.500000  0.000000  1.0  0.8311
  Co  Co4  1  0.500000  0.500000  0.500000  1.0  0.8311
  H  H5  1  0.574600  0.093200  0.193400  1.0  0.1012
  H  H6  1  0.849800  0.726000  0.664200  1.0  0.1111
  H  H7  1  0.185600  0.335800  0.061800  1.0  0.1129
  H  H8  1  0.664200  0.938200  0.814400  1.0  0.1085
  H  H9  1  0.637200  0.666300  0.745900  1.0  0.1111
  H  H10  1  0.093200  0.518600  0.899800  1.0  0.1022
  H  H11  1  0.274000  0.123800  0.938200  1.0  0.1089
  H  H12  1  0.386700  0.109100  0.810400  1.0  0.1102
  H  H13  1  0.423700  0.722400  0.613300  1.0  0.1111
  H  H14  1  0.613300  0.890900  0.189600  1.0  0.111
  H  H15  1  0.274000  0.335800  0.150200  1.0  0.1134
  H  H16  1  0.100200  0.618800  0.193400  1.0  0.1032
  H  H17  1  0.335800  0.150200  0.274000  1.0  0.1096
  H  H18  1  0.810400  0.701300  0.423700  1.0  0.1142
  H  H19  1  0.298700  0.109100  0.722400  1.0  0.1102
  H  H20  1  0.335800  0.061800  0.185600  1.0  0.1082
  H  H21  1  0.150200  0.814400  0.876200  1.0  0.1076
  H  H22  1  0.906800  0.806600  0.425400  1.0  0.1048
  H  H23  1  0.891300  0.970900  0.637200  1.0  0.1126
  H  H24  1  0.386700  0.576300  0.277600  1.0  0.1144
  H  H25  1  0.637200  0.891300  0.970900  1.0  0.1098
  H  H26  1  0.362800  0.108700  0.029100  1.0  0.1105
  H  H27  1  0.254100  0.362800  0.333700  1.0  0.1109
  H  H28  1  0.806600  0.899800  0.381200  1.0  0.1033
  H  H29  1  0.277600  0.701300  0.890900  1.0  0.1124
  H  H30  1  0.701300  0.423700  0.810400  1.0  0.1121
  H  H31  1  0.726000  0.876200  0.061800  1.0  0.109
  H  H32  1  0.814400  0.664200  0.938200  1.0  0.1129
  H  H33  1  0.425400  0.618800  0.518600  1.0  0.101
  H  H34  1  0.109100  0.722400  0.298700  1.0  0.112
  H  H35  1  0.189600  0.298700  0.576300  1.0  0.1149
  H  H36  1  0.618800  0.193400  0.100200  1.0  0.1033
  H  H37  1  0.193400  0.100200  0.618800  1.0  0.1032
  H  H38  1  0.664200  0.849800  0.726000  1.0  0.1101
  H  H39  1  0.722400  0.613300  0.423700  1.0  0.1119
  H  H40  1  0.618800  0.518600  0.425400  1.0  0.1035
  H  H41  1  0.518600  0.899800  0.093200  1.0  0.1032
  H  H42  1  0.576300  0.277600  0.386700  1.0  0.1109
  H  H43  1  0.899800  0.093200  0.518600  1.0  0.1045
  H  H44  1  0.254100  0.920400  0.891300  1.0  0.1121
  H  H45  1  0.899800  0.381200  0.806600  1.0  0.1033
  H  H46  1  0.906800  0.481400  0.100200  1.0  0.1031
  H  H47  1  0.666300  0.029100  0.920400  1.0  0.11
  H  H48  1  0.970900  0.637200  0.891300  1.0  0.1128
  H  H49  1  0.193400  0.574600  0.093200  1.0  0.102
  H  H50  1  0.576300  0.189600  0.298700  1.0  0.1114
  H  H51  1  0.108700  0.029100  0.362800  1.0  0.1115
  H  H52  1  0.938200  0.814400  0.664200  1.0  0.1092
  H  H53  1  0.333700  0.970900  0.079600  1.0  0.11
  H  H54  1  0.810400  0.386700  0.109100  1.0  0.1101
  H  H55  1  0.481400  0.100200  0.906800  1.0  0.1024
  H  H56  1  0.574600  0.381200  0.481400  1.0  0.1
  H  H57  1  0.150200  0.274000  0.335800  1.0  0.111
  H  H58  1  0.189600  0.613300  0.890900  1.0  0.1108
  H  H59  1  0.029100  0.362800  0.108700  1.0  0.1127
  H  H60  1  0.381200  0.481400  0.574600  1.0  0.1033
  H  H61  1  0.876200  0.150200  0.814400  1.0  0.112
  H  H62  1  0.726000  0.664200  0.849800  1.0  0.1133
  H  H63  1  0.333700  0.254100  0.362800  1.0  0.1106
  H  H64  1  0.876200  0.061800  0.726000  1.0  0.1114
  H  H65  1  0.079600  0.333700  0.970900  1.0  0.1096
  H  H66  1  0.849800  0.185600  0.123800  1.0  0.1106
  H  H67  1  0.425400  0.906800  0.806600  1.0  0.1016
  H  H68  1  0.701300  0.890900  0.277600  1.0  0.1108
  H  H69  1  0.814400  0.876200  0.150200  1.0  0.1092
  H  H70  1  0.093200  0.193400  0.574600  1.0  0.1039
  H  H71  1  0.890900  0.189600  0.613300  1.0  0.1114
  H  H72  1  0.806600  0.425400  0.906800  1.0  0.1012
  H  H73  1  0.079600  0.108700  0.745900  1.0  0.1104
  H  H74  1  0.920400  0.666300  0.029100  1.0  0.1087
  H  H75  1  0.061800  0.185600  0.335800  1.0  0.1093
  H  H76  1  0.722400  0.298700  0.109100  1.0  0.1131
  H  H77  1  0.423700  0.810400  0.701300  1.0  0.1109
  H  H78  1  0.745900  0.637200  0.666300  1.0  0.1108
  H  H79  1  0.938200  0.274000  0.123800  1.0  0.1093
  H  H80  1  0.123800  0.938200  0.274000  1.0  0.1116
  H  H81  1  0.123800  0.849800  0.185600  1.0  0.1116
  H  H82  1  0.277600  0.386700  0.576300  1.0  0.1133
  H  H83  1  0.185600  0.123800  0.849800  1.0  0.1096
  H  H84  1  0.298700  0.576300  0.189600  1.0  0.1125
  H  H85  1  0.029100  0.920400  0.666300  1.0  0.1103
  H  H86  1  0.613300  0.423700  0.722400  1.0  0.1148
  H  H87  1  0.061800  0.726000  0.876200  1.0  0.109
  H  H88  1  0.518600  0.425400  0.618800  1.0  0.1026
  H  H89  1  0.745900  0.079600  0.108700  1.0  0.1114
  H  H90  1  0.481400  0.574600  0.381200  1.0  0.1032
  H  H91  1  0.970900  0.079600  0.333700  1.0  0.1103
  H  H92  1  0.920400  0.891300  0.254100  1.0  0.1102
  H  H93  1  0.100200  0.906800  0.481400  1.0  0.1037
  H  H94  1  0.891300  0.254100  0.920400  1.0  0.1134
  H  H95  1  0.381200  0.806600  0.899800  1.0  0.1029
  H  H96  1  0.109100  0.810400  0.386700  1.0  0.1113
  H  H97  1  0.108700  0.745900  0.079600  1.0  0.1132
  H  H98  1  0.890900  0.277600  0.701300  1.0  0.1125
  H  H99  1  0.666300  0.745900  0.637200  1.0  0.1103
  H  H100  1  0.362800  0.333700  0.254100  1.0  0.1112
  C  C101  1  0.525730  0.087340  0.191070  1.0  -0.0229
  C  C102  1  0.254200  0.526600  0.145600  1.0  -0.1609
  C  C103  1  0.103730  0.665340  0.191070  1.0  -0.0247
  C  C104  1  0.883660  0.198060  0.813400  1.0  -0.1496
  C  C105  1  0.108600  0.854400  0.381000  1.0  -0.1581
  C  C106  1  0.631400  0.616700  0.741100  1.0  -0.0148
  C  C107  1  0.251720  0.112700  0.795220  1.0  0.0485
  C  C108  1  0.887300  0.204780  0.748280  1.0  0.0463
  C  C109  1  0.087340  0.561610  0.896270  1.0  -0.024
  C  C110  1  0.616700  0.741100  0.631400  1.0  -0.0121
  C  C111  1  0.616700  0.985300  0.875600  1.0  -0.0119
  C  C112  1  0.438390  0.525730  0.334660  1.0  -0.023
  C  C113  1  0.891400  0.272400  0.745800  1.0  -0.1574
  C  C114  1  0.139020  0.682520  0.887300  1.0  0.0488
  C  C115  1  0.381000  0.526600  0.272400  1.0  -0.1592
  C  C116  1  0.875600  0.616700  0.985300  1.0  -0.0126
  C  C117  1  0.070260  0.685600  0.883660  1.0  -0.1429
  C  C118  1  0.383300  0.258900  0.368600  1.0  -0.015
  C  C119  1  0.615340  0.801940  0.685600  1.0  -0.1417
  C  C120  1  0.665340  0.191070  0.103730  1.0  -0.0259
  C  C121  1  0.191070  0.525730  0.087340  1.0  -0.021
  C  C122  1  0.615340  0.929740  0.813400  1.0  -0.1399
  C  C123  1  0.314400  0.384660  0.198060  1.0  -0.1438
  C  C124  1  0.741100  0.124400  0.109700  1.0  -0.0065
  C  C125  1  0.561610  0.896270  0.087340  1.0  -0.0218
  C  C126  1  0.474270  0.665340  0.561610  1.0  -0.0251
  C  C127  1  0.070260  0.186600  0.384660  1.0  -0.1349
  C  C128  1  0.272400  0.381000  0.526600  1.0  -0.1569
  C  C129  1  0.272400  0.745800  0.891400  1.0  -0.1591
  C  C130  1  0.116340  0.929740  0.314400  1.0  -0.1483
  C  C131  1  0.456500  0.204780  0.317480  1.0  0.0442
  C  C132  1  0.383300  0.014700  0.124400  1.0  -0.0125
  C  C133  1  0.795220  0.682520  0.543500  1.0  0.045
  C  C134  1  0.619000  0.473400  0.727600  1.0  -0.1602
  C  C135  1  0.204780  0.317480  0.456500  1.0  0.0465
  C  C136  1  0.186600  0.116340  0.801940  1.0  -0.1429
  C  C137  1  0.254200  0.108600  0.727600  1.0  -0.1584
  C  C138  1  0.314400  0.116340  0.929740  1.0  -0.1421
  C  C139  1  0.619000  0.891400  0.145600  1.0  -0.1557
  C  C140  1  0.251720  0.456500  0.139020  1.0  0.0454
  C  C141  1  0.381000  0.108600  0.854400  1.0  -0.1608
  C  C142  1  0.334660  0.438390  0.525730  1.0  -0.0245
  C  C143  1  0.860980  0.748280  0.543500  1.0  0.0462
  C  C144  1  0.526600  0.272400  0.381000  1.0  -0.1536
  C  C145  1  0.801940  0.186600  0.116340  1.0  -0.1414
  C  C146  1  0.087340  0.191070  0.525730  1.0  -0.0246
  C  C147  1  0.665340  0.561610  0.474270  1.0  -0.0215
  C  C148  1  0.682520  0.543500  0.795220  1.0  0.0502
  C  C149  1  0.912660  0.808930  0.474270  1.0  -0.0237
  C  C150  1  0.258900  0.875600  0.890300  1.0  -0.0094
  C  C151  1  0.727600  0.254200  0.108600  1.0  -0.1559
  C  C152  1  0.795220  0.251720  0.112700  1.0  0.048
  C  C153  1  0.317480  0.456500  0.204780  1.0  0.0502
  C  C154  1  0.631400  0.890300  0.014700  1.0  -0.0119
  C  C155  1  0.808930  0.896270  0.334660  1.0  -0.0205
  C  C156  1  0.186600  0.384660  0.070260  1.0  -0.148
  C  C157  1  0.139020  0.251720  0.456500  1.0  0.0471
  C  C158  1  0.384660  0.070260  0.186600  1.0  -0.1403
  C  C159  1  0.543500  0.860980  0.748280  1.0  0.0497
  C  C160  1  0.474270  0.912660  0.808930  1.0  -0.0232
  C  C161  1  0.890300  0.014700  0.631400  1.0  -0.015
  C  C162  1  0.887300  0.139020  0.682520  1.0  0.0467
  C  C163  1  0.745800  0.473400  0.854400  1.0  -0.1605
  C  C164  1  0.685600  0.615340  0.801940  1.0  -0.1449
  C  C165  1  0.526600  0.145600  0.254200  1.0  -0.1548
  C  C166  1  0.985300  0.368600  0.109700  1.0  -0.0137
  C  C167  1  0.813400  0.615340  0.929740  1.0  -0.1444
  C  C168  1  0.116340  0.801940  0.186600  1.0  -0.1473
  C  C169  1  0.368600  0.383300  0.258900  1.0  -0.0129
  C  C170  1  0.860980  0.317480  0.112700  1.0  0.0488
  C  C171  1  0.748280  0.887300  0.204780  1.0  0.0477
  C  C172  1  0.198060  0.314400  0.384660  1.0  -0.1449
  C  C173  1  0.985300  0.875600  0.616700  1.0  -0.0139
  C  C174  1  0.109700  0.741100  0.124400  1.0  -0.0118
  C  C175  1  0.912660  0.438390  0.103730  1.0  -0.029
  C  C176  1  0.727600  0.619000  0.473400  1.0  -0.1567
  C  C177  1  0.854400  0.745800  0.473400  1.0  -0.1609
  C  C178  1  0.124400  0.383300  0.014700  1.0  -0.0097
  C  C179  1  0.890300  0.258900  0.875600  1.0  -0.0149
  C  C180  1  0.384660  0.198060  0.314400  1.0  -0.1421
  C  C181  1  0.145600  0.254200  0.526600  1.0  -0.1595
  C  C182  1  0.883660  0.070260  0.685600  1.0  -0.1446
  C  C183  1  0.112700  0.860980  0.317480  1.0  0.0449
  C  C184  1  0.112700  0.795220  0.251720  1.0  0.0471
  C  C185  1  0.109700  0.985300  0.368600  1.0  -0.0154
  C  C186  1  0.929740  0.813400  0.615340  1.0  -0.1331
  C  C187  1  0.473400  0.854400  0.745800  1.0  -0.1543
  C  C188  1  0.525730  0.334660  0.438390  1.0  -0.0239
  C  C189  1  0.334660  0.808930  0.896270  1.0  -0.023
  C  C190  1  0.145600  0.619000  0.891400  1.0  -0.1553
  C  C191  1  0.191070  0.103730  0.665340  1.0  -0.0173
  C  C192  1  0.014700  0.631400  0.890300  1.0  -0.0142
  C  C193  1  0.473400  0.727600  0.619000  1.0  -0.1518
  C  C194  1  0.204780  0.748280  0.887300  1.0  0.0479
  C  C195  1  0.896270  0.087340  0.561610  1.0  -0.0197
  C  C196  1  0.456500  0.139020  0.251720  1.0  0.0496
  C  C197  1  0.543500  0.795220  0.682520  1.0  0.0449
  C  C198  1  0.875600  0.890300  0.258900  1.0  -0.0105
  C  C199  1  0.198060  0.813400  0.883660  1.0  -0.1399
  C  C200  1  0.801940  0.685600  0.615340  1.0  -0.1408
  C  C201  1  0.808930  0.474270  0.912660  1.0  -0.0232
  C  C202  1  0.741100  0.631400  0.616700  1.0  -0.0084
  C  C203  1  0.258900  0.368600  0.383300  1.0  -0.0081
  C  C204  1  0.317480  0.112700  0.860980  1.0  0.0472
  C  C205  1  0.896270  0.334660  0.808930  1.0  -0.0207
  C  C206  1  0.368600  0.109700  0.985300  1.0  -0.0115
  C  C207  1  0.891400  0.145600  0.619000  1.0  -0.1572
  C  C208  1  0.748280  0.543500  0.860980  1.0  0.0459
  C  C209  1  0.103730  0.912660  0.438390  1.0  -0.0193
  C  C210  1  0.854400  0.381000  0.108600  1.0  -0.1577
  C  C211  1  0.813400  0.883660  0.198060  1.0  -0.1458
  C  C212  1  0.014700  0.124400  0.383300  1.0  -0.0145
  C  C213  1  0.108600  0.727600  0.254200  1.0  -0.1555
  C  C214  1  0.745800  0.891400  0.272400  1.0  -0.1578
  C  C215  1  0.561610  0.474270  0.665340  1.0  -0.0288
  C  C216  1  0.682520  0.887300  0.139020  1.0  0.047
  C  C217  1  0.124400  0.109700  0.741100  1.0  -0.0128
  C  C218  1  0.685600  0.883660  0.070260  1.0  -0.1437
  C  C219  1  0.929740  0.314400  0.116340  1.0  -0.144
  C  C220  1  0.438390  0.103730  0.912660  1.0  -0.0169
  N  N221  1  0.127670  0.104220  0.672610  1.0  0.281
  N  N222  1  0.872330  0.895780  0.327390  1.0  0.2904
  N  N223  1  0.455060  0.327390  0.431610  1.0  0.2898
  N  N224  1  0.672610  0.127670  0.104220  1.0  0.2895
  N  N225  1  0.327390  0.872330  0.895780  1.0  0.2929
  N  N226  1  0.104220  0.976550  0.431610  1.0  0.2759
  N  N227  1  0.672610  0.568390  0.544940  1.0  0.287
  N  N228  1  0.976550  0.431610  0.104220  1.0  0.2882
  N  N229  1  0.872330  0.544940  0.976550  1.0  0.2911
  N  N230  1  0.544940  0.672610  0.568390  1.0  0.2909
  N  N231  1  0.895780  0.327390  0.872330  1.0  0.2771
  N  N232  1  0.568390  0.544940  0.672610  1.0  0.2883
  N  N233  1  0.104220  0.672610  0.127670  1.0  0.2902
  N  N234  1  0.023450  0.568390  0.895780  1.0  0.2899
  N  N235  1  0.895780  0.023450  0.568390  1.0  0.2886
  N  N236  1  0.327390  0.431610  0.455060  1.0  0.2832
  N  N237  1  0.127670  0.455060  0.023450  1.0  0.2889
  N  N238  1  0.568390  0.895780  0.023450  1.0  0.2935
  N  N239  1  0.431610  0.455060  0.327390  1.0  0.2777
  N  N240  1  0.431610  0.104220  0.976550  1.0  0.2779
  N  N241  1  0.023450  0.127670  0.455060  1.0  0.2783
  N  N242  1  0.455060  0.023450  0.127670  1.0  0.2888
  N  N243  1  0.544940  0.976550  0.872330  1.0  0.2903
  N  N244  1  0.976550  0.872330  0.544940  1.0  0.2871
  O  O245  1  0.965470  0.512610  0.898480  1.0  -0.5807
  O  O246  1  0.487390  0.452860  0.385870  1.0  -0.5791
  O  O247  1  0.547140  0.614130  0.512610  1.0  -0.5713
  O  O248  1  0.898480  0.965470  0.512610  1.0  -0.5784
  O  O249  1  0.547140  0.034530  0.933010  1.0  -0.5686
  O  O250  1  0.933010  0.547140  0.034530  1.0  -0.5678
  O  O251  1  0.034530  0.933010  0.547140  1.0  -0.5783
  O  O252  1  0.487390  0.101520  0.034530  1.0  -0.5797
  O  O253  1  0.512610  0.547140  0.614130  1.0  -0.5805
  O  O254  1  0.512610  0.898480  0.965470  1.0  -0.5833
  O  O255  1  0.034530  0.487390  0.101520  1.0  -0.5793
  O  O256  1  0.101520  0.614130  0.066990  1.0  -0.5676
  O  O257  1  0.066990  0.101520  0.614130  1.0  -0.5662
  O  O258  1  0.898480  0.385870  0.933010  1.0  -0.5662
  O  O259  1  0.385870  0.933010  0.898480  1.0  -0.5702
  O  O260  1  0.066990  0.452860  0.965470  1.0  -0.5702
  O  O261  1  0.965470  0.066990  0.452860  1.0  -0.5795
  O  O262  1  0.614130  0.066990  0.101520  1.0  -0.5682
  O  O263  1  0.452860  0.385870  0.487390  1.0  -0.5681
  O  O264  1  0.933010  0.898480  0.385870  1.0  -0.5663
  O  O265  1  0.614130  0.512610  0.547140  1.0  -0.5675
  O  O266  1  0.101520  0.034530  0.487390  1.0  -0.5776
  O  O267  1  0.385870  0.487390  0.452860  1.0  -0.5672
  O  O268  1  0.452860  0.965470  0.066990  1.0  -0.5686
