# generated using pymatgen
data_ZnMo3H2(CO2)4
_symmetry_space_group_name_H-M   'P 1'
_cell_length_a   15.09560000
_cell_length_b   15.50690000
_cell_length_c   25.72710000
_cell_angle_alpha   81.89670000
_cell_angle_beta   73.16620000
_cell_angle_gamma   60.87350000
_symmetry_Int_Tables_number   1
_chemical_formula_structural   ZnMo3H2(CO2)4
_chemical_formula_sum   'Zn8 Mo24 H16 C32 O64'
_cell_volume   5035.37760002
_cell_formula_units_Z   8
loop_
 _symmetry_equiv_pos_site_id
 _symmetry_equiv_pos_as_xyz
  1  'x, y, z'
loop_
 _atom_site_type_symbol
 _atom_site_label
 _atom_site_symmetry_multiplicity
 _atom_site_fract_x
 _atom_site_fract_y
 _atom_site_fract_z
 _atom_site_occupancy
 _atom_site_charge
  Zn  Zn1  1  0.394060  0.421800  0.829730  1.0  1.0713
  Zn  Zn2  1  0.184140  0.421800  0.670270  1.0  1.0717
  Zn  Zn3  1  0.284430  0.081460  0.838780  1.0  1.0696
  Zn  Zn4  1  0.715570  0.918540  0.161220  1.0  1.0667
  Zn  Zn5  1  0.634110  0.081460  0.661220  1.0  1.0656
  Zn  Zn6  1  0.365890  0.918540  0.338780  1.0  1.0677
  Zn  Zn7  1  0.605940  0.578200  0.170270  1.0  1.0711
  Zn  Zn8  1  0.815860  0.578200  0.329730  1.0  1.0702
  Mo  Mo9  1  0.584290  0.819340  0.112380  1.0  1.1186
  Mo  Mo10  1  0.153420  0.506280  0.798720  1.0  1.1201
  Mo  Mo11  1  0.415710  0.180660  0.887620  1.0  1.1158
  Mo  Mo12  1  0.558560  0.002080  0.291810  1.0  1.1447
  Mo  Mo13  1  0.846580  0.493720  0.201280  1.0  1.1215
  Mo  Mo14  1  0.457330  0.318300  0.608790  1.0  1.1012
  Mo  Mo15  1  0.403630  0.180660  0.612380  1.0  1.1189
  Mo  Mo16  1  0.091510  0.322260  0.795390  1.0  1.113
  Mo  Mo17  1  0.189880  0.184960  0.721390  1.0  1.0736
  Mo  Mo18  1  0.542670  0.681700  0.391210  1.0  1.0987
  Mo  Mo19  1  0.775630  0.681700  0.108790  1.0  1.1018
  Mo  Mo20  1  0.596370  0.819340  0.387620  1.0  1.1156
  Mo  Mo21  1  0.224370  0.318300  0.891210  1.0  1.0986
  Mo  Mo22  1  0.908490  0.677740  0.204610  1.0  1.1112
  Mo  Mo23  1  0.560640  0.997920  0.791810  1.0  1.1455
  Mo  Mo24  1  0.340300  0.506280  0.701280  1.0  1.1207
  Mo  Mo25  1  0.413770  0.677740  0.295390  1.0  1.1129
  Mo  Mo26  1  0.810120  0.815040  0.278610  1.0  1.0721
  Mo  Mo27  1  0.586230  0.322260  0.704610  1.0  1.1118
  Mo  Mo28  1  0.625160  0.184960  0.778610  1.0  1.0723
  Mo  Mo29  1  0.374840  0.815040  0.221390  1.0  1.0734
  Mo  Mo30  1  0.659700  0.493720  0.298720  1.0  1.1206
  Mo  Mo31  1  0.439360  0.002080  0.208190  1.0  1.1445
  Mo  Mo32  1  0.441440  0.997920  0.708190  1.0  1.145
  H  H33  1  0.604900  0.335800  0.975400  1.0  0.1495
  H  H34  1  0.042600  0.103200  0.435500  1.0  0.1495
  H  H35  1  0.043700  0.835600  0.996200  1.0  0.1493
  H  H36  1  0.624500  0.397400  0.046200  1.0  0.1471
  H  H37  1  0.145800  0.896800  0.935500  1.0  0.149
  H  H38  1  0.956300  0.164400  0.003800  1.0  0.1498
  H  H39  1  0.021900  0.602600  0.546200  1.0  0.1472
  H  H40  1  0.120700  0.835600  0.503800  1.0  0.1496
  H  H41  1  0.957400  0.896800  0.564500  1.0  0.1493
  H  H42  1  0.854200  0.103200  0.064500  1.0  0.1497
  H  H43  1  0.940700  0.664200  0.475400  1.0  0.1496
  H  H44  1  0.059300  0.335800  0.524600  1.0  0.1494
  H  H45  1  0.395100  0.664200  0.024600  1.0  0.1494
  H  H46  1  0.879300  0.164400  0.496200  1.0  0.1494
  H  H47  1  0.375500  0.602600  0.953800  1.0  0.1474
  H  H48  1  0.978100  0.397400  0.453800  1.0  0.1466
  C  C49  1  0.973890  0.098220  0.002230  1.0  -0.0201
  C  C50  1  0.437200  0.598000  0.015050  1.0  -0.0272
  C  C51  1  0.025750  0.061500  0.461340  1.0  -0.0385
  C  C52  1  0.203620  0.918960  0.422810  1.0  0.7339
  C  C53  1  0.927890  0.098220  0.497770  1.0  -0.0207
  C  C54  1  0.510560  0.536480  0.043310  1.0  -0.1087
  C  C55  1  0.012900  0.561000  0.527920  1.0  -0.0269
  C  C56  1  0.061790  0.036620  0.963180  1.0  -0.1027
  C  C57  1  0.987100  0.439000  0.472080  1.0  -0.0256
  C  C58  1  0.047040  0.463520  0.543310  1.0  -0.1091
  C  C59  1  0.900500  0.578800  0.411190  1.0  0.7501
  C  C60  1  0.938210  0.963380  0.036820  1.0  -0.1033
  C  C61  1  0.573900  0.439000  0.027920  1.0  -0.0202
  C  C62  1  0.479300  0.421200  0.911190  1.0  0.75
  C  C63  1  0.426100  0.561000  0.972080  1.0  -0.0248
  C  C64  1  0.901590  0.036620  0.536820  1.0  -0.103
  C  C65  1  0.796380  0.081040  0.577190  1.0  0.7336
  C  C66  1  0.562800  0.402000  0.984950  1.0  -0.0272
  C  C67  1  0.098410  0.963380  0.463180  1.0  -0.1031
  C  C68  1  0.026110  0.901780  0.997770  1.0  -0.0203
  C  C69  1  0.099500  0.421200  0.588810  1.0  0.7513
  C  C70  1  0.072110  0.901780  0.502230  1.0  -0.0201
  C  C71  1  0.035200  0.402000  0.515050  1.0  -0.0272
  C  C72  1  0.974250  0.938500  0.538660  1.0  -0.0394
  C  C73  1  0.489440  0.463520  0.956690  1.0  -0.1081
  C  C74  1  0.122580  0.081040  0.922810  1.0  0.7343
  C  C75  1  0.912750  0.061500  0.038660  1.0  -0.0381
  C  C76  1  0.520700  0.578800  0.088810  1.0  0.7528
  C  C77  1  0.877420  0.918960  0.077190  1.0  0.734
  C  C78  1  0.952960  0.536480  0.456690  1.0  -0.1075
  C  C79  1  0.087250  0.938500  0.961340  1.0  -0.0399
  C  C80  1  0.964800  0.598000  0.484950  1.0  -0.0273
  O  O81  1  0.463120  0.040760  0.638620  1.0  -0.6444
  O  O82  1  0.577880  0.988440  0.212540  1.0  -0.7553
  O  O83  1  0.165710  0.459780  0.866630  1.0  -0.6594
  O  O84  1  0.793580  0.978840  0.111090  1.0  -0.5531
  O  O85  1  0.433680  0.988440  0.287460  1.0  -0.756
  O  O86  1  0.320300  0.323300  0.625560  1.0  -0.7718
  O  O87  1  0.298270  0.493000  0.782690  1.0  -0.7933
  O  O88  1  0.344160  0.956280  0.221970  1.0  -0.6729
  O  O89  1  0.791270  0.507000  0.282690  1.0  -0.7932
  O  O90  1  0.701730  0.507000  0.217310  1.0  -0.7936
  O  O91  1  0.679700  0.676700  0.374440  1.0  -0.7708
  O  O92  1  0.443090  0.817820  0.140170  1.0  -0.6217
  O  O93  1  0.936540  0.536780  0.206230  1.0  -0.65
  O  O94  1  0.772420  0.021160  0.611090  1.0  -0.5539
  O  O95  1  0.104720  0.481760  0.615720  1.0  -0.5523
  O  O96  1  0.625490  0.540220  0.366630  1.0  -0.6591
  O  O97  1  0.503880  0.959240  0.138620  1.0  -0.6442
  O  O98  1  0.529880  0.328200  0.783470  1.0  -0.8359
  O  O99  1  0.473320  0.463220  0.706230  1.0  -0.6492
  O  O100  1  0.739090  0.817820  0.359830  1.0  -0.6204
  O  O101  1  0.422120  0.011560  0.787460  1.0  -0.7561
  O  O102  1  0.643600  0.676700  0.125560  1.0  -0.7717
  O  O103  1  0.374510  0.459780  0.633370  1.0  -0.6604
  O  O104  1  0.088680  0.170840  0.924850  1.0  -0.4079
  O  O105  1  0.556910  0.182180  0.859830  1.0  -0.6216
  O  O106  1  0.294450  0.175480  0.878620  1.0  -0.8163
  O  O107  1  0.496120  0.040760  0.861380  1.0  -0.6491
  O  O108  1  0.566320  0.011560  0.712540  1.0  -0.7555
  O  O109  1  0.895280  0.518240  0.384280  1.0  -0.5515
  O  O110  1  0.469930  0.824520  0.378620  1.0  -0.8162
  O  O111  1  0.413520  0.481760  0.884280  1.0  -0.5529
  O  O112  1  0.259520  0.829160  0.424850  1.0  -0.4095
  O  O113  1  0.464950  0.667700  0.096960  1.0  -0.4206
  O  O114  1  0.208730  0.493000  0.717310  1.0  -0.7939
  O  O115  1  0.867350  0.667700  0.403040  1.0  -0.4193
  O  O116  1  0.361360  0.820720  0.298530  1.0  -0.7853
  O  O117  1  0.419150  0.680340  0.373650  1.0  -0.6238
  O  O118  1  0.834290  0.540220  0.133370  1.0  -0.6587
  O  O119  1  0.063460  0.463220  0.793770  1.0  -0.6486
  O  O120  1  0.099490  0.319660  0.873650  1.0  -0.6246
  O  O121  1  0.260910  0.182180  0.640170  1.0  -0.6205
  O  O122  1  0.911320  0.829160  0.075150  1.0  -0.4102
  O  O123  1  0.206420  0.021160  0.888910  1.0  -0.554
  O  O124  1  0.535050  0.332300  0.903040  1.0  -0.4208
  O  O125  1  0.817920  0.820720  0.201470  1.0  -0.7865
  O  O126  1  0.900510  0.680340  0.126350  1.0  -0.6217
  O  O127  1  0.356400  0.323300  0.874440  1.0  -0.7712
  O  O128  1  0.182080  0.179280  0.798530  1.0  -0.7852
  O  O129  1  0.227580  0.978840  0.388910  1.0  -0.5552
  O  O130  1  0.655840  0.043720  0.778030  1.0  -0.6713
  O  O131  1  0.699560  0.956280  0.278030  1.0  -0.6717
  O  O132  1  0.530070  0.175480  0.621380  1.0  -0.8191
  O  O133  1  0.858080  0.671800  0.283470  1.0  -0.8353
  O  O134  1  0.580850  0.319660  0.626350  1.0  -0.6233
  O  O135  1  0.705550  0.824520  0.121380  1.0  -0.8188
  O  O136  1  0.638640  0.179280  0.701470  1.0  -0.7865
  O  O137  1  0.586480  0.518240  0.115720  1.0  -0.5531
  O  O138  1  0.740480  0.170840  0.575150  1.0  -0.4084
  O  O139  1  0.141920  0.328200  0.716530  1.0  -0.8324
  O  O140  1  0.300440  0.043720  0.721970  1.0  -0.671
  O  O141  1  0.526680  0.536780  0.293770  1.0  -0.6491
  O  O142  1  0.470120  0.671800  0.216530  1.0  -0.8319
  O  O143  1  0.132650  0.332300  0.596960  1.0  -0.4213
  O  O144  1  0.536880  0.959240  0.361380  1.0  -0.6458
