# generated using pymatgen
data_CoH24C30(NO)6
_symmetry_space_group_name_H-M   'P 1'
_cell_length_a   20.06640000
_cell_length_b   20.06620000
_cell_length_c   20.06620000
_cell_angle_alpha   109.47100000
_cell_angle_beta   109.47100000
_cell_angle_gamma   109.47100000
_symmetry_Int_Tables_number   1
_chemical_formula_structural   CoH24C30(NO)6
_chemical_formula_sum   'Co4 H96 C120 N24 O24'
_cell_volume   6219.87125163
_cell_formula_units_Z   4
loop_
 _symmetry_equiv_pos_site_id
 _symmetry_equiv_pos_as_xyz
  1  'x, y, z'
loop_
 _atom_site_type_symbol
 _atom_site_label
 _atom_site_symmetry_multiplicity
 _atom_site_fract_x
 _atom_site_fract_y
 _atom_site_fract_z
 _atom_site_occupancy
 _atom_site_charge
  Co  Co1  1  0.500000  0.500000  0.500000  1.0  0.8346
  Co  Co2  1  0.500000  0.000000  0.000000  1.0  0.8346
  Co  Co3  1  0.000000  0.000000  0.500000  1.0  0.8346
  Co  Co4  1  0.000000  0.500000  0.000000  1.0  0.8346
  H  H5  1  0.513100  0.890200  0.090300  1.0  0.1121
  H  H6  1  0.255300  0.360000  0.333700  1.0  0.1197
  H  H7  1  0.109800  0.622900  0.200100  1.0  0.1119
  H  H8  1  0.890200  0.377100  0.799900  1.0  0.112
  H  H9  1  0.149100  0.272600  0.336100  1.0  0.1201
  H  H10  1  0.102100  0.803300  0.382200  1.0  0.1273
  H  H11  1  0.109800  0.909700  0.486900  1.0  0.1139
  H  H12  1  0.921600  0.666300  0.026300  1.0  0.1197
  H  H13  1  0.813000  0.876500  0.149100  1.0  0.1188
  H  H14  1  0.104700  0.026300  0.360000  1.0  0.1217
  H  H15  1  0.701200  0.421100  0.803300  1.0  0.1295
  H  H16  1  0.280100  0.382200  0.578900  1.0  0.1286
  H  H17  1  0.744700  0.078400  0.104700  1.0  0.1184
  H  H18  1  0.909700  0.486900  0.109800  1.0  0.1126
  H  H19  1  0.333700  0.255300  0.360000  1.0  0.1203
  H  H20  1  0.876500  0.063500  0.727400  1.0  0.1208
  H  H21  1  0.078400  0.104700  0.744700  1.0  0.1201
  H  H22  1  0.622900  0.200100  0.109800  1.0  0.1128
  H  H23  1  0.102100  0.719900  0.298800  1.0  0.1269
  H  H24  1  0.486900  0.577200  0.377100  1.0  0.1121
  H  H25  1  0.078400  0.333700  0.973700  1.0  0.1188
  H  H26  1  0.486900  0.109800  0.909700  1.0  0.112
  H  H27  1  0.577200  0.377100  0.486900  1.0  0.1098
  H  H28  1  0.090300  0.200100  0.577200  1.0  0.1131
  H  H29  1  0.640000  0.895300  0.973700  1.0  0.1194
  H  H30  1  0.890200  0.090300  0.513100  1.0  0.1143
  H  H31  1  0.936500  0.272600  0.123500  1.0  0.1172
  H  H32  1  0.298800  0.102100  0.719900  1.0  0.1245
  H  H33  1  0.422800  0.909700  0.799900  1.0  0.1104
  H  H34  1  0.513100  0.422800  0.622900  1.0  0.1122
  H  H35  1  0.421100  0.719900  0.617800  1.0  0.1272
  H  H36  1  0.336100  0.063500  0.187000  1.0  0.1196
  H  H37  1  0.377100  0.799900  0.890200  1.0  0.1123
  H  H38  1  0.666300  0.744700  0.640000  1.0  0.1221
  H  H39  1  0.026300  0.921600  0.666300  1.0  0.1194
  H  H40  1  0.272600  0.336100  0.149100  1.0  0.1233
  H  H41  1  0.280100  0.701200  0.897900  1.0  0.1263
  H  H42  1  0.578900  0.196700  0.298800  1.0  0.1293
  H  H43  1  0.666300  0.026300  0.921600  1.0  0.1202
  H  H44  1  0.640000  0.666300  0.744700  1.0  0.1206
  H  H45  1  0.090300  0.513100  0.890200  1.0  0.1118
  H  H46  1  0.123500  0.936500  0.272600  1.0  0.1209
  H  H47  1  0.298800  0.578900  0.196700  1.0  0.1295
  H  H48  1  0.617800  0.897900  0.196700  1.0  0.1294
  H  H49  1  0.719900  0.617800  0.421100  1.0  0.1263
  H  H50  1  0.577200  0.090300  0.200100  1.0  0.1111
  H  H51  1  0.663900  0.850900  0.727400  1.0  0.1198
  H  H52  1  0.727400  0.663900  0.850900  1.0  0.1234
  H  H53  1  0.727400  0.876500  0.063500  1.0  0.1168
  H  H54  1  0.895300  0.255300  0.921600  1.0  0.1212
  H  H55  1  0.196700  0.617800  0.897900  1.0  0.1265
  H  H56  1  0.104700  0.744700  0.078400  1.0  0.1204
  H  H57  1  0.187000  0.336100  0.063500  1.0  0.1217
  H  H58  1  0.272600  0.123500  0.936500  1.0  0.1164
  H  H59  1  0.850900  0.727400  0.663900  1.0  0.1204
  H  H60  1  0.360000  0.104700  0.026300  1.0  0.1186
  H  H61  1  0.421100  0.803300  0.701200  1.0  0.13
  H  H62  1  0.617800  0.421100  0.719900  1.0  0.1315
  H  H63  1  0.973700  0.640000  0.895300  1.0  0.1195
  H  H64  1  0.744700  0.640000  0.666300  1.0  0.1192
  H  H65  1  0.897900  0.196700  0.617800  1.0  0.1272
  H  H66  1  0.333700  0.973700  0.078400  1.0  0.1189
  H  H67  1  0.200100  0.109800  0.622900  1.0  0.1127
  H  H68  1  0.422800  0.622900  0.513100  1.0  0.1099
  H  H69  1  0.063500  0.727400  0.876500  1.0  0.1169
  H  H70  1  0.799900  0.422800  0.909700  1.0  0.1117
  H  H71  1  0.936500  0.813000  0.663900  1.0  0.1207
  H  H72  1  0.876500  0.149100  0.813000  1.0  0.1215
  H  H73  1  0.578900  0.280100  0.382200  1.0  0.1261
  H  H74  1  0.026300  0.360000  0.104700  1.0  0.1189
  H  H75  1  0.909700  0.799900  0.422800  1.0  0.113
  H  H76  1  0.799900  0.890200  0.377100  1.0  0.1132
  H  H77  1  0.200100  0.577200  0.090300  1.0  0.1115
  H  H78  1  0.360000  0.333700  0.255300  1.0  0.1208
  H  H79  1  0.377100  0.486900  0.577200  1.0  0.1122
  H  H80  1  0.382200  0.578900  0.280100  1.0  0.1316
  H  H81  1  0.123500  0.850900  0.187000  1.0  0.1211
  H  H82  1  0.336100  0.149100  0.272600  1.0  0.1195
  H  H83  1  0.622900  0.513100  0.422800  1.0  0.113
  H  H84  1  0.149100  0.813000  0.876500  1.0  0.1181
  H  H85  1  0.803300  0.382200  0.102100  1.0  0.1279
  H  H86  1  0.973700  0.078400  0.333700  1.0  0.1191
  H  H87  1  0.921600  0.895300  0.255300  1.0  0.1215
  H  H88  1  0.850900  0.187000  0.123500  1.0  0.1204
  H  H89  1  0.803300  0.701200  0.421100  1.0  0.1277
  H  H90  1  0.813000  0.663900  0.936500  1.0  0.1217
  H  H91  1  0.663900  0.936500  0.813000  1.0  0.1195
  H  H92  1  0.382200  0.102100  0.803300  1.0  0.1288
  H  H93  1  0.895300  0.973700  0.640000  1.0  0.1235
  H  H94  1  0.063500  0.187000  0.336100  1.0  0.1205
  H  H95  1  0.255300  0.921600  0.895300  1.0  0.1203
  H  H96  1  0.719900  0.298800  0.102100  1.0  0.1267
  H  H97  1  0.196700  0.298800  0.578900  1.0  0.1287
  H  H98  1  0.897900  0.280100  0.701200  1.0  0.1258
  H  H99  1  0.187000  0.123500  0.850900  1.0  0.1181
  H  H100  1  0.701200  0.897900  0.280100  1.0  0.1259
  C  C101  1  0.204450  0.317880  0.457730  1.0  -0.0203
  C  C102  1  0.893270  0.332920  0.805630  1.0  0.0314
  C  C103  1  0.620520  0.471440  0.727280  1.0  -0.1546
  C  C104  1  0.615560  0.740540  0.633240  1.0  -0.0235
  C  C105  1  0.892700  0.017680  0.633240  1.0  -0.0356
  C  C106  1  0.633240  0.892700  0.017680  1.0  -0.0316
  C  C107  1  0.272720  0.744160  0.893240  1.0  -0.1545
  C  C108  1  0.332920  0.439650  0.527290  1.0  0.0286
  C  C109  1  0.255840  0.528560  0.149080  1.0  -0.1546
  C  C110  1  0.542270  0.860150  0.746720  1.0  -0.0151
  C  C111  1  0.385940  0.198000  0.313740  1.0  -0.1354
  C  C112  1  0.560350  0.472710  0.667080  1.0  0.0285
  C  C113  1  0.686260  0.614060  0.802000  1.0  -0.1441
  C  C114  1  0.614060  0.802000  0.686260  1.0  -0.1385
  C  C115  1  0.682120  0.886570  0.139850  1.0  -0.0148
  C  C116  1  0.850920  0.744160  0.471440  1.0  -0.1535
  C  C117  1  0.667080  0.560350  0.472710  1.0  0.0315
  C  C118  1  0.087640  0.194370  0.527290  1.0  0.0313
  C  C119  1  0.884260  0.198000  0.812060  1.0  -0.1401
  C  C120  1  0.912360  0.805630  0.472710  1.0  0.0321
  C  C121  1  0.527290  0.087640  0.194370  1.0  0.0302
  C  C122  1  0.139850  0.253280  0.457730  1.0  -0.0124
  C  C123  1  0.106730  0.912360  0.439650  1.0  0.0357
  C  C124  1  0.614060  0.927800  0.812060  1.0  -0.1334
  C  C125  1  0.194370  0.106730  0.667080  1.0  0.0344
  C  C126  1  0.860150  0.746720  0.542270  1.0  -0.0125
  C  C127  1  0.272720  0.379480  0.528560  1.0  -0.1499
  C  C128  1  0.259460  0.875020  0.892700  1.0  -0.0275
  C  C129  1  0.332920  0.805630  0.893270  1.0  0.0324
  C  C130  1  0.805630  0.472710  0.912360  1.0  0.0301
  C  C131  1  0.727280  0.255840  0.106760  1.0  -0.1535
  C  C132  1  0.802000  0.187940  0.115740  1.0  -0.1319
  C  C133  1  0.106760  0.727280  0.255840  1.0  -0.1488
  C  C134  1  0.439650  0.106730  0.912360  1.0  0.0322
  C  C135  1  0.615560  0.982320  0.875020  1.0  -0.0294
  C  C136  1  0.744160  0.893240  0.272720  1.0  -0.1458
  C  C137  1  0.740540  0.124980  0.107300  1.0  -0.0274
  C  C138  1  0.682120  0.542270  0.795550  1.0  -0.0116
  C  C139  1  0.982320  0.875020  0.615560  1.0  -0.0256
  C  C140  1  0.317880  0.457730  0.204450  1.0  -0.013
  C  C141  1  0.875020  0.892700  0.259460  1.0  -0.024
  C  C142  1  0.198000  0.812060  0.884260  1.0  -0.1316
  C  C143  1  0.107300  0.982320  0.366760  1.0  -0.0332
  C  C144  1  0.982320  0.366760  0.107300  1.0  -0.0263
  C  C145  1  0.893240  0.272720  0.744160  1.0  -0.1478
  C  C146  1  0.927800  0.313740  0.115740  1.0  -0.1384
  C  C147  1  0.259460  0.366760  0.384440  1.0  -0.0257
  C  C148  1  0.542270  0.795550  0.682120  1.0  -0.0157
  C  C149  1  0.439650  0.527290  0.332920  1.0  0.0278
  C  C150  1  0.860150  0.317880  0.113430  1.0  -0.0113
  C  C151  1  0.812060  0.614060  0.927800  1.0  -0.1378
  C  C152  1  0.072200  0.187940  0.385940  1.0  -0.1373
  C  C153  1  0.313740  0.385940  0.198000  1.0  -0.1421
  C  C154  1  0.107300  0.740540  0.124980  1.0  -0.0245
  C  C155  1  0.366760  0.384440  0.259460  1.0  -0.0292
  C  C156  1  0.850920  0.379480  0.106760  1.0  -0.1478
  C  C157  1  0.620520  0.893240  0.149080  1.0  -0.1481
  C  C158  1  0.884260  0.072200  0.686260  1.0  -0.1402
  C  C159  1  0.795550  0.682120  0.542270  1.0  -0.0212
  C  C160  1  0.528560  0.149080  0.255840  1.0  -0.1483
  C  C161  1  0.017680  0.124980  0.384440  1.0  -0.0281
  C  C162  1  0.187940  0.115740  0.802000  1.0  -0.1411
  C  C163  1  0.927800  0.812060  0.614060  1.0  -0.1378
  C  C164  1  0.886570  0.139850  0.682120  1.0  -0.0175
  C  C165  1  0.204450  0.746720  0.886570  1.0  -0.0159
  C  C166  1  0.385940  0.072200  0.187940  1.0  -0.1312
  C  C167  1  0.198000  0.313740  0.385940  1.0  -0.1328
  C  C168  1  0.087640  0.560350  0.893270  1.0  0.0282
  C  C169  1  0.886570  0.204450  0.746720  1.0  -0.0173
  C  C170  1  0.457730  0.204450  0.317880  1.0  -0.0157
  C  C171  1  0.746720  0.542270  0.860150  1.0  -0.0161
  C  C172  1  0.106760  0.850920  0.379480  1.0  -0.1492
  C  C173  1  0.366760  0.107300  0.982320  1.0  -0.0301
  C  C174  1  0.115740  0.802000  0.187940  1.0  -0.1438
  C  C175  1  0.379480  0.528560  0.272720  1.0  -0.1496
  C  C176  1  0.912360  0.439650  0.106730  1.0  0.0276
  C  C177  1  0.633240  0.615560  0.740540  1.0  -0.0283
  C  C178  1  0.194370  0.527290  0.087640  1.0  0.0322
  C  C179  1  0.472710  0.667080  0.560350  1.0  0.032
  C  C180  1  0.667080  0.194370  0.106730  1.0  0.0343
  C  C181  1  0.149080  0.620520  0.893240  1.0  -0.1488
  C  C182  1  0.255840  0.106760  0.727280  1.0  -0.1473
  C  C183  1  0.457730  0.139850  0.253280  1.0  -0.014
  C  C184  1  0.727280  0.620520  0.471440  1.0  -0.1478
  C  C185  1  0.149080  0.255840  0.528560  1.0  -0.1514
  C  C186  1  0.471440  0.727280  0.620520  1.0  -0.147
  C  C187  1  0.017680  0.633240  0.892700  1.0  -0.027
  C  C188  1  0.187940  0.385940  0.072200  1.0  -0.1397
  C  C189  1  0.740540  0.633240  0.615560  1.0  -0.0261
  C  C190  1  0.875020  0.615560  0.982320  1.0  -0.0302
  C  C191  1  0.471440  0.850920  0.744160  1.0  -0.149
  C  C192  1  0.528560  0.272720  0.379480  1.0  -0.1482
  C  C193  1  0.317880  0.113430  0.860150  1.0  -0.0137
  C  C194  1  0.746720  0.886570  0.204450  1.0  -0.0197
  C  C195  1  0.313740  0.115740  0.927800  1.0  -0.1374
  C  C196  1  0.113430  0.860150  0.317880  1.0  -0.0185
  C  C197  1  0.560350  0.893270  0.087640  1.0  0.03
  C  C198  1  0.139850  0.682120  0.886570  1.0  -0.0122
  C  C199  1  0.744160  0.471440  0.850920  1.0  -0.152
  C  C200  1  0.805630  0.893270  0.332920  1.0  0.0362
  C  C201  1  0.115740  0.927800  0.313740  1.0  -0.1417
  C  C202  1  0.072200  0.686260  0.884260  1.0  -0.1375
  C  C203  1  0.527290  0.332920  0.439650  1.0  0.0305
  C  C204  1  0.384440  0.017680  0.124980  1.0  -0.0301
  C  C205  1  0.384440  0.259460  0.366760  1.0  -0.0235
  C  C206  1  0.893270  0.087640  0.560350  1.0  0.0353
  C  C207  1  0.253280  0.457730  0.139850  1.0  -0.016
  C  C208  1  0.686260  0.884260  0.072200  1.0  -0.1397
  C  C209  1  0.106730  0.667080  0.194370  1.0  0.0295
  C  C210  1  0.472710  0.912360  0.805630  1.0  0.0307
  C  C211  1  0.802000  0.686260  0.614060  1.0  -0.1333
  C  C212  1  0.812060  0.884260  0.198000  1.0  -0.1422
  C  C213  1  0.253280  0.113430  0.795550  1.0  -0.0177
  C  C214  1  0.892700  0.259460  0.875020  1.0  -0.0228
  C  C215  1  0.379480  0.106760  0.850920  1.0  -0.1469
  C  C216  1  0.124980  0.384440  0.017680  1.0  -0.0289
  C  C217  1  0.893240  0.149080  0.620520  1.0  -0.1457
  C  C218  1  0.124980  0.107300  0.740540  1.0  -0.024
  C  C219  1  0.795550  0.253280  0.113430  1.0  -0.0153
  C  C220  1  0.113430  0.795550  0.253280  1.0  -0.0155
  N  N221  1  0.026070  0.568850  0.897580  1.0  0.2114
  N  N222  1  0.973930  0.431150  0.102420  1.0  0.2093
  N  N223  1  0.102420  0.973930  0.431150  1.0  0.2195
  N  N224  1  0.568850  0.897580  0.026070  1.0  0.2129
  N  N225  1  0.328730  0.431150  0.457220  1.0  0.2163
  N  N226  1  0.457220  0.026070  0.128490  1.0  0.2111
  N  N227  1  0.871510  0.897580  0.328730  1.0  0.2132
  N  N228  1  0.568850  0.542780  0.671270  1.0  0.2181
  N  N229  1  0.431150  0.102420  0.973930  1.0  0.224
  N  N230  1  0.102420  0.671270  0.128490  1.0  0.2111
  N  N231  1  0.431150  0.457220  0.328730  1.0  0.2058
  N  N232  1  0.026070  0.128490  0.457220  1.0  0.2189
  N  N233  1  0.128490  0.102420  0.671270  1.0  0.2111
  N  N234  1  0.457220  0.328730  0.431150  1.0  0.2132
  N  N235  1  0.871510  0.542780  0.973930  1.0  0.2114
  N  N236  1  0.542780  0.671270  0.568850  1.0  0.2145
  N  N237  1  0.328730  0.871510  0.897580  1.0  0.2123
  N  N238  1  0.671270  0.128490  0.102420  1.0  0.2147
  N  N239  1  0.973930  0.871510  0.542780  1.0  0.2072
  N  N240  1  0.671270  0.568850  0.542780  1.0  0.2131
  N  N241  1  0.542780  0.973930  0.871510  1.0  0.2119
  N  N242  1  0.897580  0.328730  0.871510  1.0  0.2115
  N  N243  1  0.128490  0.457220  0.026070  1.0  0.2234
  N  N244  1  0.897580  0.026070  0.568850  1.0  0.204
  O  O245  1  0.101130  0.033760  0.486790  1.0  -0.5402
  O  O246  1  0.546970  0.614340  0.513210  1.0  -0.529
  O  O247  1  0.932630  0.546970  0.033760  1.0  -0.5283
  O  O248  1  0.067370  0.453030  0.966240  1.0  -0.529
  O  O249  1  0.966240  0.067370  0.453030  1.0  -0.5397
  O  O250  1  0.033760  0.486790  0.101130  1.0  -0.5399
  O  O251  1  0.614340  0.067370  0.101130  1.0  -0.5294
  O  O252  1  0.614340  0.513210  0.546970  1.0  -0.5277
  O  O253  1  0.033760  0.932630  0.546970  1.0  -0.5401
  O  O254  1  0.453030  0.385660  0.486790  1.0  -0.5288
  O  O255  1  0.513210  0.546970  0.614340  1.0  -0.5407
  O  O256  1  0.486790  0.101130  0.033760  1.0  -0.5431
  O  O257  1  0.932630  0.898870  0.385660  1.0  -0.5278
  O  O258  1  0.067370  0.101130  0.614340  1.0  -0.5243
  O  O259  1  0.453030  0.966240  0.067370  1.0  -0.5284
  O  O260  1  0.385660  0.486790  0.453030  1.0  -0.5264
  O  O261  1  0.898870  0.966240  0.513210  1.0  -0.5402
  O  O262  1  0.101130  0.614340  0.067370  1.0  -0.5258
  O  O263  1  0.546970  0.033760  0.932630  1.0  -0.5275
  O  O264  1  0.966240  0.513210  0.898870  1.0  -0.5399
  O  O265  1  0.486790  0.453030  0.385660  1.0  -0.541
  O  O266  1  0.898870  0.385660  0.932630  1.0  -0.5261
  O  O267  1  0.385660  0.932630  0.898870  1.0  -0.5306
  O  O268  1  0.513210  0.898870  0.966240  1.0  -0.5432
