# generated using pymatgen
data_CoRe3C3S4N3O
_symmetry_space_group_name_H-M   'P 1'
_cell_length_a   9.74380000
_cell_length_b   12.33310000
_cell_length_c   16.32620000
_cell_angle_alpha   90.00000000
_cell_angle_beta   90.00000000
_cell_angle_gamma   97.11700000
_symmetry_Int_Tables_number   1
_chemical_formula_structural   CoRe3C3S4N3O
_chemical_formula_sum   'Co4 Re12 C12 S16 N12 O4'
_cell_volume   1946.82370697
_cell_formula_units_Z   4
loop_
 _symmetry_equiv_pos_site_id
 _symmetry_equiv_pos_as_xyz
  1  'x, y, z'
loop_
 _atom_site_type_symbol
 _atom_site_label
 _atom_site_symmetry_multiplicity
 _atom_site_fract_x
 _atom_site_fract_y
 _atom_site_fract_z
 _atom_site_occupancy
 _atom_site_charge
  Co  Co1  1  0.066880  0.418470  0.068670  1.0  1.0831
  Co  Co2  1  0.933120  0.581530  0.931330  1.0  1.0818
  Co  Co3  1  0.566880  0.918470  0.431330  1.0  1.0834
  Co  Co4  1  0.433120  0.081530  0.568670  1.0  1.0819
  Re  Re5  1  0.618800  0.898380  0.978730  1.0  0.0321
  Re  Re6  1  0.381200  0.101620  0.021270  1.0  0.0324
  Re  Re7  1  0.851750  0.392990  0.510990  1.0  0.0184
  Re  Re8  1  0.148250  0.607010  0.489010  1.0  0.0179
  Re  Re9  1  0.351750  0.892990  0.989010  1.0  0.0183
  Re  Re10  1  0.118800  0.398380  0.521270  1.0  0.0323
  Re  Re11  1  0.991300  0.530220  0.610410  1.0  0.0266
  Re  Re12  1  0.008700  0.469780  0.389590  1.0  0.0262
  Re  Re13  1  0.881200  0.601620  0.478730  1.0  0.0323
  Re  Re14  1  0.491300  0.030220  0.889590  1.0  0.0263
  Re  Re15  1  0.508700  0.969780  0.110410  1.0  0.0265
  Re  Re16  1  0.648250  0.107010  0.010990  1.0  0.018
  C  C17  1  0.187200  0.768300  0.970400  1.0  0.2444
  C  C18  1  0.744800  0.775600  0.953900  1.0  0.2272
  C  C19  1  0.474600  0.062500  0.764000  1.0  0.2377
  C  C20  1  0.312800  0.731700  0.470400  1.0  0.2445
  C  C21  1  0.974600  0.562500  0.736000  1.0  0.2393
  C  C22  1  0.755200  0.724400  0.453900  1.0  0.2285
  C  C23  1  0.244800  0.275600  0.546100  1.0  0.2269
  C  C24  1  0.687200  0.268300  0.529600  1.0  0.2449
  C  C25  1  0.812800  0.231700  0.029600  1.0  0.2447
  C  C26  1  0.025400  0.437500  0.264000  1.0  0.2373
  C  C27  1  0.255200  0.224400  0.046100  1.0  0.2279
  C  C28  1  0.525400  0.937500  0.236000  1.0  0.2394
  S  S29  1  0.033900  0.664600  0.368400  1.0  -0.026
  S  S30  1  0.018900  0.720900  0.572100  1.0  -0.0138
  S  S31  1  0.243800  0.023100  0.908200  1.0  -0.0151
  S  S32  1  0.981100  0.279100  0.427900  1.0  -0.0147
  S  S33  1  0.481100  0.779100  0.072100  1.0  -0.0144
  S  S34  1  0.518900  0.220900  0.927900  1.0  -0.0142
  S  S35  1  0.466100  0.835400  0.868400  1.0  -0.0245
  S  S36  1  0.533900  0.164600  0.131600  1.0  -0.0257
  S  S37  1  0.759800  0.467000  0.388300  1.0  -0.0108
  S  S38  1  0.256200  0.476900  0.408200  1.0  -0.0154
  S  S39  1  0.740200  0.033000  0.888300  1.0  -0.0104
  S  S40  1  0.966100  0.335400  0.631600  1.0  -0.0247
  S  S41  1  0.743800  0.523100  0.591800  1.0  -0.015
  S  S42  1  0.240200  0.533000  0.611700  1.0  -0.0098
  S  S43  1  0.756200  0.976900  0.091800  1.0  -0.0149
  S  S44  1  0.259800  0.967000  0.111700  1.0  -0.0107
  N  N45  1  0.192700  0.296900  0.059000  1.0  -0.3556
  N  N46  1  0.400200  0.801800  0.455800  1.0  -0.3804
  N  N47  1  0.458200  0.078000  0.694600  1.0  -0.3682
  N  N48  1  0.099800  0.698200  0.955800  1.0  -0.3798
  N  N49  1  0.041800  0.422000  0.194600  1.0  -0.3686
  N  N50  1  0.541800  0.922000  0.305400  1.0  -0.3678
  N  N51  1  0.692700  0.796900  0.441000  1.0  -0.3555
  N  N52  1  0.958200  0.578000  0.805400  1.0  -0.3676
  N  N53  1  0.900200  0.301800  0.044200  1.0  -0.3771
  N  N54  1  0.807300  0.703100  0.941000  1.0  -0.3541
  N  N55  1  0.307300  0.203100  0.559000  1.0  -0.3541
  N  N56  1  0.599800  0.198200  0.544200  1.0  -0.3764
  O  O57  1  0.072600  0.453700  0.938400  1.0  -0.7027
  O  O58  1  0.927400  0.546300  0.061600  1.0  -0.7048
  O  O59  1  0.572600  0.953700  0.561600  1.0  -0.7039
  O  O60  1  0.427400  0.046300  0.438400  1.0  -0.7033
