# generated using pymatgen
data_Zn2P3(HO3)4
_symmetry_space_group_name_H-M   'P 1'
_cell_length_a   17.35140000
_cell_length_b   9.50750000
_cell_length_c   9.80650000
_cell_angle_alpha   90.00000000
_cell_angle_beta   102.68200000
_cell_angle_gamma   90.00000000
_symmetry_Int_Tables_number   1
_chemical_formula_structural   Zn2P3(HO3)4
_chemical_formula_sum   'Zn8 P12 H16 O48'
_cell_volume   1578.29530976
_cell_formula_units_Z   4
loop_
 _symmetry_equiv_pos_site_id
 _symmetry_equiv_pos_as_xyz
  1  'x, y, z'
loop_
 _atom_site_type_symbol
 _atom_site_label
 _atom_site_symmetry_multiplicity
 _atom_site_fract_x
 _atom_site_fract_y
 _atom_site_fract_z
 _atom_site_occupancy
 _atom_site_charge
  Zn  Zn1  1  0.178920  0.079500  0.375230  1.0  1.1331
  Zn  Zn2  1  0.678920  0.579500  0.375230  1.0  1.1331
  Zn  Zn3  1  0.821080  0.079500  0.124770  1.0  1.1335
  Zn  Zn4  1  0.321080  0.579500  0.124770  1.0  1.1335
  Zn  Zn5  1  0.821080  0.920500  0.624770  1.0  1.1335
  Zn  Zn6  1  0.321080  0.420500  0.624770  1.0  1.1335
  Zn  Zn7  1  0.178920  0.920500  0.875230  1.0  1.1331
  Zn  Zn8  1  0.678920  0.420500  0.875230  1.0  1.1331
  P  P9  1  0.310430  0.322130  0.318760  1.0  1.7517
  P  P10  1  0.810430  0.822130  0.318760  1.0  1.7517
  P  P11  1  0.689570  0.322130  0.181240  1.0  1.7545
  P  P12  1  0.189570  0.822130  0.181240  1.0  1.755
  P  P13  1  0.689570  0.677870  0.681240  1.0  1.7601
  P  P14  1  0.189570  0.177870  0.681240  1.0  1.7601
  P  P15  1  0.310430  0.677870  0.818760  1.0  1.7542
  P  P16  1  0.810430  0.177870  0.818760  1.0  1.7542
  P  P17  1  0.000000  0.044560  0.250000  1.0  1.7547
  P  P18  1  0.500000  0.544560  0.250000  1.0  1.7547
  P  P19  1  0.000000  0.955440  0.750000  1.0  1.7333
  P  P20  1  0.500000  0.455440  0.750000  1.0  1.7333
  H  H21  1  0.428700  0.303100  0.350800  1.0  0.3624
  H  H22  1  0.030700  0.896800  0.128300  1.0  0.3699
  H  H23  1  0.928700  0.803100  0.350800  1.0  0.364
  H  H24  1  0.530700  0.396800  0.128300  1.0  0.3699
  H  H25  1  0.571300  0.303100  0.149200  1.0  0.3621
  H  H26  1  0.969300  0.896800  0.371700  1.0  0.3705
  H  H27  1  0.071300  0.803100  0.149200  1.0  0.3627
  H  H28  1  0.469300  0.396800  0.371700  1.0  0.3705
  H  H29  1  0.571300  0.696900  0.649200  1.0  0.3599
  H  H30  1  0.969300  0.103200  0.871700  1.0  0.3715
  H  H31  1  0.071300  0.196900  0.649200  1.0  0.3602
  H  H32  1  0.469300  0.603200  0.871700  1.0  0.3715
  H  H33  1  0.428700  0.696900  0.850800  1.0  0.3624
  H  H34  1  0.030700  0.103200  0.628300  1.0  0.3719
  H  H35  1  0.928700  0.196900  0.850800  1.0  0.3606
  H  H36  1  0.530700  0.603200  0.628300  1.0  0.3719
  O  O37  1  0.250600  0.208700  0.319300  1.0  -0.9095
  O  O38  1  0.313100  0.438100  0.426500  1.0  -0.8061
  O  O39  1  0.297000  0.385800  0.171800  1.0  -0.7525
  O  O40  1  0.074120  0.135100  0.265300  1.0  -0.7647
  O  O41  1  0.393600  0.245100  0.349900  1.0  -0.633
  O  O42  1  0.991100  0.945700  0.120400  1.0  -0.6289
  O  O43  1  0.750600  0.708700  0.319300  1.0  -0.9103
  O  O44  1  0.813100  0.938100  0.426500  1.0  -0.8061
  O  O45  1  0.797000  0.885800  0.171800  1.0  -0.7525
  O  O46  1  0.574120  0.635100  0.265300  1.0  -0.7647
  O  O47  1  0.893600  0.745100  0.349900  1.0  -0.633
  O  O48  1  0.491100  0.445700  0.120400  1.0  -0.6292
  O  O49  1  0.749400  0.208700  0.180700  1.0  -0.9097
  O  O50  1  0.686900  0.438100  0.073500  1.0  -0.8079
  O  O51  1  0.703000  0.385800  0.328200  1.0  -0.7555
  O  O52  1  0.925880  0.135100  0.234700  1.0  -0.7642
  O  O53  1  0.606400  0.245100  0.150100  1.0  -0.6317
  O  O54  1  0.008900  0.945700  0.379600  1.0  -0.6258
  O  O55  1  0.249400  0.708700  0.180700  1.0  -0.9087
  O  O56  1  0.186900  0.938100  0.073500  1.0  -0.8079
  O  O57  1  0.203000  0.885800  0.328200  1.0  -0.7555
  O  O58  1  0.425880  0.635100  0.234700  1.0  -0.7642
  O  O59  1  0.106400  0.745100  0.150100  1.0  -0.6317
  O  O60  1  0.508900  0.445700  0.379600  1.0  -0.6264
  O  O61  1  0.749400  0.791300  0.680700  1.0  -0.9091
  O  O62  1  0.686900  0.561900  0.573500  1.0  -0.8084
  O  O63  1  0.703000  0.614200  0.828200  1.0  -0.7556
  O  O64  1  0.925880  0.864900  0.734700  1.0  -0.7641
  O  O65  1  0.606400  0.754900  0.650100  1.0  -0.6302
  O  O66  1  0.008900  0.054300  0.879600  1.0  -0.6255
  O  O67  1  0.249400  0.291300  0.680700  1.0  -0.9091
  O  O68  1  0.186900  0.061900  0.573500  1.0  -0.8084
  O  O69  1  0.203000  0.114200  0.828200  1.0  -0.7556
  O  O70  1  0.425880  0.364900  0.734700  1.0  -0.7641
  O  O71  1  0.106400  0.254900  0.650100  1.0  -0.6302
  O  O72  1  0.508900  0.554300  0.879600  1.0  -0.6254
  O  O73  1  0.250600  0.791300  0.819300  1.0  -0.9112
  O  O74  1  0.313100  0.561900  0.926500  1.0  -0.8059
  O  O75  1  0.297000  0.614200  0.671800  1.0  -0.7528
  O  O76  1  0.074120  0.864900  0.765300  1.0  -0.7644
  O  O77  1  0.393600  0.754900  0.849900  1.0  -0.6303
  O  O78  1  0.991100  0.054300  0.620400  1.0  -0.626
  O  O79  1  0.750600  0.291300  0.819300  1.0  -0.9103
  O  O80  1  0.813100  0.061900  0.926500  1.0  -0.8059
  O  O81  1  0.797000  0.114200  0.671800  1.0  -0.7528
  O  O82  1  0.574120  0.364900  0.765300  1.0  -0.7644
  O  O83  1  0.893600  0.254900  0.849900  1.0  -0.6303
  O  O84  1  0.491100  0.554300  0.620400  1.0  -0.626
