# generated using pymatgen
data_Co9H72C144(N6O13)2
_symmetry_space_group_name_H-M   'P 1'
_cell_length_a   32.13970000
_cell_length_b   32.13970000
_cell_length_c   16.69760000
_cell_angle_alpha   90.00000000
_cell_angle_beta   90.00000000
_cell_angle_gamma   120.00000000
_symmetry_Int_Tables_number   1
_chemical_formula_structural   Co9H72C144(N6O13)2
_chemical_formula_sum   'Co9 H72 C144 N12 O26'
_cell_volume   14937.16994205
_cell_formula_units_Z   1
loop_
 _symmetry_equiv_pos_site_id
 _symmetry_equiv_pos_as_xyz
  1  'x, y, z'
loop_
 _atom_site_type_symbol
 _atom_site_label
 _atom_site_symmetry_multiplicity
 _atom_site_fract_x
 _atom_site_fract_y
 _atom_site_fract_z
 _atom_site_occupancy
 _atom_site_charge
  Co  Co1  1  0.297050  0.702950  0.000000  1.0  1.0465
  Co  Co2  1  0.297050  0.594100  0.000000  1.0  1.0436
  Co  Co3  1  0.405900  0.702950  0.000000  1.0  1.0458
  Co  Co4  1  0.702950  0.297050  0.000000  1.0  1.0447
  Co  Co5  1  0.702950  0.405900  0.000000  1.0  1.0459
  Co  Co6  1  0.594100  0.297050  0.000000  1.0  1.0459
  Co  Co7  1  0.000000  0.500000  0.500000  1.0  0.759
  Co  Co8  1  0.500000  0.500000  0.500000  1.0  0.759
  Co  Co9  1  0.500000  0.000000  0.500000  1.0  0.759
  H  H10  1  0.188400  0.531900  0.818200  1.0  0.1089
  H  H11  1  0.131700  0.503500  0.717000  1.0  0.1113
  H  H12  1  0.468100  0.656500  0.818200  1.0  0.1089
  H  H13  1  0.496500  0.628200  0.717000  1.0  0.1124
  H  H14  1  0.343500  0.811600  0.818200  1.0  0.1085
  H  H15  1  0.371800  0.868300  0.717000  1.0  0.1123
  H  H16  1  0.811600  0.468100  0.818200  1.0  0.109
  H  H17  1  0.868300  0.496500  0.717000  1.0  0.1116
  H  H18  1  0.531900  0.343500  0.818200  1.0  0.1088
  H  H19  1  0.503500  0.371800  0.717000  1.0  0.112
  H  H20  1  0.656500  0.188400  0.818200  1.0  0.1095
  H  H21  1  0.628200  0.131700  0.717000  1.0  0.1115
  H  H22  1  0.531900  0.188400  0.181800  1.0  0.109
  H  H23  1  0.503500  0.131700  0.283000  1.0  0.1122
  H  H24  1  0.656500  0.468100  0.181800  1.0  0.1095
  H  H25  1  0.628200  0.496500  0.283000  1.0  0.111
  H  H26  1  0.811600  0.343500  0.181800  1.0  0.1092
  H  H27  1  0.868300  0.371800  0.283000  1.0  0.1119
  H  H28  1  0.468100  0.811600  0.181800  1.0  0.1092
  H  H29  1  0.496500  0.868300  0.283000  1.0  0.1113
  H  H30  1  0.343500  0.531900  0.181800  1.0  0.1085
  H  H31  1  0.371800  0.503500  0.283000  1.0  0.1114
  H  H32  1  0.188400  0.656500  0.181800  1.0  0.109
  H  H33  1  0.131700  0.628200  0.283000  1.0  0.1126
  H  H34  1  0.811600  0.468100  0.181800  1.0  0.1094
  H  H35  1  0.868300  0.496500  0.283000  1.0  0.1113
  H  H36  1  0.531900  0.343500  0.181800  1.0  0.1089
  H  H37  1  0.503500  0.371800  0.283000  1.0  0.1119
  H  H38  1  0.656500  0.188400  0.181800  1.0  0.1095
  H  H39  1  0.628200  0.131700  0.283000  1.0  0.1113
  H  H40  1  0.188400  0.531900  0.181800  1.0  0.109
  H  H41  1  0.131700  0.503500  0.283000  1.0  0.1111
  H  H42  1  0.468100  0.656500  0.181800  1.0  0.1093
  H  H43  1  0.496500  0.628200  0.283000  1.0  0.1121
  H  H44  1  0.343500  0.811600  0.181800  1.0  0.1086
  H  H45  1  0.371800  0.868300  0.283000  1.0  0.1119
  H  H46  1  0.468100  0.811600  0.818200  1.0  0.1094
  H  H47  1  0.496500  0.868300  0.717000  1.0  0.1115
  H  H48  1  0.343500  0.531900  0.818200  1.0  0.1086
  H  H49  1  0.371800  0.503500  0.717000  1.0  0.1113
  H  H50  1  0.188400  0.656500  0.818200  1.0  0.1085
  H  H51  1  0.131700  0.628200  0.717000  1.0  0.1129
  H  H52  1  0.531900  0.188400  0.818200  1.0  0.1087
  H  H53  1  0.503500  0.131700  0.717000  1.0  0.1124
  H  H54  1  0.656500  0.468100  0.818200  1.0  0.1091
  H  H55  1  0.628200  0.496500  0.717000  1.0  0.1114
  H  H56  1  0.811600  0.343500  0.818200  1.0  0.109
  H  H57  1  0.868300  0.371800  0.717000  1.0  0.112
  H  H58  1  0.177000  0.588500  0.575400  1.0  0.137
  H  H59  1  0.043000  0.521500  0.794900  1.0  0.1076
  H  H60  1  0.411500  0.588500  0.575400  1.0  0.137
  H  H61  1  0.478500  0.521500  0.794900  1.0  0.1076
  H  H62  1  0.411500  0.823000  0.575400  1.0  0.1395
  H  H63  1  0.478500  0.957000  0.794900  1.0  0.1064
  H  H64  1  0.823000  0.411500  0.575400  1.0  0.1372
  H  H65  1  0.957000  0.478500  0.794900  1.0  0.1074
  H  H66  1  0.588500  0.411500  0.575400  1.0  0.1372
  H  H67  1  0.521500  0.478500  0.794900  1.0  0.1074
  H  H68  1  0.588500  0.177000  0.575400  1.0  0.1386
  H  H69  1  0.521500  0.043000  0.794900  1.0  0.1064
  H  H70  1  0.588500  0.177000  0.424600  1.0  0.1387
  H  H71  1  0.521500  0.043000  0.205100  1.0  0.1063
  H  H72  1  0.588500  0.411500  0.424600  1.0  0.1369
  H  H73  1  0.521500  0.478500  0.205100  1.0  0.1073
  H  H74  1  0.823000  0.411500  0.424600  1.0  0.1374
  H  H75  1  0.957000  0.478500  0.205100  1.0  0.1074
  H  H76  1  0.411500  0.823000  0.424600  1.0  0.1392
  H  H77  1  0.478500  0.957000  0.205100  1.0  0.1064
  H  H78  1  0.411500  0.588500  0.424600  1.0  0.137
  H  H79  1  0.478500  0.521500  0.205100  1.0  0.1078
  H  H80  1  0.177000  0.588500  0.424600  1.0  0.1367
  H  H81  1  0.043000  0.521500  0.205100  1.0  0.1076
  C  C82  1  0.177600  0.551500  0.796800  1.0  -0.0381
  C  C83  1  0.143000  0.534300  0.737200  1.0  -0.1377
  C  C84  1  0.448500  0.626100  0.796800  1.0  -0.0365
  C  C85  1  0.465700  0.608700  0.737200  1.0  -0.1392
  C  C86  1  0.373900  0.822400  0.796800  1.0  -0.0356
  C  C87  1  0.391300  0.857000  0.737200  1.0  -0.1421
  C  C88  1  0.822400  0.448500  0.796800  1.0  -0.0394
  C  C89  1  0.857000  0.465700  0.737200  1.0  -0.1404
  C  C90  1  0.551500  0.373900  0.796800  1.0  -0.0362
  C  C91  1  0.534300  0.391300  0.737200  1.0  -0.1415
  C  C92  1  0.626100  0.177600  0.796800  1.0  -0.0362
  C  C93  1  0.608700  0.143000  0.737200  1.0  -0.1388
  C  C94  1  0.551500  0.177600  0.203200  1.0  -0.0373
  C  C95  1  0.534300  0.143000  0.262800  1.0  -0.1424
  C  C96  1  0.626100  0.448500  0.203200  1.0  -0.0386
  C  C97  1  0.608700  0.465700  0.262800  1.0  -0.1382
  C  C98  1  0.822400  0.373900  0.203200  1.0  -0.0366
  C  C99  1  0.857000  0.391300  0.262800  1.0  -0.1406
  C  C100  1  0.448500  0.822400  0.203200  1.0  -0.0371
  C  C101  1  0.465700  0.857000  0.262800  1.0  -0.1387
  C  C102  1  0.373900  0.551500  0.203200  1.0  -0.0384
  C  C103  1  0.391300  0.534300  0.262800  1.0  -0.1418
  C  C104  1  0.177600  0.626100  0.203200  1.0  -0.0383
  C  C105  1  0.143000  0.608700  0.262800  1.0  -0.1413
  C  C106  1  0.822400  0.448500  0.203200  1.0  -0.0394
  C  C107  1  0.857000  0.465700  0.262800  1.0  -0.1399
  C  C108  1  0.551500  0.373900  0.203200  1.0  -0.0366
  C  C109  1  0.534300  0.391300  0.262800  1.0  -0.1422
  C  C110  1  0.626100  0.177600  0.203200  1.0  -0.0365
  C  C111  1  0.608700  0.143000  0.262800  1.0  -0.1385
  C  C112  1  0.177600  0.551500  0.203200  1.0  -0.0386
  C  C113  1  0.143000  0.534300  0.262800  1.0  -0.138
  C  C114  1  0.448500  0.626100  0.203200  1.0  -0.0373
  C  C115  1  0.465700  0.608700  0.262800  1.0  -0.1407
  C  C116  1  0.373900  0.822400  0.203200  1.0  -0.0363
  C  C117  1  0.391300  0.857000  0.262800  1.0  -0.1432
  C  C118  1  0.448500  0.822400  0.796800  1.0  -0.0362
  C  C119  1  0.465700  0.857000  0.737200  1.0  -0.1391
  C  C120  1  0.373900  0.551500  0.796800  1.0  -0.0379
  C  C121  1  0.391300  0.534300  0.737200  1.0  -0.1414
  C  C122  1  0.177600  0.626100  0.796800  1.0  -0.0373
  C  C123  1  0.143000  0.608700  0.737200  1.0  -0.1439
  C  C124  1  0.551500  0.177600  0.796800  1.0  -0.0368
  C  C125  1  0.534300  0.143000  0.737200  1.0  -0.1413
  C  C126  1  0.626100  0.448500  0.796800  1.0  -0.0387
  C  C127  1  0.608700  0.465700  0.737200  1.0  -0.1381
  C  C128  1  0.822400  0.373900  0.796800  1.0  -0.0361
  C  C129  1  0.857000  0.391300  0.737200  1.0  -0.1412
  C  C130  1  0.100600  0.550300  0.567000  1.0  0.1645
  C  C131  1  0.039300  0.519650  0.669000  1.0  0.1845
  C  C132  1  0.087000  0.543500  0.643700  1.0  -0.0097
  C  C133  1  0.150200  0.575100  0.542200  1.0  -0.0876
  C  C134  1  0.023400  0.511700  0.749800  1.0  -0.1519
  C  C135  1  0.125300  0.562650  0.707400  1.0  0.076
  C  C136  1  0.195900  0.597950  0.824400  1.0  -0.1103
  C  C137  1  0.236100  0.618050  0.889100  1.0  0.7178
  C  C138  1  0.449700  0.550300  0.567000  1.0  0.164
  C  C139  1  0.480350  0.519650  0.669000  1.0  0.1842
  C  C140  1  0.456500  0.543500  0.643700  1.0  -0.0101
  C  C141  1  0.424900  0.575100  0.542200  1.0  -0.0911
  C  C142  1  0.488300  0.511700  0.749800  1.0  -0.15
  C  C143  1  0.437350  0.562650  0.707400  1.0  0.0763
  C  C144  1  0.402050  0.597950  0.824400  1.0  -0.1102
  C  C145  1  0.381950  0.618050  0.889100  1.0  0.7186
  C  C146  1  0.449700  0.899400  0.567000  1.0  0.1646
  C  C147  1  0.480350  0.960700  0.669000  1.0  0.1837
  C  C148  1  0.456500  0.913000  0.643700  1.0  -0.0093
  C  C149  1  0.424900  0.849800  0.542200  1.0  -0.0844
  C  C150  1  0.488300  0.976600  0.749800  1.0  -0.15
  C  C151  1  0.437350  0.874700  0.707400  1.0  0.0769
  C  C152  1  0.402050  0.804100  0.824400  1.0  -0.1058
  C  C153  1  0.381950  0.763900  0.889100  1.0  0.7183
  C  C154  1  0.899400  0.449700  0.567000  1.0  0.1645
  C  C155  1  0.960700  0.480350  0.669000  1.0  0.1839
  C  C156  1  0.913000  0.456500  0.643700  1.0  -0.0098
  C  C157  1  0.849800  0.424900  0.542200  1.0  -0.0879
  C  C158  1  0.976600  0.488300  0.749800  1.0  -0.1495
  C  C159  1  0.874700  0.437350  0.707400  1.0  0.0762
  C  C160  1  0.804100  0.402050  0.824400  1.0  -0.1093
  C  C161  1  0.763900  0.381950  0.889100  1.0  0.7182
  C  C162  1  0.550300  0.449700  0.567000  1.0  0.1652
  C  C163  1  0.519650  0.480350  0.669000  1.0  0.1842
  C  C164  1  0.543500  0.456500  0.643700  1.0  -0.0094
  C  C165  1  0.575100  0.424900  0.542200  1.0  -0.0874
  C  C166  1  0.511700  0.488300  0.749800  1.0  -0.1515
  C  C167  1  0.562650  0.437350  0.707400  1.0  0.0761
  C  C168  1  0.597950  0.402050  0.824400  1.0  -0.1093
  C  C169  1  0.618050  0.381950  0.889100  1.0  0.7174
  C  C170  1  0.550300  0.100600  0.567000  1.0  0.1642
  C  C171  1  0.519650  0.039300  0.669000  1.0  0.1852
  C  C172  1  0.543500  0.087000  0.643700  1.0  -0.0101
  C  C173  1  0.575100  0.150200  0.542200  1.0  -0.0878
  C  C174  1  0.511700  0.023400  0.749800  1.0  -0.1523
  C  C175  1  0.562650  0.125300  0.707400  1.0  0.0764
  C  C176  1  0.597950  0.195900  0.824400  1.0  -0.1057
  C  C177  1  0.618050  0.236100  0.889100  1.0  0.7189
  C  C178  1  0.550300  0.100600  0.433000  1.0  0.164
  C  C179  1  0.519650  0.039300  0.331000  1.0  0.1842
  C  C180  1  0.543500  0.087000  0.356300  1.0  -0.0105
  C  C181  1  0.575100  0.150200  0.457800  1.0  -0.0884
  C  C182  1  0.511700  0.023400  0.250200  1.0  -0.1526
  C  C183  1  0.562650  0.125300  0.292600  1.0  0.0768
  C  C184  1  0.597950  0.195900  0.175600  1.0  -0.1054
  C  C185  1  0.618050  0.236100  0.110900  1.0  0.7188
  C  C186  1  0.550300  0.449700  0.433000  1.0  0.1646
  C  C187  1  0.519650  0.480350  0.331000  1.0  0.1838
  C  C188  1  0.543500  0.456500  0.356300  1.0  -0.01
  C  C189  1  0.575100  0.424900  0.457800  1.0  -0.0867
  C  C190  1  0.511700  0.488300  0.250200  1.0  -0.1527
  C  C191  1  0.562650  0.437350  0.292600  1.0  0.076
  C  C192  1  0.597950  0.402050  0.175600  1.0  -0.1099
  C  C193  1  0.618050  0.381950  0.110900  1.0  0.7172
  C  C194  1  0.899400  0.449700  0.433000  1.0  0.1644
  C  C195  1  0.960700  0.480350  0.331000  1.0  0.1826
  C  C196  1  0.913000  0.456500  0.356300  1.0  -0.0102
  C  C197  1  0.849800  0.424900  0.457800  1.0  -0.0898
  C  C198  1  0.976600  0.488300  0.250200  1.0  -0.1507
  C  C199  1  0.874700  0.437350  0.292600  1.0  0.0763
  C  C200  1  0.804100  0.402050  0.175600  1.0  -0.1104
  C  C201  1  0.763900  0.381950  0.110900  1.0  0.718
  C  C202  1  0.449700  0.899400  0.433000  1.0  0.1645
  C  C203  1  0.480350  0.960700  0.331000  1.0  0.1827
  C  C204  1  0.456500  0.913000  0.356300  1.0  -0.0101
  C  C205  1  0.424900  0.849800  0.457800  1.0  -0.0869
  C  C206  1  0.488300  0.976600  0.250200  1.0  -0.1521
  C  C207  1  0.437350  0.874700  0.292600  1.0  0.0769
  C  C208  1  0.402050  0.804100  0.175600  1.0  -0.1067
  C  C209  1  0.381950  0.763900  0.110900  1.0  0.7182
  C  C210  1  0.449700  0.550300  0.433000  1.0  0.1642
  C  C211  1  0.480350  0.519650  0.331000  1.0  0.1818
  C  C212  1  0.456500  0.543500  0.356300  1.0  -0.0106
  C  C213  1  0.424900  0.575100  0.457800  1.0  -0.0917
  C  C214  1  0.488300  0.511700  0.250200  1.0  -0.1506
  C  C215  1  0.437350  0.562650  0.292600  1.0  0.0765
  C  C216  1  0.402050  0.597950  0.175600  1.0  -0.1102
  C  C217  1  0.381950  0.618050  0.110900  1.0  0.7185
  C  C218  1  0.100600  0.550300  0.433000  1.0  0.1643
  C  C219  1  0.039300  0.519650  0.331000  1.0  0.1835
  C  C220  1  0.087000  0.543500  0.356300  1.0  -0.0103
  C  C221  1  0.150200  0.575100  0.457800  1.0  -0.089
  C  C222  1  0.023400  0.511700  0.250200  1.0  -0.1525
  C  C223  1  0.125300  0.562650  0.292600  1.0  0.076
  C  C224  1  0.195900  0.597950  0.175600  1.0  -0.1103
  C  C225  1  0.236100  0.618050  0.110900  1.0  0.7177
  N  N226  1  0.070900  0.535450  0.500000  1.0  -0.3615
  N  N227  1  0.464550  0.535450  0.500000  1.0  -0.3626
  N  N228  1  0.464550  0.929100  0.500000  1.0  -0.3571
  N  N229  1  0.929100  0.464550  0.500000  1.0  -0.362
  N  N230  1  0.535450  0.464550  0.500000  1.0  -0.3611
  N  N231  1  0.535450  0.070900  0.500000  1.0  -0.3583
  N  N232  1  0.000000  0.500000  0.617100  1.0  -0.4021
  N  N233  1  0.500000  0.500000  0.617100  1.0  -0.4021
  N  N234  1  0.500000  0.000000  0.617100  1.0  -0.4021
  N  N235  1  0.500000  0.000000  0.382900  1.0  -0.4038
  N  N236  1  0.500000  0.500000  0.382900  1.0  -0.4038
  N  N237  1  0.000000  0.500000  0.382900  1.0  -0.4038
  O  O238  1  0.249940  0.660000  0.912300  1.0  -0.6356
  O  O239  1  0.340000  0.589940  0.912300  1.0  -0.6338
  O  O240  1  0.410060  0.750060  0.912300  1.0  -0.6352
  O  O241  1  0.750060  0.340000  0.912300  1.0  -0.6344
  O  O242  1  0.660000  0.410060  0.912300  1.0  -0.6341
  O  O243  1  0.589940  0.249940  0.912300  1.0  -0.6348
  O  O244  1  0.660000  0.249940  0.087700  1.0  -0.6347
  O  O245  1  0.589940  0.340000  0.087700  1.0  -0.6358
  O  O246  1  0.750060  0.410060  0.087700  1.0  -0.6336
  O  O247  1  0.340000  0.750060  0.087700  1.0  -0.6353
  O  O248  1  0.410060  0.660000  0.087700  1.0  -0.6343
  O  O249  1  0.249940  0.589940  0.087700  1.0  -0.634
  O  O250  1  0.750060  0.340000  0.087700  1.0  -0.6343
  O  O251  1  0.660000  0.410060  0.087700  1.0  -0.634
  O  O252  1  0.589940  0.249940  0.087700  1.0  -0.6352
  O  O253  1  0.249940  0.660000  0.087700  1.0  -0.6356
  O  O254  1  0.340000  0.589940  0.087700  1.0  -0.6338
  O  O255  1  0.410060  0.750060  0.087700  1.0  -0.6349
  O  O256  1  0.340000  0.750060  0.912300  1.0  -0.6351
  O  O257  1  0.410060  0.660000  0.912300  1.0  -0.6345
  O  O258  1  0.249940  0.589940  0.912300  1.0  -0.6341
  O  O259  1  0.660000  0.249940  0.912300  1.0  -0.6346
  O  O260  1  0.589940  0.340000  0.912300  1.0  -0.6355
  O  O261  1  0.750060  0.410060  0.912300  1.0  -0.6337
  O  O262  1  0.333333  0.666667  0.000000  1.0  -1.0604
  O  O263  1  0.666667  0.333333  0.000000  1.0  -1.0604
