# generated using pymatgen
data_ZnHC4O3
_symmetry_space_group_name_H-M   'P 1'
_cell_length_a   22.95560000
_cell_length_b   22.95560000
_cell_length_c   15.88300000
_cell_angle_alpha   90.00000000
_cell_angle_beta   90.00000000
_cell_angle_gamma   120.00000000
_symmetry_Int_Tables_number   1
_chemical_formula_structural   ZnHC4O3
_chemical_formula_sum   'Zn36 H36 C144 O108'
_cell_volume   7248.37184510
_cell_formula_units_Z   36
loop_
 _symmetry_equiv_pos_site_id
 _symmetry_equiv_pos_as_xyz
  1  'x, y, z'
loop_
 _atom_site_type_symbol
 _atom_site_label
 _atom_site_symmetry_multiplicity
 _atom_site_fract_x
 _atom_site_fract_y
 _atom_site_fract_z
 _atom_site_occupancy
 _atom_site_charge
  Zn  Zn1  1  0.666667  0.761320  0.083330  1.0  1.0905
  Zn  Zn2  1  0.666667  0.892920  0.083330  1.0  1.0181
  Zn  Zn3  1  0.238680  0.905340  0.083330  1.0  1.0906
  Zn  Zn4  1  0.107080  0.773740  0.083330  1.0  1.018
  Zn  Zn5  1  0.094660  0.333333  0.083330  1.0  1.0901
  Zn  Zn6  1  0.226260  0.333333  0.083330  1.0  1.0183
  Zn  Zn7  1  0.761320  0.666667  0.416670  1.0  1.0904
  Zn  Zn8  1  0.892920  0.666667  0.416670  1.0  1.0181
  Zn  Zn9  1  0.427990  0.000000  0.750000  1.0  1.0903
  Zn  Zn10  1  0.559590  0.000000  0.750000  1.0  1.0182
  Zn  Zn11  1  0.905340  0.238680  0.416670  1.0  1.0907
  Zn  Zn12  1  0.773740  0.107080  0.416670  1.0  1.018
  Zn  Zn13  1  0.572010  0.572010  0.750000  1.0  1.0907
  Zn  Zn14  1  0.440410  0.440410  0.750000  1.0  1.0179
  Zn  Zn15  1  0.333333  0.094660  0.416670  1.0  1.0902
  Zn  Zn16  1  0.333333  0.226260  0.416670  1.0  1.0183
  Zn  Zn17  1  0.000000  0.427990  0.750000  1.0  1.0906
  Zn  Zn18  1  0.000000  0.559590  0.750000  1.0  1.0182
  Zn  Zn19  1  0.333333  0.238680  0.916670  1.0  1.0907
  Zn  Zn20  1  0.333333  0.107080  0.916670  1.0  1.0175
  Zn  Zn21  1  0.000000  0.572010  0.250000  1.0  1.0906
  Zn  Zn22  1  0.000000  0.440410  0.250000  1.0  1.0177
  Zn  Zn23  1  0.761320  0.094660  0.916670  1.0  1.0906
  Zn  Zn24  1  0.892920  0.226260  0.916670  1.0  1.0179
  Zn  Zn25  1  0.427990  0.427990  0.250000  1.0  1.0906
  Zn  Zn26  1  0.559590  0.559590  0.250000  1.0  1.018
  Zn  Zn27  1  0.905340  0.666667  0.916670  1.0  1.0904
  Zn  Zn28  1  0.773740  0.666667  0.916670  1.0  1.0177
  Zn  Zn29  1  0.572010  0.000000  0.250000  1.0  1.0908
  Zn  Zn30  1  0.440410  0.000000  0.250000  1.0  1.0177
  Zn  Zn31  1  0.238680  0.333333  0.583330  1.0  1.0907
  Zn  Zn32  1  0.107080  0.333333  0.583330  1.0  1.0175
  Zn  Zn33  1  0.094660  0.761320  0.583330  1.0  1.0905
  Zn  Zn34  1  0.226260  0.892920  0.583330  1.0  1.018
  Zn  Zn35  1  0.666667  0.905340  0.583330  1.0  1.0904
  Zn  Zn36  1  0.666667  0.773740  0.583330  1.0  1.0178
  H  H37  1  0.642700  0.733400  0.903600  1.0  0.1251
  H  H38  1  0.309370  0.066730  0.236930  1.0  0.1251
  H  H39  1  0.976030  0.400070  0.570270  1.0  0.1251
  H  H40  1  0.266600  0.909300  0.903600  1.0  0.1243
  H  H41  1  0.933270  0.242630  0.236930  1.0  0.1243
  H  H42  1  0.599930  0.575970  0.570270  1.0  0.1243
  H  H43  1  0.090700  0.357300  0.903600  1.0  0.1238
  H  H44  1  0.757370  0.690630  0.236930  1.0  0.1238
  H  H45  1  0.424030  0.023970  0.570270  1.0  0.1252
  H  H46  1  0.733400  0.642700  0.596400  1.0  0.1237
  H  H47  1  0.400070  0.976030  0.929730  1.0  0.1237
  H  H48  1  0.066730  0.309370  0.263070  1.0  0.1237
  H  H49  1  0.909300  0.266600  0.596400  1.0  0.1244
  H  H50  1  0.575970  0.599930  0.929730  1.0  0.1244
  H  H51  1  0.242630  0.933270  0.263070  1.0  0.1244
  H  H52  1  0.357300  0.090700  0.596400  1.0  0.1247
  H  H53  1  0.023970  0.424030  0.929730  1.0  0.126
  H  H54  1  0.690630  0.757370  0.263070  1.0  0.1247
  H  H55  1  0.357300  0.266600  0.096400  1.0  0.1242
  H  H56  1  0.023970  0.599930  0.429730  1.0  0.1242
  H  H57  1  0.690630  0.933270  0.763070  1.0  0.1242
  H  H58  1  0.733400  0.090700  0.096400  1.0  0.1242
  H  H59  1  0.400070  0.424030  0.429730  1.0  0.1242
  H  H60  1  0.066730  0.757370  0.763070  1.0  0.1242
  H  H61  1  0.909300  0.642700  0.096400  1.0  0.1238
  H  H62  1  0.575970  0.976030  0.429730  1.0  0.1252
  H  H63  1  0.242630  0.309370  0.763070  1.0  0.1238
  H  H64  1  0.266600  0.357300  0.403600  1.0  0.1237
  H  H65  1  0.933270  0.690630  0.736930  1.0  0.1237
  H  H66  1  0.599930  0.023970  0.070270  1.0  0.1237
  H  H67  1  0.090700  0.733400  0.403600  1.0  0.1247
  H  H68  1  0.757370  0.066730  0.736930  1.0  0.1247
  H  H69  1  0.424030  0.400070  0.070270  1.0  0.1247
  H  H70  1  0.642700  0.909300  0.403600  1.0  0.1242
  H  H71  1  0.309370  0.242630  0.736930  1.0  0.1242
  H  H72  1  0.976030  0.575970  0.070270  1.0  0.1256
  C  C73  1  0.675000  0.832800  0.921200  1.0  0.2641
  C  C74  1  0.687800  0.892400  0.878600  1.0  -0.1381
  C  C75  1  0.652700  0.773100  0.876100  1.0  -0.0763
  C  C76  1  0.575400  0.624800  0.087700  1.0  0.6266
  C  C77  1  0.341670  0.166130  0.254530  1.0  0.264
  C  C78  1  0.354470  0.225730  0.211930  1.0  -0.1383
  C  C79  1  0.319370  0.106430  0.209430  1.0  -0.0763
  C  C80  1  0.242070  0.958130  0.421030  1.0  0.6267
  C  C81  1  0.008330  0.499470  0.587870  1.0  0.2639
  C  C82  1  0.021130  0.559070  0.545270  1.0  -0.1394
  C  C83  1  0.986030  0.439770  0.542770  1.0  -0.0762
  C  C84  1  0.908730  0.291470  0.754370  1.0  0.6266
  C  C85  1  0.167200  0.842200  0.921200  1.0  0.2633
  C  C86  1  0.107600  0.795400  0.878600  1.0  -0.1386
  C  C87  1  0.226900  0.879600  0.876100  1.0  -0.0767
  C  C88  1  0.375200  0.950600  0.087700  1.0  0.6254
  C  C89  1  0.833870  0.175530  0.254530  1.0  0.2631
  C  C90  1  0.774270  0.128730  0.211930  1.0  -0.1403
  C  C91  1  0.893570  0.212930  0.209430  1.0  -0.0764
  C  C92  1  0.041870  0.283930  0.421030  1.0  0.6254
  C  C93  1  0.500530  0.508870  0.587870  1.0  0.2633
  C  C94  1  0.440930  0.462070  0.545270  1.0  -0.1406
  C  C95  1  0.560230  0.546270  0.542770  1.0  -0.0763
  C  C96  1  0.708530  0.617270  0.754370  1.0  0.6254
  C  C97  1  0.157800  0.325000  0.921200  1.0  0.2639
  C  C98  1  0.204600  0.312200  0.878600  1.0  -0.139
  C  C99  1  0.120400  0.347300  0.876100  1.0  -0.0778
  C  C100  1  0.049400  0.424600  0.087700  1.0  0.6273
  C  C101  1  0.824470  0.658330  0.254530  1.0  0.264
  C  C102  1  0.871270  0.645530  0.211930  1.0  -0.1399
  C  C103  1  0.787070  0.680630  0.209430  1.0  -0.0781
  C  C104  1  0.716070  0.757930  0.421030  1.0  0.6273
  C  C105  1  0.491130  0.991670  0.587870  1.0  0.264
  C  C106  1  0.537930  0.978870  0.545270  1.0  -0.1386
  C  C107  1  0.453730  0.013970  0.542770  1.0  -0.0777
  C  C108  1  0.382730  0.091270  0.754370  1.0  0.6266
  C  C109  1  0.832800  0.675000  0.578800  1.0  0.266
  C  C110  1  0.892400  0.687800  0.621400  1.0  -0.1382
  C  C111  1  0.773100  0.652700  0.623900  1.0  -0.0794
  C  C112  1  0.624800  0.575400  0.412300  1.0  0.6259
  C  C113  1  0.499470  0.008330  0.912130  1.0  0.266
  C  C114  1  0.559070  0.021130  0.954730  1.0  -0.1394
  C  C115  1  0.439770  0.986030  0.957230  1.0  -0.0794
  C  C116  1  0.291470  0.908730  0.745630  1.0  0.6259
  C  C117  1  0.166130  0.341670  0.245470  1.0  0.2659
  C  C118  1  0.225730  0.354470  0.288070  1.0  -0.1385
  C  C119  1  0.106430  0.319370  0.290570  1.0  -0.0794
  C  C120  1  0.958130  0.242070  0.078970  1.0  0.626
  C  C121  1  0.842200  0.167200  0.578800  1.0  0.2652
  C  C122  1  0.795400  0.107600  0.621400  1.0  -0.1377
  C  C123  1  0.879600  0.226900  0.623900  1.0  -0.0783
  C  C124  1  0.950600  0.375200  0.412300  1.0  0.6262
  C  C125  1  0.508870  0.500530  0.912130  1.0  0.2652
  C  C126  1  0.462070  0.440930  0.954730  1.0  -0.1397
  C  C127  1  0.546270  0.560230  0.957230  1.0  -0.078
  C  C128  1  0.617270  0.708530  0.745630  1.0  0.6263
  C  C129  1  0.175530  0.833870  0.245470  1.0  0.2651
  C  C130  1  0.128730  0.774270  0.288070  1.0  -0.1395
  C  C131  1  0.212930  0.893570  0.290570  1.0  -0.0781
  C  C132  1  0.283930  0.041870  0.078970  1.0  0.6262
  C  C133  1  0.325000  0.157800  0.578800  1.0  0.2653
  C  C134  1  0.312200  0.204600  0.621400  1.0  -0.1384
  C  C135  1  0.347300  0.120400  0.623900  1.0  -0.0772
  C  C136  1  0.424600  0.049400  0.412300  1.0  0.6246
  C  C137  1  0.991670  0.491130  0.912130  1.0  0.2653
  C  C138  1  0.978870  0.537930  0.954730  1.0  -0.1378
  C  C139  1  0.013970  0.453730  0.957230  1.0  -0.077
  C  C140  1  0.091270  0.382730  0.745630  1.0  0.6239
  C  C141  1  0.658330  0.824470  0.245470  1.0  0.2654
  C  C142  1  0.645530  0.871270  0.288070  1.0  -0.1392
  C  C143  1  0.680630  0.787070  0.290570  1.0  -0.0775
  C  C144  1  0.757930  0.716070  0.078970  1.0  0.6246
  C  C145  1  0.325000  0.167200  0.078800  1.0  0.2638
  C  C146  1  0.312200  0.107600  0.121400  1.0  -0.1374
  C  C147  1  0.347300  0.226900  0.123900  1.0  -0.0778
  C  C148  1  0.424600  0.375200  0.912300  1.0  0.6269
  C  C149  1  0.991670  0.500530  0.412130  1.0  0.2638
  C  C150  1  0.978870  0.440930  0.454730  1.0  -0.1387
  C  C151  1  0.013970  0.560230  0.457230  1.0  -0.0781
  C  C152  1  0.091270  0.708530  0.245630  1.0  0.6269
  C  C153  1  0.658330  0.833870  0.745470  1.0  0.2638
  C  C154  1  0.645530  0.774270  0.788070  1.0  -0.1378
  C  C155  1  0.680630  0.893570  0.790570  1.0  -0.0778
  C  C156  1  0.757930  0.041870  0.578970  1.0  0.6269
  C  C157  1  0.832800  0.157800  0.078800  1.0  0.2641
  C  C158  1  0.892400  0.204600  0.121400  1.0  -0.1382
  C  C159  1  0.773100  0.120400  0.123900  1.0  -0.077
  C  C160  1  0.624800  0.049400  0.912300  1.0  0.6245
  C  C161  1  0.499470  0.491130  0.412130  1.0  0.2641
  C  C162  1  0.559070  0.537930  0.454730  1.0  -0.1402
  C  C163  1  0.439770  0.453730  0.457230  1.0  -0.0767
  C  C164  1  0.291470  0.382730  0.245630  1.0  0.6246
  C  C165  1  0.166130  0.824470  0.745470  1.0  0.264
  C  C166  1  0.225730  0.871270  0.788070  1.0  -0.14
  C  C167  1  0.106430  0.787070  0.790570  1.0  -0.0767
  C  C168  1  0.958130  0.716070  0.578970  1.0  0.6246
  C  C169  1  0.842200  0.675000  0.078800  1.0  0.2645
  C  C170  1  0.795400  0.687800  0.121400  1.0  -0.138
  C  C171  1  0.879600  0.652700  0.123900  1.0  -0.0766
  C  C172  1  0.950600  0.575400  0.912300  1.0  0.6257
  C  C173  1  0.508870  0.008330  0.412130  1.0  0.2646
  C  C174  1  0.462070  0.021130  0.454730  1.0  -0.1375
  C  C175  1  0.546270  0.986030  0.457230  1.0  -0.0764
  C  C176  1  0.617270  0.908730  0.245630  1.0  0.6251
  C  C177  1  0.175530  0.341670  0.745470  1.0  0.2647
  C  C178  1  0.128730  0.354470  0.788070  1.0  -0.1388
  C  C179  1  0.212930  0.319370  0.790570  1.0  -0.0769
  C  C180  1  0.283930  0.242070  0.578970  1.0  0.6257
  C  C181  1  0.167200  0.325000  0.421200  1.0  0.2649
  C  C182  1  0.107600  0.312200  0.378600  1.0  -0.1381
  C  C183  1  0.226900  0.347300  0.376100  1.0  -0.0765
  C  C184  1  0.375200  0.424600  0.587700  1.0  0.6262
  C  C185  1  0.833870  0.658330  0.754530  1.0  0.2649
  C  C186  1  0.774270  0.645530  0.711930  1.0  -0.1384
  C  C187  1  0.893570  0.680630  0.709430  1.0  -0.0765
  C  C188  1  0.041870  0.757930  0.921030  1.0  0.6263
  C  C189  1  0.500530  0.991670  0.087870  1.0  0.2649
  C  C190  1  0.440930  0.978870  0.045270  1.0  -0.1394
  C  C191  1  0.560230  0.013970  0.042770  1.0  -0.0765
  C  C192  1  0.708530  0.091270  0.254370  1.0  0.6262
  C  C193  1  0.157800  0.832800  0.421200  1.0  0.2648
  C  C194  1  0.204600  0.892400  0.378600  1.0  -0.138
  C  C195  1  0.120400  0.773100  0.376100  1.0  -0.0767
  C  C196  1  0.049400  0.624800  0.587700  1.0  0.6275
  C  C197  1  0.824470  0.166130  0.754530  1.0  0.2647
  C  C198  1  0.871270  0.225730  0.711930  1.0  -0.1397
  C  C199  1  0.787070  0.106430  0.709430  1.0  -0.0764
  C  C200  1  0.716070  0.958130  0.921030  1.0  0.6274
  C  C201  1  0.491130  0.499470  0.087870  1.0  0.2648
  C  C202  1  0.537930  0.559070  0.045270  1.0  -0.14
  C  C203  1  0.453730  0.439770  0.042770  1.0  -0.0763
  C  C204  1  0.382730  0.291470  0.254370  1.0  0.6275
  C  C205  1  0.675000  0.842200  0.421200  1.0  0.2642
  C  C206  1  0.687800  0.795400  0.378600  1.0  -0.1392
  C  C207  1  0.652700  0.879600  0.376100  1.0  -0.0769
  C  C208  1  0.575400  0.950600  0.587700  1.0  0.6251
  C  C209  1  0.341670  0.175530  0.754530  1.0  0.2643
  C  C210  1  0.354470  0.128730  0.711930  1.0  -0.1401
  C  C211  1  0.319370  0.212930  0.709430  1.0  -0.0772
  C  C212  1  0.242070  0.283930  0.921030  1.0  0.6251
  C  C213  1  0.008330  0.508870  0.087870  1.0  0.2642
  C  C214  1  0.021130  0.462070  0.045270  1.0  -0.1387
  C  C215  1  0.986030  0.546270  0.042770  1.0  -0.0768
  C  C216  1  0.908730  0.617270  0.254370  1.0  0.6245
  O  O217  1  0.596700  0.630300  0.162300  1.0  -0.5874
  O  O218  1  0.593600  0.679000  0.045000  1.0  -0.6146
  O  O219  1  0.683500  0.834300  0.006000  1.0  -0.6465
  O  O220  1  0.263370  0.963630  0.495630  1.0  -0.5874
  O  O221  1  0.260270  0.012330  0.378330  1.0  -0.6289
  O  O222  1  0.350170  0.167630  0.339330  1.0  -0.6465
  O  O223  1  0.930030  0.296970  0.828970  1.0  -0.5875
  O  O224  1  0.926930  0.345670  0.711670  1.0  -0.6154
  O  O225  1  0.016830  0.500970  0.672670  1.0  -0.6465
  O  O226  1  0.369700  0.966400  0.162300  1.0  -0.5872
  O  O227  1  0.321000  0.914600  0.045000  1.0  -0.6242
  O  O228  1  0.165700  0.849200  0.006000  1.0  -0.6472
  O  O229  1  0.036370  0.299730  0.495630  1.0  -0.5872
  O  O230  1  0.987670  0.247930  0.378330  1.0  -0.6258
  O  O231  1  0.832370  0.182530  0.339330  1.0  -0.6475
  O  O232  1  0.703030  0.633070  0.828970  1.0  -0.5872
  O  O233  1  0.654330  0.581270  0.711670  1.0  -0.6241
  O  O234  1  0.499030  0.515870  0.672670  1.0  -0.6473
  O  O235  1  0.033600  0.403300  0.162300  1.0  -0.5847
  O  O236  1  0.085400  0.406400  0.045000  1.0  -0.6101
  O  O237  1  0.150800  0.316500  0.006000  1.0  -0.6466
  O  O238  1  0.700270  0.736630  0.495630  1.0  -0.5847
  O  O239  1  0.752070  0.739730  0.378330  1.0  -0.6218
  O  O240  1  0.817470  0.649830  0.339330  1.0  -0.6466
  O  O241  1  0.366930  0.069970  0.828970  1.0  -0.5846
  O  O242  1  0.418730  0.073070  0.711670  1.0  -0.6101
  O  O243  1  0.484130  0.983170  0.672670  1.0  -0.6469
  O  O244  1  0.630300  0.596700  0.337700  1.0  -0.5839
  O  O245  1  0.679000  0.593600  0.455000  1.0  -0.6093
  O  O246  1  0.834300  0.683500  0.494000  1.0  -0.6463
  O  O247  1  0.296970  0.930030  0.671030  1.0  -0.5839
  O  O248  1  0.345670  0.926930  0.788330  1.0  -0.6101
  O  O249  1  0.500970  0.016830  0.827330  1.0  -0.6463
  O  O250  1  0.963630  0.263370  0.004370  1.0  -0.5839
  O  O251  1  0.012330  0.260270  0.121670  1.0  -0.6241
  O  O252  1  0.167630  0.350170  0.160670  1.0  -0.6463
  O  O253  1  0.966400  0.369700  0.337700  1.0  -0.588
  O  O254  1  0.914600  0.321000  0.455000  1.0  -0.6255
  O  O255  1  0.849200  0.165700  0.494000  1.0  -0.6459
  O  O256  1  0.633070  0.703030  0.671030  1.0  -0.5879
  O  O257  1  0.581270  0.654330  0.788330  1.0  -0.6255
  O  O258  1  0.515870  0.499030  0.827330  1.0  -0.6459
  O  O259  1  0.299730  0.036370  0.004370  1.0  -0.588
  O  O260  1  0.247930  0.987670  0.121670  1.0  -0.6277
  O  O261  1  0.182530  0.832370  0.160670  1.0  -0.6462
  O  O262  1  0.403300  0.033600  0.337700  1.0  -0.5873
  O  O263  1  0.406400  0.085400  0.455000  1.0  -0.6162
  O  O264  1  0.316500  0.150800  0.494000  1.0  -0.6469
  O  O265  1  0.069970  0.366930  0.671030  1.0  -0.5872
  O  O266  1  0.073070  0.418730  0.788330  1.0  -0.6162
  O  O267  1  0.983170  0.484130  0.827330  1.0  -0.6473
  O  O268  1  0.736630  0.700270  0.004370  1.0  -0.5873
  O  O269  1  0.739730  0.752070  0.121670  1.0  -0.6271
  O  O270  1  0.649830  0.817470  0.160670  1.0  -0.647
  O  O271  1  0.403300  0.369700  0.837700  1.0  -0.5875
  O  O272  1  0.406400  0.321000  0.955000  1.0  -0.6141
  O  O273  1  0.316500  0.165700  0.994000  1.0  -0.6468
  O  O274  1  0.069970  0.703030  0.171030  1.0  -0.5874
  O  O275  1  0.073070  0.654330  0.288330  1.0  -0.615
  O  O276  1  0.983170  0.499030  0.327330  1.0  -0.6468
  O  O277  1  0.736630  0.036370  0.504370  1.0  -0.5875
  O  O278  1  0.739730  0.987670  0.621670  1.0  -0.6287
  O  O279  1  0.649830  0.832370  0.660670  1.0  -0.6468
  O  O280  1  0.630300  0.033600  0.837700  1.0  -0.588
  O  O281  1  0.679000  0.085400  0.955000  1.0  -0.6241
  O  O282  1  0.834300  0.150800  0.994000  1.0  -0.6464
  O  O283  1  0.296970  0.366930  0.171030  1.0  -0.5879
  O  O284  1  0.345670  0.418730  0.288330  1.0  -0.6241
  O  O285  1  0.500970  0.484130  0.327330  1.0  -0.6464
  O  O286  1  0.963630  0.700270  0.504370  1.0  -0.588
  O  O287  1  0.012330  0.752070  0.621670  1.0  -0.6265
  O  O288  1  0.167630  0.817470  0.660670  1.0  -0.6467
  O  O289  1  0.966400  0.596700  0.837700  1.0  -0.5846
  O  O290  1  0.914600  0.593600  0.955000  1.0  -0.6126
  O  O291  1  0.849200  0.683500  0.994000  1.0  -0.6462
  O  O292  1  0.633070  0.930030  0.171030  1.0  -0.5845
  O  O293  1  0.581270  0.926930  0.288330  1.0  -0.6126
  O  O294  1  0.515870  0.016830  0.327330  1.0  -0.6465
  O  O295  1  0.299730  0.263370  0.504370  1.0  -0.5846
  O  O296  1  0.247930  0.260270  0.621670  1.0  -0.6246
  O  O297  1  0.182530  0.350170  0.660670  1.0  -0.6462
  O  O298  1  0.369700  0.403300  0.662300  1.0  -0.585
  O  O299  1  0.321000  0.406400  0.545000  1.0  -0.6114
  O  O300  1  0.165700  0.316500  0.506000  1.0  -0.6466
  O  O301  1  0.036370  0.736630  0.995630  1.0  -0.585
  O  O302  1  0.987670  0.739730  0.878330  1.0  -0.6256
  O  O303  1  0.832370  0.649830  0.839330  1.0  -0.6465
  O  O304  1  0.703030  0.069970  0.328970  1.0  -0.585
  O  O305  1  0.654330  0.073070  0.211670  1.0  -0.6122
  O  O306  1  0.499030  0.983170  0.172670  1.0  -0.6466
  O  O307  1  0.033600  0.630300  0.662300  1.0  -0.5876
  O  O308  1  0.085400  0.679000  0.545000  1.0  -0.6254
  O  O309  1  0.150800  0.834300  0.506000  1.0  -0.6474
  O  O310  1  0.700270  0.963630  0.995630  1.0  -0.5876
  O  O311  1  0.752070  0.012330  0.878330  1.0  -0.627
  O  O312  1  0.817470  0.167630  0.839330  1.0  -0.6477
  O  O313  1  0.366930  0.296970  0.328970  1.0  -0.5876
  O  O314  1  0.418730  0.345670  0.211670  1.0  -0.6253
  O  O315  1  0.484130  0.500970  0.172670  1.0  -0.6474
  O  O316  1  0.596700  0.966400  0.662300  1.0  -0.5871
  O  O317  1  0.593600  0.914600  0.545000  1.0  -0.6112
  O  O318  1  0.683500  0.849200  0.506000  1.0  -0.6465
  O  O319  1  0.263370  0.299730  0.995630  1.0  -0.5871
  O  O320  1  0.260270  0.247930  0.878330  1.0  -0.623
  O  O321  1  0.350170  0.182530  0.839330  1.0  -0.6466
  O  O322  1  0.930030  0.633070  0.328970  1.0  -0.587
  O  O323  1  0.926930  0.581270  0.211670  1.0  -0.6112
  O  O324  1  0.016830  0.515870  0.172670  1.0  -0.6469
