# generated using pymatgen
data_Mg3H9C24N3O13
_symmetry_space_group_name_H-M   'P 1'
_cell_length_a   22.03540000
_cell_length_b   22.03540000
_cell_length_c   22.03540000
_cell_angle_alpha   90.00000000
_cell_angle_beta   90.00000000
_cell_angle_gamma   90.00000000
_symmetry_Int_Tables_number   1
_chemical_formula_structural   Mg3H9C24N3O13
_chemical_formula_sum   'Mg24 H72 C192 N24 O104'
_cell_volume   10699.48355292
_cell_formula_units_Z   8
loop_
 _symmetry_equiv_pos_site_id
 _symmetry_equiv_pos_as_xyz
  1  'x, y, z'
loop_
 _atom_site_type_symbol
 _atom_site_label
 _atom_site_symmetry_multiplicity
 _atom_site_fract_x
 _atom_site_fract_y
 _atom_site_fract_z
 _atom_site_occupancy
 _atom_site_charge
  Mg  Mg1  1  0.178390  0.239580  0.305710  1.0  1.5823
  Mg  Mg2  1  0.821610  0.760420  0.305710  1.0  1.5833
  Mg  Mg3  1  0.821610  0.239580  0.694290  1.0  1.585
  Mg  Mg4  1  0.178390  0.760420  0.694290  1.0  1.5843
  Mg  Mg5  1  0.305710  0.178390  0.239580  1.0  1.5862
  Mg  Mg6  1  0.305710  0.821610  0.760420  1.0  1.5882
  Mg  Mg7  1  0.694290  0.821610  0.239580  1.0  1.5878
  Mg  Mg8  1  0.694290  0.178390  0.760420  1.0  1.5862
  Mg  Mg9  1  0.239580  0.305710  0.178390  1.0  1.5858
  Mg  Mg10  1  0.760420  0.305710  0.821610  1.0  1.5865
  Mg  Mg11  1  0.239580  0.694290  0.821610  1.0  1.585
  Mg  Mg12  1  0.760420  0.694290  0.178390  1.0  1.5855
  Mg  Mg13  1  0.739580  0.678390  0.805710  1.0  1.5829
  Mg  Mg14  1  0.260420  0.321610  0.805710  1.0  1.5853
  Mg  Mg15  1  0.739580  0.321610  0.194290  1.0  1.5859
  Mg  Mg16  1  0.260420  0.678390  0.194290  1.0  1.5845
  Mg  Mg17  1  0.678390  0.805710  0.739580  1.0  1.5871
  Mg  Mg18  1  0.321610  0.805710  0.260420  1.0  1.5877
  Mg  Mg19  1  0.321610  0.194290  0.739580  1.0  1.5865
  Mg  Mg20  1  0.678390  0.194290  0.260420  1.0  1.5861
  Mg  Mg21  1  0.805710  0.739580  0.678390  1.0  1.5853
  Mg  Mg22  1  0.805710  0.260420  0.321610  1.0  1.5852
  Mg  Mg23  1  0.194290  0.739580  0.321610  1.0  1.5841
  Mg  Mg24  1  0.194290  0.260420  0.678390  1.0  1.585
  H  H25  1  0.893200  0.299500  0.093400  1.0  0.1129
  H  H26  1  0.991000  0.279600  0.243500  1.0  0.1057
  H  H27  1  0.075500  0.285800  0.083600  1.0  0.1112
  H  H28  1  0.106800  0.700500  0.093400  1.0  0.1123
  H  H29  1  0.009000  0.720400  0.243500  1.0  0.1057
  H  H30  1  0.924500  0.714200  0.083600  1.0  0.1113
  H  H31  1  0.106800  0.299500  0.906600  1.0  0.1123
  H  H32  1  0.009000  0.279600  0.756500  1.0  0.1058
  H  H33  1  0.924500  0.285800  0.916400  1.0  0.1112
  H  H34  1  0.893200  0.700500  0.906600  1.0  0.1126
  H  H35  1  0.991000  0.720400  0.756500  1.0  0.106
  H  H36  1  0.075500  0.714200  0.916400  1.0  0.1118
  H  H37  1  0.093400  0.893200  0.299500  1.0  0.112
  H  H38  1  0.243500  0.991000  0.279600  1.0  0.1057
  H  H39  1  0.083600  0.075500  0.285800  1.0  0.1118
  H  H40  1  0.093400  0.106800  0.700500  1.0  0.1123
  H  H41  1  0.243500  0.009000  0.720400  1.0  0.1057
  H  H42  1  0.083600  0.924500  0.714200  1.0  0.1112
  H  H43  1  0.906600  0.106800  0.299500  1.0  0.1116
  H  H44  1  0.756500  0.009000  0.279600  1.0  0.1053
  H  H45  1  0.916400  0.924500  0.285800  1.0  0.112
  H  H46  1  0.906600  0.893200  0.700500  1.0  0.1117
  H  H47  1  0.756500  0.991000  0.720400  1.0  0.1051
  H  H48  1  0.916400  0.075500  0.714200  1.0  0.1116
  H  H49  1  0.299500  0.093400  0.893200  1.0  0.1127
  H  H50  1  0.279600  0.243500  0.991000  1.0  0.1063
  H  H51  1  0.285800  0.083600  0.075500  1.0  0.1125
  H  H52  1  0.700500  0.093400  0.106800  1.0  0.1127
  H  H53  1  0.720400  0.243500  0.009000  1.0  0.1065
  H  H54  1  0.714200  0.083600  0.924500  1.0  0.1116
  H  H55  1  0.299500  0.906600  0.106800  1.0  0.113
  H  H56  1  0.279600  0.756500  0.009000  1.0  0.1067
  H  H57  1  0.285800  0.916400  0.924500  1.0  0.1115
  H  H58  1  0.700500  0.906600  0.893200  1.0  0.1129
  H  H59  1  0.720400  0.756500  0.991000  1.0  0.1066
  H  H60  1  0.714200  0.916400  0.075500  1.0  0.1126
  H  H61  1  0.799500  0.393200  0.593400  1.0  0.1122
  H  H62  1  0.779600  0.491000  0.743500  1.0  0.1057
  H  H63  1  0.785800  0.575500  0.583600  1.0  0.1113
  H  H64  1  0.200500  0.606800  0.593400  1.0  0.1123
  H  H65  1  0.220400  0.509000  0.743500  1.0  0.106
  H  H66  1  0.214200  0.424500  0.583600  1.0  0.1112
  H  H67  1  0.799500  0.606800  0.406600  1.0  0.1122
  H  H68  1  0.779600  0.509000  0.256500  1.0  0.1061
  H  H69  1  0.785800  0.424500  0.416400  1.0  0.1117
  H  H70  1  0.200500  0.393200  0.406600  1.0  0.112
  H  H71  1  0.220400  0.491000  0.256500  1.0  0.106
  H  H72  1  0.214200  0.575500  0.416400  1.0  0.1114
  H  H73  1  0.393200  0.593400  0.799500  1.0  0.113
  H  H74  1  0.491000  0.743500  0.779600  1.0  0.1065
  H  H75  1  0.575500  0.583600  0.785800  1.0  0.1113
  H  H76  1  0.606800  0.593400  0.200500  1.0  0.1122
  H  H77  1  0.509000  0.743500  0.220400  1.0  0.1063
  H  H78  1  0.424500  0.583600  0.214200  1.0  0.1112
  H  H79  1  0.606800  0.406600  0.799500  1.0  0.1126
  H  H80  1  0.509000  0.256500  0.779600  1.0  0.1067
  H  H81  1  0.424500  0.416400  0.785800  1.0  0.1113
  H  H82  1  0.393200  0.406600  0.200500  1.0  0.113
  H  H83  1  0.491000  0.256500  0.220400  1.0  0.1065
  H  H84  1  0.575500  0.416400  0.214200  1.0  0.1115
  H  H85  1  0.593400  0.799500  0.393200  1.0  0.1127
  H  H86  1  0.743500  0.779600  0.491000  1.0  0.1055
  H  H87  1  0.583600  0.785800  0.575500  1.0  0.1127
  H  H88  1  0.593400  0.200500  0.606800  1.0  0.1126
  H  H89  1  0.743500  0.220400  0.509000  1.0  0.1061
  H  H90  1  0.583600  0.214200  0.424500  1.0  0.1119
  H  H91  1  0.406600  0.799500  0.606800  1.0  0.1122
  H  H92  1  0.256500  0.779600  0.509000  1.0  0.1055
  H  H93  1  0.416400  0.785800  0.424500  1.0  0.1119
  H  H94  1  0.406600  0.200500  0.393200  1.0  0.1123
  H  H95  1  0.256500  0.220400  0.491000  1.0  0.1051
  H  H96  1  0.416400  0.214200  0.575500  1.0  0.1129
  C  C97  1  0.982000  0.294100  0.078000  1.0  0.0728
  C  C98  1  0.930600  0.295800  0.112500  1.0  -0.081
  C  C99  1  0.932700  0.292000  0.174900  1.0  -0.1269
  C  C100  1  0.988600  0.285200  0.201700  1.0  0.0052
  C  C101  1  0.042100  0.286600  0.167200  1.0  -0.1564
  C  C102  1  0.040200  0.288300  0.106500  1.0  -0.0813
  C  C103  1  0.873300  0.291800  0.207900  1.0  0.7264
  C  C104  1  0.103100  0.277900  0.197500  1.0  0.7195
  C  C105  1  0.018000  0.705900  0.078000  1.0  0.072
  C  C106  1  0.069400  0.704200  0.112500  1.0  -0.0814
  C  C107  1  0.067300  0.708000  0.174900  1.0  -0.1272
  C  C108  1  0.011400  0.714800  0.201700  1.0  0.0053
  C  C109  1  0.957900  0.713400  0.167200  1.0  -0.1564
  C  C110  1  0.959800  0.711700  0.106500  1.0  -0.0831
  C  C111  1  0.126700  0.708200  0.207900  1.0  0.7264
  C  C112  1  0.896900  0.722100  0.197500  1.0  0.7204
  C  C113  1  0.018000  0.294100  0.922000  1.0  0.0725
  C  C114  1  0.069400  0.295800  0.887500  1.0  -0.0801
  C  C115  1  0.067300  0.292000  0.825100  1.0  -0.1274
  C  C116  1  0.011400  0.285200  0.798300  1.0  0.0032
  C  C117  1  0.957900  0.286600  0.832800  1.0  -0.1567
  C  C118  1  0.959800  0.288300  0.893500  1.0  -0.084
  C  C119  1  0.126700  0.291800  0.792100  1.0  0.7259
  C  C120  1  0.896900  0.277900  0.802500  1.0  0.7199
  C  C121  1  0.982000  0.705900  0.922000  1.0  0.0727
  C  C122  1  0.930600  0.704200  0.887500  1.0  -0.0796
  C  C123  1  0.932700  0.708000  0.825100  1.0  -0.1272
  C  C124  1  0.988600  0.714800  0.798300  1.0  0.0035
  C  C125  1  0.042100  0.713400  0.832800  1.0  -0.1567
  C  C126  1  0.040200  0.711700  0.893500  1.0  -0.0826
  C  C127  1  0.873300  0.708200  0.792100  1.0  0.7263
  C  C128  1  0.103100  0.722100  0.802500  1.0  0.7198
  C  C129  1  0.078000  0.982000  0.294100  1.0  0.0753
  C  C130  1  0.112500  0.930600  0.295800  1.0  -0.0815
  C  C131  1  0.174900  0.932700  0.292000  1.0  -0.1257
  C  C132  1  0.201700  0.988600  0.285200  1.0  0.0012
  C  C133  1  0.167200  0.042100  0.286600  1.0  -0.1566
  C  C134  1  0.106500  0.040200  0.288300  1.0  -0.0847
  C  C135  1  0.207900  0.873300  0.291800  1.0  0.7253
  C  C136  1  0.197500  0.103100  0.277900  1.0  0.7215
  C  C137  1  0.078000  0.018000  0.705900  1.0  0.0749
  C  C138  1  0.112500  0.069400  0.704200  1.0  -0.0815
  C  C139  1  0.174900  0.067300  0.708000  1.0  -0.1257
  C  C140  1  0.201700  0.011400  0.714800  1.0  0.0022
  C  C141  1  0.167200  0.957900  0.713400  1.0  -0.1557
  C  C142  1  0.106500  0.959800  0.711700  1.0  -0.0827
  C  C143  1  0.207900  0.126700  0.708200  1.0  0.726
  C  C144  1  0.197500  0.896900  0.722100  1.0  0.7212
  C  C145  1  0.922000  0.018000  0.294100  1.0  0.0743
  C  C146  1  0.887500  0.069400  0.295800  1.0  -0.0818
  C  C147  1  0.825100  0.067300  0.292000  1.0  -0.1261
  C  C148  1  0.798300  0.011400  0.285200  1.0  -0.0011
  C  C149  1  0.832800  0.957900  0.286600  1.0  -0.1562
  C  C150  1  0.893500  0.959800  0.288300  1.0  -0.0823
  C  C151  1  0.792100  0.126700  0.291800  1.0  0.7259
  C  C152  1  0.802500  0.896900  0.277900  1.0  0.7213
  C  C153  1  0.922000  0.982000  0.705900  1.0  0.0747
  C  C154  1  0.887500  0.930600  0.704200  1.0  -0.0824
  C  C155  1  0.825100  0.932700  0.708000  1.0  -0.1266
  C  C156  1  0.798300  0.988600  0.714800  1.0  -0.0007
  C  C157  1  0.832800  0.042100  0.713400  1.0  -0.156
  C  C158  1  0.893500  0.040200  0.711700  1.0  -0.0842
  C  C159  1  0.792100  0.873300  0.708200  1.0  0.7255
  C  C160  1  0.802500  0.103100  0.722100  1.0  0.7216
  C  C161  1  0.294100  0.078000  0.982000  1.0  0.0717
  C  C162  1  0.295800  0.112500  0.930600  1.0  -0.0849
  C  C163  1  0.292000  0.174900  0.932700  1.0  -0.1273
  C  C164  1  0.285200  0.201700  0.988600  1.0  -0.001
  C  C165  1  0.286600  0.167200  0.042100  1.0  -0.1575
  C  C166  1  0.288300  0.106500  0.040200  1.0  -0.0833
  C  C167  1  0.291800  0.207900  0.873300  1.0  0.7261
  C  C168  1  0.277900  0.197500  0.103100  1.0  0.721
  C  C169  1  0.705900  0.078000  0.018000  1.0  0.0715
  C  C170  1  0.704200  0.112500  0.069400  1.0  -0.0847
  C  C171  1  0.708000  0.174900  0.067300  1.0  -0.1275
  C  C172  1  0.714800  0.201700  0.011400  1.0  -0.0
  C  C173  1  0.713400  0.167200  0.957900  1.0  -0.1571
  C  C174  1  0.711700  0.106500  0.959800  1.0  -0.0832
  C  C175  1  0.708200  0.207900  0.126700  1.0  0.7257
  C  C176  1  0.722100  0.197500  0.896900  1.0  0.721
  C  C177  1  0.294100  0.922000  0.018000  1.0  0.071
  C  C178  1  0.295800  0.887500  0.069400  1.0  -0.0844
  C  C179  1  0.292000  0.825100  0.067300  1.0  -0.1275
  C  C180  1  0.285200  0.798300  0.011400  1.0  0.0015
  C  C181  1  0.286600  0.832800  0.957900  1.0  -0.1575
  C  C182  1  0.288300  0.893500  0.959800  1.0  -0.0823
  C  C183  1  0.291800  0.792100  0.126700  1.0  0.7254
  C  C184  1  0.277900  0.802500  0.896900  1.0  0.7207
  C  C185  1  0.705900  0.922000  0.982000  1.0  0.0706
  C  C186  1  0.704200  0.887500  0.930600  1.0  -0.0835
  C  C187  1  0.708000  0.825100  0.932700  1.0  -0.1281
  C  C188  1  0.714800  0.798300  0.988600  1.0  0.0021
  C  C189  1  0.713400  0.832800  0.042100  1.0  -0.1574
  C  C190  1  0.711700  0.893500  0.040200  1.0  -0.0832
  C  C191  1  0.708200  0.792100  0.873300  1.0  0.7256
  C  C192  1  0.722100  0.802500  0.103100  1.0  0.721
  C  C193  1  0.794100  0.482000  0.578000  1.0  0.0735
  C  C194  1  0.795800  0.430600  0.612500  1.0  -0.0819
  C  C195  1  0.792000  0.432700  0.674900  1.0  -0.1272
  C  C196  1  0.785200  0.488600  0.701700  1.0  0.0044
  C  C197  1  0.786600  0.542100  0.667200  1.0  -0.1565
  C  C198  1  0.788300  0.540200  0.606500  1.0  -0.084
  C  C199  1  0.791800  0.373300  0.707900  1.0  0.7263
  C  C200  1  0.777900  0.603100  0.697500  1.0  0.7213
  C  C201  1  0.205900  0.518000  0.578000  1.0  0.0727
  C  C202  1  0.204200  0.569400  0.612500  1.0  -0.0813
  C  C203  1  0.208000  0.567300  0.674900  1.0  -0.1273
  C  C204  1  0.214800  0.511400  0.701700  1.0  0.0051
  C  C205  1  0.213400  0.457900  0.667200  1.0  -0.1563
  C  C206  1  0.211700  0.459800  0.606500  1.0  -0.0822
  C  C207  1  0.208200  0.626700  0.707900  1.0  0.7268
  C  C208  1  0.222100  0.396900  0.697500  1.0  0.7211
  C  C209  1  0.794100  0.518000  0.422000  1.0  0.073
  C  C210  1  0.795800  0.569400  0.387500  1.0  -0.0797
  C  C211  1  0.792000  0.567300  0.325100  1.0  -0.1274
  C  C212  1  0.785200  0.511400  0.298300  1.0  0.0026
  C  C213  1  0.786600  0.457900  0.332800  1.0  -0.1567
  C  C214  1  0.788300  0.459800  0.393500  1.0  -0.0833
  C  C215  1  0.791800  0.626700  0.292100  1.0  0.7268
  C  C216  1  0.777900  0.396900  0.302500  1.0  0.7206
  C  C217  1  0.205900  0.482000  0.422000  1.0  0.0729
  C  C218  1  0.204200  0.430600  0.387500  1.0  -0.0805
  C  C219  1  0.208000  0.432700  0.325100  1.0  -0.1279
  C  C220  1  0.214800  0.488600  0.298300  1.0  0.0026
  C  C221  1  0.213400  0.542100  0.332800  1.0  -0.1567
  C  C222  1  0.211700  0.540200  0.393500  1.0  -0.0854
  C  C223  1  0.208200  0.373300  0.292100  1.0  0.7261
  C  C224  1  0.222100  0.603100  0.302500  1.0  0.7213
  C  C225  1  0.482000  0.578000  0.794100  1.0  0.072
  C  C226  1  0.430600  0.612500  0.795800  1.0  -0.0803
  C  C227  1  0.432700  0.674900  0.792000  1.0  -0.1261
  C  C228  1  0.488600  0.701700  0.785200  1.0  -0.0008
  C  C229  1  0.542100  0.667200  0.786600  1.0  -0.1562
  C  C230  1  0.540200  0.606500  0.788300  1.0  -0.0806
  C  C231  1  0.373300  0.707900  0.791800  1.0  0.7254
  C  C232  1  0.603100  0.697500  0.777900  1.0  0.7198
  C  C233  1  0.518000  0.578000  0.205900  1.0  0.0713
  C  C234  1  0.569400  0.612500  0.204200  1.0  -0.0818
  C  C235  1  0.567300  0.674900  0.208000  1.0  -0.1262
  C  C236  1  0.511400  0.701700  0.214800  1.0  -1e-04
  C  C237  1  0.457900  0.667200  0.213400  1.0  -0.1559
  C  C238  1  0.459800  0.606500  0.211700  1.0  -0.081
  C  C239  1  0.626700  0.707900  0.208200  1.0  0.7254
  C  C240  1  0.396900  0.697500  0.222100  1.0  0.7203
  C  C241  1  0.518000  0.422000  0.794100  1.0  0.0705
  C  C242  1  0.569400  0.387500  0.795800  1.0  -0.0807
  C  C243  1  0.567300  0.325100  0.792000  1.0  -0.1262
  C  C244  1  0.511400  0.298300  0.785200  1.0  0.002
  C  C245  1  0.457900  0.332800  0.786600  1.0  -0.1562
  C  C246  1  0.459800  0.393500  0.788300  1.0  -0.0825
  C  C247  1  0.626700  0.292100  0.791800  1.0  0.7249
  C  C248  1  0.396900  0.302500  0.777900  1.0  0.7201
  C  C249  1  0.482000  0.422000  0.205900  1.0  0.0709
  C  C250  1  0.430600  0.387500  0.204200  1.0  -0.0815
  C  C251  1  0.432700  0.325100  0.208000  1.0  -0.1267
  C  C252  1  0.488600  0.298300  0.214800  1.0  0.002
  C  C253  1  0.542100  0.332800  0.213400  1.0  -0.1555
  C  C254  1  0.540200  0.393500  0.211700  1.0  -0.0805
  C  C255  1  0.373300  0.292100  0.208200  1.0  0.7252
  C  C256  1  0.603100  0.302500  0.222100  1.0  0.7198
  C  C257  1  0.578000  0.794100  0.482000  1.0  0.0747
  C  C258  1  0.612500  0.795800  0.430600  1.0  -0.0834
  C  C259  1  0.674900  0.792000  0.432700  1.0  -0.127
  C  C260  1  0.701700  0.785200  0.488600  1.0  0.0022
  C  C261  1  0.667200  0.786600  0.542100  1.0  -0.1581
  C  C262  1  0.606500  0.788300  0.540200  1.0  -0.0848
  C  C263  1  0.707900  0.791800  0.373300  1.0  0.7257
  C  C264  1  0.697500  0.777900  0.603100  1.0  0.7214
  C  C265  1  0.578000  0.205900  0.518000  1.0  0.0747
  C  C266  1  0.612500  0.204200  0.569400  1.0  -0.0851
  C  C267  1  0.674900  0.208000  0.567300  1.0  -0.1269
  C  C268  1  0.701700  0.214800  0.511400  1.0  0.002
  C  C269  1  0.667200  0.213400  0.457900  1.0  -0.1574
  C  C270  1  0.606500  0.211700  0.459800  1.0  -0.0839
  C  C271  1  0.707900  0.208200  0.626700  1.0  0.7257
  C  C272  1  0.697500  0.222100  0.396900  1.0  0.7211
  C  C273  1  0.422000  0.794100  0.518000  1.0  0.0744
  C  C274  1  0.387500  0.795800  0.569400  1.0  -0.0856
  C  C275  1  0.325100  0.792000  0.567300  1.0  -0.1272
  C  C276  1  0.298300  0.785200  0.511400  1.0  -0.0005
  C  C277  1  0.332800  0.786600  0.457900  1.0  -0.1574
  C  C278  1  0.393500  0.788300  0.459800  1.0  -0.0835
  C  C279  1  0.292100  0.791800  0.626700  1.0  0.7257
  C  C280  1  0.302500  0.777900  0.396900  1.0  0.7212
  C  C281  1  0.422000  0.205900  0.482000  1.0  0.0742
  C  C282  1  0.387500  0.204200  0.430600  1.0  -0.0847
  C  C283  1  0.325100  0.208000  0.432700  1.0  -0.1274
  C  C284  1  0.298300  0.214800  0.488600  1.0  -0.0005
  C  C285  1  0.332800  0.213400  0.542100  1.0  -0.1578
  C  C286  1  0.393500  0.211700  0.540200  1.0  -0.0839
  C  C287  1  0.292100  0.208200  0.373300  1.0  0.7262
  C  C288  1  0.302500  0.222100  0.603100  1.0  0.7215
  N  N289  1  0.976500  0.295900  0.014200  1.0  -0.1572
  N  N290  1  0.023500  0.704100  0.014200  1.0  -0.1581
  N  N291  1  0.023500  0.295900  0.985800  1.0  -0.157
  N  N292  1  0.976500  0.704100  0.985800  1.0  -0.1568
  N  N293  1  0.014200  0.976500  0.295900  1.0  -0.1596
  N  N294  1  0.014200  0.023500  0.704100  1.0  -0.1592
  N  N295  1  0.985800  0.023500  0.295900  1.0  -0.159
  N  N296  1  0.985800  0.976500  0.704100  1.0  -0.1597
  N  N297  1  0.295900  0.014200  0.976500  1.0  -0.1632
  N  N298  1  0.704100  0.014200  0.023500  1.0  -0.161
  N  N299  1  0.295900  0.985800  0.023500  1.0  -0.1608
  N  N300  1  0.704100  0.985800  0.976500  1.0  -0.1628
  N  N301  1  0.795900  0.476500  0.514200  1.0  -0.1609
  N  N302  1  0.204100  0.523500  0.514200  1.0  -0.1598
  N  N303  1  0.795900  0.523500  0.485800  1.0  -0.1592
  N  N304  1  0.204100  0.476500  0.485800  1.0  -0.1598
  N  N305  1  0.476500  0.514200  0.795900  1.0  -0.157
  N  N306  1  0.523500  0.514200  0.204100  1.0  -0.158
  N  N307  1  0.523500  0.485800  0.795900  1.0  -0.1573
  N  N308  1  0.476500  0.485800  0.204100  1.0  -0.1567
  N  N309  1  0.514200  0.795900  0.476500  1.0  -0.1626
  N  N310  1  0.514200  0.204100  0.523500  1.0  -0.1608
  N  N311  1  0.485800  0.795900  0.523500  1.0  -0.1606
  N  N312  1  0.485800  0.204100  0.476500  1.0  -0.1625
  O  O313  1  0.827600  0.309900  0.177900  1.0  -0.6188
  O  O314  1  0.873900  0.278500  0.263300  1.0  -0.6338
  O  O315  1  0.148900  0.292300  0.166100  1.0  -0.6376
  O  O316  1  0.105200  0.258600  0.251700  1.0  -0.6277
  O  O317  1  0.172400  0.690100  0.177900  1.0  -0.62
  O  O318  1  0.126100  0.721500  0.263300  1.0  -0.6339
  O  O319  1  0.851100  0.707700  0.166100  1.0  -0.6369
  O  O320  1  0.894800  0.741400  0.251700  1.0  -0.6268
  O  O321  1  0.172400  0.309900  0.822100  1.0  -0.619
  O  O322  1  0.126100  0.278500  0.736700  1.0  -0.6347
  O  O323  1  0.851100  0.292300  0.833900  1.0  -0.6371
  O  O324  1  0.894800  0.258600  0.748300  1.0  -0.6274
  O  O325  1  0.827600  0.690100  0.822100  1.0  -0.6194
  O  O326  1  0.873900  0.721500  0.736700  1.0  -0.6333
  O  O327  1  0.148900  0.707700  0.833900  1.0  -0.6371
  O  O328  1  0.105200  0.741400  0.748300  1.0  -0.6276
  O  O329  1  0.177900  0.827600  0.309900  1.0  -0.6204
  O  O330  1  0.263300  0.873900  0.278500  1.0  -0.6334
  O  O331  1  0.166100  0.148900  0.292300  1.0  -0.6382
  O  O332  1  0.251700  0.105200  0.258600  1.0  -0.629
  O  O333  1  0.177900  0.172400  0.690100  1.0  -0.6201
  O  O334  1  0.263300  0.126100  0.721500  1.0  -0.6338
  O  O335  1  0.166100  0.851100  0.707700  1.0  -0.6373
  O  O336  1  0.251700  0.894800  0.741400  1.0  -0.6285
  O  O337  1  0.822100  0.172400  0.309900  1.0  -0.6206
  O  O338  1  0.736700  0.126100  0.278500  1.0  -0.6345
  O  O339  1  0.833900  0.851100  0.292300  1.0  -0.6394
  O  O340  1  0.748300  0.894800  0.258600  1.0  -0.6276
  O  O341  1  0.822100  0.827600  0.690100  1.0  -0.6207
  O  O342  1  0.736700  0.873900  0.721500  1.0  -0.6346
  O  O343  1  0.833900  0.148900  0.707700  1.0  -0.6391
  O  O344  1  0.748300  0.105200  0.741400  1.0  -0.6282
  O  O345  1  0.309900  0.177900  0.827600  1.0  -0.6205
  O  O346  1  0.278500  0.263300  0.873900  1.0  -0.6324
  O  O347  1  0.292300  0.166100  0.148900  1.0  -0.6391
  O  O348  1  0.258600  0.251700  0.105200  1.0  -0.6279
  O  O349  1  0.690100  0.177900  0.172400  1.0  -0.6207
  O  O350  1  0.721500  0.263300  0.126100  1.0  -0.6315
  O  O351  1  0.707700  0.166100  0.851100  1.0  -0.6383
  O  O352  1  0.741400  0.251700  0.894800  1.0  -0.6277
  O  O353  1  0.309900  0.822100  0.172400  1.0  -0.6206
  O  O354  1  0.278500  0.736700  0.126100  1.0  -0.632
  O  O355  1  0.292300  0.833900  0.851100  1.0  -0.6395
  O  O356  1  0.258600  0.748300  0.894800  1.0  -0.6275
  O  O357  1  0.690100  0.822100  0.827600  1.0  -0.62
  O  O358  1  0.721500  0.736700  0.873900  1.0  -0.6321
  O  O359  1  0.707700  0.833900  0.148900  1.0  -0.6397
  O  O360  1  0.741400  0.748300  0.105200  1.0  -0.6276
  O  O361  1  0.809900  0.327600  0.677900  1.0  -0.6199
  O  O362  1  0.778500  0.373900  0.763300  1.0  -0.633
  O  O363  1  0.792300  0.648900  0.666100  1.0  -0.639
  O  O364  1  0.758600  0.605200  0.751700  1.0  -0.6262
  O  O365  1  0.190100  0.672400  0.677900  1.0  -0.6193
  O  O366  1  0.221500  0.626100  0.763300  1.0  -0.6321
  O  O367  1  0.207700  0.351100  0.666100  1.0  -0.6385
  O  O368  1  0.241400  0.394800  0.751700  1.0  -0.6261
  O  O369  1  0.809900  0.672400  0.322100  1.0  -0.6191
  O  O370  1  0.778500  0.626100  0.236700  1.0  -0.6333
  O  O371  1  0.792300  0.351100  0.333900  1.0  -0.6385
  O  O372  1  0.758600  0.394800  0.248300  1.0  -0.6264
  O  O373  1  0.190100  0.327600  0.322100  1.0  -0.6196
  O  O374  1  0.221500  0.373900  0.236700  1.0  -0.6329
  O  O375  1  0.207700  0.648900  0.333900  1.0  -0.6395
  O  O376  1  0.241400  0.605200  0.248300  1.0  -0.6271
  O  O377  1  0.327600  0.677900  0.809900  1.0  -0.6206
  O  O378  1  0.373900  0.763300  0.778500  1.0  -0.6335
  O  O379  1  0.648900  0.666100  0.792300  1.0  -0.6387
  O  O380  1  0.605200  0.751700  0.758600  1.0  -0.63
  O  O381  1  0.672400  0.677900  0.190100  1.0  -0.6211
  O  O382  1  0.626100  0.763300  0.221500  1.0  -0.6353
  O  O383  1  0.351100  0.666100  0.207700  1.0  -0.6386
  O  O384  1  0.394800  0.751700  0.241400  1.0  -0.6299
  O  O385  1  0.672400  0.322100  0.809900  1.0  -0.6203
  O  O386  1  0.626100  0.236700  0.778500  1.0  -0.6347
  O  O387  1  0.351100  0.333900  0.792300  1.0  -0.6392
  O  O388  1  0.394800  0.248300  0.758600  1.0  -0.6298
  O  O389  1  0.327600  0.322100  0.190100  1.0  -0.6201
  O  O390  1  0.373900  0.236700  0.221500  1.0  -0.6349
  O  O391  1  0.648900  0.333900  0.207700  1.0  -0.6397
  O  O392  1  0.605200  0.248300  0.241400  1.0  -0.6299
  O  O393  1  0.677900  0.809900  0.327600  1.0  -0.6195
  O  O394  1  0.763300  0.778500  0.373900  1.0  -0.6334
  O  O395  1  0.666100  0.792300  0.648900  1.0  -0.6371
  O  O396  1  0.751700  0.758600  0.605200  1.0  -0.6287
  O  O397  1  0.677900  0.190100  0.672400  1.0  -0.6207
  O  O398  1  0.763300  0.221500  0.626100  1.0  -0.6326
  O  O399  1  0.666100  0.207700  0.351100  1.0  -0.6362
  O  O400  1  0.751700  0.241400  0.394800  1.0  -0.628
  O  O401  1  0.322100  0.809900  0.672400  1.0  -0.6206
  O  O402  1  0.236700  0.778500  0.626100  1.0  -0.6341
  O  O403  1  0.333900  0.792300  0.351100  1.0  -0.6376
  O  O404  1  0.248300  0.758600  0.394800  1.0  -0.6276
  O  O405  1  0.322100  0.190100  0.327600  1.0  -0.6207
  O  O406  1  0.236700  0.221500  0.373900  1.0  -0.6335
  O  O407  1  0.333900  0.207700  0.648900  1.0  -0.6383
  O  O408  1  0.248300  0.241400  0.605200  1.0  -0.6277
  O  O409  1  0.241500  0.241500  0.241500  1.0  -0.9259
  O  O410  1  0.758500  0.758500  0.241500  1.0  -0.9259
  O  O411  1  0.758500  0.241500  0.758500  1.0  -0.9256
  O  O412  1  0.241500  0.758500  0.758500  1.0  -0.9254
  O  O413  1  0.741500  0.741500  0.741500  1.0  -0.9259
  O  O414  1  0.258500  0.258500  0.741500  1.0  -0.9259
  O  O415  1  0.741500  0.258500  0.258500  1.0  -0.9254
  O  O416  1  0.258500  0.741500  0.258500  1.0  -0.9256
