# generated using pymatgen
data_Cu3H18C16(IN2)2
_symmetry_space_group_name_H-M   'P 1'
_cell_length_a   22.92000000
_cell_length_b   22.92000000
_cell_length_c   22.27000000
_cell_angle_alpha   90.00000000
_cell_angle_beta   90.00000000
_cell_angle_gamma   120.00000000
_symmetry_Int_Tables_number   1
_chemical_formula_structural   Cu3H18C16(IN2)2
_chemical_formula_sum   'Cu36 H216 C192 I24 N48'
_cell_volume   10131.64759100
_cell_formula_units_Z   12
loop_
 _symmetry_equiv_pos_site_id
 _symmetry_equiv_pos_as_xyz
  1  'x, y, z'
loop_
 _atom_site_type_symbol
 _atom_site_label
 _atom_site_symmetry_multiplicity
 _atom_site_fract_x
 _atom_site_fract_y
 _atom_site_fract_z
 _atom_site_occupancy
 _atom_site_charge
  Cu  Cu1  1  0.841540  0.575770  0.722450  1.0  0.1012
  Cu  Cu2  1  0.764750  0.481310  0.804280  1.0  0.094
  Cu  Cu3  1  0.424230  0.265770  0.389120  1.0  0.1
  Cu  Cu4  1  0.518690  0.283440  0.470950  1.0  0.0939
  Cu  Cu5  1  0.734230  0.158460  0.055780  1.0  0.0959
  Cu  Cu6  1  0.716560  0.235250  0.137610  1.0  0.0956
  Cu  Cu7  1  0.158460  0.424230  0.222450  1.0  0.1019
  Cu  Cu8  1  0.235250  0.518690  0.304280  1.0  0.0945
  Cu  Cu9  1  0.575770  0.734230  0.889120  1.0  0.0996
  Cu  Cu10  1  0.481310  0.716560  0.970950  1.0  0.0946
  Cu  Cu11  1  0.265770  0.841540  0.555780  1.0  0.0968
  Cu  Cu12  1  0.283440  0.764750  0.637610  1.0  0.0961
  Cu  Cu13  1  0.575770  0.841540  0.944220  1.0  0.0969
  Cu  Cu14  1  0.481310  0.764750  0.862390  1.0  0.096
  Cu  Cu15  1  0.265770  0.424230  0.277550  1.0  0.101
  Cu  Cu16  1  0.283440  0.518690  0.195720  1.0  0.0941
  Cu  Cu17  1  0.158460  0.734230  0.610880  1.0  0.1003
  Cu  Cu18  1  0.235250  0.716560  0.529050  1.0  0.0938
  Cu  Cu19  1  0.424230  0.158460  0.444220  1.0  0.0954
  Cu  Cu20  1  0.518690  0.235250  0.362390  1.0  0.0964
  Cu  Cu21  1  0.734230  0.575770  0.777550  1.0  0.1018
  Cu  Cu22  1  0.716560  0.481310  0.695720  1.0  0.0942
  Cu  Cu23  1  0.841540  0.265770  0.110880  1.0  0.0996
  Cu  Cu24  1  0.764750  0.283440  0.029050  1.0  0.095
  Cu  Cu25  1  0.083170  0.219760  0.392330  1.0  0.244
  Cu  Cu26  1  0.780240  0.863410  0.059000  1.0  0.2471
  Cu  Cu27  1  0.136590  0.916830  0.725660  1.0  0.2462
  Cu  Cu28  1  0.916830  0.780240  0.892330  1.0  0.2466
  Cu  Cu29  1  0.219760  0.136590  0.559000  1.0  0.244
  Cu  Cu30  1  0.863410  0.083170  0.225660  1.0  0.246
  Cu  Cu31  1  0.219760  0.083170  0.274340  1.0  0.2482
  Cu  Cu32  1  0.863410  0.780240  0.607670  1.0  0.2461
  Cu  Cu33  1  0.916830  0.136590  0.941000  1.0  0.2467
  Cu  Cu34  1  0.780240  0.916830  0.774340  1.0  0.2459
  Cu  Cu35  1  0.136590  0.219760  0.107670  1.0  0.2466
  Cu  Cu36  1  0.083170  0.863410  0.441000  1.0  0.2457
  H  H37  1  0.914200  0.609900  0.602000  1.0  0.062
  H  H38  1  0.923100  0.553100  0.632300  1.0  0.0551
  H  H39  1  0.972900  0.572800  0.731700  1.0  0.0593
  H  H40  1  0.984600  0.636500  0.767900  1.0  0.0738
  H  H41  1  0.968700  0.720100  0.723400  1.0  0.0791
  H  H42  1  0.932000  0.708500  0.661200  1.0  0.0835
  H  H43  1  0.687600  0.421100  0.917200  1.0  0.069
  H  H44  1  0.758600  0.476200  0.941400  1.0  0.069
  H  H45  1  0.859200  0.484200  0.897600  1.0  0.0565
  H  H46  1  0.852600  0.426500  0.855300  1.0  0.056
  H  H47  1  0.748600  0.345600  0.818800  1.0  0.0609
  H  H48  1  0.682700  0.337500  0.848200  1.0  0.0689
  H  H49  1  0.390100  0.304300  0.268670  1.0  0.0642
  H  H50  1  0.446900  0.370000  0.298970  1.0  0.0532
  H  H51  1  0.427200  0.400100  0.398370  1.0  0.0607
  H  H52  1  0.363500  0.348100  0.434570  1.0  0.0757
  H  H53  1  0.279900  0.248600  0.390070  1.0  0.0792
  H  H54  1  0.291500  0.223500  0.327870  1.0  0.0859
  H  H55  1  0.578900  0.266500  0.583870  1.0  0.0703
  H  H56  1  0.523800  0.282400  0.608070  1.0  0.0708
  H  H57  1  0.515800  0.375000  0.564270  1.0  0.0554
  H  H58  1  0.573500  0.426100  0.521970  1.0  0.0556
  H  H59  1  0.654400  0.403000  0.485470  1.0  0.0613
  H  H60  1  0.662500  0.345200  0.514870  1.0  0.0709
  H  H61  1  0.695700  0.085800  0.935330  1.0  0.0654
  H  H62  1  0.630000  0.076900  0.965630  1.0  0.0515
  H  H63  1  0.599900  0.027100  0.065030  1.0  0.0585
  H  H64  1  0.651900  0.015400  0.101230  1.0  0.0794
  H  H65  1  0.751400  0.031300  0.056730  1.0  0.0794
  H  H66  1  0.776500  0.068000  0.994530  1.0  0.0884
  H  H67  1  0.733500  0.312400  0.250530  1.0  0.0728
  H  H68  1  0.717600  0.241400  0.274730  1.0  0.0653
  H  H69  1  0.625000  0.140800  0.230930  1.0  0.0531
  H  H70  1  0.573900  0.147400  0.188630  1.0  0.056
  H  H71  1  0.597000  0.251400  0.152130  1.0  0.0616
  H  H72  1  0.654800  0.317300  0.181530  1.0  0.0731
  H  H73  1  0.085800  0.390100  0.102000  1.0  0.0632
  H  H74  1  0.076900  0.446900  0.132300  1.0  0.0565
  H  H75  1  0.027100  0.427200  0.231700  1.0  0.0613
  H  H76  1  0.015400  0.363500  0.267900  1.0  0.075
  H  H77  1  0.031300  0.279900  0.223400  1.0  0.0799
  H  H78  1  0.068000  0.291500  0.161200  1.0  0.083
  H  H79  1  0.312400  0.578900  0.417200  1.0  0.0693
  H  H80  1  0.241400  0.523800  0.441400  1.0  0.0669
  H  H81  1  0.140800  0.515800  0.397600  1.0  0.0543
  H  H82  1  0.147400  0.573500  0.355300  1.0  0.0542
  H  H83  1  0.251400  0.654400  0.318800  1.0  0.0617
  H  H84  1  0.317300  0.662500  0.348200  1.0  0.0702
  H  H85  1  0.609900  0.695700  0.768670  1.0  0.0652
  H  H86  1  0.553100  0.630000  0.798970  1.0  0.0506
  H  H87  1  0.572800  0.599900  0.898370  1.0  0.0613
  H  H88  1  0.636500  0.651900  0.934570  1.0  0.0778
  H  H89  1  0.720100  0.751400  0.890070  1.0  0.0789
  H  H90  1  0.708500  0.776500  0.827870  1.0  0.086
  H  H91  1  0.421100  0.733500  0.083870  1.0  0.0709
  H  H92  1  0.476200  0.717600  0.108070  1.0  0.0703
  H  H93  1  0.484200  0.625000  0.064270  1.0  0.0538
  H  H94  1  0.426500  0.573900  0.021970  1.0  0.0559
  H  H95  1  0.345600  0.597000  0.985470  1.0  0.0602
  H  H96  1  0.337500  0.654800  0.014870  1.0  0.0693
  H  H97  1  0.304300  0.914200  0.435330  1.0  0.0651
  H  H98  1  0.370000  0.923100  0.465630  1.0  0.0508
  H  H99  1  0.400100  0.972900  0.565030  1.0  0.0574
  H  H100  1  0.348100  0.984600  0.601230  1.0  0.0773
  H  H101  1  0.248600  0.968700  0.556730  1.0  0.079
  H  H102  1  0.223500  0.932000  0.494530  1.0  0.088
  H  H103  1  0.266500  0.687600  0.750530  1.0  0.0708
  H  H104  1  0.282400  0.758600  0.774730  1.0  0.068
  H  H105  1  0.375000  0.859200  0.730930  1.0  0.0507
  H  H106  1  0.426100  0.852600  0.688630  1.0  0.0571
  H  H107  1  0.403000  0.748600  0.652130  1.0  0.0612
  H  H108  1  0.345200  0.682700  0.681530  1.0  0.0695
  H  H109  1  0.609900  0.914200  0.064670  1.0  0.0654
  H  H110  1  0.553100  0.923100  0.034370  1.0  0.0505
  H  H111  1  0.572800  0.972900  0.934970  1.0  0.0566
  H  H112  1  0.636500  0.984600  0.898770  1.0  0.0764
  H  H113  1  0.720100  0.968700  0.943270  1.0  0.0779
  H  H114  1  0.708500  0.932000  0.005470  1.0  0.0883
  H  H115  1  0.421100  0.687600  0.749470  1.0  0.0712
  H  H116  1  0.476200  0.758600  0.725270  1.0  0.0638
  H  H117  1  0.484200  0.859200  0.769070  1.0  0.0533
  H  H118  1  0.426500  0.852600  0.811370  1.0  0.0561
  H  H119  1  0.345600  0.748600  0.847870  1.0  0.0603
  H  H120  1  0.337500  0.682700  0.818470  1.0  0.07
  H  H121  1  0.304300  0.390100  0.398000  1.0  0.0612
  H  H122  1  0.370000  0.446900  0.367700  1.0  0.056
  H  H123  1  0.400100  0.427200  0.268300  1.0  0.0591
  H  H124  1  0.348100  0.363500  0.232100  1.0  0.0733
  H  H125  1  0.248600  0.279900  0.276600  1.0  0.079
  H  H126  1  0.223500  0.291500  0.338800  1.0  0.0838
  H  H127  1  0.266500  0.578900  0.082800  1.0  0.0695
  H  H128  1  0.282400  0.523800  0.058600  1.0  0.0637
  H  H129  1  0.375000  0.515800  0.102400  1.0  0.0554
  H  H130  1  0.426100  0.573500  0.144700  1.0  0.055
  H  H131  1  0.403000  0.654400  0.181200  1.0  0.06
  H  H132  1  0.345200  0.662500  0.151800  1.0  0.0686
  H  H133  1  0.085800  0.695700  0.731330  1.0  0.0644
  H  H134  1  0.076900  0.630000  0.701030  1.0  0.0515
  H  H135  1  0.027100  0.599900  0.601630  1.0  0.0595
  H  H136  1  0.015400  0.651900  0.565430  1.0  0.0743
  H  H137  1  0.031300  0.751400  0.609930  1.0  0.0783
  H  H138  1  0.068000  0.776500  0.672130  1.0  0.0858
  H  H139  1  0.312400  0.733500  0.416130  1.0  0.0708
  H  H140  1  0.241400  0.717600  0.391930  1.0  0.0676
  H  H141  1  0.140800  0.625000  0.435730  1.0  0.0547
  H  H142  1  0.147400  0.573900  0.478030  1.0  0.0562
  H  H143  1  0.251400  0.597000  0.514530  1.0  0.0602
  H  H144  1  0.317300  0.654800  0.485130  1.0  0.0706
  H  H145  1  0.390100  0.085800  0.564670  1.0  0.064
  H  H146  1  0.446900  0.076900  0.534370  1.0  0.0516
  H  H147  1  0.427200  0.027100  0.434970  1.0  0.0564
  H  H148  1  0.363500  0.015400  0.398770  1.0  0.0768
  H  H149  1  0.279900  0.031300  0.443270  1.0  0.0786
  H  H150  1  0.291500  0.068000  0.505470  1.0  0.0891
  H  H151  1  0.578900  0.312400  0.249470  1.0  0.0729
  H  H152  1  0.523800  0.241400  0.225270  1.0  0.0657
  H  H153  1  0.515800  0.140800  0.269070  1.0  0.0503
  H  H154  1  0.573500  0.147400  0.311370  1.0  0.0568
  H  H155  1  0.654400  0.251400  0.347870  1.0  0.0601
  H  H156  1  0.662500  0.317300  0.318470  1.0  0.0718
  H  H157  1  0.695700  0.609900  0.898000  1.0  0.0633
  H  H158  1  0.630000  0.553100  0.867700  1.0  0.0532
  H  H159  1  0.599900  0.572800  0.768300  1.0  0.0567
  H  H160  1  0.651900  0.636500  0.732100  1.0  0.0721
  H  H161  1  0.751400  0.720100  0.776600  1.0  0.079
  H  H162  1  0.776500  0.708500  0.838800  1.0  0.0825
  H  H163  1  0.733500  0.421100  0.582800  1.0  0.0691
  H  H164  1  0.717600  0.476200  0.558600  1.0  0.0661
  H  H165  1  0.625000  0.484200  0.602400  1.0  0.0564
  H  H166  1  0.573900  0.426500  0.644700  1.0  0.0556
  H  H167  1  0.597000  0.345600  0.681200  1.0  0.0607
  H  H168  1  0.654800  0.337500  0.651800  1.0  0.0684
  H  H169  1  0.914200  0.304300  0.231330  1.0  0.0639
  H  H170  1  0.923100  0.370000  0.201030  1.0  0.0518
  H  H171  1  0.972900  0.400100  0.101630  1.0  0.0584
  H  H172  1  0.984600  0.348100  0.065430  1.0  0.0754
  H  H173  1  0.968700  0.248600  0.109930  1.0  0.0784
  H  H174  1  0.932000  0.223500  0.172130  1.0  0.0854
  H  H175  1  0.687600  0.266500  0.916130  1.0  0.0697
  H  H176  1  0.758600  0.282400  0.891930  1.0  0.0683
  H  H177  1  0.859200  0.375000  0.935730  1.0  0.0542
  H  H178  1  0.852600  0.426100  0.978030  1.0  0.0563
  H  H179  1  0.748600  0.403000  0.014530  1.0  0.0605
  H  H180  1  0.682700  0.345200  0.985130  1.0  0.0704
  H  H181  1  0.026600  0.091400  0.449300  1.0  0.0921
  H  H182  1  0.178200  0.358700  0.463300  1.0  0.0826
  H  H183  1  0.257100  0.433700  0.530800  1.0  0.0926
  H  H184  1  0.314700  0.398600  0.593300  1.0  0.0929
  H  H185  1  0.293300  0.288500  0.588200  1.0  0.0952
  H  H186  1  0.908600  0.935200  0.115970  1.0  0.0905
  H  H187  1  0.641300  0.819500  0.129970  1.0  0.0837
  H  H188  1  0.566300  0.823400  0.197470  1.0  0.0921
  H  H189  1  0.601400  0.916100  0.259970  1.0  0.0919
  H  H190  1  0.711500  0.004800  0.254870  1.0  0.0948
  H  H191  1  0.064800  0.973400  0.782630  1.0  0.0916
  H  H192  1  0.180500  0.821800  0.796630  1.0  0.0825
  H  H193  1  0.176600  0.742900  0.864130  1.0  0.0912
  H  H194  1  0.083900  0.685300  0.926630  1.0  0.0915
  H  H195  1  0.995200  0.706700  0.921530  1.0  0.0971
  H  H196  1  0.973400  0.908600  0.949300  1.0  0.0918
  H  H197  1  0.821800  0.641300  0.963300  1.0  0.0823
  H  H198  1  0.742900  0.566300  0.030800  1.0  0.093
  H  H199  1  0.685300  0.601400  0.093300  1.0  0.0926
  H  H200  1  0.706700  0.711500  0.088200  1.0  0.0954
  H  H201  1  0.091400  0.064800  0.615970  1.0  0.0905
  H  H202  1  0.358700  0.180500  0.629970  1.0  0.0839
  H  H203  1  0.433700  0.176600  0.697470  1.0  0.0923
  H  H204  1  0.398600  0.083900  0.759970  1.0  0.0918
  H  H205  1  0.288500  0.995200  0.754870  1.0  0.096
  H  H206  1  0.935200  0.026600  0.282630  1.0  0.0921
  H  H207  1  0.819500  0.178200  0.296630  1.0  0.0825
  H  H208  1  0.823400  0.257100  0.364130  1.0  0.0927
  H  H209  1  0.916100  0.314700  0.426630  1.0  0.0922
  H  H210  1  0.004800  0.293300  0.421530  1.0  0.0947
  H  H211  1  0.091400  0.026600  0.217370  1.0  0.0913
  H  H212  1  0.358700  0.178200  0.203370  1.0  0.0825
  H  H213  1  0.433700  0.257100  0.135870  1.0  0.0913
  H  H214  1  0.398600  0.314700  0.073370  1.0  0.0912
  H  H215  1  0.288500  0.293300  0.078470  1.0  0.0955
  H  H216  1  0.935200  0.908600  0.550700  1.0  0.0917
  H  H217  1  0.819500  0.641300  0.536700  1.0  0.0821
  H  H218  1  0.823400  0.566300  0.469200  1.0  0.0929
  H  H219  1  0.916100  0.601400  0.406700  1.0  0.0911
  H  H220  1  0.004800  0.711500  0.411800  1.0  0.095
  H  H221  1  0.973400  0.064800  0.884030  1.0  0.0901
  H  H222  1  0.821800  0.180500  0.870030  1.0  0.0831
  H  H223  1  0.742900  0.176600  0.802530  1.0  0.0924
  H  H224  1  0.685300  0.083900  0.740030  1.0  0.0904
  H  H225  1  0.706700  0.995200  0.745130  1.0  0.0946
  H  H226  1  0.908600  0.973400  0.717370  1.0  0.0921
  H  H227  1  0.641300  0.821800  0.703370  1.0  0.0822
  H  H228  1  0.566300  0.742900  0.635870  1.0  0.0918
  H  H229  1  0.601400  0.685300  0.573370  1.0  0.0904
  H  H230  1  0.711500  0.706700  0.578470  1.0  0.0944
  H  H231  1  0.064800  0.091400  0.050700  1.0  0.0917
  H  H232  1  0.180500  0.358700  0.036700  1.0  0.0825
  H  H233  1  0.176600  0.433700  0.969200  1.0  0.0925
  H  H234  1  0.083900  0.398600  0.906700  1.0  0.0907
  H  H235  1  0.995200  0.288500  0.911800  1.0  0.095
  H  H236  1  0.026600  0.935200  0.384030  1.0  0.09
  H  H237  1  0.178200  0.819500  0.370030  1.0  0.0834
  H  H238  1  0.257100  0.823400  0.302530  1.0  0.0917
  H  H239  1  0.314700  0.916100  0.240030  1.0  0.0909
  H  H240  1  0.293300  0.004800  0.245130  1.0  0.0955
  H  H241  1  0.199400  0.099700  0.416670  1.0  0.0411
  H  H242  1  0.970900  0.985450  0.416670  1.0  0.0985
  H  H243  1  0.900300  0.099700  0.083330  1.0  0.0413
  H  H244  1  0.014550  0.985450  0.083330  1.0  0.0947
  H  H245  1  0.900300  0.800600  0.750000  1.0  0.0402
  H  H246  1  0.014550  0.029100  0.750000  1.0  0.0932
  H  H247  1  0.800600  0.900300  0.916670  1.0  0.0417
  H  H248  1  0.029100  0.014550  0.916670  1.0  0.0941
  H  H249  1  0.099700  0.900300  0.583330  1.0  0.0416
  H  H250  1  0.985450  0.014550  0.583330  1.0  0.0983
  H  H251  1  0.099700  0.199400  0.250000  1.0  0.0396
  H  H252  1  0.985450  0.970900  0.250000  1.0  0.0964
  C  C253  1  0.941700  0.601500  0.629900  1.0  -0.0258
  C  C254  1  0.986100  0.620000  0.728200  1.0  -0.0376
  C  C255  1  0.963900  0.700900  0.683600  1.0  -0.099
  C  C256  1  0.732600  0.430200  0.927000  1.0  -0.0767
  C  C257  1  0.832200  0.436400  0.889000  1.0  -0.001
  C  C258  1  0.729500  0.351000  0.855800  1.0  -0.0551
  C  C259  1  0.398500  0.340200  0.296570  1.0  -0.0234
  C  C260  1  0.380000  0.366100  0.394870  1.0  -0.0364
  C  C261  1  0.299100  0.263000  0.350270  1.0  -0.0955
  C  C262  1  0.569800  0.302400  0.593670  1.0  -0.0774
  C  C263  1  0.563600  0.395800  0.555670  1.0  0.0006
  C  C264  1  0.649000  0.378500  0.522470  1.0  -0.0547
  C  C265  1  0.659800  0.058300  0.963230  1.0  -0.0275
  C  C266  1  0.633900  0.013900  0.061530  1.0  -0.0354
  C  C267  1  0.737000  0.036100  0.016930  1.0  -0.0982
  C  C268  1  0.697600  0.267400  0.260330  1.0  -0.0766
  C  C269  1  0.604200  0.167800  0.222330  1.0  -0.0059
  C  C270  1  0.621500  0.270500  0.189130  1.0  -0.0555
  C  C271  1  0.058300  0.398500  0.129900  1.0  -0.0278
  C  C272  1  0.013900  0.380000  0.228200  1.0  -0.0374
  C  C273  1  0.036100  0.299100  0.183600  1.0  -0.0987
  C  C274  1  0.267400  0.569800  0.427000  1.0  -0.0785
  C  C275  1  0.167800  0.563600  0.389000  1.0  -0.0027
  C  C276  1  0.270500  0.649000  0.355800  1.0  -0.0554
  C  C277  1  0.601500  0.659800  0.796570  1.0  -0.0242
  C  C278  1  0.620000  0.633900  0.894870  1.0  -0.0357
  C  C279  1  0.700900  0.737000  0.850270  1.0  -0.0972
  C  C280  1  0.430200  0.697600  0.093670  1.0  -0.0779
  C  C281  1  0.436400  0.604200  0.055670  1.0  0.0017
  C  C282  1  0.351000  0.621500  0.022470  1.0  -0.0556
  C  C283  1  0.340200  0.941700  0.463230  1.0  -0.0284
  C  C284  1  0.366100  0.986100  0.561530  1.0  -0.0348
  C  C285  1  0.263000  0.963900  0.516930  1.0  -0.0997
  C  C286  1  0.302400  0.732600  0.760330  1.0  -0.0785
  C  C287  1  0.395800  0.832200  0.722330  1.0  -0.0037
  C  C288  1  0.378500  0.729500  0.689130  1.0  -0.0555
  C  C289  1  0.601500  0.941700  0.036770  1.0  -0.026
  C  C290  1  0.620000  0.986100  0.938470  1.0  -0.04
  C  C291  1  0.700900  0.963900  0.983070  1.0  -0.1021
  C  C292  1  0.430200  0.732600  0.739670  1.0  -0.0779
  C  C293  1  0.436400  0.832200  0.777670  1.0  -0.0023
  C  C294  1  0.351000  0.729500  0.810870  1.0  -0.0555
  C  C295  1  0.340200  0.398500  0.370100  1.0  -0.0259
  C  C296  1  0.366100  0.380000  0.271800  1.0  -0.0413
  C  C297  1  0.263000  0.299100  0.316400  1.0  -0.1006
  C  C298  1  0.302400  0.569800  0.073000  1.0  -0.0765
  C  C299  1  0.395800  0.563600  0.111000  1.0  -0.0007
  C  C300  1  0.378500  0.649000  0.144200  1.0  -0.056
  C  C301  1  0.058300  0.659800  0.703430  1.0  -0.0216
  C  C302  1  0.013900  0.633900  0.605130  1.0  -0.0415
  C  C303  1  0.036100  0.737000  0.649730  1.0  -0.0983
  C  C304  1  0.267400  0.697600  0.406330  1.0  -0.0779
  C  C305  1  0.167800  0.604200  0.444330  1.0  0.0026
  C  C306  1  0.270500  0.621500  0.477530  1.0  -0.0545
  C  C307  1  0.398500  0.058300  0.536770  1.0  -0.0245
  C  C308  1  0.380000  0.013900  0.438470  1.0  -0.0401
  C  C309  1  0.299100  0.036100  0.483070  1.0  -0.1002
  C  C310  1  0.569800  0.267400  0.239670  1.0  -0.0776
  C  C311  1  0.563600  0.167800  0.277670  1.0  -0.0034
  C  C312  1  0.649000  0.270500  0.310870  1.0  -0.0564
  C  C313  1  0.659800  0.601500  0.870100  1.0  -0.0251
  C  C314  1  0.633900  0.620000  0.771800  1.0  -0.0418
  C  C315  1  0.737000  0.700900  0.816400  1.0  -0.0993
  C  C316  1  0.697600  0.430200  0.573000  1.0  -0.0764
  C  C317  1  0.604200  0.436400  0.611000  1.0  -0.0002
  C  C318  1  0.621500  0.351000  0.644200  1.0  -0.0554
  C  C319  1  0.941700  0.340200  0.203430  1.0  -0.0237
  C  C320  1  0.986100  0.366100  0.105130  1.0  -0.0395
  C  C321  1  0.963900  0.263000  0.149730  1.0  -0.0977
  C  C322  1  0.732600  0.302400  0.906330  1.0  -0.0777
  C  C323  1  0.832200  0.395800  0.944330  1.0  0.0048
  C  C324  1  0.729500  0.378500  0.977530  1.0  -0.0534
  C  C325  1  0.121800  0.106300  0.440400  1.0  0.049
  C  C326  1  0.050500  0.070500  0.436900  1.0  -0.148
  C  C327  1  0.157600  0.176000  0.465700  1.0  0.3309
  C  C328  1  0.222900  0.257700  0.522700  1.0  0.1794
  C  C329  1  0.188400  0.278700  0.485300  1.0  0.1125
  C  C330  1  0.201200  0.344600  0.488300  1.0  -0.0772
  C  C331  1  0.248500  0.389600  0.528800  1.0  -0.1108
  C  C332  1  0.283000  0.368600  0.566200  1.0  -0.0991
  C  C333  1  0.270200  0.302600  0.563200  1.0  -0.1064
  C  C334  1  0.893700  0.015500  0.107070  1.0  0.0477
  C  C335  1  0.929500  0.980000  0.103570  1.0  -0.156
  C  C336  1  0.824000  0.981600  0.132370  1.0  0.3305
  C  C337  1  0.742300  0.965200  0.189370  1.0  0.1798
  C  C338  1  0.721300  0.909700  0.151970  1.0  0.1116
  C  C339  1  0.655400  0.856600  0.154970  1.0  -0.0814
  C  C340  1  0.610400  0.858900  0.195470  1.0  -0.1108
  C  C341  1  0.631400  0.914400  0.232870  1.0  -0.1012
  C  C342  1  0.697400  0.967600  0.229870  1.0  -0.1081
  C  C343  1  0.984500  0.878200  0.773730  1.0  0.0487
  C  C344  1  0.020000  0.949500  0.770230  1.0  -0.1558
  C  C345  1  0.018400  0.842400  0.799030  1.0  0.3294
  C  C346  1  0.034800  0.777100  0.856030  1.0  0.1782
  C  C347  1  0.090300  0.811600  0.818630  1.0  0.1108
  C  C348  1  0.143400  0.798800  0.821630  1.0  -0.0818
  C  C349  1  0.141100  0.751500  0.862130  1.0  -0.1122
  C  C350  1  0.085600  0.717000  0.899530  1.0  -0.1007
  C  C351  1  0.032400  0.729800  0.896530  1.0  -0.1069
  C  C352  1  0.878200  0.893700  0.940400  1.0  0.0491
  C  C353  1  0.949500  0.929500  0.936900  1.0  -0.1517
  C  C354  1  0.842400  0.824000  0.965700  1.0  0.3306
  C  C355  1  0.777100  0.742300  0.022700  1.0  0.1787
  C  C356  1  0.811600  0.721300  0.985300  1.0  0.1085
  C  C357  1  0.798800  0.655400  0.988300  1.0  -0.0782
  C  C358  1  0.751500  0.610400  0.028800  1.0  -0.1111
  C  C359  1  0.717000  0.631400  0.066200  1.0  -0.103
  C  C360  1  0.729800  0.697400  0.063200  1.0  -0.1086
  C  C361  1  0.106300  0.984500  0.607070  1.0  0.0474
  C  C362  1  0.070500  0.020000  0.603570  1.0  -0.1561
  C  C363  1  0.176000  0.018400  0.632370  1.0  0.3305
  C  C364  1  0.257700  0.034800  0.689370  1.0  0.1794
  C  C365  1  0.278700  0.090300  0.651970  1.0  0.1138
  C  C366  1  0.344600  0.143400  0.654970  1.0  -0.0824
  C  C367  1  0.389600  0.141100  0.695470  1.0  -0.1107
  C  C368  1  0.368600  0.085600  0.732870  1.0  -0.0999
  C  C369  1  0.302600  0.032400  0.729870  1.0  -0.1062
  C  C370  1  0.015500  0.121800  0.273730  1.0  0.0489
  C  C371  1  0.980000  0.050500  0.270230  1.0  -0.1535
  C  C372  1  0.981600  0.157600  0.299030  1.0  0.329
  C  C373  1  0.965200  0.222900  0.356030  1.0  0.1777
  C  C374  1  0.909700  0.188400  0.318630  1.0  0.1132
  C  C375  1  0.856600  0.201200  0.321630  1.0  -0.0822
  C  C376  1  0.858900  0.248500  0.362130  1.0  -0.1138
  C  C377  1  0.914400  0.283000  0.399530  1.0  -0.1005
  C  C378  1  0.967600  0.270200  0.396530  1.0  -0.103
  C  C379  1  0.106300  0.121800  0.226270  1.0  0.0501
  C  C380  1  0.070500  0.050500  0.229770  1.0  -0.1563
  C  C381  1  0.176000  0.157600  0.200970  1.0  0.3289
  C  C382  1  0.257700  0.222900  0.143970  1.0  0.1784
  C  C383  1  0.278700  0.188400  0.181370  1.0  0.11
  C  C384  1  0.344600  0.201200  0.178370  1.0  -0.0794
  C  C385  1  0.389600  0.248500  0.137870  1.0  -0.1124
  C  C386  1  0.368600  0.283000  0.100470  1.0  -0.1038
  C  C387  1  0.302600  0.270200  0.103470  1.0  -0.1042
  C  C388  1  0.015500  0.893700  0.559600  1.0  0.0495
  C  C389  1  0.980000  0.929500  0.563100  1.0  -0.1508
  C  C390  1  0.981600  0.824000  0.534300  1.0  0.3303
  C  C391  1  0.965200  0.742300  0.477300  1.0  0.1794
  C  C392  1  0.909700  0.721300  0.514700  1.0  0.1116
  C  C393  1  0.856600  0.655400  0.511700  1.0  -0.0743
  C  C394  1  0.858900  0.610400  0.471200  1.0  -0.1107
  C  C395  1  0.914400  0.631400  0.433800  1.0  -0.1031
  C  C396  1  0.967600  0.697400  0.436800  1.0  -0.1071
  C  C397  1  0.878200  0.984500  0.892930  1.0  0.048
  C  C398  1  0.949500  0.020000  0.896430  1.0  -0.1568
  C  C399  1  0.842400  0.018400  0.867630  1.0  0.3298
  C  C400  1  0.777100  0.034800  0.810630  1.0  0.1807
  C  C401  1  0.811600  0.090300  0.848030  1.0  0.1127
  C  C402  1  0.798800  0.143400  0.845030  1.0  -0.0808
  C  C403  1  0.751500  0.141100  0.804530  1.0  -0.1115
  C  C404  1  0.717000  0.085600  0.767130  1.0  -0.1023
  C  C405  1  0.729800  0.032400  0.770130  1.0  -0.1052
  C  C406  1  0.893700  0.878200  0.726270  1.0  0.0487
  C  C407  1  0.929500  0.949500  0.729770  1.0  -0.1553
  C  C408  1  0.824000  0.842400  0.700970  1.0  0.3287
  C  C409  1  0.742300  0.777100  0.643970  1.0  0.179
  C  C410  1  0.721300  0.811600  0.681370  1.0  0.1137
  C  C411  1  0.655400  0.798800  0.678370  1.0  -0.0814
  C  C412  1  0.610400  0.751500  0.637870  1.0  -0.1135
  C  C413  1  0.631400  0.717000  0.600470  1.0  -0.1023
  C  C414  1  0.697400  0.729800  0.603470  1.0  -0.1051
  C  C415  1  0.984500  0.106300  0.059600  1.0  0.0494
  C  C416  1  0.020000  0.070500  0.063100  1.0  -0.1516
  C  C417  1  0.018400  0.176000  0.034300  1.0  0.3304
  C  C418  1  0.034800  0.257700  0.977300  1.0  0.1802
  C  C419  1  0.090300  0.278700  0.014700  1.0  0.1071
  C  C420  1  0.143400  0.344600  0.011700  1.0  -0.0737
  C  C421  1  0.141100  0.389600  0.971200  1.0  -0.1132
  C  C422  1  0.085600  0.368600  0.933800  1.0  -0.1032
  C  C423  1  0.032400  0.302600  0.936800  1.0  -0.1058
  C  C424  1  0.121800  0.015500  0.392930  1.0  0.0483
  C  C425  1  0.050500  0.980000  0.396430  1.0  -0.1577
  C  C426  1  0.157600  0.981600  0.367630  1.0  0.3302
  C  C427  1  0.222900  0.965200  0.310630  1.0  0.18
  C  C428  1  0.188400  0.909700  0.348030  1.0  0.113
  C  C429  1  0.201200  0.856600  0.345030  1.0  -0.079
  C  C430  1  0.248500  0.858900  0.304530  1.0  -0.1122
  C  C431  1  0.283000  0.914400  0.267130  1.0  -0.1027
  C  C432  1  0.270200  0.967600  0.270130  1.0  -0.1066
  C  C433  1  0.152600  0.076300  0.416670  1.0  -0.0667
  C  C434  1  0.017800  0.008900  0.416670  1.0  -0.0662
  C  C435  1  0.923700  0.076300  0.083330  1.0  -0.0665
  C  C436  1  0.991100  0.008900  0.083330  1.0  -0.0631
  C  C437  1  0.923700  0.847400  0.750000  1.0  -0.0651
  C  C438  1  0.991100  0.982200  0.750000  1.0  -0.0583
  C  C439  1  0.847400  0.923700  0.916670  1.0  -0.0656
  C  C440  1  0.982200  0.991100  0.916670  1.0  -0.0623
  C  C441  1  0.076300  0.923700  0.583330  1.0  -0.0659
  C  C442  1  0.008900  0.991100  0.583330  1.0  -0.0657
  C  C443  1  0.076300  0.152600  0.250000  1.0  -0.0669
  C  C444  1  0.008900  0.017800  0.250000  1.0  -0.0612
  I  I445  1  0.846750  0.609460  0.837890  1.0  -0.2754
  I  I446  1  0.810500  0.444760  0.708910  1.0  -0.2687
  I  I447  1  0.390540  0.237290  0.504560  1.0  -0.2755
  I  I448  1  0.555240  0.365740  0.375580  1.0  -0.2657
  I  I449  1  0.762710  0.153250  0.171220  1.0  -0.2761
  I  I450  1  0.634260  0.189500  0.042240  1.0  -0.2686
  I  I451  1  0.153250  0.390540  0.337890  1.0  -0.2767
  I  I452  1  0.189500  0.555240  0.208910  1.0  -0.2673
  I  I453  1  0.609460  0.762710  0.004560  1.0  -0.2754
  I  I454  1  0.444760  0.634260  0.875580  1.0  -0.2687
  I  I455  1  0.237290  0.846750  0.671220  1.0  -0.2749
  I  I456  1  0.365740  0.810500  0.542240  1.0  -0.2658
  I  I457  1  0.609460  0.846750  0.828780  1.0  -0.2765
  I  I458  1  0.444760  0.810500  0.957760  1.0  -0.2672
  I  I459  1  0.237290  0.390540  0.162110  1.0  -0.2767
  I  I460  1  0.365740  0.555240  0.291090  1.0  -0.265
  I  I461  1  0.153250  0.762710  0.495440  1.0  -0.2763
  I  I462  1  0.189500  0.634260  0.624420  1.0  -0.2674
  I  I463  1  0.390540  0.153250  0.328780  1.0  -0.276
  I  I464  1  0.555240  0.189500  0.457760  1.0  -0.2657
  I  I465  1  0.762710  0.609460  0.662110  1.0  -0.2773
  I  I466  1  0.634260  0.444760  0.791090  1.0  -0.2672
  I  I467  1  0.846750  0.237290  0.995440  1.0  -0.2768
  I  I468  1  0.810500  0.365740  0.124420  1.0  -0.266
  N  N469  1  0.938000  0.626600  0.688600  1.0  -0.1416
  N  N470  1  0.765200  0.420600  0.873300  1.0  -0.137
  N  N471  1  0.373400  0.311400  0.355270  1.0  -0.1415
  N  N472  1  0.579400  0.344600  0.539970  1.0  -0.1381
  N  N473  1  0.688600  0.062000  0.021930  1.0  -0.1438
  N  N474  1  0.655400  0.234800  0.206630  1.0  -0.1375
  N  N475  1  0.062000  0.373400  0.188600  1.0  -0.1426
  N  N476  1  0.234800  0.579400  0.373300  1.0  -0.1387
  N  N477  1  0.626600  0.688600  0.855270  1.0  -0.1424
  N  N478  1  0.420600  0.655400  0.039970  1.0  -0.1358
  N  N479  1  0.311400  0.938000  0.521930  1.0  -0.143
  N  N480  1  0.344600  0.765200  0.706630  1.0  -0.1393
  N  N481  1  0.626600  0.938000  0.978070  1.0  -0.1446
  N  N482  1  0.420600  0.765200  0.793370  1.0  -0.137
  N  N483  1  0.311400  0.373400  0.311400  1.0  -0.1423
  N  N484  1  0.344600  0.579400  0.126700  1.0  -0.1377
  N  N485  1  0.062000  0.688600  0.644730  1.0  -0.1434
  N  N486  1  0.234800  0.655400  0.460030  1.0  -0.1364
  N  N487  1  0.373400  0.062000  0.478070  1.0  -0.1434
  N  N488  1  0.579400  0.234800  0.293370  1.0  -0.1389
  N  N489  1  0.688600  0.626600  0.811400  1.0  -0.1428
  N  N490  1  0.655400  0.420600  0.626700  1.0  -0.1359
  N  N491  1  0.938000  0.311400  0.144730  1.0  -0.142
  N  N492  1  0.765200  0.344600  0.960030  1.0  -0.1359
  N  N493  1  0.146900  0.225300  0.450200  1.0  -0.3009
  N  N494  1  0.203400  0.193500  0.510300  1.0  -0.3893
  N  N495  1  0.774700  0.921600  0.116870  1.0  -0.3016
  N  N496  1  0.806500  0.009900  0.176970  1.0  -0.386
  N  N497  1  0.078400  0.853100  0.783530  1.0  -0.2983
  N  N498  1  0.990100  0.796600  0.843630  1.0  -0.3884
  N  N499  1  0.853100  0.774700  0.950200  1.0  -0.3018
  N  N500  1  0.796600  0.806500  0.010300  1.0  -0.3886
  N  N501  1  0.225300  0.078400  0.616870  1.0  -0.2984
  N  N502  1  0.193500  0.990100  0.676970  1.0  -0.3867
  N  N503  1  0.921600  0.146900  0.283530  1.0  -0.3011
  N  N504  1  0.009900  0.203400  0.343630  1.0  -0.3902
  N  N505  1  0.225300  0.146900  0.216470  1.0  -0.3017
  N  N506  1  0.193500  0.203400  0.156370  1.0  -0.3872
  N  N507  1  0.921600  0.774700  0.549800  1.0  -0.2998
  N  N508  1  0.009900  0.806500  0.489700  1.0  -0.3884
  N  N509  1  0.853100  0.078400  0.883130  1.0  -0.2997
  N  N510  1  0.796600  0.990100  0.823030  1.0  -0.3855
  N  N511  1  0.774700  0.853100  0.716470  1.0  -0.2971
  N  N512  1  0.806500  0.796600  0.656370  1.0  -0.3902
  N  N513  1  0.078400  0.225300  0.049800  1.0  -0.3012
  N  N514  1  0.990100  0.193500  0.989700  1.0  -0.3875
  N  N515  1  0.146900  0.921600  0.383130  1.0  -0.3022
  N  N516  1  0.203400  0.009900  0.323030  1.0  -0.3848
