# generated using pymatgen
data_Mg3H39C72N6O13
_symmetry_space_group_name_H-M   'P 1'
_cell_length_a   31.84800000
_cell_length_b   31.84800000
_cell_length_c   16.88300000
_cell_angle_alpha   90.00000000
_cell_angle_beta   90.00000000
_cell_angle_gamma   120.00000000
_symmetry_Int_Tables_number   1
_chemical_formula_structural   Mg3H39C72N6O13
_chemical_formula_sum   'Mg6 H78 C144 N12 O26'
_cell_volume   14830.11713571
_cell_formula_units_Z   2
loop_
 _symmetry_equiv_pos_site_id
 _symmetry_equiv_pos_as_xyz
  1  'x, y, z'
loop_
 _atom_site_type_symbol
 _atom_site_label
 _atom_site_symmetry_multiplicity
 _atom_site_fract_x
 _atom_site_fract_y
 _atom_site_fract_z
 _atom_site_occupancy
 _atom_site_charge
  Mg  Mg1  1  0.297400  0.594800  0.500000  1.0  1.5877
  Mg  Mg2  1  0.405200  0.702600  0.500000  1.0  1.5888
  Mg  Mg3  1  0.297400  0.702600  0.500000  1.0  1.5877
  Mg  Mg4  1  0.702600  0.405200  0.500000  1.0  1.5893
  Mg  Mg5  1  0.594800  0.297400  0.500000  1.0  1.5881
  Mg  Mg6  1  0.702600  0.297400  0.500000  1.0  1.5893
  H  H7  1  0.191800  0.534100  0.313900  1.0  0.0918
  H  H8  1  0.129600  0.502300  0.224500  1.0  0.103
  H  H9  1  0.465900  0.657700  0.313900  1.0  0.0921
  H  H10  1  0.497700  0.627300  0.224500  1.0  0.1049
  H  H11  1  0.342300  0.808200  0.313900  1.0  0.0916
  H  H12  1  0.372700  0.870400  0.224500  1.0  0.1047
  H  H13  1  0.808200  0.465900  0.313900  1.0  0.0922
  H  H14  1  0.870400  0.497700  0.224500  1.0  0.1033
  H  H15  1  0.534100  0.342300  0.313900  1.0  0.0927
  H  H16  1  0.502300  0.372700  0.224500  1.0  0.1045
  H  H17  1  0.657700  0.191800  0.313900  1.0  0.0926
  H  H18  1  0.627300  0.129600  0.224500  1.0  0.1042
  H  H19  1  0.534100  0.191800  0.686100  1.0  0.0917
  H  H20  1  0.502300  0.129600  0.775500  1.0  0.1048
  H  H21  1  0.657700  0.465900  0.686100  1.0  0.0924
  H  H22  1  0.627300  0.497700  0.775500  1.0  0.1027
  H  H23  1  0.808200  0.342300  0.686100  1.0  0.093
  H  H24  1  0.870400  0.372700  0.775500  1.0  0.1048
  H  H25  1  0.465900  0.808200  0.686100  1.0  0.0927
  H  H26  1  0.497700  0.870400  0.775500  1.0  0.1037
  H  H27  1  0.342300  0.534100  0.686100  1.0  0.0916
  H  H28  1  0.372700  0.502300  0.775500  1.0  0.1032
  H  H29  1  0.191800  0.657700  0.686100  1.0  0.0923
  H  H30  1  0.129600  0.627300  0.775500  1.0  0.1048
  H  H31  1  0.808200  0.465900  0.686100  1.0  0.0924
  H  H32  1  0.870400  0.497700  0.775500  1.0  0.1031
  H  H33  1  0.534100  0.342300  0.686100  1.0  0.0927
  H  H34  1  0.502300  0.372700  0.775500  1.0  0.1045
  H  H35  1  0.657700  0.191800  0.686100  1.0  0.0928
  H  H36  1  0.627300  0.129600  0.775500  1.0  0.1041
  H  H37  1  0.191800  0.534100  0.686100  1.0  0.092
  H  H38  1  0.129600  0.502300  0.775500  1.0  0.1029
  H  H39  1  0.465900  0.657700  0.686100  1.0  0.0923
  H  H40  1  0.497700  0.627300  0.775500  1.0  0.1048
  H  H41  1  0.342300  0.808200  0.686100  1.0  0.0915
  H  H42  1  0.372700  0.870400  0.775500  1.0  0.1044
  H  H43  1  0.465900  0.808200  0.313900  1.0  0.0927
  H  H44  1  0.497700  0.870400  0.224500  1.0  0.104
  H  H45  1  0.342300  0.534100  0.313900  1.0  0.0916
  H  H46  1  0.372700  0.502300  0.224500  1.0  0.1031
  H  H47  1  0.191800  0.657700  0.313900  1.0  0.092
  H  H48  1  0.129600  0.627300  0.224500  1.0  0.1051
  H  H49  1  0.534100  0.191800  0.313900  1.0  0.0916
  H  H50  1  0.502300  0.129600  0.224500  1.0  0.1052
  H  H51  1  0.657700  0.465900  0.313900  1.0  0.092
  H  H52  1  0.627300  0.497700  0.224500  1.0  0.103
  H  H53  1  0.808200  0.342300  0.313900  1.0  0.0927
  H  H54  1  0.870400  0.372700  0.224500  1.0  0.1047
  H  H55  1  0.180600  0.590300  0.072400  1.0  0.1041
  H  H56  1  0.044600  0.522300  0.292600  1.0  0.1052
  H  H57  1  0.409700  0.590300  0.072400  1.0  0.1047
  H  H58  1  0.477700  0.522300  0.292600  1.0  0.1056
  H  H59  1  0.409700  0.819400  0.072400  1.0  0.1052
  H  H60  1  0.477700  0.955400  0.292600  1.0  0.1052
  H  H61  1  0.819400  0.409700  0.072400  1.0  0.1052
  H  H62  1  0.955400  0.477700  0.292600  1.0  0.1054
  H  H63  1  0.590300  0.409700  0.072400  1.0  0.1044
  H  H64  1  0.522300  0.477700  0.292600  1.0  0.1051
  H  H65  1  0.590300  0.180600  0.072400  1.0  0.1042
  H  H66  1  0.522300  0.044600  0.292600  1.0  0.1053
  H  H67  1  0.590300  0.180600  0.927600  1.0  0.1048
  H  H68  1  0.522300  0.044600  0.707400  1.0  0.1065
  H  H69  1  0.590300  0.409700  0.927600  1.0  0.1043
  H  H70  1  0.522300  0.477700  0.707400  1.0  0.1064
  H  H71  1  0.819400  0.409700  0.927600  1.0  0.1052
  H  H72  1  0.955400  0.477700  0.707400  1.0  0.1064
  H  H73  1  0.409700  0.819400  0.927600  1.0  0.1054
  H  H74  1  0.477700  0.955400  0.707400  1.0  0.1062
  H  H75  1  0.409700  0.590300  0.927600  1.0  0.1052
  H  H76  1  0.477700  0.522300  0.707400  1.0  0.1068
  H  H77  1  0.180600  0.590300  0.927600  1.0  0.1044
  H  H78  1  0.044600  0.522300  0.707400  1.0  0.1066
  H  H79  1  0.000000  0.500000  0.070500  1.0  0.2677
  H  H80  1  0.500000  0.500000  0.070500  1.0  0.2677
  H  H81  1  0.500000  0.000000  0.070500  1.0  0.2677
  H  H82  1  0.500000  0.000000  0.929500  1.0  0.2685
  H  H83  1  0.500000  0.500000  0.929500  1.0  0.2685
  H  H84  1  0.000000  0.500000  0.929500  1.0  0.2685
  C  C85  1  0.179400  0.553200  0.295500  1.0  -0.0307
  C  C86  1  0.143000  0.534500  0.240300  1.0  -0.1798
  C  C87  1  0.446800  0.626200  0.295500  1.0  -0.031
  C  C88  1  0.465500  0.608500  0.240300  1.0  -0.1835
  C  C89  1  0.373800  0.820600  0.295500  1.0  -0.0277
  C  C90  1  0.391500  0.857000  0.240300  1.0  -0.182
  C  C91  1  0.820600  0.446800  0.295500  1.0  -0.0318
  C  C92  1  0.857000  0.465500  0.240300  1.0  -0.1795
  C  C93  1  0.553200  0.373800  0.295500  1.0  -0.031
  C  C94  1  0.534500  0.391500  0.240300  1.0  -0.1822
  C  C95  1  0.626200  0.179400  0.295500  1.0  -0.0275
  C  C96  1  0.608500  0.143000  0.240300  1.0  -0.1811
  C  C97  1  0.553200  0.179400  0.704500  1.0  -0.0284
  C  C98  1  0.534500  0.143000  0.759700  1.0  -0.1831
  C  C99  1  0.626200  0.446800  0.704500  1.0  -0.0308
  C  C100  1  0.608500  0.465500  0.759700  1.0  -0.1806
  C  C101  1  0.820600  0.373800  0.704500  1.0  -0.0308
  C  C102  1  0.857000  0.391500  0.759700  1.0  -0.1833
  C  C103  1  0.446800  0.820600  0.704500  1.0  -0.0275
  C  C104  1  0.465500  0.857000  0.759700  1.0  -0.1804
  C  C105  1  0.373800  0.553200  0.704500  1.0  -0.0305
  C  C106  1  0.391500  0.534500  0.759700  1.0  -0.1811
  C  C107  1  0.179400  0.626200  0.704500  1.0  -0.0308
  C  C108  1  0.143000  0.608500  0.759700  1.0  -0.1844
  C  C109  1  0.820600  0.446800  0.704500  1.0  -0.0294
  C  C110  1  0.857000  0.465500  0.759700  1.0  -0.1783
  C  C111  1  0.553200  0.373800  0.704500  1.0  -0.0283
  C  C112  1  0.534500  0.391500  0.759700  1.0  -0.1813
  C  C113  1  0.626200  0.179400  0.704500  1.0  -0.0257
  C  C114  1  0.608500  0.143000  0.759700  1.0  -0.1793
  C  C115  1  0.179400  0.553200  0.704500  1.0  -0.0287
  C  C116  1  0.143000  0.534500  0.759700  1.0  -0.1787
  C  C117  1  0.446800  0.626200  0.704500  1.0  -0.0291
  C  C118  1  0.465500  0.608500  0.759700  1.0  -0.1819
  C  C119  1  0.373800  0.820600  0.704500  1.0  -0.0264
  C  C120  1  0.391500  0.857000  0.759700  1.0  -0.1815
  C  C121  1  0.446800  0.820600  0.295500  1.0  -0.0258
  C  C122  1  0.465500  0.857000  0.240300  1.0  -0.1789
  C  C123  1  0.373800  0.553200  0.295500  1.0  -0.0283
  C  C124  1  0.391500  0.534500  0.240300  1.0  -0.1788
  C  C125  1  0.179400  0.626200  0.295500  1.0  -0.0293
  C  C126  1  0.143000  0.608500  0.240300  1.0  -0.1823
  C  C127  1  0.553200  0.179400  0.295500  1.0  -0.0276
  C  C128  1  0.534500  0.143000  0.240300  1.0  -0.1803
  C  C129  1  0.626200  0.446800  0.295500  1.0  -0.0299
  C  C130  1  0.608500  0.465500  0.240300  1.0  -0.1787
  C  C131  1  0.820600  0.373800  0.295500  1.0  -0.0295
  C  C132  1  0.857000  0.391500  0.240300  1.0  -0.1811
  C  C133  1  0.040500  0.520250  0.170400  1.0  0.1361
  C  C134  1  0.087800  0.543900  0.144100  1.0  -0.0929
  C  C135  1  0.236300  0.618150  0.389400  1.0  0.7232
  C  C136  1  0.102500  0.551250  0.065000  1.0  0.2177
  C  C137  1  0.197700  0.598850  0.324000  1.0  -0.0979
  C  C138  1  0.126200  0.563100  0.207900  1.0  0.1137
  C  C139  1  0.153500  0.576750  0.039600  1.0  -0.1707
  C  C140  1  0.024900  0.512450  0.248000  1.0  -0.1584
  C  C141  1  0.479750  0.520250  0.170400  1.0  0.1347
  C  C142  1  0.456100  0.543900  0.144100  1.0  -0.0922
  C  C143  1  0.381850  0.618150  0.389400  1.0  0.7242
  C  C144  1  0.448750  0.551250  0.065000  1.0  0.2174
  C  C145  1  0.401150  0.598850  0.324000  1.0  -0.0971
  C  C146  1  0.436900  0.563100  0.207900  1.0  0.1127
  C  C147  1  0.423250  0.576750  0.039600  1.0  -0.1714
  C  C148  1  0.487550  0.512450  0.248000  1.0  -0.1588
  C  C149  1  0.479750  0.959500  0.170400  1.0  0.1342
  C  C150  1  0.456100  0.912200  0.144100  1.0  -0.0924
  C  C151  1  0.381850  0.763700  0.389400  1.0  0.7233
  C  C152  1  0.448750  0.897500  0.065000  1.0  0.2185
  C  C153  1  0.401150  0.802300  0.324000  1.0  -0.0958
  C  C154  1  0.436900  0.873800  0.207900  1.0  0.114
  C  C155  1  0.423250  0.846500  0.039600  1.0  -0.171
  C  C156  1  0.487550  0.975100  0.248000  1.0  -0.157
  C  C157  1  0.959500  0.479750  0.170400  1.0  0.1344
  C  C158  1  0.912200  0.456100  0.144100  1.0  -0.092
  C  C159  1  0.763700  0.381850  0.389400  1.0  0.7237
  C  C160  1  0.897500  0.448750  0.065000  1.0  0.2181
  C  C161  1  0.802300  0.401150  0.324000  1.0  -0.0967
  C  C162  1  0.873800  0.436900  0.207900  1.0  0.1128
  C  C163  1  0.846500  0.423250  0.039600  1.0  -0.1707
  C  C164  1  0.975100  0.487550  0.248000  1.0  -0.1587
  C  C165  1  0.520250  0.479750  0.170400  1.0  0.136
  C  C166  1  0.543900  0.456100  0.144100  1.0  -0.0928
  C  C167  1  0.618150  0.381850  0.389400  1.0  0.7226
  C  C168  1  0.551250  0.448750  0.065000  1.0  0.2181
  C  C169  1  0.598850  0.401150  0.324000  1.0  -0.0974
  C  C170  1  0.563100  0.436900  0.207900  1.0  0.1139
  C  C171  1  0.576750  0.423250  0.039600  1.0  -0.1699
  C  C172  1  0.512450  0.487550  0.248000  1.0  -0.1583
  C  C173  1  0.520250  0.040500  0.170400  1.0  0.1346
  C  C174  1  0.543900  0.087800  0.144100  1.0  -0.0925
  C  C175  1  0.618150  0.236300  0.389400  1.0  0.7237
  C  C176  1  0.551250  0.102500  0.065000  1.0  0.2184
  C  C177  1  0.598850  0.197700  0.324000  1.0  -0.0966
  C  C178  1  0.563100  0.126200  0.207900  1.0  0.1135
  C  C179  1  0.576750  0.153500  0.039600  1.0  -0.172
  C  C180  1  0.512450  0.024900  0.248000  1.0  -0.1568
  C  C181  1  0.520250  0.040500  0.829600  1.0  0.135
  C  C182  1  0.543900  0.087800  0.855900  1.0  -0.0945
  C  C183  1  0.618150  0.236300  0.610600  1.0  0.7235
  C  C184  1  0.551250  0.102500  0.935000  1.0  0.2165
  C  C185  1  0.598850  0.197700  0.676000  1.0  -0.0975
  C  C186  1  0.563100  0.126200  0.792100  1.0  0.1137
  C  C187  1  0.576750  0.153500  0.960400  1.0  -0.1726
  C  C188  1  0.512450  0.024900  0.752000  1.0  -0.1565
  C  C189  1  0.520250  0.479750  0.829600  1.0  0.1362
  C  C190  1  0.543900  0.456100  0.855900  1.0  -0.0949
  C  C191  1  0.618150  0.381850  0.610600  1.0  0.7223
  C  C192  1  0.551250  0.448750  0.935000  1.0  0.2165
  C  C193  1  0.598850  0.401150  0.676000  1.0  -0.0986
  C  C194  1  0.563100  0.436900  0.792100  1.0  0.1133
  C  C195  1  0.576750  0.423250  0.960400  1.0  -0.1709
  C  C196  1  0.512450  0.487550  0.752000  1.0  -0.1586
  C  C197  1  0.959500  0.479750  0.829600  1.0  0.1347
  C  C198  1  0.912200  0.456100  0.855900  1.0  -0.094
  C  C199  1  0.763700  0.381850  0.610600  1.0  0.7235
  C  C200  1  0.897500  0.448750  0.935000  1.0  0.2162
  C  C201  1  0.802300  0.401150  0.676000  1.0  -0.0988
  C  C202  1  0.873800  0.436900  0.792100  1.0  0.1123
  C  C203  1  0.846500  0.423250  0.960400  1.0  -0.171
  C  C204  1  0.975100  0.487550  0.752000  1.0  -0.1579
  C  C205  1  0.479750  0.959500  0.829600  1.0  0.1345
  C  C206  1  0.456100  0.912200  0.855900  1.0  -0.0944
  C  C207  1  0.381850  0.763700  0.610600  1.0  0.7231
  C  C208  1  0.448750  0.897500  0.935000  1.0  0.2164
  C  C209  1  0.401150  0.802300  0.676000  1.0  -0.0978
  C  C210  1  0.436900  0.873800  0.792100  1.0  0.1135
  C  C211  1  0.423250  0.846500  0.960400  1.0  -0.1719
  C  C212  1  0.487550  0.975100  0.752000  1.0  -0.1569
  C  C213  1  0.479750  0.520250  0.829600  1.0  0.135
  C  C214  1  0.456100  0.543900  0.855900  1.0  -0.094
  C  C215  1  0.381850  0.618150  0.610600  1.0  0.724
  C  C216  1  0.448750  0.551250  0.935000  1.0  0.2156
  C  C217  1  0.401150  0.598850  0.676000  1.0  -0.0986
  C  C218  1  0.436900  0.563100  0.792100  1.0  0.1123
  C  C219  1  0.423250  0.576750  0.960400  1.0  -0.1711
  C  C220  1  0.487550  0.512450  0.752000  1.0  -0.1574
  C  C221  1  0.040500  0.520250  0.829600  1.0  0.1364
  C  C222  1  0.087800  0.543900  0.855900  1.0  -0.0949
  C  C223  1  0.236300  0.618150  0.610600  1.0  0.723
  C  C224  1  0.102500  0.551250  0.935000  1.0  0.2163
  C  C225  1  0.197700  0.598850  0.676000  1.0  -0.099
  C  C226  1  0.126200  0.563100  0.792100  1.0  0.1134
  C  C227  1  0.153500  0.576750  0.960400  1.0  -0.1714
  C  C228  1  0.024900  0.512450  0.752000  1.0  -0.1583
  N  N229  1  0.000000  0.500000  0.121500  1.0  -0.2821
  N  N230  1  0.500000  0.500000  0.121500  1.0  -0.2821
  N  N231  1  0.500000  0.000000  0.121500  1.0  -0.2821
  N  N232  1  0.500000  0.000000  0.878500  1.0  -0.2798
  N  N233  1  0.500000  0.500000  0.878500  1.0  -0.2798
  N  N234  1  0.000000  0.500000  0.878500  1.0  -0.2798
  N  N235  1  0.074100  0.537050  0.000000  1.0  -0.3546
  N  N236  1  0.462950  0.537050  0.000000  1.0  -0.3537
  N  N237  1  0.462950  0.925900  0.000000  1.0  -0.3515
  N  N238  1  0.925900  0.462950  0.000000  1.0  -0.3531
  N  N239  1  0.537050  0.462950  0.000000  1.0  -0.3541
  N  N240  1  0.537050  0.074100  0.000000  1.0  -0.3548
  O  O241  1  0.250000  0.589900  0.413000  1.0  -0.6463
  O  O242  1  0.410100  0.660100  0.413000  1.0  -0.6475
  O  O243  1  0.339900  0.750000  0.413000  1.0  -0.647
  O  O244  1  0.750000  0.410100  0.413000  1.0  -0.6446
  O  O245  1  0.589900  0.339900  0.413000  1.0  -0.6482
  O  O246  1  0.660100  0.250000  0.413000  1.0  -0.6466
  O  O247  1  0.589900  0.250000  0.587000  1.0  -0.6464
  O  O248  1  0.660100  0.410100  0.587000  1.0  -0.6456
  O  O249  1  0.750000  0.339900  0.587000  1.0  -0.6467
  O  O250  1  0.410100  0.750000  0.587000  1.0  -0.6467
  O  O251  1  0.339900  0.589900  0.587000  1.0  -0.6451
  O  O252  1  0.250000  0.660100  0.587000  1.0  -0.6489
  O  O253  1  0.750000  0.410100  0.587000  1.0  -0.6443
  O  O254  1  0.589900  0.339900  0.587000  1.0  -0.6483
  O  O255  1  0.660100  0.250000  0.587000  1.0  -0.6462
  O  O256  1  0.250000  0.589900  0.587000  1.0  -0.6461
  O  O257  1  0.410100  0.660100  0.587000  1.0  -0.647
  O  O258  1  0.339900  0.750000  0.587000  1.0  -0.647
  O  O259  1  0.410100  0.750000  0.413000  1.0  -0.6469
  O  O260  1  0.339900  0.589900  0.413000  1.0  -0.6453
  O  O261  1  0.250000  0.660100  0.413000  1.0  -0.649
  O  O262  1  0.589900  0.250000  0.413000  1.0  -0.6465
  O  O263  1  0.660100  0.410100  0.413000  1.0  -0.6459
  O  O264  1  0.750000  0.339900  0.413000  1.0  -0.647
  O  O265  1  0.333333  0.666667  0.500000  1.0  -1.0191
  O  O266  1  0.666667  0.333333  0.500000  1.0  -1.0191
