# generated using pymatgen
data_Cu3H18C16(IN2)2
_symmetry_space_group_name_H-M   'P 1'
_cell_length_a   22.90100000
_cell_length_b   22.90100000
_cell_length_c   22.27200000
_cell_angle_alpha   90.00000000
_cell_angle_beta   90.00000000
_cell_angle_gamma   120.00000000
_symmetry_Int_Tables_number   1
_chemical_formula_structural   Cu3H18C16(IN2)2
_chemical_formula_sum   'Cu36 H216 C192 I24 N48'
_cell_volume   10115.76526696
_cell_formula_units_Z   12
loop_
 _symmetry_equiv_pos_site_id
 _symmetry_equiv_pos_as_xyz
  1  'x, y, z'
loop_
 _atom_site_type_symbol
 _atom_site_label
 _atom_site_symmetry_multiplicity
 _atom_site_fract_x
 _atom_site_fract_y
 _atom_site_fract_z
 _atom_site_occupancy
 _atom_site_charge
  Cu  Cu1  1  0.716520  0.481210  0.804210  1.0  0.1049
  Cu  Cu2  1  0.841550  0.575800  0.777450  1.0  0.106
  Cu  Cu3  1  0.518790  0.235310  0.137540  1.0  0.107
  Cu  Cu4  1  0.424200  0.265750  0.110780  1.0  0.1054
  Cu  Cu5  1  0.764690  0.283480  0.470880  1.0  0.1053
  Cu  Cu6  1  0.734250  0.158450  0.444120  1.0  0.1019
  Cu  Cu7  1  0.283480  0.518790  0.304210  1.0  0.1051
  Cu  Cu8  1  0.158450  0.424200  0.277450  1.0  0.1076
  Cu  Cu9  1  0.481210  0.764690  0.637540  1.0  0.1058
  Cu  Cu10  1  0.575800  0.734250  0.610780  1.0  0.1049
  Cu  Cu11  1  0.235310  0.716520  0.970880  1.0  0.1052
  Cu  Cu12  1  0.265750  0.841550  0.944120  1.0  0.1023
  Cu  Cu13  1  0.481210  0.716520  0.529120  1.0  0.1057
  Cu  Cu14  1  0.575800  0.841550  0.555880  1.0  0.1033
  Cu  Cu15  1  0.235310  0.518790  0.195790  1.0  0.1054
  Cu  Cu16  1  0.265750  0.424200  0.222550  1.0  0.1062
  Cu  Cu17  1  0.283480  0.764690  0.862460  1.0  0.1071
  Cu  Cu18  1  0.158450  0.734250  0.889220  1.0  0.1056
  Cu  Cu19  1  0.518790  0.283480  0.029120  1.0  0.1055
  Cu  Cu20  1  0.424200  0.158450  0.055880  1.0  0.1011
  Cu  Cu21  1  0.764690  0.481210  0.695790  1.0  0.1048
  Cu  Cu22  1  0.734250  0.575800  0.722550  1.0  0.1072
  Cu  Cu23  1  0.716520  0.235310  0.362460  1.0  0.1066
  Cu  Cu24  1  0.841550  0.265750  0.389220  1.0  0.1051
  Cu  Cu25  1  0.136450  0.219760  0.392330  1.0  0.2542
  Cu  Cu26  1  0.780240  0.916690  0.725660  1.0  0.254
  Cu  Cu27  1  0.083310  0.863550  0.059000  1.0  0.2542
  Cu  Cu28  1  0.863550  0.780240  0.892330  1.0  0.2536
  Cu  Cu29  1  0.219760  0.083310  0.225660  1.0  0.2564
  Cu  Cu30  1  0.916690  0.136450  0.559000  1.0  0.2547
  Cu  Cu31  1  0.219760  0.136450  0.941000  1.0  0.2542
  Cu  Cu32  1  0.916690  0.780240  0.607670  1.0  0.2558
  Cu  Cu33  1  0.863550  0.083310  0.274340  1.0  0.2549
  Cu  Cu34  1  0.780240  0.863550  0.441000  1.0  0.2558
  Cu  Cu35  1  0.083310  0.219760  0.107670  1.0  0.2532
  Cu  Cu36  1  0.136450  0.916690  0.774340  1.0  0.2564
  H  H37  1  0.574000  0.425800  0.853800  1.0  0.071
  H  H38  1  0.624500  0.485000  0.895500  1.0  0.0746
  H  H39  1  0.717000  0.476600  0.941300  1.0  0.0705
  H  H40  1  0.733400  0.421900  0.917000  1.0  0.0713
  H  H41  1  0.654700  0.337400  0.848000  1.0  0.082
  H  H42  1  0.597400  0.346300  0.818700  1.0  0.0686
  H  H43  1  0.983800  0.634300  0.731200  1.0  0.0785
  H  H44  1  0.972500  0.571500  0.768900  1.0  0.0686
  H  H45  1  0.922900  0.552800  0.868600  1.0  0.067
  H  H46  1  0.914900  0.609900  0.899400  1.0  0.0738
  H  H47  1  0.931900  0.708200  0.842800  1.0  0.0878
  H  H48  1  0.965200  0.721000  0.778900  1.0  0.0923
  H  H49  1  0.574200  0.148200  0.187130  1.0  0.0707
  H  H50  1  0.515000  0.139500  0.228830  1.0  0.0708
  H  H51  1  0.523400  0.240400  0.274630  1.0  0.0711
  H  H52  1  0.578100  0.311500  0.250330  1.0  0.0745
  H  H53  1  0.662600  0.317300  0.181330  1.0  0.0857
  H  H54  1  0.653700  0.251100  0.152030  1.0  0.069
  H  H55  1  0.365700  0.349500  0.064530  1.0  0.0813
  H  H56  1  0.428500  0.401000  0.102230  1.0  0.0707
  H  H57  1  0.447200  0.370100  0.201930  1.0  0.0639
  H  H58  1  0.390100  0.305000  0.232730  1.0  0.0776
  H  H59  1  0.291800  0.223700  0.176130  1.0  0.091
  H  H60  1  0.279000  0.244200  0.112230  1.0  0.0921
  H  H61  1  0.851800  0.426000  0.520470  1.0  0.072
  H  H62  1  0.860500  0.375500  0.562170  1.0  0.0709
  H  H63  1  0.759600  0.283000  0.607970  1.0  0.0715
  H  H64  1  0.688500  0.266600  0.583670  1.0  0.0716
  H  H65  1  0.682700  0.345300  0.514670  1.0  0.0821
  H  H66  1  0.748900  0.402600  0.485370  1.0  0.0689
  H  H67  1  0.650500  0.016200  0.397870  1.0  0.0822
  H  H68  1  0.599000  0.027500  0.435570  1.0  0.0687
  H  H69  1  0.629900  0.077100  0.535270  1.0  0.0654
  H  H70  1  0.695000  0.085100  0.566070  1.0  0.0772
  H  H71  1  0.776300  0.068100  0.509470  1.0  0.0909
  H  H72  1  0.755800  0.034800  0.445570  1.0  0.0924
  H  H73  1  0.426000  0.574200  0.353800  1.0  0.0697
  H  H74  1  0.375500  0.515000  0.395500  1.0  0.0715
  H  H75  1  0.283000  0.523400  0.441300  1.0  0.0705
  H  H76  1  0.266600  0.578100  0.417000  1.0  0.0709
  H  H77  1  0.345300  0.662600  0.348000  1.0  0.0812
  H  H78  1  0.402600  0.653700  0.318700  1.0  0.0694
  H  H79  1  0.016200  0.365700  0.231200  1.0  0.08
  H  H80  1  0.027500  0.428500  0.268900  1.0  0.0703
  H  H81  1  0.077100  0.447200  0.368600  1.0  0.0686
  H  H82  1  0.085100  0.390100  0.399400  1.0  0.0745
  H  H83  1  0.068100  0.291800  0.342800  1.0  0.0878
  H  H84  1  0.034800  0.279000  0.278900  1.0  0.0929
  H  H85  1  0.425800  0.851800  0.687130  1.0  0.0709
  H  H86  1  0.485000  0.860500  0.728830  1.0  0.0709
  H  H87  1  0.476600  0.759600  0.774630  1.0  0.0688
  H  H88  1  0.421900  0.688500  0.750330  1.0  0.0732
  H  H89  1  0.337400  0.682700  0.681330  1.0  0.0834
  H  H90  1  0.346300  0.748900  0.652030  1.0  0.0692
  H  H91  1  0.634300  0.650500  0.564530  1.0  0.0814
  H  H92  1  0.571500  0.599000  0.602230  1.0  0.0701
  H  H93  1  0.552800  0.629900  0.701930  1.0  0.0644
  H  H94  1  0.609900  0.695000  0.732730  1.0  0.0765
  H  H95  1  0.708200  0.776300  0.676130  1.0  0.0899
  H  H96  1  0.721000  0.755800  0.612230  1.0  0.0923
  H  H97  1  0.148200  0.574000  0.020470  1.0  0.0707
  H  H98  1  0.139500  0.624500  0.062170  1.0  0.073
  H  H99  1  0.240400  0.717000  0.107970  1.0  0.0708
  H  H100  1  0.311500  0.733400  0.083670  1.0  0.0725
  H  H101  1  0.317300  0.654700  0.014670  1.0  0.0846
  H  H102  1  0.251100  0.597400  0.985370  1.0  0.0691
  H  H103  1  0.349500  0.983800  0.897870  1.0  0.0824
  H  H104  1  0.401000  0.972500  0.935570  1.0  0.0674
  H  H105  1  0.370100  0.922900  0.035270  1.0  0.0623
  H  H106  1  0.305000  0.914900  0.066070  1.0  0.0779
  H  H107  1  0.223700  0.931900  0.009470  1.0  0.091
  H  H108  1  0.244200  0.965200  0.945570  1.0  0.0908
  H  H109  1  0.425800  0.574000  0.479530  1.0  0.0711
  H  H110  1  0.485000  0.624500  0.437830  1.0  0.0714
  H  H111  1  0.476600  0.717000  0.392030  1.0  0.0699
  H  H112  1  0.421900  0.733400  0.416330  1.0  0.0718
  H  H113  1  0.337400  0.654700  0.485330  1.0  0.0833
  H  H114  1  0.346300  0.597400  0.514630  1.0  0.0684
  H  H115  1  0.634300  0.983800  0.602130  1.0  0.0839
  H  H116  1  0.571500  0.972500  0.564430  1.0  0.0651
  H  H117  1  0.552800  0.922900  0.464730  1.0  0.0648
  H  H118  1  0.609900  0.914900  0.433930  1.0  0.077
  H  H119  1  0.708200  0.931900  0.490530  1.0  0.0904
  H  H120  1  0.721000  0.965200  0.554430  1.0  0.0917
  H  H121  1  0.148200  0.574200  0.146200  1.0  0.0709
  H  H122  1  0.139500  0.515000  0.104500  1.0  0.0709
  H  H123  1  0.240400  0.523400  0.058700  1.0  0.068
  H  H124  1  0.311500  0.578100  0.083000  1.0  0.0716
  H  H125  1  0.317300  0.662600  0.152000  1.0  0.0801
  H  H126  1  0.251100  0.653700  0.181300  1.0  0.0681
  H  H127  1  0.349500  0.365700  0.268800  1.0  0.079
  H  H128  1  0.401000  0.428500  0.231100  1.0  0.0665
  H  H129  1  0.370100  0.447200  0.131400  1.0  0.0691
  H  H130  1  0.305000  0.390100  0.100600  1.0  0.0742
  H  H131  1  0.223700  0.291800  0.157200  1.0  0.0881
  H  H132  1  0.244200  0.279000  0.221100  1.0  0.0914
  H  H133  1  0.426000  0.851800  0.812870  1.0  0.0699
  H  H134  1  0.375500  0.860500  0.771170  1.0  0.0715
  H  H135  1  0.283000  0.759600  0.725370  1.0  0.0692
  H  H136  1  0.266600  0.688500  0.749670  1.0  0.0725
  H  H137  1  0.345300  0.682700  0.818670  1.0  0.0845
  H  H138  1  0.402600  0.748900  0.847970  1.0  0.0672
  H  H139  1  0.016200  0.650500  0.935470  1.0  0.0811
  H  H140  1  0.027500  0.599000  0.897770  1.0  0.068
  H  H141  1  0.077100  0.629900  0.798070  1.0  0.0641
  H  H142  1  0.085100  0.695000  0.767270  1.0  0.0773
  H  H143  1  0.068100  0.776300  0.823870  1.0  0.0908
  H  H144  1  0.034800  0.755800  0.887770  1.0  0.0915
  H  H145  1  0.574200  0.426000  0.979530  1.0  0.0704
  H  H146  1  0.515000  0.375500  0.937830  1.0  0.0735
  H  H147  1  0.523400  0.283000  0.892030  1.0  0.0709
  H  H148  1  0.578100  0.266600  0.916330  1.0  0.0726
  H  H149  1  0.662600  0.345300  0.985330  1.0  0.0831
  H  H150  1  0.653700  0.402600  0.014630  1.0  0.0676
  H  H151  1  0.365700  0.016200  0.102130  1.0  0.0818
  H  H152  1  0.428500  0.027500  0.064430  1.0  0.0639
  H  H153  1  0.447200  0.077100  0.964730  1.0  0.0641
  H  H154  1  0.390100  0.085100  0.933930  1.0  0.0783
  H  H155  1  0.291800  0.068100  0.990530  1.0  0.092
  H  H156  1  0.279000  0.034800  0.054430  1.0  0.0912
  H  H157  1  0.851800  0.425800  0.646200  1.0  0.0697
  H  H158  1  0.860500  0.485000  0.604500  1.0  0.0741
  H  H159  1  0.759600  0.476600  0.558700  1.0  0.0692
  H  H160  1  0.688500  0.421900  0.583000  1.0  0.0704
  H  H161  1  0.682700  0.337400  0.652000  1.0  0.0824
  H  H162  1  0.748900  0.346300  0.681300  1.0  0.0679
  H  H163  1  0.650500  0.634300  0.768800  1.0  0.0803
  H  H164  1  0.599000  0.571500  0.731100  1.0  0.0652
  H  H165  1  0.629900  0.552800  0.631400  1.0  0.0654
  H  H166  1  0.695000  0.609900  0.600600  1.0  0.0756
  H  H167  1  0.776300  0.708200  0.657200  1.0  0.0875
  H  H168  1  0.755800  0.721000  0.721100  1.0  0.0921
  H  H169  1  0.574000  0.148200  0.312870  1.0  0.0709
  H  H170  1  0.624500  0.139500  0.271170  1.0  0.0707
  H  H171  1  0.717000  0.240400  0.225370  1.0  0.0681
  H  H172  1  0.733400  0.311500  0.249670  1.0  0.074
  H  H173  1  0.654700  0.317300  0.318670  1.0  0.0852
  H  H174  1  0.597400  0.251100  0.347970  1.0  0.0687
  H  H175  1  0.983800  0.349500  0.435470  1.0  0.0827
  H  H176  1  0.972500  0.401000  0.397770  1.0  0.0669
  H  H177  1  0.922900  0.370100  0.298070  1.0  0.0658
  H  H178  1  0.914900  0.305000  0.267270  1.0  0.0767
  H  H179  1  0.931900  0.223700  0.323870  1.0  0.0894
  H  H180  1  0.965200  0.244200  0.387770  1.0  0.0916
  H  H181  1  0.090100  0.025900  0.284000  1.0  0.092
  H  H182  1  0.289300  0.295100  0.420000  1.0  0.0975
  H  H183  1  0.399000  0.315500  0.426100  1.0  0.0995
  H  H184  1  0.433500  0.256200  0.365100  1.0  0.099
  H  H185  1  0.358200  0.176600  0.298000  1.0  0.0929
  H  H186  1  0.974100  0.064200  0.617330  1.0  0.0913
  H  H187  1  0.704900  0.994200  0.753330  1.0  0.0982
  H  H188  1  0.684500  0.083500  0.759430  1.0  0.0991
  H  H189  1  0.743800  0.177300  0.698430  1.0  0.1011
  H  H190  1  0.823400  0.181600  0.631330  1.0  0.0938
  H  H191  1  0.935800  0.909900  0.950670  1.0  0.0931
  H  H192  1  0.005800  0.710700  0.086670  1.0  0.098
  H  H193  1  0.916500  0.601000  0.092770  1.0  0.1007
  H  H194  1  0.822700  0.566500  0.031770  1.0  0.1013
  H  H195  1  0.818400  0.641800  0.964670  1.0  0.0922
  H  H196  1  0.909900  0.974100  0.784000  1.0  0.0929
  H  H197  1  0.710700  0.704900  0.920000  1.0  0.0977
  H  H198  1  0.601000  0.684500  0.926100  1.0  0.1005
  H  H199  1  0.566500  0.743800  0.865100  1.0  0.1004
  H  H200  1  0.641800  0.823400  0.798000  1.0  0.0933
  H  H201  1  0.025900  0.935800  0.117330  1.0  0.0918
  H  H202  1  0.295100  0.005800  0.253330  1.0  0.0974
  H  H203  1  0.315500  0.916500  0.259430  1.0  0.0986
  H  H204  1  0.256200  0.822700  0.198430  1.0  0.1009
  H  H205  1  0.176600  0.818400  0.131330  1.0  0.0939
  H  H206  1  0.064200  0.090100  0.450670  1.0  0.0925
  H  H207  1  0.994200  0.289300  0.586670  1.0  0.098
  H  H208  1  0.083500  0.399000  0.592770  1.0  0.0995
  H  H209  1  0.177300  0.433500  0.531770  1.0  0.1012
  H  H210  1  0.181600  0.358200  0.464670  1.0  0.0929
  H  H211  1  0.025900  0.090100  0.049330  1.0  0.0928
  H  H212  1  0.295100  0.289300  0.913330  1.0  0.0972
  H  H213  1  0.315500  0.399000  0.907230  1.0  0.0978
  H  H214  1  0.256200  0.433500  0.968230  1.0  0.1013
  H  H215  1  0.176600  0.358200  0.035330  1.0  0.0919
  H  H216  1  0.064200  0.974100  0.716000  1.0  0.0922
  H  H217  1  0.994200  0.704900  0.580000  1.0  0.0968
  H  H218  1  0.083500  0.684500  0.573900  1.0  0.0976
  H  H219  1  0.177300  0.743800  0.634900  1.0  0.099
  H  H220  1  0.181600  0.823400  0.702000  1.0  0.0923
  H  H221  1  0.909900  0.935800  0.382670  1.0  0.0912
  H  H222  1  0.710700  0.005800  0.246670  1.0  0.0966
  H  H223  1  0.601000  0.916500  0.240570  1.0  0.0963
  H  H224  1  0.566500  0.822700  0.301570  1.0  0.1001
  H  H225  1  0.641800  0.818400  0.368670  1.0  0.0934
  H  H226  1  0.974100  0.909900  0.549330  1.0  0.0922
  H  H227  1  0.704900  0.710700  0.413330  1.0  0.0973
  H  H228  1  0.684500  0.601000  0.407230  1.0  0.0977
  H  H229  1  0.743800  0.566500  0.468230  1.0  0.1013
  H  H230  1  0.823400  0.641800  0.535330  1.0  0.0922
  H  H231  1  0.935800  0.025900  0.216000  1.0  0.092
  H  H232  1  0.005800  0.295100  0.080000  1.0  0.0975
  H  H233  1  0.916500  0.315500  0.073900  1.0  0.0968
  H  H234  1  0.822700  0.256200  0.134900  1.0  0.0989
  H  H235  1  0.818400  0.176600  0.202000  1.0  0.0923
  H  H236  1  0.090100  0.064200  0.882670  1.0  0.0914
  H  H237  1  0.289300  0.994200  0.746670  1.0  0.0974
  H  H238  1  0.399000  0.083500  0.740570  1.0  0.0971
  H  H239  1  0.433500  0.177300  0.801570  1.0  0.1008
  H  H240  1  0.358200  0.181600  0.868670  1.0  0.0932
  H  H241  1  0.100300  0.200600  0.250000  1.0  0.067
  H  H242  1  0.984650  0.969300  0.250000  1.0  0.1033
  H  H243  1  0.799400  0.899700  0.583330  1.0  0.0689
  H  H244  1  0.030700  0.015350  0.583330  1.0  0.1008
  H  H245  1  0.100300  0.899700  0.916670  1.0  0.0683
  H  H246  1  0.984650  0.015350  0.916670  1.0  0.1057
  H  H247  1  0.899700  0.799400  0.750000  1.0  0.0675
  H  H248  1  0.015350  0.030700  0.750000  1.0  0.0999
  H  H249  1  0.200600  0.100300  0.083330  1.0  0.068
  H  H250  1  0.969300  0.984650  0.083330  1.0  0.1058
  H  H251  1  0.899700  0.100300  0.416670  1.0  0.0688
  H  H252  1  0.015350  0.984650  0.416670  1.0  0.1014
  C  C253  1  0.604300  0.437100  0.887800  1.0  -0.0188
  C  C254  1  0.697300  0.430600  0.926800  1.0  -0.0484
  C  C255  1  0.621700  0.351300  0.855700  1.0  -0.0612
  C  C256  1  0.985800  0.618800  0.771300  1.0  -0.0518
  C  C257  1  0.941900  0.601200  0.871200  1.0  -0.0394
  C  C258  1  0.963000  0.701500  0.818100  1.0  -0.1271
  C  C259  1  0.562900  0.167200  0.221130  1.0  -0.0201
  C  C260  1  0.569400  0.266700  0.260130  1.0  -0.0491
  C  C261  1  0.648700  0.270400  0.189030  1.0  -0.0591
  C  C262  1  0.381200  0.367000  0.104630  1.0  -0.0508
  C  C263  1  0.398800  0.340700  0.204530  1.0  -0.0342
  C  C264  1  0.298500  0.261500  0.151430  1.0  -0.1237
  C  C265  1  0.832800  0.395700  0.554470  1.0  -0.0136
  C  C266  1  0.733300  0.302700  0.593470  1.0  -0.0497
  C  C267  1  0.729600  0.378300  0.522370  1.0  -0.0587
  C  C268  1  0.633000  0.014200  0.437970  1.0  -0.0515
  C  C269  1  0.659300  0.058100  0.537870  1.0  -0.0393
  C  C270  1  0.738500  0.037000  0.484770  1.0  -0.1258
  C  C271  1  0.395700  0.562900  0.387800  1.0  -0.0207
  C  C272  1  0.302700  0.569400  0.426800  1.0  -0.0489
  C  C273  1  0.378300  0.648700  0.355700  1.0  -0.0585
  C  C274  1  0.014200  0.381200  0.271300  1.0  -0.0506
  C  C275  1  0.058100  0.398800  0.371200  1.0  -0.0383
  C  C276  1  0.037000  0.298500  0.318100  1.0  -0.1257
  C  C277  1  0.437100  0.832800  0.721130  1.0  -0.0202
  C  C278  1  0.430600  0.733300  0.760130  1.0  -0.0504
  C  C279  1  0.351300  0.729600  0.689030  1.0  -0.0585
  C  C280  1  0.618800  0.633000  0.604630  1.0  -0.0495
  C  C281  1  0.601200  0.659300  0.704530  1.0  -0.0358
  C  C282  1  0.701500  0.738500  0.651430  1.0  -0.1238
  C  C283  1  0.167200  0.604300  0.054470  1.0  -0.015
  C  C284  1  0.266700  0.697300  0.093470  1.0  -0.0495
  C  C285  1  0.270400  0.621700  0.022370  1.0  -0.0595
  C  C286  1  0.367000  0.985800  0.937970  1.0  -0.0526
  C  C287  1  0.340700  0.941900  0.037870  1.0  -0.0401
  C  C288  1  0.261500  0.963000  0.984770  1.0  -0.1277
  C  C289  1  0.437100  0.604300  0.445530  1.0  -0.0129
  C  C290  1  0.430600  0.697300  0.406530  1.0  -0.0501
  C  C291  1  0.351300  0.621700  0.477630  1.0  -0.059
  C  C292  1  0.618800  0.985800  0.562030  1.0  -0.047
  C  C293  1  0.601200  0.941900  0.462130  1.0  -0.0405
  C  C294  1  0.701500  0.963000  0.515230  1.0  -0.1279
  C  C295  1  0.167200  0.562900  0.112200  1.0  -0.0195
  C  C296  1  0.266700  0.569400  0.073200  1.0  -0.0518
  C  C297  1  0.270400  0.648700  0.144300  1.0  -0.0604
  C  C298  1  0.367000  0.381200  0.228700  1.0  -0.047
  C  C299  1  0.340700  0.398800  0.128800  1.0  -0.0396
  C  C300  1  0.261500  0.298500  0.181900  1.0  -0.1286
  C  C301  1  0.395700  0.832800  0.778870  1.0  -0.019
  C  C302  1  0.302700  0.733300  0.739870  1.0  -0.0495
  C  C303  1  0.378300  0.729600  0.810970  1.0  -0.0583
  C  C304  1  0.014200  0.633000  0.895370  1.0  -0.0461
  C  C305  1  0.058100  0.659300  0.795470  1.0  -0.0368
  C  C306  1  0.037000  0.738500  0.848570  1.0  -0.1253
  C  C307  1  0.562900  0.395700  0.945530  1.0  -0.0149
  C  C308  1  0.569400  0.302700  0.906530  1.0  -0.0499
  C  C309  1  0.648700  0.378300  0.977630  1.0  -0.0588
  C  C310  1  0.381200  0.014200  0.062030  1.0  -0.045
  C  C311  1  0.398800  0.058100  0.962130  1.0  -0.0413
  C  C312  1  0.298500  0.037000  0.015230  1.0  -0.1289
  C  C313  1  0.832800  0.437100  0.612200  1.0  -0.0173
  C  C314  1  0.733300  0.430600  0.573200  1.0  -0.048
  C  C315  1  0.729600  0.351300  0.644300  1.0  -0.0599
  C  C316  1  0.633000  0.618800  0.728700  1.0  -0.0474
  C  C317  1  0.659300  0.601200  0.628800  1.0  -0.0408
  C  C318  1  0.738500  0.701500  0.681900  1.0  -0.1268
  C  C319  1  0.604300  0.167200  0.278870  1.0  -0.0205
  C  C320  1  0.697300  0.266700  0.239870  1.0  -0.0485
  C  C321  1  0.621700  0.270400  0.310970  1.0  -0.0606
  C  C322  1  0.985800  0.367000  0.395370  1.0  -0.0459
  C  C323  1  0.941900  0.340700  0.295470  1.0  -0.0373
  C  C324  1  0.963000  0.261500  0.348570  1.0  -0.1244
  C  C325  1  0.106500  0.121400  0.273400  1.0  0.0351
  C  C326  1  0.069600  0.049800  0.270600  1.0  -0.1285
  C  C327  1  0.176200  0.157000  0.298800  1.0  0.305
  C  C328  1  0.278600  0.188200  0.318800  1.0  0.0812
  C  C329  1  0.258000  0.223700  0.355400  1.0  0.1401
  C  C330  1  0.303100  0.271400  0.395600  1.0  -0.0923
  C  C331  1  0.368800  0.283600  0.399200  1.0  -0.0819
  C  C332  1  0.389500  0.248100  0.362600  1.0  -0.1103
  C  C333  1  0.344400  0.200400  0.322500  1.0  -0.079
  C  C334  1  0.878600  0.985100  0.606730  1.0  0.0346
  C  C335  1  0.950200  0.019800  0.603930  1.0  -0.1296
  C  C336  1  0.843000  0.019200  0.632130  1.0  0.3064
  C  C337  1  0.811800  0.090400  0.652130  1.0  0.0816
  C  C338  1  0.776300  0.034300  0.688730  1.0  0.142
  C  C339  1  0.728600  0.031700  0.728930  1.0  -0.0913
  C  C340  1  0.716400  0.085200  0.732530  1.0  -0.0841
  C  C341  1  0.751900  0.141400  0.695930  1.0  -0.1111
  C  C342  1  0.799600  0.144000  0.655830  1.0  -0.0802
  C  C343  1  0.014900  0.893500  0.940070  1.0  0.0345
  C  C344  1  0.980200  0.930400  0.937270  1.0  -0.1224
  C  C345  1  0.980800  0.823800  0.965470  1.0  0.3068
  C  C346  1  0.909600  0.721400  0.985470  1.0  0.0808
  C  C347  1  0.965700  0.742000  0.022070  1.0  0.1403
  C  C348  1  0.968300  0.696900  0.062270  1.0  -0.0923
  C  C349  1  0.914800  0.631200  0.065870  1.0  -0.0842
  C  C350  1  0.858600  0.610500  0.029270  1.0  -0.1113
  C  C351  1  0.856000  0.655600  0.989170  1.0  -0.0745
  C  C352  1  0.893500  0.878600  0.773400  1.0  0.0336
  C  C353  1  0.930400  0.950200  0.770600  1.0  -0.1271
  C  C354  1  0.823800  0.843000  0.798800  1.0  0.3049
  C  C355  1  0.721400  0.811800  0.818800  1.0  0.0822
  C  C356  1  0.742000  0.776300  0.855400  1.0  0.14
  C  C357  1  0.696900  0.728600  0.895600  1.0  -0.0895
  C  C358  1  0.631200  0.716400  0.899200  1.0  -0.0833
  C  C359  1  0.610500  0.751900  0.862600  1.0  -0.1114
  C  C360  1  0.655600  0.799600  0.822500  1.0  -0.0811
  C  C361  1  0.121400  0.014900  0.106730  1.0  0.0341
  C  C362  1  0.049800  0.980200  0.103930  1.0  -0.1297
  C  C363  1  0.157000  0.980800  0.132130  1.0  0.3066
  C  C364  1  0.188200  0.909600  0.152130  1.0  0.0833
  C  C365  1  0.223700  0.965700  0.188730  1.0  0.1417
  C  C366  1  0.271400  0.968300  0.228930  1.0  -0.0921
  C  C367  1  0.283600  0.914800  0.232530  1.0  -0.0814
  C  C368  1  0.248100  0.858600  0.195930  1.0  -0.111
  C  C369  1  0.200400  0.856000  0.155830  1.0  -0.0785
  C  C370  1  0.985100  0.106500  0.440070  1.0  0.0347
  C  C371  1  0.019800  0.069600  0.437270  1.0  -0.1242
  C  C372  1  0.019200  0.176200  0.465470  1.0  0.3067
  C  C373  1  0.090400  0.278600  0.485470  1.0  0.0802
  C  C374  1  0.034300  0.258000  0.522070  1.0  0.1405
  C  C375  1  0.031700  0.303100  0.562270  1.0  -0.0924
  C  C376  1  0.085200  0.368800  0.565870  1.0  -0.0824
  C  C377  1  0.141400  0.389500  0.529270  1.0  -0.1102
  C  C378  1  0.144000  0.344400  0.489170  1.0  -0.0744
  C  C379  1  0.121400  0.106500  0.059930  1.0  0.0343
  C  C380  1  0.049800  0.069600  0.062730  1.0  -0.1261
  C  C381  1  0.157000  0.176200  0.034530  1.0  0.3056
  C  C382  1  0.188200  0.278600  0.014530  1.0  0.0806
  C  C383  1  0.223700  0.258000  0.977930  1.0  0.1391
  C  C384  1  0.271400  0.303100  0.937730  1.0  -0.0917
  C  C385  1  0.283600  0.368800  0.934130  1.0  -0.0867
  C  C386  1  0.248100  0.389500  0.970730  1.0  -0.1121
  C  C387  1  0.200400  0.344400  0.010830  1.0  -0.0751
  C  C388  1  0.985100  0.878600  0.726600  1.0  0.0337
  C  C389  1  0.019800  0.950200  0.729400  1.0  -0.1302
  C  C390  1  0.019200  0.843000  0.701200  1.0  0.3045
  C  C391  1  0.090400  0.811800  0.681200  1.0  0.0814
  C  C392  1  0.034300  0.776300  0.644600  1.0  0.1396
  C  C393  1  0.031700  0.728600  0.604400  1.0  -0.0906
  C  C394  1  0.085200  0.716400  0.600800  1.0  -0.0861
  C  C395  1  0.141400  0.751900  0.637400  1.0  -0.1114
  C  C396  1  0.144000  0.799600  0.677500  1.0  -0.0798
  C  C397  1  0.893500  0.014900  0.393270  1.0  0.0341
  C  C398  1  0.930400  0.980200  0.396070  1.0  -0.1332
  C  C399  1  0.823800  0.980800  0.367870  1.0  0.3065
  C  C400  1  0.721400  0.909600  0.347870  1.0  0.0817
  C  C401  1  0.742000  0.965700  0.311270  1.0  0.1405
  C  C402  1  0.696900  0.968300  0.271070  1.0  -0.091
  C  C403  1  0.631200  0.914800  0.267470  1.0  -0.0864
  C  C404  1  0.610500  0.858600  0.304070  1.0  -0.11
  C  C405  1  0.655600  0.856000  0.344170  1.0  -0.079
  C  C406  1  0.878600  0.893500  0.559930  1.0  0.0347
  C  C407  1  0.950200  0.930400  0.562730  1.0  -0.127
  C  C408  1  0.843000  0.823800  0.534530  1.0  0.3063
  C  C409  1  0.811800  0.721400  0.514530  1.0  0.0791
  C  C410  1  0.776300  0.742000  0.477930  1.0  0.1403
  C  C411  1  0.728600  0.696900  0.437730  1.0  -0.0916
  C  C412  1  0.716400  0.631200  0.434130  1.0  -0.0871
  C  C413  1  0.751900  0.610500  0.470730  1.0  -0.1119
  C  C414  1  0.799600  0.655600  0.510830  1.0  -0.074
  C  C415  1  0.014900  0.121400  0.226600  1.0  0.0337
  C  C416  1  0.980200  0.049800  0.229400  1.0  -0.1306
  C  C417  1  0.980800  0.157000  0.201200  1.0  0.3048
  C  C418  1  0.909600  0.188200  0.181200  1.0  0.0823
  C  C419  1  0.965700  0.223700  0.144600  1.0  0.1387
  C  C420  1  0.968300  0.271400  0.104400  1.0  -0.0897
  C  C421  1  0.914800  0.283600  0.100800  1.0  -0.0862
  C  C422  1  0.858600  0.248100  0.137400  1.0  -0.1126
  C  C423  1  0.856000  0.200400  0.177500  1.0  -0.079
  C  C424  1  0.106500  0.985100  0.893270  1.0  0.0339
  C  C425  1  0.069600  0.019800  0.896070  1.0  -0.1314
  C  C426  1  0.176200  0.019200  0.867870  1.0  0.3059
  C  C427  1  0.278600  0.090400  0.847870  1.0  0.0826
  C  C428  1  0.258000  0.034300  0.811270  1.0  0.1413
  C  C429  1  0.303100  0.031700  0.771070  1.0  -0.0915
  C  C430  1  0.368800  0.085200  0.767470  1.0  -0.0862
  C  C431  1  0.389500  0.141400  0.804070  1.0  -0.1121
  C  C432  1  0.344400  0.144000  0.844170  1.0  -0.0799
  C  C433  1  0.076850  0.153700  0.250000  1.0  -0.0655
  C  C434  1  0.008100  0.016200  0.250000  1.0  -0.0615
  C  C435  1  0.846300  0.923150  0.583330  1.0  -0.0647
  C  C436  1  0.983800  0.991900  0.583330  1.0  -0.0673
  C  C437  1  0.076850  0.923150  0.916670  1.0  -0.0652
  C  C438  1  0.008100  0.991900  0.916670  1.0  -0.0655
  C  C439  1  0.923150  0.846300  0.750000  1.0  -0.0631
  C  C440  1  0.991900  0.983800  0.750000  1.0  -0.0604
  C  C441  1  0.153700  0.076850  0.083330  1.0  -0.0652
  C  C442  1  0.016200  0.008100  0.083330  1.0  -0.066
  C  C443  1  0.923150  0.076850  0.416670  1.0  -0.0649
  C  C444  1  0.991900  0.008100  0.416670  1.0  -0.0676
  I  I445  1  0.762740  0.609530  0.837880  1.0  -0.2802
  I  I446  1  0.810520  0.444640  0.791010  1.0  -0.2609
  I  I447  1  0.390470  0.153210  0.171210  1.0  -0.2796
  I  I448  1  0.555360  0.365880  0.124340  1.0  -0.2586
  I  I449  1  0.846790  0.237260  0.504550  1.0  -0.28
  I  I450  1  0.634120  0.189480  0.457680  1.0  -0.2613
  I  I451  1  0.237260  0.390470  0.337880  1.0  -0.2798
  I  I452  1  0.189480  0.555360  0.291010  1.0  -0.2603
  I  I453  1  0.609530  0.846790  0.671210  1.0  -0.2798
  I  I454  1  0.444640  0.634120  0.624340  1.0  -0.2617
  I  I455  1  0.153210  0.762740  0.004550  1.0  -0.2797
  I  I456  1  0.365880  0.810520  0.957680  1.0  -0.2588
  I  I457  1  0.609530  0.762740  0.495450  1.0  -0.2808
  I  I458  1  0.444640  0.810520  0.542320  1.0  -0.2621
  I  I459  1  0.153210  0.390470  0.162120  1.0  -0.2813
  I  I460  1  0.365880  0.555360  0.208990  1.0  -0.2594
  I  I461  1  0.237260  0.846790  0.828790  1.0  -0.2804
  I  I462  1  0.189480  0.634120  0.875660  1.0  -0.2618
  I  I463  1  0.390470  0.237260  0.995450  1.0  -0.2808
  I  I464  1  0.555360  0.189480  0.042320  1.0  -0.26
  I  I465  1  0.846790  0.609530  0.662120  1.0  -0.2809
  I  I466  1  0.634120  0.444640  0.708990  1.0  -0.2622
  I  I467  1  0.762740  0.153210  0.328790  1.0  -0.2812
  I  I468  1  0.810520  0.365880  0.375660  1.0  -0.2604
  N  N469  1  0.656200  0.421400  0.873900  1.0  -0.1288
  N  N470  1  0.937900  0.627100  0.811600  1.0  -0.1228
  N  N471  1  0.578600  0.234800  0.207230  1.0  -0.1285
  N  N472  1  0.372900  0.310800  0.144930  1.0  -0.1225
  N  N473  1  0.765200  0.343800  0.540570  1.0  -0.1295
  N  N474  1  0.689200  0.062100  0.478270  1.0  -0.123
  N  N475  1  0.343800  0.578600  0.373900  1.0  -0.1295
  N  N476  1  0.062100  0.372900  0.311600  1.0  -0.1239
  N  N477  1  0.421400  0.765200  0.707230  1.0  -0.1288
  N  N478  1  0.627100  0.689200  0.644930  1.0  -0.1224
  N  N479  1  0.234800  0.656200  0.040570  1.0  -0.1272
  N  N480  1  0.310800  0.937900  0.978270  1.0  -0.1232
  N  N481  1  0.421400  0.656200  0.459430  1.0  -0.1252
  N  N482  1  0.627100  0.937900  0.521730  1.0  -0.1228
  N  N483  1  0.234800  0.578600  0.126100  1.0  -0.128
  N  N484  1  0.310800  0.372900  0.188400  1.0  -0.1226
  N  N485  1  0.343800  0.765200  0.792770  1.0  -0.127
  N  N486  1  0.062100  0.689200  0.855070  1.0  -0.1228
  N  N487  1  0.578600  0.343800  0.959430  1.0  -0.1276
  N  N488  1  0.372900  0.062100  0.021730  1.0  -0.1214
  N  N489  1  0.765200  0.421400  0.626100  1.0  -0.1267
  N  N490  1  0.689200  0.627100  0.688400  1.0  -0.1226
  N  N491  1  0.656200  0.234800  0.292770  1.0  -0.1271
  N  N492  1  0.937900  0.310800  0.355070  1.0  -0.1222
  N  N493  1  0.225100  0.145400  0.282900  1.0  -0.4154
  N  N494  1  0.194300  0.204000  0.343400  1.0  -0.3988
  N  N495  1  0.854600  0.079700  0.616230  1.0  -0.4135
  N  N496  1  0.796000  0.990300  0.676730  1.0  -0.3958
  N  N497  1  0.920300  0.774900  0.949570  1.0  -0.4142
  N  N498  1  0.009700  0.805700  0.010070  1.0  -0.3993
  N  N499  1  0.774900  0.854600  0.782900  1.0  -0.4131
  N  N500  1  0.805700  0.796000  0.843400  1.0  -0.3995
  N  N501  1  0.145400  0.920300  0.116230  1.0  -0.4157
  N  N502  1  0.204000  0.009700  0.176730  1.0  -0.3972
  N  N503  1  0.079700  0.225100  0.449570  1.0  -0.4139
  N  N504  1  0.990300  0.194300  0.510070  1.0  -0.3982
  N  N505  1  0.145400  0.225100  0.050430  1.0  -0.4145
  N  N506  1  0.204000  0.194300  0.989930  1.0  -0.3983
  N  N507  1  0.079700  0.854600  0.717100  1.0  -0.4149
  N  N508  1  0.990300  0.796000  0.656600  1.0  -0.398
  N  N509  1  0.774900  0.920300  0.383770  1.0  -0.4166
  N  N510  1  0.805700  0.009700  0.323270  1.0  -0.3949
  N  N511  1  0.854600  0.774900  0.550430  1.0  -0.4146
  N  N512  1  0.796000  0.805700  0.489930  1.0  -0.3964
  N  N513  1  0.920300  0.145400  0.217100  1.0  -0.4162
  N  N514  1  0.009700  0.204000  0.156600  1.0  -0.399
  N  N515  1  0.225100  0.079700  0.883770  1.0  -0.4146
  N  N516  1  0.194300  0.990300  0.823270  1.0  -0.3961
