# generated using pymatgen
data_Cu3H18C16(IN2)2
_symmetry_space_group_name_H-M   'P 1'
_cell_length_a   22.22000000
_cell_length_b   22.22000000
_cell_length_c   22.48700000
_cell_angle_alpha   90.00000000
_cell_angle_beta   90.00000000
_cell_angle_gamma   120.00000000
_symmetry_Int_Tables_number   1
_chemical_formula_structural   Cu3H18C16(IN2)2
_chemical_formula_sum   'Cu36 H216 C192 I24 N48'
_cell_volume   9615.02152444
_cell_formula_units_Z   12
loop_
 _symmetry_equiv_pos_site_id
 _symmetry_equiv_pos_as_xyz
  1  'x, y, z'
loop_
 _atom_site_type_symbol
 _atom_site_label
 _atom_site_symmetry_multiplicity
 _atom_site_fract_x
 _atom_site_fract_y
 _atom_site_fract_z
 _atom_site_occupancy
 _atom_site_charge
  Cu  Cu1  1  0.522900  0.284710  0.530720  1.0  0.1409
  Cu  Cu2  1  0.428420  0.267930  0.608880  1.0  0.1469
  Cu  Cu3  1  0.715290  0.238190  0.864050  1.0  0.1419
  Cu  Cu4  1  0.732070  0.160490  0.942210  1.0  0.1424
  Cu  Cu5  1  0.761810  0.477100  0.197390  1.0  0.1416
  Cu  Cu6  1  0.839510  0.571580  0.275550  1.0  0.1452
  Cu  Cu7  1  0.477100  0.715290  0.030720  1.0  0.1419
  Cu  Cu8  1  0.571580  0.732070  0.108880  1.0  0.146
  Cu  Cu9  1  0.284710  0.761810  0.364050  1.0  0.1417
  Cu  Cu10  1  0.267930  0.839510  0.442210  1.0  0.1431
  Cu  Cu11  1  0.238190  0.522900  0.697390  1.0  0.1418
  Cu  Cu12  1  0.160490  0.428420  0.775550  1.0  0.1474
  Cu  Cu13  1  0.284710  0.522900  0.802610  1.0  0.1424
  Cu  Cu14  1  0.267930  0.428420  0.724450  1.0  0.1449
  Cu  Cu15  1  0.238190  0.715290  0.469280  1.0  0.1421
  Cu  Cu16  1  0.160490  0.732070  0.391120  1.0  0.1468
  Cu  Cu17  1  0.477100  0.761810  0.135950  1.0  0.1424
  Cu  Cu18  1  0.571580  0.839510  0.057790  1.0  0.1433
  Cu  Cu19  1  0.715290  0.477100  0.302610  1.0  0.1428
  Cu  Cu20  1  0.732070  0.571580  0.224450  1.0  0.1467
  Cu  Cu21  1  0.761810  0.284710  0.969280  1.0  0.1426
  Cu  Cu22  1  0.839510  0.267930  0.891120  1.0  0.1452
  Cu  Cu23  1  0.522900  0.238190  0.635950  1.0  0.1425
  Cu  Cu24  1  0.428420  0.160490  0.557790  1.0  0.1416
  Cu  Cu25  1  0.858620  0.774250  0.393030  1.0  0.2568
  Cu  Cu26  1  0.225750  0.084370  0.726360  1.0  0.2582
  Cu  Cu27  1  0.915630  0.141380  0.059700  1.0  0.2581
  Cu  Cu28  1  0.141380  0.225750  0.893030  1.0  0.2567
  Cu  Cu29  1  0.774250  0.915630  0.226360  1.0  0.2578
  Cu  Cu30  1  0.084370  0.858620  0.559700  1.0  0.2574
  Cu  Cu31  1  0.774250  0.858620  0.940300  1.0  0.2591
  Cu  Cu32  1  0.084370  0.225750  0.606970  1.0  0.2571
  Cu  Cu33  1  0.141380  0.915630  0.273640  1.0  0.2583
  Cu  Cu34  1  0.225750  0.141380  0.440300  1.0  0.2577
  Cu  Cu35  1  0.915630  0.774250  0.106970  1.0  0.2584
  Cu  Cu36  1  0.858620  0.084370  0.773640  1.0  0.2582
  H  H37  1  0.522200  0.279000  0.395300  1.0  0.0656
  H  H38  1  0.578900  0.262100  0.418400  1.0  0.0591
  H  H39  1  0.572500  0.426700  0.477400  1.0  0.0579
  H  H40  1  0.513600  0.372600  0.435700  1.0  0.0557
  H  H41  1  0.671800  0.347200  0.484900  1.0  0.0752
  H  H42  1  0.663400  0.407400  0.512900  1.0  0.0648
  H  H43  1  0.289000  0.221200  0.670300  1.0  0.083
  H  H44  1  0.276700  0.249600  0.610300  1.0  0.0768
  H  H45  1  0.453000  0.367200  0.703200  1.0  0.0692
  H  H46  1  0.389500  0.301800  0.731800  1.0  0.0817
  H  H47  1  0.375500  0.358800  0.564900  1.0  0.0852
  H  H48  1  0.435300  0.409300  0.607900  1.0  0.0793
  H  H49  1  0.721000  0.243200  0.728630  1.0  0.0625
  H  H50  1  0.737900  0.316800  0.751730  1.0  0.0605
  H  H51  1  0.573300  0.145800  0.810730  1.0  0.0601
  H  H52  1  0.627400  0.141000  0.769030  1.0  0.0559
  H  H53  1  0.652800  0.324600  0.818230  1.0  0.0753
  H  H54  1  0.592600  0.256000  0.846230  1.0  0.0657
  H  H55  1  0.778800  0.067800  0.003630  1.0  0.0826
  H  H56  1  0.750400  0.027100  0.943630  1.0  0.0777
  H  H57  1  0.632800  0.085800  0.036530  1.0  0.0711
  H  H58  1  0.698200  0.087700  0.065130  1.0  0.0817
  H  H59  1  0.641200  0.016700  0.898230  1.0  0.087
  H  H60  1  0.590700  0.026000  0.941230  1.0  0.0766
  H  H61  1  0.756800  0.477800  0.061970  1.0  0.066
  H  H62  1  0.683200  0.421100  0.085070  1.0  0.0589
  H  H63  1  0.854200  0.427500  0.144070  1.0  0.0569
  H  H64  1  0.859000  0.486400  0.102370  1.0  0.0564
  H  H65  1  0.675400  0.328200  0.151570  1.0  0.0723
  H  H66  1  0.744000  0.336600  0.179570  1.0  0.0654
  H  H67  1  0.932200  0.711000  0.336970  1.0  0.0815
  H  H68  1  0.972900  0.723300  0.276970  1.0  0.0774
  H  H69  1  0.914200  0.547000  0.369870  1.0  0.0708
  H  H70  1  0.912300  0.610500  0.398470  1.0  0.0804
  H  H71  1  0.983300  0.624500  0.231570  1.0  0.0845
  H  H72  1  0.974000  0.564700  0.274570  1.0  0.0779
  H  H73  1  0.477800  0.721000  0.895300  1.0  0.0671
  H  H74  1  0.421100  0.737900  0.918400  1.0  0.0583
  H  H75  1  0.427500  0.573300  0.977400  1.0  0.059
  H  H76  1  0.486400  0.627400  0.935700  1.0  0.0553
  H  H77  1  0.328200  0.652800  0.984900  1.0  0.0747
  H  H78  1  0.336600  0.592600  0.012900  1.0  0.0653
  H  H79  1  0.711000  0.778800  0.170300  1.0  0.08
  H  H80  1  0.723300  0.750400  0.110300  1.0  0.0771
  H  H81  1  0.547000  0.632800  0.203200  1.0  0.0696
  H  H82  1  0.610500  0.698200  0.231800  1.0  0.0816
  H  H83  1  0.624500  0.641200  0.064900  1.0  0.0846
  H  H84  1  0.564700  0.590700  0.107900  1.0  0.0759
  H  H85  1  0.279000  0.756800  0.228630  1.0  0.0618
  H  H86  1  0.262100  0.683200  0.251730  1.0  0.0584
  H  H87  1  0.426700  0.854200  0.310730  1.0  0.0587
  H  H88  1  0.372600  0.859000  0.269030  1.0  0.0534
  H  H89  1  0.347200  0.675400  0.318230  1.0  0.0727
  H  H90  1  0.407400  0.744000  0.346230  1.0  0.0645
  H  H91  1  0.221200  0.932200  0.503630  1.0  0.0832
  H  H92  1  0.249600  0.972900  0.443630  1.0  0.0766
  H  H93  1  0.367200  0.914200  0.536530  1.0  0.0692
  H  H94  1  0.301800  0.912300  0.565130  1.0  0.0823
  H  H95  1  0.358800  0.983300  0.398230  1.0  0.0867
  H  H96  1  0.409300  0.974000  0.441230  1.0  0.0753
  H  H97  1  0.243200  0.522200  0.561970  1.0  0.0658
  H  H98  1  0.316800  0.578900  0.585070  1.0  0.0602
  H  H99  1  0.145800  0.572500  0.644070  1.0  0.058
  H  H100  1  0.141000  0.513600  0.602370  1.0  0.054
  H  H101  1  0.324600  0.671800  0.651570  1.0  0.0699
  H  H102  1  0.256000  0.663400  0.679570  1.0  0.065
  H  H103  1  0.067800  0.289000  0.836970  1.0  0.0786
  H  H104  1  0.027100  0.276700  0.776970  1.0  0.0774
  H  H105  1  0.085800  0.453000  0.869870  1.0  0.0731
  H  H106  1  0.087700  0.389500  0.898470  1.0  0.0801
  H  H107  1  0.016700  0.375500  0.731570  1.0  0.0859
  H  H108  1  0.026000  0.435300  0.774570  1.0  0.0795
  H  H109  1  0.279000  0.522200  0.938030  1.0  0.0643
  H  H110  1  0.262100  0.578900  0.914930  1.0  0.0594
  H  H111  1  0.426700  0.572500  0.855930  1.0  0.0541
  H  H112  1  0.372600  0.513600  0.897630  1.0  0.0554
  H  H113  1  0.347200  0.671800  0.848430  1.0  0.0711
  H  H114  1  0.407400  0.663400  0.820430  1.0  0.065
  H  H115  1  0.221200  0.289000  0.663030  1.0  0.0815
  H  H116  1  0.249600  0.276700  0.723030  1.0  0.0762
  H  H117  1  0.367200  0.453000  0.630130  1.0  0.0741
  H  H118  1  0.301800  0.389500  0.601530  1.0  0.0796
  H  H119  1  0.358800  0.375500  0.768430  1.0  0.0844
  H  H120  1  0.409300  0.435300  0.725430  1.0  0.0767
  H  H121  1  0.243200  0.721000  0.604700  1.0  0.0641
  H  H122  1  0.316800  0.737900  0.581600  1.0  0.0599
  H  H123  1  0.145800  0.573300  0.522600  1.0  0.0544
  H  H124  1  0.141000  0.627400  0.564300  1.0  0.0562
  H  H125  1  0.324600  0.652800  0.515100  1.0  0.0757
  H  H126  1  0.256000  0.592600  0.487100  1.0  0.0645
  H  H127  1  0.067800  0.778800  0.329700  1.0  0.0809
  H  H128  1  0.027100  0.750400  0.389700  1.0  0.0758
  H  H129  1  0.085800  0.632800  0.296800  1.0  0.0694
  H  H130  1  0.087700  0.698200  0.268200  1.0  0.0803
  H  H131  1  0.016700  0.641200  0.435100  1.0  0.0845
  H  H132  1  0.026000  0.590700  0.392100  1.0  0.0756
  H  H133  1  0.477800  0.756800  0.271370  1.0  0.0618
  H  H134  1  0.421100  0.683200  0.248270  1.0  0.0593
  H  H135  1  0.427500  0.854200  0.189270  1.0  0.0559
  H  H136  1  0.486400  0.859000  0.230970  1.0  0.0547
  H  H137  1  0.328200  0.675400  0.181770  1.0  0.0721
  H  H138  1  0.336600  0.744000  0.153770  1.0  0.0648
  H  H139  1  0.711000  0.932200  0.996370  1.0  0.0832
  H  H140  1  0.723300  0.972900  0.056370  1.0  0.0766
  H  H141  1  0.547000  0.914200  0.963470  1.0  0.0699
  H  H142  1  0.610500  0.912300  0.934870  1.0  0.0808
  H  H143  1  0.624500  0.983300  0.101770  1.0  0.0874
  H  H144  1  0.564700  0.974000  0.058770  1.0  0.0746
  H  H145  1  0.721000  0.477800  0.438030  1.0  0.0638
  H  H146  1  0.737900  0.421100  0.414930  1.0  0.0601
  H  H147  1  0.573300  0.427500  0.355930  1.0  0.0544
  H  H148  1  0.627400  0.486400  0.397630  1.0  0.0571
  H  H149  1  0.652800  0.328200  0.348430  1.0  0.0709
  H  H150  1  0.592600  0.336600  0.320430  1.0  0.0646
  H  H151  1  0.778800  0.711000  0.163030  1.0  0.0787
  H  H152  1  0.750400  0.723300  0.223030  1.0  0.0764
  H  H153  1  0.632800  0.547000  0.130130  1.0  0.0698
  H  H154  1  0.698200  0.610500  0.101530  1.0  0.0793
  H  H155  1  0.641200  0.624500  0.268430  1.0  0.0852
  H  H156  1  0.590700  0.564700  0.225430  1.0  0.0756
  H  H157  1  0.756800  0.279000  0.104700  1.0  0.0662
  H  H158  1  0.683200  0.262100  0.081600  1.0  0.0569
  H  H159  1  0.854200  0.426700  0.022600  1.0  0.0557
  H  H160  1  0.859000  0.372600  0.064300  1.0  0.0544
  H  H161  1  0.675400  0.347200  0.015100  1.0  0.0744
  H  H162  1  0.744000  0.407400  0.987100  1.0  0.0642
  H  H163  1  0.932200  0.221200  0.829700  1.0  0.0811
  H  H164  1  0.972900  0.249600  0.889700  1.0  0.0759
  H  H165  1  0.914200  0.367200  0.796800  1.0  0.0714
  H  H166  1  0.912300  0.301800  0.768200  1.0  0.0798
  H  H167  1  0.983300  0.358800  0.935100  1.0  0.0849
  H  H168  1  0.974000  0.409300  0.892100  1.0  0.0756
  H  H169  1  0.522200  0.243200  0.771370  1.0  0.061
  H  H170  1  0.578900  0.316800  0.748270  1.0  0.0609
  H  H171  1  0.572500  0.145800  0.689270  1.0  0.0551
  H  H172  1  0.513600  0.141000  0.730970  1.0  0.055
  H  H173  1  0.671800  0.324600  0.681770  1.0  0.0749
  H  H174  1  0.663400  0.256000  0.653770  1.0  0.0646
  H  H175  1  0.289000  0.067800  0.496370  1.0  0.0831
  H  H176  1  0.276700  0.027100  0.556370  1.0  0.0757
  H  H177  1  0.453000  0.085800  0.463470  1.0  0.0708
  H  H178  1  0.389500  0.087700  0.434870  1.0  0.0814
  H  H179  1  0.375500  0.016700  0.601770  1.0  0.0863
  H  H180  1  0.435300  0.026000  0.558770  1.0  0.0738
  H  H181  1  0.904300  0.972800  0.287100  1.0  0.095
  H  H182  1  0.631500  0.825700  0.300000  1.0  0.0987
  H  H183  1  0.553100  0.744600  0.369500  1.0  0.107
  H  H184  1  0.590900  0.686800  0.430600  1.0  0.0973
  H  H185  1  0.700400  0.698300  0.422800  1.0  0.1095
  H  H186  1  0.027200  0.931500  0.620430  1.0  0.0964
  H  H187  1  0.174300  0.805800  0.633330  1.0  0.099
  H  H188  1  0.255400  0.808500  0.702830  1.0  0.1054
  H  H189  1  0.313200  0.904100  0.763930  1.0  0.096
  H  H190  1  0.301700  0.002100  0.756130  1.0  0.1095
  H  H191  1  0.068500  0.095700  0.953770  1.0  0.0955
  H  H192  1  0.194200  0.368500  0.966670  1.0  0.0995
  H  H193  1  0.191500  0.446900  0.036170  1.0  0.1058
  H  H194  1  0.095900  0.409100  0.097270  1.0  0.0969
  H  H195  1  0.997900  0.299600  0.089470  1.0  0.109
  H  H196  1  0.095700  0.027200  0.787100  1.0  0.0957
  H  H197  1  0.368500  0.174300  0.800000  1.0  0.0991
  H  H198  1  0.446900  0.255400  0.869500  1.0  0.1052
  H  H199  1  0.409100  0.313200  0.930600  1.0  0.0969
  H  H200  1  0.299600  0.301700  0.922800  1.0  0.1103
  H  H201  1  0.972800  0.068500  0.120430  1.0  0.0952
  H  H202  1  0.825700  0.194200  0.133330  1.0  0.0992
  H  H203  1  0.744600  0.191500  0.202830  1.0  0.1059
  H  H204  1  0.686800  0.095900  0.263930  1.0  0.0963
  H  H205  1  0.698300  0.997900  0.256130  1.0  0.1093
  H  H206  1  0.931500  0.904300  0.453770  1.0  0.0951
  H  H207  1  0.805800  0.631500  0.466670  1.0  0.0992
  H  H208  1  0.808500  0.553100  0.536170  1.0  0.1058
  H  H209  1  0.904100  0.590900  0.597270  1.0  0.0971
  H  H210  1  0.002100  0.700400  0.589470  1.0  0.109
  H  H211  1  0.972800  0.904300  0.046230  1.0  0.0957
  H  H212  1  0.825700  0.631500  0.033330  1.0  0.0991
  H  H213  1  0.744600  0.553100  0.963830  1.0  0.1053
  H  H214  1  0.686800  0.590900  0.902730  1.0  0.0957
  H  H215  1  0.698300  0.700400  0.910530  1.0  0.1084
  H  H216  1  0.931500  0.027200  0.712900  1.0  0.0954
  H  H217  1  0.805800  0.174300  0.700000  1.0  0.0985
  H  H218  1  0.808500  0.255400  0.630500  1.0  0.1063
  H  H219  1  0.904100  0.313200  0.569400  1.0  0.0952
  H  H220  1  0.002100  0.301700  0.577200  1.0  0.1084
  H  H221  1  0.095700  0.068500  0.379570  1.0  0.0956
  H  H222  1  0.368500  0.194200  0.366670  1.0  0.0984
  H  H223  1  0.446900  0.191500  0.297170  1.0  0.1053
  H  H224  1  0.409100  0.095900  0.236070  1.0  0.0952
  H  H225  1  0.299600  0.997900  0.243870  1.0  0.1086
  H  H226  1  0.027200  0.095700  0.546230  1.0  0.0951
  H  H227  1  0.174300  0.368500  0.533330  1.0  0.0985
  H  H228  1  0.255400  0.446900  0.463830  1.0  0.1052
  H  H229  1  0.313200  0.409100  0.402730  1.0  0.0955
  H  H230  1  0.301700  0.299600  0.410530  1.0  0.108
  H  H231  1  0.068500  0.972800  0.212900  1.0  0.0954
  H  H232  1  0.194200  0.825700  0.200000  1.0  0.0983
  H  H233  1  0.191500  0.744600  0.130500  1.0  0.1048
  H  H234  1  0.095900  0.686800  0.069400  1.0  0.0957
  H  H235  1  0.997900  0.698300  0.077200  1.0  0.1102
  H  H236  1  0.904300  0.931500  0.879570  1.0  0.0962
  H  H237  1  0.631500  0.805800  0.866670  1.0  0.0993
  H  H238  1  0.553100  0.808500  0.797170  1.0  0.1043
  H  H239  1  0.590900  0.904100  0.736070  1.0  0.0946
  H  H240  1  0.700400  0.002100  0.743870  1.0  0.1091
  H  H241  1  0.017700  0.035400  0.250000  1.0  0.1119
  H  H242  1  0.897500  0.795000  0.250000  1.0  0.0454
  H  H243  1  0.964600  0.982300  0.583330  1.0  0.1132
  H  H244  1  0.205000  0.102500  0.583330  1.0  0.0466
  H  H245  1  0.017700  0.982300  0.916670  1.0  0.1125
  H  H246  1  0.897500  0.102500  0.916670  1.0  0.0477
  H  H247  1  0.982300  0.964600  0.750000  1.0  0.1118
  H  H248  1  0.102500  0.205000  0.750000  1.0  0.0459
  H  H249  1  0.035400  0.017700  0.083330  1.0  0.1129
  H  H250  1  0.795000  0.897500  0.083330  1.0  0.0478
  H  H251  1  0.982300  0.017700  0.416670  1.0  0.1129
  H  H252  1  0.102500  0.897500  0.416670  1.0  0.0468
  C  C253  1  0.570200  0.299500  0.408100  1.0  -0.0379
  C  C254  1  0.562900  0.395300  0.444200  1.0  -0.0311
  C  C255  1  0.656700  0.380500  0.477000  1.0  -0.0706
  C  C256  1  0.297300  0.262900  0.649600  1.0  -0.029
  C  C257  1  0.402700  0.340200  0.704400  1.0  -0.0229
  C  C258  1  0.386900  0.373300  0.606000  1.0  -0.0505
  C  C259  1  0.700500  0.270700  0.741430  1.0  -0.037
  C  C260  1  0.604700  0.167600  0.777530  1.0  -0.0362
  C  C261  1  0.619500  0.276200  0.810330  1.0  -0.073
  C  C262  1  0.737100  0.034400  0.982930  1.0  -0.0301
  C  C263  1  0.659800  0.062500  0.037730  1.0  -0.0287
  C  C264  1  0.626700  0.013600  0.939330  1.0  -0.0506
  C  C265  1  0.729300  0.429800  0.074770  1.0  -0.0373
  C  C266  1  0.832400  0.437100  0.110870  1.0  -0.0325
  C  C267  1  0.723800  0.343300  0.143670  1.0  -0.0751
  C  C268  1  0.965600  0.702700  0.316270  1.0  -0.0297
  C  C269  1  0.937500  0.597300  0.371070  1.0  -0.0283
  C  C270  1  0.986400  0.613100  0.272670  1.0  -0.0494
  C  C271  1  0.429800  0.700500  0.908100  1.0  -0.0381
  C  C272  1  0.437100  0.604700  0.944200  1.0  -0.0309
  C  C273  1  0.343300  0.619500  0.977000  1.0  -0.0705
  C  C274  1  0.702700  0.737100  0.149600  1.0  -0.0296
  C  C275  1  0.597300  0.659800  0.204400  1.0  -0.0243
  C  C276  1  0.613100  0.626700  0.106000  1.0  -0.0485
  C  C277  1  0.299500  0.729300  0.241430  1.0  -0.04
  C  C278  1  0.395300  0.832400  0.277530  1.0  -0.0364
  C  C279  1  0.380500  0.723800  0.310330  1.0  -0.073
  C  C280  1  0.262900  0.965600  0.482930  1.0  -0.0321
  C  C281  1  0.340200  0.937500  0.537730  1.0  -0.03
  C  C282  1  0.373300  0.986400  0.439330  1.0  -0.0512
  C  C283  1  0.270700  0.570200  0.574770  1.0  -0.0388
  C  C284  1  0.167600  0.562900  0.610870  1.0  -0.0353
  C  C285  1  0.276200  0.656700  0.643670  1.0  -0.0733
  C  C286  1  0.034400  0.297300  0.816270  1.0  -0.031
  C  C287  1  0.062500  0.402700  0.871070  1.0  -0.0284
  C  C288  1  0.013600  0.386900  0.772670  1.0  -0.0499
  C  C289  1  0.299500  0.570200  0.925230  1.0  -0.0377
  C  C290  1  0.395300  0.562900  0.889130  1.0  -0.0346
  C  C291  1  0.380500  0.656700  0.856330  1.0  -0.0721
  C  C292  1  0.262900  0.297300  0.683730  1.0  -0.0293
  C  C293  1  0.340200  0.402700  0.628930  1.0  -0.0288
  C  C294  1  0.373300  0.386900  0.727330  1.0  -0.0479
  C  C295  1  0.270700  0.700500  0.591900  1.0  -0.038
  C  C296  1  0.167600  0.604700  0.555800  1.0  -0.0303
  C  C297  1  0.276200  0.619500  0.523000  1.0  -0.0691
  C  C298  1  0.034400  0.737100  0.350400  1.0  -0.0304
  C  C299  1  0.062500  0.659800  0.295600  1.0  -0.0253
  C  C300  1  0.013600  0.626700  0.394000  1.0  -0.0492
  C  C301  1  0.429800  0.729300  0.258570  1.0  -0.0398
  C  C302  1  0.437100  0.832400  0.222470  1.0  -0.0365
  C  C303  1  0.343300  0.723800  0.189670  1.0  -0.0706
  C  C304  1  0.702700  0.965600  0.017070  1.0  -0.0319
  C  C305  1  0.597300  0.937500  0.962270  1.0  -0.03
  C  C306  1  0.613100  0.986400  0.060670  1.0  -0.0478
  C  C307  1  0.700500  0.429800  0.425230  1.0  -0.0361
  C  C308  1  0.604700  0.437100  0.389130  1.0  -0.0342
  C  C309  1  0.619500  0.343300  0.356330  1.0  -0.0717
  C  C310  1  0.737100  0.702700  0.183730  1.0  -0.0315
  C  C311  1  0.659800  0.597300  0.128930  1.0  -0.03
  C  C312  1  0.626700  0.613100  0.227330  1.0  -0.0482
  C  C313  1  0.729300  0.299500  0.091900  1.0  -0.0381
  C  C314  1  0.832400  0.395300  0.055800  1.0  -0.0298
  C  C315  1  0.723800  0.380500  0.023000  1.0  -0.0697
  C  C316  1  0.965600  0.262900  0.850400  1.0  -0.0289
  C  C317  1  0.937500  0.340200  0.795600  1.0  -0.0261
  C  C318  1  0.986400  0.373300  0.894000  1.0  -0.048
  C  C319  1  0.570200  0.270700  0.758570  1.0  -0.0383
  C  C320  1  0.562900  0.167600  0.722470  1.0  -0.0354
  C  C321  1  0.656700  0.276200  0.689670  1.0  -0.0714
  C  C322  1  0.297300  0.034400  0.517070  1.0  -0.0315
  C  C323  1  0.402700  0.062500  0.462270  1.0  -0.0296
  C  C324  1  0.386900  0.013600  0.560670  1.0  -0.0483
  C  C325  1  0.888900  0.875000  0.273600  1.0  -0.02
  C  C326  1  0.925700  0.949100  0.272500  1.0  -0.0882
  C  C327  1  0.817600  0.839000  0.299700  1.0  0.3463
  C  C328  1  0.732300  0.772700  0.356200  1.0  0.1185
  C  C329  1  0.712000  0.808200  0.319400  1.0  0.0839
  C  C330  1  0.644600  0.800100  0.324100  1.0  -0.0575
  C  C331  1  0.598100  0.752400  0.366000  1.0  -0.0974
  C  C332  1  0.621500  0.717000  0.402200  1.0  -0.113
  C  C333  1  0.687100  0.723900  0.398900  1.0  -0.1438
  C  C334  1  0.125000  0.013900  0.606930  1.0  -0.0187
  C  C335  1  0.050900  0.976600  0.605830  1.0  -0.0879
  C  C336  1  0.161000  0.978600  0.633030  1.0  0.3465
  C  C337  1  0.227300  0.959600  0.689530  1.0  0.1174
  C  C338  1  0.191800  0.903800  0.652730  1.0  0.0826
  C  C339  1  0.199900  0.844500  0.657430  1.0  -0.0571
  C  C340  1  0.247600  0.845700  0.699330  1.0  -0.0975
  C  C341  1  0.283000  0.904500  0.735530  1.0  -0.1086
  C  C342  1  0.276100  0.963200  0.732230  1.0  -0.1458
  C  C343  1  0.986100  0.111100  0.940270  1.0  -0.018
  C  C344  1  0.023400  0.074300  0.939170  1.0  -0.0836
  C  C345  1  0.021400  0.182400  0.966370  1.0  0.3473
  C  C346  1  0.040400  0.267700  0.022870  1.0  0.1163
  C  C347  1  0.096200  0.288000  0.986070  1.0  0.0814
  C  C348  1  0.155500  0.355400  0.990770  1.0  -0.0518
  C  C349  1  0.154300  0.401900  0.032670  1.0  -0.0967
  C  C350  1  0.095500  0.378500  0.068870  1.0  -0.1121
  C  C351  1  0.036800  0.312900  0.065570  1.0  -0.1473
  C  C352  1  0.111100  0.125000  0.773600  1.0  -0.0196
  C  C353  1  0.074300  0.050900  0.772500  1.0  -0.0863
  C  C354  1  0.182400  0.161000  0.799700  1.0  0.3464
  C  C355  1  0.267700  0.227300  0.856200  1.0  0.1163
  C  C356  1  0.288000  0.191800  0.819400  1.0  0.0814
  C  C357  1  0.355400  0.199900  0.824100  1.0  -0.0572
  C  C358  1  0.401900  0.247600  0.866000  1.0  -0.0955
  C  C359  1  0.378500  0.283000  0.902200  1.0  -0.1097
  C  C360  1  0.312900  0.276100  0.898900  1.0  -0.1455
  C  C361  1  0.875000  0.986100  0.106930  1.0  -0.0183
  C  C362  1  0.949100  0.023400  0.105830  1.0  -0.0895
  C  C363  1  0.839000  0.021400  0.133030  1.0  0.3465
  C  C364  1  0.772700  0.040400  0.189530  1.0  0.1191
  C  C365  1  0.808200  0.096200  0.152730  1.0  0.0829
  C  C366  1  0.800100  0.155500  0.157430  1.0  -0.0568
  C  C367  1  0.752400  0.154300  0.199330  1.0  -0.0978
  C  C368  1  0.717000  0.095500  0.235530  1.0  -0.1112
  C  C369  1  0.723900  0.036800  0.232230  1.0  -0.1453
  C  C370  1  0.013900  0.888900  0.440270  1.0  -0.0179
  C  C371  1  0.976600  0.925700  0.439170  1.0  -0.0841
  C  C372  1  0.978600  0.817600  0.466370  1.0  0.3478
  C  C373  1  0.959600  0.732300  0.522870  1.0  0.1156
  C  C374  1  0.903800  0.712000  0.486070  1.0  0.084
  C  C375  1  0.844500  0.644600  0.490770  1.0  -0.0539
  C  C376  1  0.845700  0.598100  0.532670  1.0  -0.0974
  C  C377  1  0.904500  0.621500  0.568870  1.0  -0.1123
  C  C378  1  0.963200  0.687100  0.565570  1.0  -0.1445
  C  C379  1  0.875000  0.888900  0.059730  1.0  -0.0175
  C  C380  1  0.949100  0.925700  0.060830  1.0  -0.0837
  C  C381  1  0.839000  0.817600  0.033630  1.0  0.3477
  C  C382  1  0.772700  0.732300  0.977130  1.0  0.1148
  C  C383  1  0.808200  0.712000  0.013930  1.0  0.0808
  C  C384  1  0.800100  0.644600  0.009230  1.0  -0.0526
  C  C385  1  0.752400  0.598100  0.967330  1.0  -0.0979
  C  C386  1  0.717000  0.621500  0.931130  1.0  -0.113
  C  C387  1  0.723900  0.687100  0.934430  1.0  -0.1455
  C  C388  1  0.013900  0.125000  0.726400  1.0  -0.0204
  C  C389  1  0.976600  0.050900  0.727500  1.0  -0.0857
  C  C390  1  0.978600  0.161000  0.700300  1.0  0.346
  C  C391  1  0.959600  0.227300  0.643800  1.0  0.1164
  C  C392  1  0.903800  0.191800  0.680600  1.0  0.0824
  C  C393  1  0.844500  0.199900  0.675900  1.0  -0.0559
  C  C394  1  0.845700  0.247600  0.634000  1.0  -0.0996
  C  C395  1  0.904500  0.283000  0.597800  1.0  -0.1118
  C  C396  1  0.963200  0.276100  0.601100  1.0  -0.1443
  C  C397  1  0.111100  0.986100  0.393070  1.0  -0.0185
  C  C398  1  0.074300  0.023400  0.394170  1.0  -0.0889
  C  C399  1  0.182400  0.021400  0.366970  1.0  0.347
  C  C400  1  0.267700  0.040400  0.310470  1.0  0.117
  C  C401  1  0.288000  0.096200  0.347270  1.0  0.0846
  C  C402  1  0.355400  0.155500  0.342570  1.0  -0.0567
  C  C403  1  0.401900  0.154300  0.300670  1.0  -0.0982
  C  C404  1  0.378500  0.095500  0.264470  1.0  -0.1082
  C  C405  1  0.312900  0.036800  0.267770  1.0  -0.1443
  C  C406  1  0.125000  0.111100  0.559730  1.0  -0.0179
  C  C407  1  0.050900  0.074300  0.560830  1.0  -0.0831
  C  C408  1  0.161000  0.182400  0.533630  1.0  0.347
  C  C409  1  0.227300  0.267700  0.477130  1.0  0.1147
  C  C410  1  0.191800  0.288000  0.513930  1.0  0.0848
  C  C411  1  0.199900  0.355400  0.509230  1.0  -0.0537
  C  C412  1  0.247600  0.401900  0.467330  1.0  -0.0978
  C  C413  1  0.283000  0.378500  0.431130  1.0  -0.1128
  C  C414  1  0.276100  0.312900  0.434430  1.0  -0.1454
  C  C415  1  0.986100  0.875000  0.226400  1.0  -0.0191
  C  C416  1  0.023400  0.949100  0.227500  1.0  -0.0888
  C  C417  1  0.021400  0.839000  0.200300  1.0  0.3466
  C  C418  1  0.040400  0.772700  0.143800  1.0  0.1153
  C  C419  1  0.096200  0.808200  0.180600  1.0  0.0829
  C  C420  1  0.155500  0.800100  0.175900  1.0  -0.057
  C  C421  1  0.154300  0.752400  0.134000  1.0  -0.0963
  C  C422  1  0.095500  0.717000  0.097800  1.0  -0.1112
  C  C423  1  0.036800  0.723900  0.101100  1.0  -0.1431
  C  C424  1  0.888900  0.013900  0.893070  1.0  -0.0183
  C  C425  1  0.925700  0.976600  0.894170  1.0  -0.0876
  C  C426  1  0.817600  0.978600  0.866970  1.0  0.347
  C  C427  1  0.732300  0.959600  0.810470  1.0  0.1174
  C  C428  1  0.712000  0.903800  0.847270  1.0  0.0822
  C  C429  1  0.644600  0.844500  0.842570  1.0  -0.0565
  C  C430  1  0.598100  0.845700  0.800670  1.0  -0.0972
  C  C431  1  0.621500  0.904500  0.764470  1.0  -0.1095
  C  C432  1  0.687100  0.963200  0.767770  1.0  -0.1451
  C  C433  1  0.993500  0.987000  0.250000  1.0  -0.1403
  C  C434  1  0.921650  0.843300  0.250000  1.0  -0.0474
  C  C435  1  0.013000  0.006500  0.583330  1.0  -0.1463
  C  C436  1  0.156700  0.078350  0.583330  1.0  -0.0508
  C  C437  1  0.993500  0.006500  0.916670  1.0  -0.1454
  C  C438  1  0.921650  0.078350  0.916670  1.0  -0.0515
  C  C439  1  0.006500  0.013000  0.750000  1.0  -0.1411
  C  C440  1  0.078350  0.156700  0.750000  1.0  -0.0493
  C  C441  1  0.987000  0.993500  0.083330  1.0  -0.1443
  C  C442  1  0.843300  0.921650  0.083330  1.0  -0.0513
  C  C443  1  0.006500  0.993500  0.416670  1.0  -0.1456
  C  C444  1  0.078350  0.921650  0.416670  1.0  -0.051
  I  I445  1  0.390770  0.238290  0.495760  1.0  -0.2676
  I  I446  1  0.563370  0.373830  0.621630  1.0  -0.3067
  I  I447  1  0.761710  0.152480  0.829090  1.0  -0.268
  I  I448  1  0.626170  0.189540  0.954960  1.0  -0.309
  I  I449  1  0.847520  0.609230  0.162430  1.0  -0.2688
  I  I450  1  0.810460  0.436630  0.288300  1.0  -0.3074
  I  I451  1  0.609230  0.761710  0.995760  1.0  -0.2678
  I  I452  1  0.436630  0.626170  0.121630  1.0  -0.3089
  I  I453  1  0.238290  0.847520  0.329090  1.0  -0.2681
  I  I454  1  0.373830  0.810460  0.454960  1.0  -0.306
  I  I455  1  0.152480  0.390770  0.662430  1.0  -0.2685
  I  I456  1  0.189540  0.563370  0.788300  1.0  -0.3086
  I  I457  1  0.238290  0.390770  0.837570  1.0  -0.2683
  I  I458  1  0.373830  0.563370  0.711700  1.0  -0.3067
  I  I459  1  0.152480  0.761710  0.504240  1.0  -0.2669
  I  I460  1  0.189540  0.626170  0.378370  1.0  -0.3085
  I  I461  1  0.609230  0.847520  0.170910  1.0  -0.2677
  I  I462  1  0.436630  0.810460  0.045040  1.0  -0.3089
  I  I463  1  0.761710  0.609230  0.337570  1.0  -0.268
  I  I464  1  0.626170  0.436630  0.211700  1.0  -0.3086
  I  I465  1  0.847520  0.238290  0.004240  1.0  -0.2683
  I  I466  1  0.810460  0.373830  0.878370  1.0  -0.3077
  I  I467  1  0.390770  0.152480  0.670910  1.0  -0.2675
  I  I468  1  0.563370  0.189540  0.545040  1.0  -0.3062
  N  N469  1  0.581900  0.343400  0.460100  1.0  -0.1281
  N  N470  1  0.375600  0.312100  0.643600  1.0  -0.1474
  N  N471  1  0.656600  0.238500  0.793430  1.0  -0.1293
  N  N472  1  0.687900  0.063500  0.976930  1.0  -0.1498
  N  N473  1  0.761500  0.418100  0.126770  1.0  -0.1291
  N  N474  1  0.936500  0.624400  0.310270  1.0  -0.1497
  N  N475  1  0.418100  0.656600  0.960100  1.0  -0.1273
  N  N476  1  0.624400  0.687900  0.143600  1.0  -0.1481
  N  N477  1  0.343400  0.761500  0.293430  1.0  -0.13
  N  N478  1  0.312100  0.936500  0.476930  1.0  -0.1482
  N  N479  1  0.238500  0.581900  0.626770  1.0  -0.1281
  N  N480  1  0.063500  0.375600  0.810270  1.0  -0.1495
  N  N481  1  0.343400  0.581900  0.873230  1.0  -0.1274
  N  N482  1  0.312100  0.375600  0.689730  1.0  -0.1496
  N  N483  1  0.238500  0.656600  0.539900  1.0  -0.1253
  N  N484  1  0.063500  0.687900  0.356400  1.0  -0.1489
  N  N485  1  0.418100  0.761500  0.206570  1.0  -0.1277
  N  N486  1  0.624400  0.936500  0.023070  1.0  -0.1483
  N  N487  1  0.656600  0.418100  0.373230  1.0  -0.1257
  N  N488  1  0.687900  0.624400  0.189730  1.0  -0.1491
  N  N489  1  0.761500  0.343400  0.039900  1.0  -0.1264
  N  N490  1  0.936500  0.312100  0.856400  1.0  -0.1479
  N  N491  1  0.581900  0.238500  0.706570  1.0  -0.128
  N  N492  1  0.375600  0.063500  0.523070  1.0  -0.1494
  N  N493  1  0.801100  0.792700  0.343300  1.0  -0.4762
  N  N494  1  0.767800  0.850400  0.283400  1.0  -0.3295
  N  N495  1  0.207300  0.008400  0.676630  1.0  -0.4762
  N  N496  1  0.149600  0.917400  0.616730  1.0  -0.3306
  N  N497  1  0.991600  0.198900  0.009970  1.0  -0.4772
  N  N498  1  0.082600  0.232200  0.950070  1.0  -0.3314
  N  N499  1  0.198900  0.207300  0.843300  1.0  -0.4777
  N  N500  1  0.232200  0.149600  0.783400  1.0  -0.3311
  N  N501  1  0.792700  0.991600  0.176630  1.0  -0.4745
  N  N502  1  0.850400  0.082600  0.116730  1.0  -0.3303
  N  N503  1  0.008400  0.801100  0.509970  1.0  -0.4779
  N  N504  1  0.917400  0.767800  0.450070  1.0  -0.3304
  N  N505  1  0.792700  0.801100  0.990030  1.0  -0.4767
  N  N506  1  0.850400  0.767800  0.049930  1.0  -0.3308
  N  N507  1  0.008400  0.207300  0.656700  1.0  -0.4762
  N  N508  1  0.917400  0.149600  0.716600  1.0  -0.332
  N  N509  1  0.198900  0.991600  0.323370  1.0  -0.4746
  N  N510  1  0.232200  0.082600  0.383270  1.0  -0.3288
  N  N511  1  0.207300  0.198900  0.490030  1.0  -0.4764
  N  N512  1  0.149600  0.232200  0.549930  1.0  -0.3296
  N  N513  1  0.991600  0.792700  0.156700  1.0  -0.4765
  N  N514  1  0.082600  0.850400  0.216600  1.0  -0.3296
  N  N515  1  0.801100  0.008400  0.823370  1.0  -0.4748
  N  N516  1  0.767800  0.917400  0.883270  1.0  -0.3318
