# generated using pymatgen
data_Zn3H2(C4O3)2
_symmetry_space_group_name_H-M   'P 1'
_cell_length_a   22.91700000
_cell_length_b   22.91700000
_cell_length_c   15.90240000
_cell_angle_alpha   90.00000000
_cell_angle_beta   90.00000000
_cell_angle_gamma   120.00000000
_symmetry_Int_Tables_number   1
_chemical_formula_structural   Zn3H2(C4O3)2
_chemical_formula_sum   'Zn54 H36 C144 O108'
_cell_volume   7232.83960719
_cell_formula_units_Z   18
loop_
 _symmetry_equiv_pos_site_id
 _symmetry_equiv_pos_as_xyz
  1  'x, y, z'
loop_
 _atom_site_type_symbol
 _atom_site_label
 _atom_site_symmetry_multiplicity
 _atom_site_fract_x
 _atom_site_fract_y
 _atom_site_fract_z
 _atom_site_occupancy
 _atom_site_charge
  Zn  Zn1  1  0.123180  0.365830  0.074640  1.0  0.9031
  Zn  Zn2  1  0.789850  0.699160  0.407970  1.0  0.9031
  Zn  Zn3  1  0.456510  0.032500  0.741310  1.0  0.9032
  Zn  Zn4  1  0.634170  0.757350  0.074640  1.0  0.9011
  Zn  Zn5  1  0.300840  0.090680  0.407970  1.0  0.9015
  Zn  Zn6  1  0.967500  0.424020  0.741310  1.0  0.9015
  Zn  Zn7  1  0.242650  0.876820  0.074640  1.0  0.9044
  Zn  Zn8  1  0.909320  0.210150  0.407970  1.0  0.9044
  Zn  Zn9  1  0.575980  0.543490  0.741310  1.0  0.9041
  Zn  Zn10  1  0.365830  0.123180  0.425360  1.0  0.9007
  Zn  Zn11  1  0.032500  0.456510  0.758690  1.0  0.9008
  Zn  Zn12  1  0.699160  0.789850  0.092030  1.0  0.9007
  Zn  Zn13  1  0.757350  0.634170  0.425360  1.0  0.8961
  Zn  Zn14  1  0.424020  0.967500  0.758690  1.0  0.8961
  Zn  Zn15  1  0.090680  0.300840  0.092030  1.0  0.8961
  Zn  Zn16  1  0.876820  0.242650  0.425360  1.0  0.8975
  Zn  Zn17  1  0.543490  0.575980  0.758690  1.0  0.8976
  Zn  Zn18  1  0.210150  0.909320  0.092030  1.0  0.8975
  Zn  Zn19  1  0.876820  0.634170  0.925360  1.0  0.8963
  Zn  Zn20  1  0.543490  0.967500  0.258690  1.0  0.8964
  Zn  Zn21  1  0.210150  0.300840  0.592030  1.0  0.8963
  Zn  Zn22  1  0.365830  0.242650  0.925360  1.0  0.9002
  Zn  Zn23  1  0.032500  0.575980  0.258690  1.0  0.9002
  Zn  Zn24  1  0.699160  0.909320  0.592030  1.0  0.9002
  Zn  Zn25  1  0.757350  0.123180  0.925360  1.0  0.8974
  Zn  Zn26  1  0.424020  0.456510  0.258690  1.0  0.8975
  Zn  Zn27  1  0.090680  0.789850  0.592030  1.0  0.8974
  Zn  Zn28  1  0.634170  0.876820  0.574640  1.0  0.9005
  Zn  Zn29  1  0.300840  0.210150  0.907970  1.0  0.9005
  Zn  Zn30  1  0.967500  0.543490  0.241310  1.0  0.9006
  Zn  Zn31  1  0.242650  0.365830  0.574640  1.0  0.9024
  Zn  Zn32  1  0.909320  0.699160  0.907970  1.0  0.9028
  Zn  Zn33  1  0.575980  0.032500  0.241310  1.0  0.9028
  Zn  Zn34  1  0.123180  0.757350  0.574640  1.0  0.9056
  Zn  Zn35  1  0.789850  0.090680  0.907970  1.0  0.9056
  Zn  Zn36  1  0.456510  0.424020  0.241310  1.0  0.9054
  Zn  Zn37  1  0.238200  0.333333  0.083330  1.0  0.9775
  Zn  Zn38  1  0.666667  0.904860  0.083330  1.0  0.9778
  Zn  Zn39  1  0.333333  0.238200  0.416670  1.0  0.9778
  Zn  Zn40  1  0.095140  0.761800  0.083330  1.0  0.9771
  Zn  Zn41  1  0.428470  0.428470  0.750000  1.0  0.9771
  Zn  Zn42  1  0.000000  0.571530  0.750000  1.0  0.9777
  Zn  Zn43  1  0.904860  0.666667  0.416670  1.0  0.9776
  Zn  Zn44  1  0.571530  0.000000  0.750000  1.0  0.9777
  Zn  Zn45  1  0.761800  0.095140  0.416670  1.0  0.9772
  Zn  Zn46  1  0.761800  0.666667  0.916670  1.0  0.9769
  Zn  Zn47  1  0.428470  0.000000  0.250000  1.0  0.9768
  Zn  Zn48  1  0.095140  0.333333  0.583330  1.0  0.9768
  Zn  Zn49  1  0.333333  0.095140  0.916670  1.0  0.9777
  Zn  Zn50  1  0.000000  0.428470  0.250000  1.0  0.9778
  Zn  Zn51  1  0.904860  0.238200  0.916670  1.0  0.9784
  Zn  Zn52  1  0.571530  0.571530  0.250000  1.0  0.9784
  Zn  Zn53  1  0.666667  0.761800  0.583330  1.0  0.9776
  Zn  Zn54  1  0.238200  0.904860  0.583330  1.0  0.9784
  H  H55  1  0.263000  0.360000  0.900000  1.0  0.1228
  H  H56  1  0.929670  0.693330  0.233330  1.0  0.1225
  H  H57  1  0.596330  0.026670  0.566670  1.0  0.1228
  H  H58  1  0.640000  0.903000  0.900000  1.0  0.1217
  H  H59  1  0.306670  0.236330  0.233330  1.0  0.1221
  H  H60  1  0.973330  0.569670  0.566670  1.0  0.1217
  H  H61  1  0.097000  0.737000  0.900000  1.0  0.1225
  H  H62  1  0.763670  0.070330  0.233330  1.0  0.1225
  H  H63  1  0.430330  0.403670  0.566670  1.0  0.1225
  H  H64  1  0.360000  0.263000  0.600000  1.0  0.1205
  H  H65  1  0.026670  0.596330  0.933330  1.0  0.1205
  H  H66  1  0.693330  0.929670  0.266670  1.0  0.1203
  H  H67  1  0.903000  0.640000  0.600000  1.0  0.1218
  H  H68  1  0.569670  0.973330  0.933330  1.0  0.1218
  H  H69  1  0.236330  0.306670  0.266670  1.0  0.122
  H  H70  1  0.737000  0.097000  0.600000  1.0  0.1222
  H  H71  1  0.403670  0.430330  0.933330  1.0  0.1222
  H  H72  1  0.070330  0.763670  0.266670  1.0  0.1222
  H  H73  1  0.737000  0.640000  0.100000  1.0  0.1231
  H  H74  1  0.403670  0.973330  0.433330  1.0  0.1231
  H  H75  1  0.070330  0.306670  0.766670  1.0  0.1228
  H  H76  1  0.360000  0.097000  0.100000  1.0  0.1217
  H  H77  1  0.026670  0.430330  0.433330  1.0  0.1217
  H  H78  1  0.693330  0.763670  0.766670  1.0  0.122
  H  H79  1  0.903000  0.263000  0.100000  1.0  0.1217
  H  H80  1  0.569670  0.596330  0.433330  1.0  0.1217
  H  H81  1  0.236330  0.929670  0.766670  1.0  0.1217
  H  H82  1  0.640000  0.737000  0.400000  1.0  0.1214
  H  H83  1  0.306670  0.070330  0.733330  1.0  0.1212
  H  H84  1  0.973330  0.403670  0.066670  1.0  0.1214
  H  H85  1  0.097000  0.360000  0.400000  1.0  0.1218
  H  H86  1  0.763670  0.693330  0.733330  1.0  0.122
  H  H87  1  0.430330  0.026670  0.066670  1.0  0.1218
  H  H88  1  0.263000  0.903000  0.400000  1.0  0.1197
  H  H89  1  0.929670  0.236330  0.733330  1.0  0.1197
  H  H90  1  0.596330  0.569670  0.066670  1.0  0.1197
  C  C91  1  0.439500  0.463500  0.045400  1.0  -0.1669
  C  C92  1  0.374700  0.423100  0.088500  1.0  0.6461
  C  C93  1  0.166300  0.325500  0.920400  1.0  0.2742
  C  C94  1  0.224800  0.348500  0.874900  1.0  -0.1126
  C  C95  1  0.106170  0.796830  0.378730  1.0  -0.1662
  C  C96  1  0.041370  0.756430  0.421830  1.0  0.6461
  C  C97  1  0.832970  0.658830  0.253730  1.0  0.2742
  C  C98  1  0.891470  0.681830  0.208230  1.0  -0.1126
  C  C99  1  0.772830  0.130170  0.712070  1.0  -0.1664
  C  C100  1  0.708030  0.089770  0.755170  1.0  0.6461
  C  C101  1  0.499630  0.992170  0.587070  1.0  0.2742
  C  C102  1  0.558130  0.015170  0.541570  1.0  -0.1126
  C  C103  1  0.536500  0.976000  0.045400  1.0  -0.1663
  C  C104  1  0.576900  0.951600  0.088500  1.0  0.6451
  C  C105  1  0.674500  0.840800  0.920400  1.0  0.2729
  C  C106  1  0.651500  0.876300  0.874900  1.0  -0.1126
  C  C107  1  0.203170  0.309330  0.378730  1.0  -0.166
  C  C108  1  0.243570  0.284930  0.421830  1.0  0.6451
  C  C109  1  0.341170  0.174130  0.253730  1.0  0.2729
  C  C110  1  0.318170  0.209630  0.208230  1.0  -0.1126
  C  C111  1  0.869830  0.642670  0.712070  1.0  -0.166
  C  C112  1  0.910230  0.618270  0.755170  1.0  0.6451
  C  C113  1  0.007830  0.507470  0.587070  1.0  0.2729
  C  C114  1  0.984830  0.542970  0.541570  1.0  -0.1126
  C  C115  1  0.024000  0.560500  0.045400  1.0  -0.1656
  C  C116  1  0.048400  0.625300  0.088500  1.0  0.6464
  C  C117  1  0.159200  0.833700  0.920400  1.0  0.2731
  C  C118  1  0.123700  0.775200  0.874900  1.0  -0.1124
  C  C119  1  0.690670  0.893830  0.378730  1.0  -0.1656
  C  C120  1  0.715070  0.958630  0.421830  1.0  0.6463
  C  C121  1  0.825870  0.167030  0.253730  1.0  0.273
  C  C122  1  0.790370  0.108530  0.208230  1.0  -0.1124
  C  C123  1  0.357330  0.227170  0.712070  1.0  -0.1661
  C  C124  1  0.381730  0.291970  0.755170  1.0  0.6464
  C  C125  1  0.492530  0.500370  0.587070  1.0  0.2731
  C  C126  1  0.457030  0.441870  0.541570  1.0  -0.1124
  C  C127  1  0.463500  0.439500  0.454600  1.0  -0.1664
  C  C128  1  0.423100  0.374700  0.411500  1.0  0.6465
  C  C129  1  0.325500  0.166300  0.579600  1.0  0.2736
  C  C130  1  0.348500  0.224800  0.625100  1.0  -0.113
  C  C131  1  0.130170  0.772830  0.787930  1.0  -0.166
  C  C132  1  0.089770  0.708030  0.744830  1.0  0.6465
  C  C133  1  0.992170  0.499630  0.912930  1.0  0.2736
  C  C134  1  0.015170  0.558130  0.958430  1.0  -0.113
  C  C135  1  0.796830  0.106170  0.121270  1.0  -0.1659
  C  C136  1  0.756430  0.041370  0.078170  1.0  0.6465
  C  C137  1  0.658830  0.832970  0.246270  1.0  0.2736
  C  C138  1  0.681830  0.891470  0.291770  1.0  -0.113
  C  C139  1  0.976000  0.536500  0.454600  1.0  -0.1671
  C  C140  1  0.951600  0.576900  0.411500  1.0  0.6467
  C  C141  1  0.840800  0.674500  0.579600  1.0  0.2743
  C  C142  1  0.876300  0.651500  0.625100  1.0  -0.1124
  C  C143  1  0.642670  0.869830  0.787930  1.0  -0.1668
  C  C144  1  0.618270  0.910230  0.744830  1.0  0.6467
  C  C145  1  0.507470  0.007830  0.912930  1.0  0.2744
  C  C146  1  0.542970  0.984830  0.958430  1.0  -0.1124
  C  C147  1  0.309330  0.203170  0.121270  1.0  -0.1668
  C  C148  1  0.284930  0.243570  0.078170  1.0  0.6467
  C  C149  1  0.174130  0.341170  0.246270  1.0  0.2741
  C  C150  1  0.209630  0.318170  0.291770  1.0  -0.1124
  C  C151  1  0.560500  0.024000  0.454600  1.0  -0.1645
  C  C152  1  0.625300  0.048400  0.411500  1.0  0.6442
  C  C153  1  0.833700  0.159200  0.579600  1.0  0.273
  C  C154  1  0.775200  0.123700  0.625100  1.0  -0.1117
  C  C155  1  0.227170  0.357330  0.787930  1.0  -0.165
  C  C156  1  0.291970  0.381730  0.744830  1.0  0.6442
  C  C157  1  0.500370  0.492530  0.912930  1.0  0.273
  C  C158  1  0.441870  0.457030  0.958430  1.0  -0.1117
  C  C159  1  0.893830  0.690670  0.121270  1.0  -0.1646
  C  C160  1  0.958630  0.715070  0.078170  1.0  0.6441
  C  C161  1  0.167030  0.825870  0.246270  1.0  0.2729
  C  C162  1  0.108530  0.790370  0.291770  1.0  -0.1117
  C  C163  1  0.560500  0.536500  0.954600  1.0  -0.1673
  C  C164  1  0.625300  0.576900  0.911500  1.0  0.6466
  C  C165  1  0.833700  0.674500  0.079600  1.0  0.2758
  C  C166  1  0.775200  0.651500  0.125100  1.0  -0.1126
  C  C167  1  0.227170  0.869830  0.287930  1.0  -0.1669
  C  C168  1  0.291970  0.910230  0.244830  1.0  0.6466
  C  C169  1  0.500370  0.007830  0.412930  1.0  0.2757
  C  C170  1  0.441870  0.984830  0.458430  1.0  -0.1126
  C  C171  1  0.893830  0.203170  0.621270  1.0  -0.1668
  C  C172  1  0.958630  0.243570  0.578170  1.0  0.6466
  C  C173  1  0.167030  0.341170  0.746270  1.0  0.2758
  C  C174  1  0.108530  0.318170  0.791770  1.0  -0.1127
  C  C175  1  0.463500  0.024000  0.954600  1.0  -0.166
  C  C176  1  0.423100  0.048400  0.911500  1.0  0.6448
  C  C177  1  0.325500  0.159200  0.079600  1.0  0.2756
  C  C178  1  0.348500  0.123700  0.125100  1.0  -0.1121
  C  C179  1  0.130170  0.357330  0.287930  1.0  -0.1657
  C  C180  1  0.089770  0.381730  0.244830  1.0  0.6448
  C  C181  1  0.992170  0.492530  0.412930  1.0  0.2756
  C  C182  1  0.015170  0.457030  0.458430  1.0  -0.1121
  C  C183  1  0.796830  0.690670  0.621270  1.0  -0.1657
  C  C184  1  0.756430  0.715070  0.578170  1.0  0.6448
  C  C185  1  0.658830  0.825870  0.746270  1.0  0.2754
  C  C186  1  0.681830  0.790370  0.791770  1.0  -0.1121
  C  C187  1  0.976000  0.439500  0.954600  1.0  -0.1651
  C  C188  1  0.951600  0.374700  0.911500  1.0  0.6461
  C  C189  1  0.840800  0.166300  0.079600  1.0  0.275
  C  C190  1  0.876300  0.224800  0.125100  1.0  -0.1128
  C  C191  1  0.642670  0.772830  0.287930  1.0  -0.1657
  C  C192  1  0.618270  0.708030  0.244830  1.0  0.6461
  C  C193  1  0.507470  0.499630  0.412930  1.0  0.275
  C  C194  1  0.542970  0.558130  0.458430  1.0  -0.1128
  C  C195  1  0.309330  0.106170  0.621270  1.0  -0.1652
  C  C196  1  0.284930  0.041370  0.578170  1.0  0.646
  C  C197  1  0.174130  0.832970  0.746270  1.0  0.2749
  C  C198  1  0.209630  0.891470  0.791770  1.0  -0.1128
  C  C199  1  0.536500  0.560500  0.545400  1.0  -0.1657
  C  C200  1  0.576900  0.625300  0.588500  1.0  0.6462
  C  C201  1  0.674500  0.833700  0.420400  1.0  0.2742
  C  C202  1  0.651500  0.775200  0.374900  1.0  -0.1115
  C  C203  1  0.203170  0.893830  0.878730  1.0  -0.165
  C  C204  1  0.243570  0.958630  0.921830  1.0  0.6463
  C  C205  1  0.341170  0.167030  0.753730  1.0  0.2742
  C  C206  1  0.318170  0.108530  0.708230  1.0  -0.1116
  C  C207  1  0.869830  0.227170  0.212070  1.0  -0.1652
  C  C208  1  0.910230  0.291970  0.255170  1.0  0.6463
  C  C209  1  0.007830  0.500370  0.087070  1.0  0.2742
  C  C210  1  0.984830  0.441870  0.041570  1.0  -0.1115
  C  C211  1  0.024000  0.463500  0.545400  1.0  -0.1671
  C  C212  1  0.048400  0.423100  0.588500  1.0  0.6465
  C  C213  1  0.159200  0.325500  0.420400  1.0  0.2752
  C  C214  1  0.123700  0.348500  0.374900  1.0  -0.1125
  C  C215  1  0.690670  0.796830  0.878730  1.0  -0.1668
  C  C216  1  0.715070  0.756430  0.921830  1.0  0.6465
  C  C217  1  0.825870  0.658830  0.753730  1.0  0.2753
  C  C218  1  0.790370  0.681830  0.708230  1.0  -0.1125
  C  C219  1  0.357330  0.130170  0.212070  1.0  -0.1667
  C  C220  1  0.381730  0.089770  0.255170  1.0  0.6465
  C  C221  1  0.492530  0.992170  0.087070  1.0  0.2753
  C  C222  1  0.457030  0.015170  0.041570  1.0  -0.1125
  C  C223  1  0.439500  0.976000  0.545400  1.0  -0.1665
  C  C224  1  0.374700  0.951600  0.588500  1.0  0.6464
  C  C225  1  0.166300  0.840800  0.420400  1.0  0.2752
  C  C226  1  0.224800  0.876300  0.374900  1.0  -0.1123
  C  C227  1  0.106170  0.309330  0.878730  1.0  -0.1665
  C  C228  1  0.041370  0.284930  0.921830  1.0  0.6463
  C  C229  1  0.832970  0.174130  0.753730  1.0  0.2751
  C  C230  1  0.891470  0.209630  0.708230  1.0  -0.1123
  C  C231  1  0.772830  0.642670  0.212070  1.0  -0.167
  C  C232  1  0.708030  0.618270  0.255170  1.0  0.6464
  C  C233  1  0.499630  0.507470  0.087070  1.0  0.2751
  C  C234  1  0.558130  0.542970  0.041570  1.0  -0.1123
  O  O235  1  0.165800  0.317100  0.005500  1.0  -0.8159
  O  O236  1  0.322800  0.408600  0.046200  1.0  -0.6427
  O  O237  1  0.069300  0.365400  0.169700  1.0  -0.6919
  O  O238  1  0.832470  0.650430  0.338830  1.0  -0.8155
  O  O239  1  0.989470  0.741930  0.379530  1.0  -0.6496
  O  O240  1  0.735970  0.698730  0.503030  1.0  -0.6918
  O  O241  1  0.499130  0.983770  0.672170  1.0  -0.8157
  O  O242  1  0.656130  0.075270  0.712870  1.0  -0.6427
  O  O243  1  0.402630  0.032070  0.836370  1.0  -0.6918
  O  O244  1  0.682900  0.848700  0.005500  1.0  -0.8157
  O  O245  1  0.591400  0.914200  0.046200  1.0  -0.6405
  O  O246  1  0.634600  0.703900  0.169700  1.0  -0.694
  O  O247  1  0.349570  0.182030  0.338830  1.0  -0.816
  O  O248  1  0.258070  0.247530  0.379530  1.0  -0.6429
  O  O249  1  0.301270  0.037230  0.503030  1.0  -0.6942
  O  O250  1  0.016230  0.515370  0.672170  1.0  -0.8158
  O  O251  1  0.924730  0.580870  0.712870  1.0  -0.6405
  O  O252  1  0.967930  0.370570  0.836370  1.0  -0.6939
  O  O253  1  0.151300  0.834200  0.005500  1.0  -0.8156
  O  O254  1  0.085800  0.677200  0.046200  1.0  -0.6481
  O  O255  1  0.296100  0.930700  0.169700  1.0  -0.6912
  O  O256  1  0.817970  0.167530  0.338830  1.0  -0.8156
  O  O257  1  0.752470  0.010530  0.379530  1.0  -0.6489
  O  O258  1  0.962770  0.264030  0.503030  1.0  -0.6914
  O  O259  1  0.484630  0.500870  0.672170  1.0  -0.8152
  O  O260  1  0.419130  0.343870  0.712870  1.0  -0.6481
  O  O261  1  0.629430  0.597370  0.836370  1.0  -0.6911
  O  O262  1  0.317100  0.165800  0.494500  1.0  -0.8155
  O  O263  1  0.408600  0.322800  0.453800  1.0  -0.6461
  O  O264  1  0.365400  0.069300  0.330300  1.0  -0.6926
  O  O265  1  0.983770  0.499130  0.827830  1.0  -0.8154
  O  O266  1  0.075270  0.656130  0.787130  1.0  -0.6461
  O  O267  1  0.032070  0.402630  0.663630  1.0  -0.6926
  O  O268  1  0.650430  0.832470  0.161170  1.0  -0.8152
  O  O269  1  0.741930  0.989470  0.120470  1.0  -0.6533
  O  O270  1  0.698730  0.735970  0.996970  1.0  -0.6926
  O  O271  1  0.848700  0.682900  0.494500  1.0  -0.8153
  O  O272  1  0.914200  0.591400  0.453800  1.0  -0.6408
  O  O273  1  0.703900  0.634600  0.330300  1.0  -0.6918
  O  O274  1  0.515370  0.016230  0.827830  1.0  -0.8153
  O  O275  1  0.580870  0.924730  0.787130  1.0  -0.6408
  O  O276  1  0.370570  0.967930  0.663630  1.0  -0.6918
  O  O277  1  0.182030  0.349570  0.161170  1.0  -0.8156
  O  O278  1  0.247530  0.258070  0.120470  1.0  -0.6431
  O  O279  1  0.037230  0.301270  0.996970  1.0  -0.6922
  O  O280  1  0.834200  0.151300  0.494500  1.0  -0.816
  O  O281  1  0.677200  0.085800  0.453800  1.0  -0.6453
  O  O282  1  0.930700  0.296100  0.330300  1.0  -0.6937
  O  O283  1  0.500870  0.484630  0.827830  1.0  -0.8156
  O  O284  1  0.343870  0.419130  0.787130  1.0  -0.6453
  O  O285  1  0.597370  0.629430  0.663630  1.0  -0.6936
  O  O286  1  0.167530  0.817970  0.161170  1.0  -0.8159
  O  O287  1  0.010530  0.752470  0.120470  1.0  -0.6457
  O  O288  1  0.264030  0.962770  0.996970  1.0  -0.694
  O  O289  1  0.834200  0.682900  0.994500  1.0  -0.8147
  O  O290  1  0.677200  0.591400  0.953800  1.0  -0.6413
  O  O291  1  0.930700  0.634600  0.830300  1.0  -0.6923
  O  O292  1  0.500870  0.016230  0.327830  1.0  -0.8145
  O  O293  1  0.343870  0.924730  0.287130  1.0  -0.6413
  O  O294  1  0.597370  0.967930  0.163630  1.0  -0.6923
  O  O295  1  0.167530  0.349570  0.661170  1.0  -0.8143
  O  O296  1  0.010530  0.258070  0.620470  1.0  -0.649
  O  O297  1  0.264030  0.301270  0.496970  1.0  -0.6922
  O  O298  1  0.317100  0.151300  0.994500  1.0  -0.8161
  O  O299  1  0.408600  0.085800  0.953800  1.0  -0.643
  O  O300  1  0.365400  0.296100  0.830300  1.0  -0.6937
  O  O301  1  0.983770  0.484630  0.327830  1.0  -0.8162
  O  O302  1  0.075270  0.419130  0.287130  1.0  -0.6431
  O  O303  1  0.032070  0.629430  0.163630  1.0  -0.6937
  O  O304  1  0.650430  0.817970  0.661170  1.0  -0.8164
  O  O305  1  0.741930  0.752470  0.620470  1.0  -0.6456
  O  O306  1  0.698730  0.962770  0.496970  1.0  -0.6937
  O  O307  1  0.848700  0.165800  0.994500  1.0  -0.8147
  O  O308  1  0.914200  0.322800  0.953800  1.0  -0.6474
  O  O309  1  0.703900  0.069300  0.830300  1.0  -0.6923
  O  O310  1  0.515370  0.499130  0.327830  1.0  -0.8143
  O  O311  1  0.580870  0.656130  0.287130  1.0  -0.6474
  O  O312  1  0.370570  0.402630  0.163630  1.0  -0.6924
  O  O313  1  0.182030  0.832470  0.661170  1.0  -0.8146
  O  O314  1  0.247530  0.989470  0.620470  1.0  -0.6479
  O  O315  1  0.037230  0.735970  0.496970  1.0  -0.6927
  O  O316  1  0.682900  0.834200  0.505500  1.0  -0.8143
  O  O317  1  0.591400  0.677200  0.546200  1.0  -0.6465
  O  O318  1  0.634600  0.930700  0.669700  1.0  -0.6913
  O  O319  1  0.349570  0.167530  0.838830  1.0  -0.814
  O  O320  1  0.258070  0.010530  0.879530  1.0  -0.6534
  O  O321  1  0.301270  0.264030  0.003030  1.0  -0.6913
  O  O322  1  0.016230  0.500870  0.172170  1.0  -0.8141
  O  O323  1  0.924730  0.343870  0.212870  1.0  -0.6465
  O  O324  1  0.967930  0.597370  0.336370  1.0  -0.6914
  O  O325  1  0.151300  0.317100  0.505500  1.0  -0.8139
  O  O326  1  0.085800  0.408600  0.546200  1.0  -0.6405
  O  O327  1  0.296100  0.365400  0.669700  1.0  -0.6926
  O  O328  1  0.817970  0.650430  0.838830  1.0  -0.8143
  O  O329  1  0.752470  0.741930  0.879530  1.0  -0.6425
  O  O330  1  0.962770  0.698730  0.003030  1.0  -0.6929
  O  O331  1  0.484630  0.983770  0.172170  1.0  -0.814
  O  O332  1  0.419130  0.075270  0.212870  1.0  -0.6405
  O  O333  1  0.629430  0.032070  0.336370  1.0  -0.6926
  O  O334  1  0.165800  0.848700  0.505500  1.0  -0.8153
  O  O335  1  0.322800  0.914200  0.546200  1.0  -0.6448
  O  O336  1  0.069300  0.703900  0.669700  1.0  -0.6935
  O  O337  1  0.832470  0.182030  0.838830  1.0  -0.8154
  O  O338  1  0.989470  0.247530  0.879530  1.0  -0.6449
  O  O339  1  0.735970  0.037230  0.003030  1.0  -0.6935
  O  O340  1  0.499130  0.515370  0.172170  1.0  -0.8149
  O  O341  1  0.656130  0.580870  0.212870  1.0  -0.6449
  O  O342  1  0.402630  0.370570  0.336370  1.0  -0.6934
