# generated using pymatgen
data_CoH6C12(N2F)2
_symmetry_space_group_name_H-M   'P 1'
_cell_length_a   20.91190000
_cell_length_b   16.52990000
_cell_length_c   6.94960000
_cell_angle_alpha   90.00000000
_cell_angle_beta   98.14300000
_cell_angle_gamma   90.00000000
_symmetry_Int_Tables_number   1
_chemical_formula_structural   CoH6C12(N2F)2
_chemical_formula_sum   'Co4 H24 C48 N16 F8'
_cell_volume   2378.05879982
_cell_formula_units_Z   4
loop_
 _symmetry_equiv_pos_site_id
 _symmetry_equiv_pos_as_xyz
  1  'x, y, z'
loop_
 _atom_site_type_symbol
 _atom_site_label
 _atom_site_symmetry_multiplicity
 _atom_site_fract_x
 _atom_site_fract_y
 _atom_site_fract_z
 _atom_site_occupancy
 _atom_site_charge
  Co  Co1  1  0.500000  0.516100  0.250000  1.0  0.7061
  Co  Co2  1  0.000000  0.016100  0.250000  1.0  0.7061
  Co  Co3  1  0.500000  0.483900  0.750000  1.0  0.7028
  Co  Co4  1  0.000000  0.983900  0.750000  1.0  0.7028
  H  H5  1  0.202560  0.239410  0.295270  1.0  0.0707
  H  H6  1  0.348830  0.418490  0.242410  1.0  0.1424
  H  H7  1  0.409250  0.298560  0.771870  1.0  0.0775
  H  H8  1  0.702560  0.739410  0.295270  1.0  0.0707
  H  H9  1  0.848830  0.918490  0.242410  1.0  0.1424
  H  H10  1  0.909250  0.798560  0.771870  1.0  0.0775
  H  H11  1  0.797440  0.239410  0.204730  1.0  0.07
  H  H12  1  0.651170  0.418490  0.257590  1.0  0.14
  H  H13  1  0.590750  0.298560  0.728130  1.0  0.0802
  H  H14  1  0.297440  0.739410  0.204730  1.0  0.07
  H  H15  1  0.151170  0.918490  0.257590  1.0  0.14
  H  H16  1  0.090750  0.798560  0.728130  1.0  0.0802
  H  H17  1  0.797440  0.760590  0.704730  1.0  0.0706
  H  H18  1  0.651170  0.581510  0.757590  1.0  0.1405
  H  H19  1  0.590750  0.701440  0.228130  1.0  0.0776
  H  H20  1  0.297440  0.260590  0.704730  1.0  0.0706
  H  H21  1  0.151170  0.081510  0.757590  1.0  0.1405
  H  H22  1  0.090750  0.201440  0.228130  1.0  0.0776
  H  H23  1  0.202560  0.760590  0.795270  1.0  0.0706
  H  H24  1  0.348830  0.581510  0.742410  1.0  0.1425
  H  H25  1  0.409250  0.701440  0.271870  1.0  0.0773
  H  H26  1  0.702560  0.260590  0.795270  1.0  0.0706
  H  H27  1  0.848830  0.081510  0.742410  1.0  0.1425
  H  H28  1  0.909250  0.201440  0.271870  1.0  0.0773
  C  C29  1  0.222000  0.244000  0.160000  1.0  -0.1604
  C  C30  1  0.278000  0.282000  0.160000  1.0  0.2163
  C  C31  1  0.311000  0.288000  0.000000  1.0  0.0735
  C  C32  1  0.362000  0.345000  0.000000  1.0  0.0513
  C  C33  1  0.378000  0.403000  0.130000  1.0  0.1308
  C  C34  1  0.407000  0.344000  0.880000  1.0  0.0862
  C  C35  1  0.722000  0.744000  0.160000  1.0  -0.1604
  C  C36  1  0.778000  0.782000  0.160000  1.0  0.2163
  C  C37  1  0.811000  0.788000  0.000000  1.0  0.0735
  C  C38  1  0.862000  0.845000  0.000000  1.0  0.0513
  C  C39  1  0.878000  0.903000  0.130000  1.0  0.1308
  C  C40  1  0.907000  0.844000  0.880000  1.0  0.0862
  C  C41  1  0.778000  0.244000  0.340000  1.0  -0.1607
  C  C42  1  0.722000  0.282000  0.340000  1.0  0.2178
  C  C43  1  0.689000  0.288000  0.500000  1.0  0.0743
  C  C44  1  0.638000  0.345000  0.500000  1.0  0.0521
  C  C45  1  0.622000  0.403000  0.370000  1.0  0.1332
  C  C46  1  0.593000  0.344000  0.620000  1.0  0.0876
  C  C47  1  0.278000  0.744000  0.340000  1.0  -0.1607
  C  C48  1  0.222000  0.782000  0.340000  1.0  0.2178
  C  C49  1  0.189000  0.788000  0.500000  1.0  0.0743
  C  C50  1  0.138000  0.845000  0.500000  1.0  0.0521
  C  C51  1  0.122000  0.903000  0.370000  1.0  0.1332
  C  C52  1  0.093000  0.844000  0.620000  1.0  0.0876
  C  C53  1  0.778000  0.756000  0.840000  1.0  -0.1616
  C  C54  1  0.722000  0.718000  0.840000  1.0  0.2176
  C  C55  1  0.689000  0.712000  0.000000  1.0  0.0745
  C  C56  1  0.638000  0.655000  0.000000  1.0  0.0527
  C  C57  1  0.622000  0.597000  0.870000  1.0  0.1349
  C  C58  1  0.593000  0.656000  0.120000  1.0  0.0868
  C  C59  1  0.278000  0.256000  0.840000  1.0  -0.1616
  C  C60  1  0.222000  0.218000  0.840000  1.0  0.2176
  C  C61  1  0.189000  0.212000  0.000000  1.0  0.0745
  C  C62  1  0.138000  0.155000  0.000000  1.0  0.0527
  C  C63  1  0.122000  0.097000  0.870000  1.0  0.1349
  C  C64  1  0.093000  0.156000  0.120000  1.0  0.0868
  C  C65  1  0.222000  0.756000  0.660000  1.0  -0.1619
  C  C66  1  0.278000  0.718000  0.660000  1.0  0.2156
  C  C67  1  0.311000  0.712000  0.500000  1.0  0.0737
  C  C68  1  0.362000  0.655000  0.500000  1.0  0.0518
  C  C69  1  0.378000  0.597000  0.630000  1.0  0.1322
  C  C70  1  0.407000  0.656000  0.380000  1.0  0.0867
  C  C71  1  0.722000  0.256000  0.660000  1.0  -0.1619
  C  C72  1  0.778000  0.218000  0.660000  1.0  0.2156
  C  C73  1  0.811000  0.212000  0.500000  1.0  0.0737
  C  C74  1  0.862000  0.155000  0.500000  1.0  0.0518
  C  C75  1  0.878000  0.097000  0.630000  1.0  0.1322
  C  C76  1  0.907000  0.156000  0.380000  1.0  0.0867
  N  N77  1  0.432000  0.440000  0.110000  1.0  -0.4257
  N  N78  1  0.448000  0.404000  0.920000  1.0  -0.3531
  N  N79  1  0.932000  0.940000  0.110000  1.0  -0.4257
  N  N80  1  0.948000  0.904000  0.920000  1.0  -0.3531
  N  N81  1  0.568000  0.440000  0.390000  1.0  -0.4251
  N  N82  1  0.552000  0.404000  0.580000  1.0  -0.3545
  N  N83  1  0.068000  0.940000  0.390000  1.0  -0.4251
  N  N84  1  0.052000  0.904000  0.580000  1.0  -0.3545
  N  N85  1  0.568000  0.560000  0.890000  1.0  -0.4258
  N  N86  1  0.552000  0.596000  0.080000  1.0  -0.3552
  N  N87  1  0.068000  0.060000  0.890000  1.0  -0.4258
  N  N88  1  0.052000  0.096000  0.080000  1.0  -0.3552
  N  N89  1  0.432000  0.560000  0.610000  1.0  -0.4256
  N  N90  1  0.448000  0.596000  0.420000  1.0  -0.3536
  N  N91  1  0.932000  0.060000  0.610000  1.0  -0.4256
  N  N92  1  0.948000  0.096000  0.420000  1.0  -0.3536
  F  F93  1  0.306000  0.324000  0.320000  1.0  -0.2646
  F  F94  1  0.806000  0.824000  0.320000  1.0  -0.2646
  F  F95  1  0.694000  0.324000  0.180000  1.0  -0.2629
  F  F96  1  0.194000  0.824000  0.180000  1.0  -0.2629
  F  F97  1  0.694000  0.676000  0.680000  1.0  -0.2631
  F  F98  1  0.194000  0.176000  0.680000  1.0  -0.2631
  F  F99  1  0.306000  0.676000  0.820000  1.0  -0.2648
  F  F100  1  0.806000  0.176000  0.820000  1.0  -0.2648
