# generated using pymatgen
data_Co3Ni6H72C144(N6O13)2
_symmetry_space_group_name_H-M   'P 1'
_cell_length_a   31.96300000
_cell_length_b   31.96300000
_cell_length_c   16.71350000
_cell_angle_alpha   90.00000000
_cell_angle_beta   90.00000000
_cell_angle_gamma   120.00000000
_symmetry_Int_Tables_number   1
_chemical_formula_structural   Co3Ni6H72C144(N6O13)2
_chemical_formula_sum   'Co3 Ni6 H72 C144 N12 O26'
_cell_volume   14787.44379625
_cell_formula_units_Z   1
loop_
 _symmetry_equiv_pos_site_id
 _symmetry_equiv_pos_as_xyz
  1  'x, y, z'
loop_
 _atom_site_type_symbol
 _atom_site_label
 _atom_site_symmetry_multiplicity
 _atom_site_fract_x
 _atom_site_fract_y
 _atom_site_fract_z
 _atom_site_occupancy
 _atom_site_charge
  Co  Co1  1  0.000000  0.500000  0.000000  1.0  0.7935
  Co  Co2  1  0.500000  0.500000  0.000000  1.0  0.7935
  Co  Co3  1  0.500000  0.000000  0.000000  1.0  0.7935
  Ni  Ni4  1  0.297200  0.702800  0.500000  1.0  0.8926
  Ni  Ni5  1  0.297200  0.594400  0.500000  1.0  0.89
  Ni  Ni6  1  0.405600  0.702800  0.500000  1.0  0.8923
  Ni  Ni7  1  0.702800  0.297200  0.500000  1.0  0.8915
  Ni  Ni8  1  0.702800  0.405600  0.500000  1.0  0.8929
  Ni  Ni9  1  0.594400  0.297200  0.500000  1.0  0.8921
  H  H10  1  0.132300  0.503200  0.218400  1.0  0.1188
  H  H11  1  0.190100  0.531800  0.315400  1.0  0.1225
  H  H12  1  0.496800  0.629100  0.218400  1.0  0.1207
  H  H13  1  0.468200  0.658300  0.315400  1.0  0.1226
  H  H14  1  0.370900  0.867700  0.218400  1.0  0.1209
  H  H15  1  0.341700  0.809900  0.315400  1.0  0.1222
  H  H16  1  0.867700  0.496800  0.218400  1.0  0.1193
  H  H17  1  0.809900  0.468200  0.315400  1.0  0.1233
  H  H18  1  0.503200  0.370900  0.218400  1.0  0.1204
  H  H19  1  0.531800  0.341700  0.315400  1.0  0.1226
  H  H20  1  0.629100  0.132300  0.218400  1.0  0.1197
  H  H21  1  0.658300  0.190100  0.315400  1.0  0.1233
  H  H22  1  0.503200  0.132300  0.781600  1.0  0.1206
  H  H23  1  0.531800  0.190100  0.684600  1.0  0.1226
  H  H24  1  0.629100  0.496800  0.781600  1.0  0.1189
  H  H25  1  0.658300  0.468200  0.684600  1.0  0.1232
  H  H26  1  0.867700  0.370900  0.781600  1.0  0.1199
  H  H27  1  0.809900  0.341700  0.684600  1.0  0.1231
  H  H28  1  0.496800  0.867700  0.781600  1.0  0.1196
  H  H29  1  0.468200  0.809900  0.684600  1.0  0.1229
  H  H30  1  0.370900  0.503200  0.781600  1.0  0.1193
  H  H31  1  0.341700  0.531800  0.684600  1.0  0.1224
  H  H32  1  0.132300  0.629100  0.781600  1.0  0.1211
  H  H33  1  0.190100  0.658300  0.684600  1.0  0.1227
  H  H34  1  0.867700  0.496800  0.781600  1.0  0.1192
  H  H35  1  0.809900  0.468200  0.684600  1.0  0.1235
  H  H36  1  0.503200  0.370900  0.781600  1.0  0.1204
  H  H37  1  0.531800  0.341700  0.684600  1.0  0.1227
  H  H38  1  0.629100  0.132300  0.781600  1.0  0.1197
  H  H39  1  0.658300  0.190100  0.684600  1.0  0.1233
  H  H40  1  0.132300  0.503200  0.781600  1.0  0.1187
  H  H41  1  0.190100  0.531800  0.684600  1.0  0.1228
  H  H42  1  0.496800  0.629100  0.781600  1.0  0.1206
  H  H43  1  0.468200  0.658300  0.684600  1.0  0.1229
  H  H44  1  0.370900  0.867700  0.781600  1.0  0.1207
  H  H45  1  0.341700  0.809900  0.684600  1.0  0.1223
  H  H46  1  0.496800  0.867700  0.218400  1.0  0.1198
  H  H47  1  0.468200  0.809900  0.315400  1.0  0.1229
  H  H48  1  0.370900  0.503200  0.218400  1.0  0.1192
  H  H49  1  0.341700  0.531800  0.315400  1.0  0.1224
  H  H50  1  0.132300  0.629100  0.218400  1.0  0.1212
  H  H51  1  0.190100  0.658300  0.315400  1.0  0.1225
  H  H52  1  0.503200  0.132300  0.218400  1.0  0.1206
  H  H53  1  0.531800  0.190100  0.315400  1.0  0.1227
  H  H54  1  0.629100  0.496800  0.218400  1.0  0.1191
  H  H55  1  0.658300  0.468200  0.315400  1.0  0.123
  H  H56  1  0.867700  0.370900  0.218400  1.0  0.1199
  H  H57  1  0.809900  0.341700  0.315400  1.0  0.1228
  H  H58  1  0.044700  0.522350  0.291000  1.0  0.1251
  H  H59  1  0.176800  0.588400  0.075300  1.0  0.1242
  H  H60  1  0.477650  0.522350  0.291000  1.0  0.1252
  H  H61  1  0.411600  0.588400  0.075300  1.0  0.1242
  H  H62  1  0.477650  0.955300  0.291000  1.0  0.1246
  H  H63  1  0.411600  0.823200  0.075300  1.0  0.1252
  H  H64  1  0.955300  0.477650  0.291000  1.0  0.1249
  H  H65  1  0.823200  0.411600  0.075300  1.0  0.1245
  H  H66  1  0.522350  0.477650  0.291000  1.0  0.1249
  H  H67  1  0.588400  0.411600  0.075300  1.0  0.1242
  H  H68  1  0.522350  0.044700  0.291000  1.0  0.1244
  H  H69  1  0.588400  0.176800  0.075300  1.0  0.1247
  H  H70  1  0.522350  0.044700  0.709000  1.0  0.1253
  H  H71  1  0.588400  0.176800  0.924700  1.0  0.1244
  H  H72  1  0.522350  0.477650  0.709000  1.0  0.1256
  H  H73  1  0.588400  0.411600  0.924700  1.0  0.1237
  H  H74  1  0.955300  0.477650  0.709000  1.0  0.1257
  H  H75  1  0.823200  0.411600  0.924700  1.0  0.1244
  H  H76  1  0.477650  0.955300  0.709000  1.0  0.1253
  H  H77  1  0.411600  0.823200  0.924700  1.0  0.1249
  H  H78  1  0.477650  0.522350  0.709000  1.0  0.1262
  H  H79  1  0.411600  0.588400  0.924700  1.0  0.1241
  H  H80  1  0.044700  0.522350  0.709000  1.0  0.1259
  H  H81  1  0.176800  0.588400  0.924700  1.0  0.1237
  C  C82  1  0.144000  0.534300  0.238100  1.0  -0.1117
  C  C83  1  0.178400  0.551200  0.295600  1.0  -0.0307
  C  C84  1  0.465700  0.609700  0.238100  1.0  -0.1141
  C  C85  1  0.448800  0.627200  0.295600  1.0  -0.029
  C  C86  1  0.390300  0.856000  0.238100  1.0  -0.1133
  C  C87  1  0.372800  0.821600  0.295600  1.0  -0.0302
  C  C88  1  0.856000  0.465700  0.238100  1.0  -0.1127
  C  C89  1  0.821600  0.448800  0.295600  1.0  -0.0326
  C  C90  1  0.534300  0.390300  0.238100  1.0  -0.114
  C  C91  1  0.551200  0.372800  0.295600  1.0  -0.0291
  C  C92  1  0.609700  0.144000  0.238100  1.0  -0.114
  C  C93  1  0.627200  0.178400  0.295600  1.0  -0.0282
  C  C94  1  0.534300  0.144000  0.761900  1.0  -0.1137
  C  C95  1  0.551200  0.178400  0.704400  1.0  -0.0313
  C  C96  1  0.609700  0.465700  0.761900  1.0  -0.1125
  C  C97  1  0.627200  0.448800  0.704400  1.0  -0.0313
  C  C98  1  0.856000  0.390300  0.761900  1.0  -0.1142
  C  C99  1  0.821600  0.372800  0.704400  1.0  -0.0299
  C  C100  1  0.465700  0.856000  0.761900  1.0  -0.1135
  C  C101  1  0.448800  0.821600  0.704400  1.0  -0.0295
  C  C102  1  0.390300  0.534300  0.761900  1.0  -0.1136
  C  C103  1  0.372800  0.551200  0.704400  1.0  -0.0321
  C  C104  1  0.144000  0.609700  0.761900  1.0  -0.1146
  C  C105  1  0.178400  0.627200  0.704400  1.0  -0.0296
  C  C106  1  0.856000  0.465700  0.761900  1.0  -0.1147
  C  C107  1  0.821600  0.448800  0.704400  1.0  -0.0331
  C  C108  1  0.534300  0.390300  0.761900  1.0  -0.1168
  C  C109  1  0.551200  0.372800  0.704400  1.0  -0.0294
  C  C110  1  0.609700  0.144000  0.761900  1.0  -0.1161
  C  C111  1  0.627200  0.178400  0.704400  1.0  -0.0287
  C  C112  1  0.144000  0.534300  0.761900  1.0  -0.114
  C  C113  1  0.178400  0.551200  0.704400  1.0  -0.0313
  C  C114  1  0.465700  0.609700  0.761900  1.0  -0.1158
  C  C115  1  0.448800  0.627200  0.704400  1.0  -0.0294
  C  C116  1  0.390300  0.856000  0.761900  1.0  -0.1162
  C  C117  1  0.372800  0.821600  0.704400  1.0  -0.0311
  C  C118  1  0.465700  0.856000  0.238100  1.0  -0.1163
  C  C119  1  0.448800  0.821600  0.295600  1.0  -0.0285
  C  C120  1  0.390300  0.534300  0.238100  1.0  -0.1151
  C  C121  1  0.372800  0.551200  0.295600  1.0  -0.0317
  C  C122  1  0.144000  0.609700  0.238100  1.0  -0.1167
  C  C123  1  0.178400  0.627200  0.295600  1.0  -0.0292
  C  C124  1  0.534300  0.144000  0.238100  1.0  -0.1152
  C  C125  1  0.551200  0.178400  0.295600  1.0  -0.0308
  C  C126  1  0.609700  0.465700  0.238100  1.0  -0.1149
  C  C127  1  0.627200  0.448800  0.295600  1.0  -0.0311
  C  C128  1  0.856000  0.390300  0.238100  1.0  -0.116
  C  C129  1  0.821600  0.372800  0.295600  1.0  -0.0294
  C  C130  1  0.102600  0.551300  0.066700  1.0  0.2113
  C  C131  1  0.039000  0.519500  0.167300  1.0  0.1597
  C  C132  1  0.087500  0.543750  0.144200  1.0  -0.0643
  C  C133  1  0.024700  0.512350  0.246400  1.0  -0.1441
  C  C134  1  0.149700  0.574850  0.042300  1.0  -0.1468
  C  C135  1  0.125400  0.562700  0.207500  1.0  0.0505
  C  C136  1  0.196400  0.598200  0.325000  1.0  -0.1029
  C  C137  1  0.237100  0.618550  0.389900  1.0  0.7262
  C  C138  1  0.448700  0.551300  0.066700  1.0  0.2118
  C  C139  1  0.480500  0.519500  0.167300  1.0  0.159
  C  C140  1  0.456250  0.543750  0.144200  1.0  -0.0649
  C  C141  1  0.487650  0.512350  0.246400  1.0  -0.1445
  C  C142  1  0.425150  0.574850  0.042300  1.0  -0.1465
  C  C143  1  0.437300  0.562700  0.207500  1.0  0.0501
  C  C144  1  0.401800  0.598200  0.325000  1.0  -0.1028
  C  C145  1  0.381450  0.618550  0.389900  1.0  0.7265
  C  C146  1  0.448700  0.897400  0.066700  1.0  0.2126
  C  C147  1  0.480500  0.961000  0.167300  1.0  0.1599
  C  C148  1  0.456250  0.912500  0.144200  1.0  -0.0646
  C  C149  1  0.487650  0.975300  0.246400  1.0  -0.1438
  C  C150  1  0.425150  0.850300  0.042300  1.0  -0.1472
  C  C151  1  0.437300  0.874600  0.207500  1.0  0.0511
  C  C152  1  0.401800  0.803600  0.325000  1.0  -0.1005
  C  C153  1  0.381450  0.762900  0.389900  1.0  0.7262
  C  C154  1  0.897400  0.448700  0.066700  1.0  0.2126
  C  C155  1  0.961000  0.480500  0.167300  1.0  0.1573
  C  C156  1  0.912500  0.456250  0.144200  1.0  -0.0648
  C  C157  1  0.975300  0.487650  0.246400  1.0  -0.145
  C  C158  1  0.850300  0.425150  0.042300  1.0  -0.1462
  C  C159  1  0.874600  0.437300  0.207500  1.0  0.0503
  C  C160  1  0.803600  0.401800  0.325000  1.0  -0.1027
  C  C161  1  0.762900  0.381450  0.389900  1.0  0.7259
  C  C162  1  0.551300  0.448700  0.066700  1.0  0.212
  C  C163  1  0.519500  0.480500  0.167300  1.0  0.1579
  C  C164  1  0.543750  0.456250  0.144200  1.0  -0.0642
  C  C165  1  0.512350  0.487650  0.246400  1.0  -0.1445
  C  C166  1  0.574850  0.425150  0.042300  1.0  -0.1463
  C  C167  1  0.562700  0.437300  0.207500  1.0  0.0506
  C  C168  1  0.598200  0.401800  0.325000  1.0  -0.1028
  C  C169  1  0.618550  0.381450  0.389900  1.0  0.7256
  C  C170  1  0.551300  0.102600  0.066700  1.0  0.2119
  C  C171  1  0.519500  0.039000  0.167300  1.0  0.1597
  C  C172  1  0.543750  0.087500  0.144200  1.0  -0.0646
  C  C173  1  0.512350  0.024700  0.246400  1.0  -0.1432
  C  C174  1  0.574850  0.149700  0.042300  1.0  -0.1474
  C  C175  1  0.562700  0.125400  0.207500  1.0  0.0506
  C  C176  1  0.598200  0.196400  0.325000  1.0  -0.1011
  C  C177  1  0.618550  0.237100  0.389900  1.0  0.7268
  C  C178  1  0.551300  0.102600  0.933300  1.0  0.2093
  C  C179  1  0.519500  0.039000  0.832700  1.0  0.1608
  C  C180  1  0.543750  0.087500  0.855800  1.0  -0.0647
  C  C181  1  0.512350  0.024700  0.753600  1.0  -0.143
  C  C182  1  0.574850  0.149700  0.957700  1.0  -0.1483
  C  C183  1  0.562700  0.125400  0.792500  1.0  0.0503
  C  C184  1  0.598200  0.196400  0.675000  1.0  -0.0989
  C  C185  1  0.618550  0.237100  0.610100  1.0  0.7266
  C  C186  1  0.551300  0.448700  0.933300  1.0  0.2094
  C  C187  1  0.519500  0.480500  0.832700  1.0  0.1591
  C  C188  1  0.543750  0.456250  0.855800  1.0  -0.0645
  C  C189  1  0.512350  0.487650  0.753600  1.0  -0.1449
  C  C190  1  0.574850  0.425150  0.957700  1.0  -0.1474
  C  C191  1  0.562700  0.437300  0.792500  1.0  0.0501
  C  C192  1  0.598200  0.401800  0.675000  1.0  -0.1023
  C  C193  1  0.618550  0.381450  0.610100  1.0  0.7255
  C  C194  1  0.897400  0.448700  0.933300  1.0  0.21
  C  C195  1  0.961000  0.480500  0.832700  1.0  0.1583
  C  C196  1  0.912500  0.456250  0.855800  1.0  -0.0649
  C  C197  1  0.975300  0.487650  0.753600  1.0  -0.1444
  C  C198  1  0.850300  0.425150  0.957700  1.0  -0.147
  C  C199  1  0.874600  0.437300  0.792500  1.0  0.05
  C  C200  1  0.803600  0.401800  0.675000  1.0  -0.1023
  C  C201  1  0.762900  0.381450  0.610100  1.0  0.7258
  C  C202  1  0.448700  0.897400  0.933300  1.0  0.2102
  C  C203  1  0.480500  0.961000  0.832700  1.0  0.1592
  C  C204  1  0.456250  0.912500  0.855800  1.0  -0.0649
  C  C205  1  0.487650  0.975300  0.753600  1.0  -0.1434
  C  C206  1  0.425150  0.850300  0.957700  1.0  -0.148
  C  C207  1  0.437300  0.874600  0.792500  1.0  0.0507
  C  C208  1  0.401800  0.803600  0.675000  1.0  -0.1004
  C  C209  1  0.381450  0.762900  0.610100  1.0  0.7261
  C  C210  1  0.448700  0.551300  0.933300  1.0  0.2092
  C  C211  1  0.480500  0.519500  0.832700  1.0  0.1577
  C  C212  1  0.456250  0.543750  0.855800  1.0  -0.065
  C  C213  1  0.487650  0.512350  0.753600  1.0  -0.1436
  C  C214  1  0.425150  0.574850  0.957700  1.0  -0.1475
  C  C215  1  0.437300  0.562700  0.792500  1.0  0.0498
  C  C216  1  0.401800  0.598200  0.675000  1.0  -0.1015
  C  C217  1  0.381450  0.618550  0.610100  1.0  0.7263
  C  C218  1  0.102600  0.551300  0.933300  1.0  0.2086
  C  C219  1  0.039000  0.519500  0.832700  1.0  0.1585
  C  C220  1  0.087500  0.543750  0.855800  1.0  -0.0645
  C  C221  1  0.024700  0.512350  0.753600  1.0  -0.1442
  C  C222  1  0.149700  0.574850  0.957700  1.0  -0.148
  C  C223  1  0.125400  0.562700  0.792500  1.0  0.0499
  C  C224  1  0.196400  0.598200  0.675000  1.0  -0.1017
  C  C225  1  0.237100  0.618550  0.610100  1.0  0.726
  N  N226  1  0.071600  0.535800  0.000000  1.0  -0.3725
  N  N227  1  0.464200  0.535800  0.000000  1.0  -0.3735
  N  N228  1  0.464200  0.928400  0.000000  1.0  -0.3692
  N  N229  1  0.928400  0.464200  0.000000  1.0  -0.3732
  N  N230  1  0.535800  0.464200  0.000000  1.0  -0.3723
  N  N231  1  0.535800  0.071600  0.000000  1.0  -0.3706
  N  N232  1  0.000000  0.500000  0.115500  1.0  -0.4062
  N  N233  1  0.500000  0.500000  0.115500  1.0  -0.4062
  N  N234  1  0.500000  0.000000  0.115500  1.0  -0.4062
  N  N235  1  0.500000  0.000000  0.884500  1.0  -0.4061
  N  N236  1  0.500000  0.500000  0.884500  1.0  -0.4061
  N  N237  1  0.000000  0.500000  0.884500  1.0  -0.4061
  O  O238  1  0.250000  0.660300  0.412700  1.0  -0.61
  O  O239  1  0.339700  0.589700  0.412700  1.0  -0.6079
  O  O240  1  0.410300  0.750000  0.412700  1.0  -0.6112
  O  O241  1  0.750000  0.339700  0.412700  1.0  -0.6098
  O  O242  1  0.660300  0.410300  0.412700  1.0  -0.6088
  O  O243  1  0.589700  0.250000  0.412700  1.0  -0.6096
  O  O244  1  0.660300  0.250000  0.587300  1.0  -0.611
  O  O245  1  0.589700  0.339700  0.587300  1.0  -0.6097
  O  O246  1  0.750000  0.410300  0.587300  1.0  -0.6071
  O  O247  1  0.339700  0.750000  0.587300  1.0  -0.6097
  O  O248  1  0.410300  0.660300  0.587300  1.0  -0.6095
  O  O249  1  0.250000  0.589700  0.587300  1.0  -0.6095
  O  O250  1  0.750000  0.339700  0.587300  1.0  -0.6096
  O  O251  1  0.660300  0.410300  0.587300  1.0  -0.6086
  O  O252  1  0.589700  0.250000  0.587300  1.0  -0.6096
  O  O253  1  0.250000  0.660300  0.587300  1.0  -0.61
  O  O254  1  0.339700  0.589700  0.587300  1.0  -0.6079
  O  O255  1  0.410300  0.750000  0.587300  1.0  -0.6109
  O  O256  1  0.339700  0.750000  0.412700  1.0  -0.6098
  O  O257  1  0.410300  0.660300  0.412700  1.0  -0.6098
  O  O258  1  0.250000  0.589700  0.412700  1.0  -0.6096
  O  O259  1  0.660300  0.250000  0.412700  1.0  -0.6113
  O  O260  1  0.589700  0.339700  0.412700  1.0  -0.6095
  O  O261  1  0.750000  0.410300  0.412700  1.0  -0.6071
  O  O262  1  0.333333  0.666667  0.500000  1.0  -1.0217
  O  O263  1  0.666667  0.333333  0.500000  1.0  -1.0217
