# generated using pymatgen
data_Zr3H26C48(NO3)4
_symmetry_space_group_name_H-M   'P 1'
_cell_length_a   20.93230000
_cell_length_b   20.93220000
_cell_length_c   17.12200000
_cell_angle_alpha   90.00000000
_cell_angle_beta   90.00000000
_cell_angle_gamma   60.00000000
_symmetry_Int_Tables_number   1
_chemical_formula_structural   Zr3H26C48(NO3)4
_chemical_formula_sum   'Zr6 H52 C96 N8 O24'
_cell_volume   6497.06109130
_cell_formula_units_Z   2
loop_
 _symmetry_equiv_pos_site_id
 _symmetry_equiv_pos_as_xyz
  1  'x, y, z'
loop_
 _atom_site_type_symbol
 _atom_site_label
 _atom_site_symmetry_multiplicity
 _atom_site_fract_x
 _atom_site_fract_y
 _atom_site_fract_z
 _atom_site_occupancy
 _atom_site_charge
  Zr  Zr1  1  0.068650  0.064440  0.006480  1.0  1.921
  Zr  Zr2  1  0.075460  0.928560  0.913690  1.0  2.0891
  Zr  Zr3  1  0.927230  0.075640  0.895840  1.0  2.0546
  Zr  Zr4  1  0.937280  0.063870  0.098090  1.0  2.1193
  Zr  Zr5  1  0.938430  0.934220  0.006480  1.0  1.9226
  Zr  Zr6  1  0.074630  0.928240  0.114990  1.0  2.057
  H  H7  1  0.940150  0.761680  0.424350  1.0  0.1329
  H  H8  1  0.076040  0.528210  0.785590  1.0  0.1337
  H  H9  1  0.079770  0.399980  0.784970  1.0  0.1242
  H  H10  1  0.966080  0.278570  0.579140  1.0  0.129
  H  H11  1  0.963560  0.280770  0.425350  1.0  0.13
  H  H12  1  0.083270  0.397430  0.223220  1.0  0.1223
  H  H13  1  0.089660  0.520550  0.225910  1.0  0.1332
  H  H14  1  0.932280  0.764620  0.579350  1.0  0.1308
  H  H15  1  0.124300  0.270280  0.730800  1.0  0.1242
  H  H16  1  0.118600  0.185660  0.826390  1.0  0.1182
  H  H17  1  0.882820  0.291850  0.793660  1.0  0.1238
  H  H18  1  0.888560  0.377960  0.700670  1.0  0.1222
  H  H19  1  0.117600  0.270790  0.274940  1.0  0.1255
  H  H20  1  0.107930  0.190390  0.177460  1.0  0.1189
  H  H21  1  0.871290  0.306170  0.207550  1.0  0.1263
  H  H22  1  0.881480  0.387850  0.303490  1.0  0.1247
  H  H23  1  0.105950  0.673480  0.362170  1.0  0.1263
  H  H24  1  0.111500  0.756880  0.265270  1.0  0.1287
  H  H25  1  0.943940  0.745080  0.128930  1.0  0.1258
  H  H26  1  0.939530  0.661210  0.225560  1.0  0.1292
  H  H27  1  0.091840  0.679030  0.647820  1.0  0.1279
  H  H28  1  0.099800  0.759760  0.745180  1.0  0.1273
  H  H29  1  0.932380  0.749120  0.883190  1.0  0.1279
  H  H30  1  0.925210  0.667500  0.784850  1.0  0.1317
  H  H31  1  0.974530  0.516390  0.429050  1.0  0.1205
  H  H32  1  0.971210  0.515950  0.577610  1.0  0.1238
  H  H33  1  0.241180  0.062760  0.424350  1.0  0.1326
  H  H34  1  0.474650  0.926850  0.785580  1.0  0.1344
  H  H35  1  0.602880  0.923110  0.784960  1.0  0.1253
  H  H36  1  0.724300  0.036790  0.579140  1.0  0.1267
  H  H37  1  0.722100  0.039320  0.425350  1.0  0.1315
  H  H38  1  0.605440  0.919610  0.223230  1.0  0.1233
  H  H39  1  0.482320  0.913230  0.225910  1.0  0.1336
  H  H40  1  0.238240  0.070620  0.579340  1.0  0.1291
  H  H41  1  0.624910  0.114310  0.700670  1.0  0.123
  H  H42  1  0.711020  0.120050  0.793660  1.0  0.1269
  H  H43  1  0.817200  0.884270  0.826390  1.0  0.118
  H  H44  1  0.732590  0.878580  0.730800  1.0  0.1252
  H  H45  1  0.732080  0.885280  0.274940  1.0  0.1266
  H  H46  1  0.812480  0.894950  0.177470  1.0  0.1194
  H  H47  1  0.696700  0.131580  0.207550  1.0  0.1285
  H  H48  1  0.615020  0.121400  0.303490  1.0  0.127
  H  H49  1  0.329380  0.896940  0.362180  1.0  0.1266
  H  H50  1  0.245990  0.891380  0.265280  1.0  0.1284
  H  H51  1  0.257790  0.058930  0.128930  1.0  0.1262
  H  H52  1  0.341660  0.063350  0.225550  1.0  0.1294
  H  H53  1  0.323820  0.911060  0.647810  1.0  0.1286
  H  H54  1  0.243090  0.903090  0.745160  1.0  0.1272
  H  H55  1  0.253750  0.070490  0.883200  1.0  0.1276
  H  H56  1  0.335370  0.077670  0.784850  1.0  0.1323
  H  H57  1  0.486480  0.028360  0.429050  1.0  0.1214
  H  H58  1  0.486910  0.031670  0.577610  1.0  0.1244
  C  C59  1  0.055220  0.507840  0.739840  1.0  -0.0564
  C  C60  1  0.057400  0.441050  0.739250  1.0  -0.0477
  C  C61  1  0.024400  0.438170  0.670220  1.0  0.1634
  C  C62  1  0.020410  0.543580  0.671550  1.0  0.157
  C  C63  1  0.010230  0.377950  0.647800  1.0  -0.0307
  C  C64  1  0.998130  0.364190  0.565530  1.0  0.1405
  C  C65  1  0.977520  0.313700  0.542420  1.0  -0.0597
  C  C66  1  0.976190  0.314820  0.462460  1.0  -0.0659
  C  C67  1  0.996220  0.365800  0.439740  1.0  0.1443
  C  C68  1  0.006370  0.381230  0.357520  1.0  -0.0251
  C  C69  1  0.025980  0.438040  0.336680  1.0  0.1679
  C  C70  1  0.062240  0.438350  0.269140  1.0  -0.0491
  C  C71  1  0.065520  0.502390  0.270370  1.0  -0.0631
  C  C72  1  0.030490  0.539210  0.338150  1.0  0.163
  C  C73  1  0.017170  0.613230  0.360680  1.0  -0.0378
  C  C74  1  0.997770  0.640740  0.441680  1.0  0.1674
  C  C75  1  0.961090  0.714380  0.462770  1.0  -0.0415
  C  C76  1  0.956900  0.715910  0.542800  1.0  -0.0421
  C  C77  1  0.991280  0.643140  0.566900  1.0  0.1764
  C  C78  1  0.003720  0.618750  0.649330  1.0  -0.0374
  C  C79  1  0.006730  0.330440  0.709430  1.0  0.0753
  C  C80  1  0.000140  0.335800  0.295170  1.0  0.0606
  C  C81  1  0.022370  0.661350  0.300780  1.0  0.0629
  C  C82  1  0.007870  0.667570  0.709170  1.0  0.0879
  C  C83  1  0.071310  0.276190  0.745710  1.0  -0.1315
  C  C84  1  0.068000  0.228050  0.800030  1.0  -0.1073
  C  C85  1  0.000280  0.232440  0.817060  1.0  -0.0594
  C  C86  1  0.935680  0.287290  0.781210  1.0  -0.1118
  C  C87  1  0.938810  0.336470  0.728450  1.0  -0.1032
  C  C88  1  0.063610  0.279760  0.259150  1.0  -0.1474
  C  C89  1  0.057920  0.233900  0.203700  1.0  -0.082
  C  C90  1  0.988740  0.242330  0.184700  1.0  -0.0738
  C  C91  1  0.925240  0.298490  0.221040  1.0  -0.1054
  C  C92  1  0.930900  0.345230  0.275460  1.0  -0.0971
  C  C93  1  0.070940  0.688570  0.310990  1.0  -0.1389
  C  C94  1  0.074320  0.735780  0.255450  1.0  -0.0733
  C  C95  1  0.028330  0.757340  0.189400  1.0  -0.0968
  C  C96  1  0.980130  0.729450  0.179160  1.0  -0.0927
  C  C97  1  0.977550  0.681490  0.234150  1.0  -0.1427
  C  C98  1  0.056890  0.694120  0.699070  1.0  -0.1382
  C  C99  1  0.061610  0.739930  0.755100  1.0  -0.0815
  C  C100  1  0.016950  0.760620  0.822260  1.0  -0.1052
  C  C101  1  0.967610  0.734080  0.832220  1.0  -0.1091
  C  C102  1  0.963470  0.687490  0.776260  1.0  -0.1469
  C  C103  1  0.495020  0.947660  0.739840  1.0  -0.0628
  C  C104  1  0.561810  0.945480  0.739240  1.0  -0.0491
  C  C105  1  0.564700  0.978480  0.670220  1.0  0.1653
  C  C106  1  0.459280  0.982470  0.671550  1.0  0.1571
  C  C107  1  0.624910  0.992640  0.647800  1.0  -0.0304
  C  C108  1  0.638670  0.004750  0.565530  1.0  0.1408
  C  C109  1  0.689170  0.025350  0.542420  1.0  -0.0597
  C  C110  1  0.688040  0.026690  0.462470  1.0  -0.0638
  C  C111  1  0.637070  0.006660  0.439740  1.0  0.144
  C  C112  1  0.621640  0.996510  0.357520  1.0  -0.0252
  C  C113  1  0.564830  0.976910  0.336680  1.0  0.169
  C  C114  1  0.564510  0.940640  0.269140  1.0  -0.0509
  C  C115  1  0.500470  0.937370  0.270370  1.0  -0.0679
  C  C116  1  0.463650  0.972390  0.338150  1.0  0.1629
  C  C117  1  0.389630  0.985720  0.360680  1.0  -0.0375
  C  C118  1  0.362120  0.005120  0.441680  1.0  0.1673
  C  C119  1  0.288490  0.041800  0.462770  1.0  -0.0399
  C  C120  1  0.286960  0.046000  0.542800  1.0  -0.0421
  C  C121  1  0.359730  0.011610  0.566900  1.0  0.1782
  C  C122  1  0.384110  0.999170  0.649330  1.0  -0.0369
  C  C123  1  0.672430  0.996150  0.709430  1.0  0.0761
  C  C124  1  0.667070  0.002740  0.295170  1.0  0.0622
  C  C125  1  0.341510  0.980510  0.300780  1.0  0.0639
  C  C126  1  0.335290  0.995020  0.709160  1.0  0.0876
  C  C127  1  0.666400  0.064060  0.728460  1.0  -0.1026
  C  C128  1  0.715580  0.067190  0.781210  1.0  -0.1142
  C  C129  1  0.770430  0.002590  0.817060  1.0  -0.0609
  C  C130  1  0.774820  0.934870  0.800030  1.0  -0.1043
  C  C131  1  0.726670  0.931560  0.745710  1.0  -0.1399
  C  C132  1  0.723110  0.939270  0.259150  1.0  -0.1556
  C  C133  1  0.768970  0.944950  0.203700  1.0  -0.0897
  C  C134  1  0.760540  0.014130  0.184700  1.0  -0.0747
  C  C135  1  0.704380  0.077640  0.221040  1.0  -0.1141
  C  C136  1  0.657640  0.071980  0.275460  1.0  -0.1007
  C  C137  1  0.314290  0.931940  0.310990  1.0  -0.1398
  C  C138  1  0.267080  0.928560  0.255450  1.0  -0.0736
  C  C139  1  0.245530  0.974550  0.189400  1.0  -0.0971
  C  C140  1  0.273420  0.022750  0.179160  1.0  -0.0976
  C  C141  1  0.321380  0.025330  0.234140  1.0  -0.1467
  C  C142  1  0.308740  0.946000  0.699060  1.0  -0.1393
  C  C143  1  0.262930  0.941280  0.755090  1.0  -0.0825
  C  C144  1  0.242250  0.985930  0.822250  1.0  -0.0976
  C  C145  1  0.268790  0.035270  0.832220  1.0  -0.109
  C  C146  1  0.315380  0.039410  0.776260  1.0  -0.1518
  C  C147  1  0.983870  0.190680  0.129570  1.0  0.5467
  C  C148  1  0.997370  0.177620  0.868490  1.0  0.3256
  C  C149  1  0.021160  0.811110  0.879850  1.0  0.4885
  C  C150  1  0.027260  0.811960  0.133900  1.0  0.4879
  C  C151  1  0.812190  0.019000  0.129570  1.0  0.2902
  C  C152  1  0.190910  0.975620  0.133900  1.0  0.4899
  C  C153  1  0.825250  0.005500  0.868490  1.0  0.2925
  C  C154  1  0.191750  0.981720  0.879840  1.0  0.4825
  N  N155  1  0.001640  0.501020  0.629310  1.0  -0.2503
  N  N156  1  0.010500  0.395590  0.502710  1.0  -0.332
  N  N157  1  0.006450  0.499850  0.378380  1.0  -0.2535
  N  N158  1  0.016560  0.596850  0.505220  1.0  -0.3603
  N  N159  1  0.501840  0.001250  0.629310  1.0  -0.2497
  N  N160  1  0.607280  0.992380  0.502710  1.0  -0.3322
  N  N161  1  0.503020  0.996440  0.378380  1.0  -0.2531
  N  N162  1  0.406020  0.986330  0.505220  1.0  -0.3588
  O  O163  1  0.039890  0.022670  0.912260  1.0  -0.9194
  O  O164  1  0.112370  0.951750  0.014290  1.0  -0.9817
  O  O165  1  0.161350  0.034840  0.935990  1.0  -0.6029
  O  O166  1  0.180320  0.923280  0.862110  1.0  -0.6257
  O  O167  1  0.955540  0.108200  0.997450  1.0  -1.0153
  O  O168  1  0.931640  0.173240  0.851360  1.0  -0.6527
  O  O169  1  0.046360  0.150230  0.928670  1.0  -0.6054
  O  O170  1  0.023040  0.040300  0.101530  1.0  -0.8747
  O  O171  1  0.039400  0.156810  0.076530  1.0  -0.5975
  O  O172  1  0.923960  0.181280  0.134550  1.0  -0.6004
  O  O173  1  0.178190  0.917810  0.145310  1.0  -0.579
  O  O174  1  0.156560  0.034750  0.084780  1.0  -0.5979
  O  O175  1  0.980200  0.962980  0.912260  1.0  -0.9203
  O  O176  1  0.051120  0.890500  0.014290  1.0  -0.9673
  O  O177  1  0.079510  0.822450  0.862130  1.0  -0.6257
  O  O178  1  0.968030  0.841520  0.935990  1.0  -0.602
  O  O179  1  0.894680  0.047330  0.997450  1.0  -1.0143
  O  O180  1  0.852640  0.956510  0.928680  1.0  -0.6061
  O  O181  1  0.830490  0.072090  0.851360  1.0  -0.713
  O  O182  1  0.962580  0.979830  0.101530  1.0  -0.8351
  O  O183  1  0.827110  0.084430  0.134410  1.0  -0.7393
  O  O184  1  0.846060  0.963470  0.076530  1.0  -0.612
  O  O185  1  0.968130  0.846310  0.084780  1.0  -0.5972
  O  O186  1  0.085170  0.824800  0.145310  1.0  -0.5676
