# generated using pymatgen
data_Zr3H36(C14O3)4
_symmetry_space_group_name_H-M   'P 1'
_cell_length_a   33.22300000
_cell_length_b   33.22300000
_cell_length_c   33.22300000
_cell_angle_alpha   90.00000000
_cell_angle_beta   90.00000000
_cell_angle_gamma   90.00000000
_symmetry_Int_Tables_number   1
_chemical_formula_structural   Zr3H36(C14O3)4
_chemical_formula_sum   'Zr18 H216 C336 O72'
_cell_volume   36670.47526057
_cell_formula_units_Z   6
loop_
 _symmetry_equiv_pos_site_id
 _symmetry_equiv_pos_as_xyz
  1  'x, y, z'
loop_
 _atom_site_type_symbol
 _atom_site_label
 _atom_site_symmetry_multiplicity
 _atom_site_fract_x
 _atom_site_fract_y
 _atom_site_fract_z
 _atom_site_occupancy
 _atom_site_charge
  Zr  Zr1  1  0.446910  0.446910  0.000000  1.0  2.1061
  Zr  Zr2  1  0.553090  0.553090  0.000000  1.0  2.107
  Zr  Zr3  1  0.553090  0.446910  0.000000  1.0  2.1065
  Zr  Zr4  1  0.446910  0.553090  0.000000  1.0  2.1059
  Zr  Zr5  1  0.000000  0.446910  0.446910  1.0  2.1038
  Zr  Zr6  1  0.000000  0.553090  0.553090  1.0  2.1058
  Zr  Zr7  1  0.000000  0.553090  0.446910  1.0  2.1037
  Zr  Zr8  1  0.000000  0.446910  0.553090  1.0  2.1049
  Zr  Zr9  1  0.446910  0.000000  0.446910  1.0  2.1034
  Zr  Zr10  1  0.553090  0.000000  0.553090  1.0  2.1048
  Zr  Zr11  1  0.446910  0.000000  0.553090  1.0  2.1048
  Zr  Zr12  1  0.553090  0.000000  0.446910  1.0  2.104
  Zr  Zr13  1  0.500000  0.500000  0.073780  1.0  2.1509
  Zr  Zr14  1  0.500000  0.500000  0.926220  1.0  2.1508
  Zr  Zr15  1  0.073780  0.500000  0.500000  1.0  2.1452
  Zr  Zr16  1  0.926220  0.500000  0.500000  1.0  2.1444
  Zr  Zr17  1  0.500000  0.073780  0.500000  1.0  2.1457
  Zr  Zr18  1  0.500000  0.926220  0.500000  1.0  2.1485
  H  H19  1  0.333110  0.678220  0.883690  1.0  0.1255
  H  H20  1  0.297880  0.711620  0.827720  1.0  0.128
  H  H21  1  0.356650  0.633550  0.742840  1.0  0.1224
  H  H22  1  0.116350  0.674540  0.670920  1.0  0.1283
  H  H23  1  0.172480  0.708450  0.705420  1.0  0.1287
  H  H24  1  0.257650  0.636740  0.639430  1.0  0.1259
  H  H25  1  0.328810  0.883690  0.674210  1.0  0.131
  H  H26  1  0.294450  0.827560  0.708270  1.0  0.1279
  H  H27  1  0.361220  0.742360  0.637300  1.0  0.1242
  H  H28  1  0.371300  0.733940  0.775130  1.0  0.1208
  H  H29  1  0.354270  0.780790  0.755300  1.0  0.1254
  H  H30  1  0.384740  0.747470  0.724910  1.0  0.1336
  H  H31  1  0.266110  0.775300  0.629040  1.0  0.1229
  H  H32  1  0.219350  0.754970  0.645650  1.0  0.1259
  H  H33  1  0.252950  0.725010  0.615070  1.0  0.1283
  H  H34  1  0.263780  0.631070  0.777090  1.0  0.1225
  H  H35  1  0.217840  0.647420  0.754890  1.0  0.1267
  H  H36  1  0.251920  0.615560  0.726850  1.0  0.1259
  H  H37  1  0.381130  0.627180  0.907760  1.0  0.1317
  H  H38  1  0.439490  0.549070  0.821510  1.0  0.1203
  H  H39  1  0.403850  0.582140  0.766850  1.0  0.1234
  H  H40  1  0.377770  0.907850  0.624120  1.0  0.1327
  H  H41  1  0.444500  0.821160  0.553520  1.0  0.1196
  H  H42  1  0.410190  0.766350  0.587660  1.0  0.1234
  H  H43  1  0.092170  0.624490  0.621890  1.0  0.1267
  H  H44  1  0.178840  0.553000  0.556080  1.0  0.1207
  H  H45  1  0.233640  0.586920  0.590620  1.0  0.1228
  H  H46  1  0.672490  0.115950  0.672990  1.0  0.1297
  H  H47  1  0.706870  0.171940  0.707260  1.0  0.1317
  H  H48  1  0.638600  0.257460  0.638110  1.0  0.1234
  H  H49  1  0.673150  0.327680  0.883630  1.0  0.126
  H  H50  1  0.707260  0.293400  0.827480  1.0  0.1328
  H  H51  1  0.637620  0.361550  0.742290  1.0  0.1249
  H  H52  1  0.883800  0.326300  0.671760  1.0  0.13
  H  H53  1  0.827720  0.292140  0.706100  1.0  0.1263
  H  H54  1  0.742400  0.362330  0.638680  1.0  0.1223
  H  H55  1  0.735310  0.223570  0.630130  1.0  0.1197
  H  H56  1  0.781710  0.244460  0.646990  1.0  0.1262
  H  H57  1  0.748250  0.273760  0.615620  1.0  0.1299
  H  H58  1  0.775470  0.370650  0.734330  1.0  0.1221
  H  H59  1  0.754750  0.354110  0.780940  1.0  0.1264
  H  H60  1  0.725150  0.384840  0.747160  1.0  0.1324
  H  H61  1  0.629910  0.223800  0.735070  1.0  0.1238
  H  H62  1  0.646540  0.244930  0.781450  1.0  0.1278
  H  H63  1  0.615390  0.274080  0.747660  1.0  0.1276
  H  H64  1  0.623000  0.092000  0.623360  1.0  0.1312
  H  H65  1  0.554900  0.178910  0.554370  1.0  0.1189
  H  H66  1  0.589290  0.233620  0.588630  1.0  0.123
  H  H67  1  0.907890  0.376190  0.622570  1.0  0.1295
  H  H68  1  0.821120  0.446100  0.555220  1.0  0.1176
  H  H69  1  0.766340  0.411910  0.589550  1.0  0.1225
  H  H70  1  0.623520  0.377110  0.907820  1.0  0.1351
  H  H71  1  0.554080  0.445070  0.821140  1.0  0.1192
  H  H72  1  0.588180  0.410740  0.766320  1.0  0.1203
  H  H73  1  0.327240  0.116000  0.672710  1.0  0.1298
  H  H74  1  0.292960  0.172000  0.707050  1.0  0.1317
  H  H75  1  0.361810  0.257480  0.638420  1.0  0.1234
  H  H76  1  0.116420  0.327630  0.673080  1.0  0.1289
  H  H77  1  0.172590  0.293360  0.707170  1.0  0.1314
  H  H78  1  0.257740  0.361520  0.637500  1.0  0.1275
  H  H79  1  0.327750  0.326810  0.883740  1.0  0.1291
  H  H80  1  0.293500  0.292600  0.827640  1.0  0.128
  H  H81  1  0.361680  0.362110  0.742360  1.0  0.1212
  H  H82  1  0.369970  0.223710  0.735310  1.0  0.1234
  H  H83  1  0.353120  0.244650  0.781700  1.0  0.129
  H  H84  1  0.384450  0.273920  0.748180  1.0  0.1299
  H  H85  1  0.265760  0.370850  0.775250  1.0  0.1188
  H  H86  1  0.219130  0.354300  0.754560  1.0  0.1248
  H  H87  1  0.252950  0.384920  0.724890  1.0  0.1315
  H  H88  1  0.265060  0.223800  0.629880  1.0  0.123
  H  H89  1  0.218660  0.244930  0.646460  1.0  0.1258
  H  H90  1  0.252470  0.274070  0.615330  1.0  0.1255
  H  H91  1  0.376820  0.092010  0.623170  1.0  0.1333
  H  H92  1  0.445490  0.178900  0.554720  1.0  0.1205
  H  H93  1  0.411220  0.233630  0.589070  1.0  0.1249
  H  H94  1  0.377090  0.376530  0.907860  1.0  0.1314
  H  H95  1  0.445190  0.445750  0.821130  1.0  0.1215
  H  H96  1  0.410940  0.411520  0.766330  1.0  0.1216
  H  H97  1  0.092200  0.377100  0.623510  1.0  0.127
  H  H98  1  0.178840  0.445100  0.554070  1.0  0.1235
  H  H99  1  0.233690  0.410740  0.588100  1.0  0.1237
  H  H100  1  0.326380  0.883920  0.328200  1.0  0.1293
  H  H101  1  0.292260  0.827880  0.293760  1.0  0.1283
  H  H102  1  0.362530  0.742480  0.361010  1.0  0.1237
  H  H103  1  0.116470  0.674460  0.329040  1.0  0.1303
  H  H104  1  0.172640  0.708360  0.294600  1.0  0.1294
  H  H105  1  0.257730  0.636690  0.360740  1.0  0.1257
  H  H106  1  0.330010  0.675380  0.116280  1.0  0.1242
  H  H107  1  0.295400  0.709260  0.172360  1.0  0.1273
  H  H108  1  0.359940  0.636280  0.257570  1.0  0.1195
  H  H109  1  0.370250  0.776090  0.265070  1.0  0.1232
  H  H110  1  0.353220  0.755640  0.218540  1.0  0.1257
  H  H111  1  0.384450  0.725920  0.251760  1.0  0.1318
  H  H112  1  0.265210  0.629860  0.224060  1.0  0.1221
  H  H113  1  0.218830  0.646060  0.245540  1.0  0.1263
  H  H114  1  0.253030  0.615090  0.274410  1.0  0.1307
  H  H115  1  0.265610  0.775540  0.370800  1.0  0.1205
  H  H116  1  0.219010  0.755050  0.353970  1.0  0.1246
  H  H117  1  0.252550  0.725250  0.384760  1.0  0.1315
  H  H118  1  0.376190  0.907940  0.377460  1.0  0.132
  H  H119  1  0.446320  0.821120  0.444520  1.0  0.1183
  H  H120  1  0.412210  0.766370  0.410060  1.0  0.1241
  H  H121  1  0.378700  0.625020  0.092160  1.0  0.1311
  H  H122  1  0.443130  0.552280  0.178820  1.0  0.1215
  H  H123  1  0.408470  0.586140  0.233600  1.0  0.1239
  H  H124  1  0.092230  0.624410  0.378030  1.0  0.1241
  H  H125  1  0.178810  0.552870  0.443890  1.0  0.1171
  H  H126  1  0.233660  0.586790  0.409430  1.0  0.1254
  H  H127  1  0.883990  0.672590  0.672870  1.0  0.1274
  H  H128  1  0.827980  0.706930  0.707140  1.0  0.1329
  H  H129  1  0.742510  0.638520  0.638080  1.0  0.1234
  H  H130  1  0.671830  0.673610  0.883560  1.0  0.1206
  H  H131  1  0.706170  0.707620  0.827390  1.0  0.1328
  H  H132  1  0.638830  0.637130  0.742270  1.0  0.1243
  H  H133  1  0.673120  0.883720  0.672330  1.0  0.1342
  H  H134  1  0.707330  0.827610  0.706560  1.0  0.1257
  H  H135  1  0.637990  0.742340  0.638190  1.0  0.1225
  H  H136  1  0.776320  0.735290  0.630050  1.0  0.1243
  H  H137  1  0.755310  0.781660  0.646830  1.0  0.1307
  H  H138  1  0.726100  0.748070  0.615510  1.0  0.1303
  H  H139  1  0.629000  0.775120  0.734060  1.0  0.1232
  H  H140  1  0.645630  0.754630  0.780750  1.0  0.1282
  H  H141  1  0.615060  0.724780  0.747040  1.0  0.1313
  H  H142  1  0.776200  0.629890  0.735000  1.0  0.1221
  H  H143  1  0.754980  0.646440  0.781370  1.0  0.1287
  H  H144  1  0.725920  0.615300  0.747500  1.0  0.1285
  H  H145  1  0.907980  0.623050  0.623300  1.0  0.1326
  H  H146  1  0.821100  0.554800  0.554420  1.0  0.1194
  H  H147  1  0.766370  0.589180  0.588650  1.0  0.1228
  H  H148  1  0.623410  0.907860  0.622980  1.0  0.1319
  H  H149  1  0.554360  0.821130  0.554690  1.0  0.1185
  H  H150  1  0.588620  0.766330  0.588900  1.0  0.1268
  H  H151  1  0.622540  0.623860  0.907790  1.0  0.1307
  H  H152  1  0.555430  0.553540  0.821170  1.0  0.1266
  H  H153  1  0.589840  0.587510  0.766320  1.0  0.1227
  H  H154  1  0.672710  0.883950  0.327270  1.0  0.1317
  H  H155  1  0.707030  0.827920  0.293010  1.0  0.1323
  H  H156  1  0.638370  0.742480  0.361870  1.0  0.1246
  H  H157  1  0.672210  0.673240  0.116450  1.0  0.1254
  H  H158  1  0.706440  0.707340  0.172630  1.0  0.1321
  H  H159  1  0.638250  0.637670  0.257760  1.0  0.125
  H  H160  1  0.883720  0.674620  0.329220  1.0  0.1286
  H  H161  1  0.827620  0.708610  0.294740  1.0  0.1275
  H  H162  1  0.742390  0.636830  0.360580  1.0  0.1219
  H  H163  1  0.735010  0.776080  0.370250  1.0  0.1234
  H  H164  1  0.781500  0.755480  0.353290  1.0  0.1264
  H  H165  1  0.748150  0.725880  0.384490  1.0  0.1316
  H  H166  1  0.775550  0.629450  0.265550  1.0  0.1243
  H  H167  1  0.754520  0.645860  0.219030  1.0  0.1279
  H  H168  1  0.725190  0.615070  0.253000  1.0  0.131
  H  H169  1  0.629590  0.775910  0.265310  1.0  0.123
  H  H170  1  0.646240  0.755010  0.218830  1.0  0.1257
  H  H171  1  0.615260  0.725620  0.252570  1.0  0.129
  H  H172  1  0.623150  0.907960  0.376790  1.0  0.1354
  H  H173  1  0.554660  0.821110  0.445480  1.0  0.1184
  H  H174  1  0.589000  0.766370  0.411240  1.0  0.1277
  H  H175  1  0.907850  0.624480  0.378130  1.0  0.1306
  H  H176  1  0.821160  0.552960  0.443860  1.0  0.119
  H  H177  1  0.766370  0.586940  0.409360  1.0  0.1236
  H  H178  1  0.622850  0.623560  0.092220  1.0  0.128
  H  H179  1  0.554900  0.554050  0.178840  1.0  0.1288
  H  H180  1  0.589130  0.588190  0.233690  1.0  0.1214
  H  H181  1  0.326160  0.116060  0.328410  1.0  0.1291
  H  H182  1  0.292020  0.172090  0.293970  1.0  0.1269
  H  H183  1  0.362520  0.257510  0.360970  1.0  0.1233
  H  H184  1  0.326590  0.327970  0.116460  1.0  0.1255
  H  H185  1  0.292560  0.293660  0.172640  1.0  0.131
  H  H186  1  0.362720  0.361360  0.257760  1.0  0.124
  H  H187  1  0.116300  0.325600  0.329010  1.0  0.1296
  H  H188  1  0.172410  0.291590  0.294570  1.0  0.1269
  H  H189  1  0.257630  0.363060  0.360760  1.0  0.122
  H  H190  1  0.265100  0.224110  0.370430  1.0  0.1224
  H  H191  1  0.218570  0.244600  0.353430  1.0  0.128
  H  H192  1  0.251910  0.274310  0.384530  1.0  0.1322
  H  H193  1  0.224670  0.370790  0.265740  1.0  0.1234
  H  H194  1  0.245410  0.354250  0.219140  1.0  0.1276
  H  H195  1  0.275020  0.384940  0.252950  1.0  0.1343
  H  H196  1  0.370050  0.223760  0.265010  1.0  0.1221
  H  H197  1  0.353560  0.245070  0.218660  1.0  0.1281
  H  H198  1  0.384730  0.274050  0.252580  1.0  0.1314
  H  H199  1  0.376050  0.092050  0.377610  1.0  0.1368
  H  H200  1  0.446400  0.178880  0.444410  1.0  0.1204
  H  H201  1  0.412270  0.233620  0.409960  1.0  0.1243
  H  H202  1  0.092160  0.375670  0.377970  1.0  0.1292
  H  H203  1  0.178840  0.446880  0.444060  1.0  0.1214
  H  H204  1  0.233640  0.412870  0.409600  1.0  0.1258
  H  H205  1  0.376290  0.377310  0.092220  1.0  0.1296
  H  H206  1  0.446240  0.444810  0.178840  1.0  0.1264
  H  H207  1  0.412250  0.410440  0.233690  1.0  0.1213
  H  H208  1  0.884020  0.328380  0.326180  1.0  0.1249
  H  H209  1  0.828030  0.293860  0.292050  1.0  0.1308
  H  H210  1  0.742540  0.360670  0.362660  1.0  0.1237
  H  H211  1  0.673720  0.328260  0.116400  1.0  0.1255
  H  H212  1  0.707770  0.293940  0.172550  1.0  0.1309
  H  H213  1  0.637390  0.361340  0.257720  1.0  0.1243
  H  H214  1  0.673600  0.116190  0.328140  1.0  0.129
  H  H215  1  0.707780  0.172260  0.293800  1.0  0.1265
  H  H216  1  0.637670  0.257590  0.361290  1.0  0.1217
  H  H217  1  0.776530  0.264510  0.369730  1.0  0.1228
  H  H218  1  0.755510  0.218180  0.352880  1.0  0.1305
  H  H219  1  0.726340  0.251660  0.384350  1.0  0.1313
  H  H220  1  0.629550  0.224370  0.265410  1.0  0.1218
  H  H221  1  0.645980  0.245430  0.218910  1.0  0.127
  H  H222  1  0.615150  0.274720  0.252880  1.0  0.1303
  H  H223  1  0.775870  0.370480  0.265360  1.0  0.1233
  H  H224  1  0.755160  0.353740  0.218820  1.0  0.1255
  H  H225  1  0.725600  0.384670  0.252450  1.0  0.1321
  H  H226  1  0.907990  0.377630  0.376030  1.0  0.1305
  H  H227  1  0.821110  0.444260  0.446480  1.0  0.1186
  H  H228  1  0.766390  0.409680  0.412420  1.0  0.1217
  H  H229  1  0.623770  0.092100  0.377390  1.0  0.132
  H  H230  1  0.553950  0.178880  0.444820  1.0  0.1199
  H  H231  1  0.588130  0.233660  0.410460  1.0  0.1249
  H  H232  1  0.623890  0.377490  0.092190  1.0  0.1298
  H  H233  1  0.553650  0.444650  0.178850  1.0  0.1207
  H  H234  1  0.587730  0.410320  0.233680  1.0  0.1221
  C  C235  1  0.435210  0.435210  0.097610  1.0  0.7393
  C  C236  1  0.564790  0.564790  0.097610  1.0  0.7315
  C  C237  1  0.564790  0.435210  0.902390  1.0  0.7479
  C  C238  1  0.435210  0.564790  0.902390  1.0  0.7477
  C  C239  1  0.097610  0.435210  0.435210  1.0  0.7459
  C  C240  1  0.097610  0.564790  0.564790  1.0  0.7409
  C  C241  1  0.902390  0.564790  0.435210  1.0  0.7429
  C  C242  1  0.902390  0.435210  0.564790  1.0  0.7402
  C  C243  1  0.435210  0.097610  0.435210  1.0  0.7413
  C  C244  1  0.564790  0.097610  0.564790  1.0  0.747
  C  C245  1  0.435210  0.902390  0.564790  1.0  0.736
  C  C246  1  0.564790  0.902390  0.435210  1.0  0.7445
  C  C247  1  0.435210  0.435210  0.902390  1.0  0.7457
  C  C248  1  0.564790  0.564790  0.902390  1.0  0.738
  C  C249  1  0.435210  0.564790  0.097610  1.0  0.7445
  C  C250  1  0.564790  0.435210  0.097610  1.0  0.7493
  C  C251  1  0.435210  0.097610  0.564790  1.0  0.7378
  C  C252  1  0.564790  0.097610  0.435210  1.0  0.7469
  C  C253  1  0.564790  0.902390  0.564790  1.0  0.74
  C  C254  1  0.435210  0.902390  0.435210  1.0  0.7401
  C  C255  1  0.097610  0.435210  0.564790  1.0  0.7413
  C  C256  1  0.097610  0.564790  0.435210  1.0  0.7411
  C  C257  1  0.902390  0.435210  0.435210  1.0  0.7408
  C  C258  1  0.902390  0.564790  0.564790  1.0  0.7389
  C  C259  1  0.365460  0.636420  0.845460  1.0  0.0663
  C  C260  1  0.338510  0.668090  0.853160  1.0  -0.0806
  C  C261  1  0.318420  0.687120  0.821390  1.0  -0.1229
  C  C262  1  0.325060  0.674780  0.781570  1.0  0.0812
  C  C263  1  0.351670  0.643020  0.773670  1.0  -0.115
  C  C264  1  0.371910  0.623790  0.805320  1.0  0.0607
  C  C265  1  0.304670  0.695300  0.747590  1.0  -0.0135
  C  C266  1  0.154710  0.635850  0.635040  1.0  0.0709
  C  C267  1  0.146980  0.665950  0.663730  1.0  -0.0797
  C  C268  1  0.178860  0.685280  0.683400  1.0  -0.139
  C  C269  1  0.218780  0.674760  0.674650  1.0  0.0859
  C  C270  1  0.226710  0.644760  0.646100  1.0  -0.1095
  C  C271  1  0.194990  0.625270  0.626240  1.0  0.0603
  C  C272  1  0.252870  0.695180  0.695110  1.0  -0.0225
  C  C273  1  0.365050  0.845310  0.635890  1.0  0.0649
  C  C274  1  0.336210  0.853050  0.665840  1.0  -0.095
  C  C275  1  0.316640  0.821180  0.685250  1.0  -0.128
  C  C276  1  0.325630  0.781250  0.674950  1.0  0.0409
  C  C277  1  0.354360  0.773300  0.645130  1.0  -0.1108
  C  C278  1  0.374140  0.805020  0.625580  1.0  0.0604
  C  C279  1  0.304950  0.747220  0.695140  1.0  0.0023
  C  C280  1  0.322240  0.730070  0.730120  1.0  -0.0196
  C  C281  1  0.360150  0.748830  0.747500  1.0  -0.324
  C  C282  1  0.269670  0.678060  0.730300  1.0  -0.0328
  C  C283  1  0.250000  0.641010  0.748420  1.0  -0.3697
  C  C284  1  0.270160  0.729910  0.677620  1.0  -0.0233
  C  C285  1  0.251370  0.747410  0.639810  1.0  -0.3626
  C  C286  1  0.122960  0.616200  0.615020  1.0  -0.1147
  C  C287  1  0.130930  0.586010  0.586220  1.0  -0.1405
  C  C288  1  0.171370  0.576000  0.577940  1.0  -0.0814
  C  C289  1  0.202940  0.595370  0.597700  1.0  -0.1077
  C  C290  1  0.386120  0.617250  0.877090  1.0  -0.1077
  C  C291  1  0.413250  0.585550  0.869160  1.0  -0.1253
  C  C292  1  0.419090  0.573400  0.828880  1.0  -0.084
  C  C293  1  0.398660  0.592250  0.797430  1.0  -0.1068
  C  C294  1  0.384910  0.877050  0.616090  1.0  -0.1209
  C  C295  1  0.413880  0.869080  0.586080  1.0  -0.1402
  C  C296  1  0.422480  0.828620  0.576370  1.0  -0.0785
  C  C297  1  0.402870  0.797060  0.595870  1.0  -0.1135
  C  C298  1  0.635490  0.154490  0.635560  1.0  0.061
  C  C299  1  0.664770  0.146620  0.665040  1.0  -0.0781
  C  C300  1  0.684370  0.178410  0.684580  1.0  -0.1291
  C  C301  1  0.674940  0.218390  0.674870  1.0  0.0825
  C  C302  1  0.645780  0.226480  0.645500  1.0  -0.1174
  C  C303  1  0.626010  0.194820  0.625780  1.0  0.058
  C  C304  1  0.695420  0.252310  0.695370  1.0  -0.0131
  C  C305  1  0.635490  0.364620  0.845260  1.0  0.0706
  C  C306  1  0.665070  0.335400  0.852990  1.0  -0.0794
  C  C307  1  0.684500  0.315850  0.821110  1.0  -0.1316
  C  C308  1  0.674620  0.325270  0.781170  1.0  0.0881
  C  C309  1  0.645150  0.354360  0.773230  1.0  -0.1274
  C  C310  1  0.625540  0.374090  0.804980  1.0  0.0593
  C  C311  1  0.695080  0.304830  0.747100  1.0  -0.0263
  C  C312  1  0.845360  0.364220  0.635170  1.0  0.0613
  C  C313  1  0.853150  0.334470  0.664190  1.0  -0.0942
  C  C314  1  0.821310  0.314990  0.683750  1.0  -0.1247
  C  C315  1  0.781350  0.325010  0.674550  1.0  0.0383
  C  C316  1  0.773350  0.354670  0.645660  1.0  -0.1196
  C  C317  1  0.805060  0.374300  0.625890  1.0  0.0572
  C  C318  1  0.747360  0.304750  0.695230  1.0  0.0055
  C  C319  1  0.730400  0.269610  0.678060  1.0  -0.0168
  C  C320  1  0.749710  0.251710  0.640690  1.0  -0.3714
  C  C321  1  0.677920  0.269740  0.730170  1.0  -0.0277
  C  C322  1  0.640420  0.252000  0.749370  1.0  -0.3719
  C  C323  1  0.729920  0.322280  0.729950  1.0  -0.0256
  C  C324  1  0.747440  0.360010  0.748870  1.0  -0.3706
  C  C325  1  0.615730  0.384520  0.877020  1.0  -0.1104
  C  C326  1  0.586060  0.413850  0.869060  1.0  -0.1298
  C  C327  1  0.576660  0.422770  0.828600  1.0  -0.0792
  C  C328  1  0.596140  0.403150  0.797030  1.0  -0.1088
  C  C329  1  0.615560  0.122820  0.615700  1.0  -0.1199
  C  C330  1  0.586170  0.130890  0.586120  1.0  -0.1293
  C  C331  1  0.577240  0.171380  0.576890  1.0  -0.077
  C  C332  1  0.596900  0.202880  0.596470  1.0  -0.1092
  C  C333  1  0.877080  0.384060  0.615290  1.0  -0.1107
  C  C334  1  0.869080  0.413900  0.586140  1.0  -0.1279
  C  C335  1  0.828610  0.423390  0.577380  1.0  -0.0796
  C  C336  1  0.797060  0.403860  0.597010  1.0  -0.1078
  C  C337  1  0.364530  0.154520  0.635550  1.0  0.0616
  C  C338  1  0.335120  0.146660  0.664910  1.0  -0.0763
  C  C339  1  0.315590  0.178460  0.684490  1.0  -0.129
  C  C340  1  0.325210  0.218440  0.674950  1.0  0.0824
  C  C341  1  0.354500  0.226510  0.645700  1.0  -0.1162
  C  C342  1  0.374220  0.194840  0.625960  1.0  0.0589
  C  C343  1  0.304700  0.252370  0.695400  1.0  -0.013
  C  C344  1  0.154760  0.364590  0.635430  1.0  0.0709
  C  C345  1  0.147050  0.335350  0.664990  1.0  -0.0807
  C  C346  1  0.178950  0.315820  0.684410  1.0  -0.1345
  C  C347  1  0.218870  0.325250  0.674530  1.0  0.0864
  C  C348  1  0.226800  0.354340  0.645050  1.0  -0.1205
  C  C349  1  0.195050  0.374070  0.625460  1.0  0.0613
  C  C350  1  0.252960  0.304860  0.695000  1.0  -0.0255
  C  C351  1  0.364720  0.364380  0.845330  1.0  0.065
  C  C352  1  0.335510  0.334810  0.853090  1.0  -0.0933
  C  C353  1  0.316000  0.315300  0.821240  1.0  -0.1264
  C  C354  1  0.325440  0.325120  0.781290  1.0  0.0394
  C  C355  1  0.354510  0.354600  0.773310  1.0  -0.1183
  C  C356  1  0.374240  0.374250  0.805020  1.0  0.0608
  C  C357  1  0.304810  0.304840  0.747280  1.0  0.0056
  C  C358  1  0.322000  0.269710  0.730360  1.0  -0.016
  C  C359  1  0.359400  0.251850  0.749680  1.0  -0.3708
  C  C360  1  0.269910  0.269770  0.677870  1.0  -0.0259
  C  C361  1  0.250750  0.252010  0.640360  1.0  -0.3676
  C  C362  1  0.270100  0.322360  0.729810  1.0  -0.0256
  C  C363  1  0.251210  0.360150  0.747240  1.0  -0.3725
  C  C364  1  0.123000  0.384510  0.615700  1.0  -0.1126
  C  C365  1  0.130940  0.413850  0.586050  1.0  -0.1276
  C  C366  1  0.171390  0.422780  0.576640  1.0  -0.0816
  C  C367  1  0.202980  0.403150  0.596080  1.0  -0.1098
  C  C368  1  0.384390  0.122840  0.615650  1.0  -0.1174
  C  C369  1  0.413890  0.130890  0.586170  1.0  -0.1393
  C  C370  1  0.423040  0.171380  0.577130  1.0  -0.0821
  C  C371  1  0.403450  0.202890  0.596760  1.0  -0.1107
  C  C372  1  0.384560  0.384240  0.877060  1.0  -0.1158
  C  C373  1  0.413890  0.413890  0.869080  1.0  -0.1198
  C  C374  1  0.422880  0.423190  0.828610  1.0  -0.0813
  C  C375  1  0.403300  0.403630  0.797050  1.0  -0.1072
  C  C376  1  0.364370  0.845430  0.364680  1.0  0.061
  C  C377  1  0.334610  0.853260  0.335660  1.0  -0.0775
  C  C378  1  0.315170  0.821440  0.316030  1.0  -0.1297
  C  C379  1  0.325230  0.781490  0.325170  1.0  0.0856
  C  C380  1  0.354880  0.773440  0.354050  1.0  -0.1114
  C  C381  1  0.374510  0.805120  0.373850  1.0  0.0586
  C  C382  1  0.304770  0.747550  0.304720  1.0  -0.0121
  C  C383  1  0.154780  0.635770  0.364960  1.0  0.0635
  C  C384  1  0.147090  0.665860  0.336260  1.0  -0.07
  C  C385  1  0.178990  0.685180  0.316630  1.0  -0.1448
  C  C386  1  0.218900  0.674670  0.325440  1.0  0.0851
  C  C387  1  0.226800  0.644690  0.354010  1.0  -0.1093
  C  C388  1  0.195050  0.625180  0.373810  1.0  0.0641
  C  C389  1  0.252990  0.695080  0.305000  1.0  -0.0268
  C  C390  1  0.365190  0.636090  0.154660  1.0  0.0662
  C  C391  1  0.336880  0.666530  0.146910  1.0  -0.0917
  C  C392  1  0.317150  0.685840  0.178750  1.0  -0.1356
  C  C393  1  0.325480  0.674980  0.218670  1.0  0.0401
  C  C394  1  0.353620  0.644600  0.226640  1.0  -0.1156
  C  C395  1  0.373560  0.625130  0.194940  1.0  0.0583
  C  C396  1  0.304810  0.695230  0.252680  1.0  0.0057
  C  C397  1  0.322050  0.730290  0.269710  1.0  -0.0177
  C  C398  1  0.359510  0.748120  0.250480  1.0  -0.3621
  C  C399  1  0.270020  0.730080  0.322260  1.0  -0.0227
  C  C400  1  0.251020  0.747610  0.359970  1.0  -0.3666
  C  C401  1  0.270060  0.677720  0.270080  1.0  -0.0273
  C  C402  1  0.251000  0.640150  0.252400  1.0  -0.3621
  C  C403  1  0.123010  0.616130  0.384940  1.0  -0.1121
  C  C404  1  0.130940  0.585950  0.413760  1.0  -0.1339
  C  C405  1  0.171380  0.575900  0.422050  1.0  -0.0765
  C  C406  1  0.202970  0.595260  0.402330  1.0  -0.1068
  C  C407  1  0.384130  0.877130  0.384650  1.0  -0.1265
  C  C408  1  0.413970  0.869100  0.413780  1.0  -0.1267
  C  C409  1  0.423570  0.828630  0.422410  1.0  -0.0752
  C  C410  1  0.404090  0.797100  0.402700  1.0  -0.1157
  C  C411  1  0.385270  0.616460  0.122950  1.0  -0.1156
  C  C412  1  0.413720  0.585950  0.130920  1.0  -0.1325
  C  C413  1  0.421570  0.575560  0.171360  1.0  -0.0779
  C  C414  1  0.401740  0.594890  0.202900  1.0  -0.1072
  C  C415  1  0.845480  0.635510  0.635500  1.0  0.0601
  C  C416  1  0.853330  0.664830  0.664950  1.0  -0.0779
  C  C417  1  0.821520  0.684410  0.684480  1.0  -0.1307
  C  C418  1  0.781550  0.674920  0.674800  1.0  0.0825
  C  C419  1  0.773480  0.645740  0.645450  1.0  -0.1148
  C  C420  1  0.805150  0.625980  0.625750  1.0  0.0586
  C  C421  1  0.747620  0.695370  0.695300  1.0  -0.013
  C  C422  1  0.635290  0.635540  0.845230  1.0  0.0671
  C  C423  1  0.664310  0.665310  0.852940  1.0  -0.079
  C  C424  1  0.683890  0.684680  0.821040  1.0  -0.1467
  C  C425  1  0.674710  0.674540  0.781120  1.0  0.0881
  C  C426  1  0.645830  0.644850  0.773200  1.0  -0.1272
  C  C427  1  0.626070  0.625300  0.804950  1.0  0.06
  C  C428  1  0.695110  0.694990  0.747030  1.0  -0.026
  C  C429  1  0.635620  0.845320  0.635270  1.0  0.065
  C  C430  1  0.665150  0.853080  0.664530  1.0  -0.0972
  C  C431  1  0.684670  0.821220  0.684020  1.0  -0.1289
  C  C432  1  0.674890  0.781270  0.674520  1.0  0.0388
  C  C433  1  0.645460  0.773300  0.645400  1.0  -0.1021
  C  C434  1  0.625800  0.805020  0.625690  1.0  0.0609
  C  C435  1  0.695150  0.747260  0.695160  1.0  0.0074
  C  C436  1  0.730290  0.730330  0.677980  1.0  -0.0152
  C  C437  1  0.748150  0.749630  0.640580  1.0  -0.3708
  C  C438  1  0.730210  0.677850  0.730090  1.0  -0.0266
  C  C439  1  0.747960  0.640350  0.749270  1.0  -0.3679
  C  C440  1  0.677610  0.729790  0.729870  1.0  -0.0319
  C  C441  1  0.639790  0.747200  0.748700  1.0  -0.3749
  C  C442  1  0.615340  0.615850  0.877000  1.0  -0.1163
  C  C443  1  0.586200  0.585990  0.869060  1.0  -0.1379
  C  C444  1  0.577550  0.576300  0.828610  1.0  -0.0819
  C  C445  1  0.597220  0.595700  0.797020  1.0  -0.1098
  C  C446  1  0.877160  0.615590  0.615660  1.0  -0.1208
  C  C447  1  0.869110  0.586160  0.586110  1.0  -0.1266
  C  C448  1  0.828620  0.577170  0.576900  1.0  -0.0784
  C  C449  1  0.797110  0.596830  0.596470  1.0  -0.1079
  C  C450  1  0.615750  0.877050  0.615460  1.0  -0.118
  C  C451  1  0.586130  0.869070  0.586090  1.0  -0.1307
  C  C452  1  0.576890  0.828610  0.577040  1.0  -0.0758
  C  C453  1  0.596460  0.797050  0.596590  1.0  -0.1124
  C  C454  1  0.635520  0.845450  0.364550  1.0  0.062
  C  C455  1  0.664900  0.853290  0.335150  1.0  -0.0782
  C  C456  1  0.684450  0.821480  0.315620  1.0  -0.1284
  C  C457  1  0.674890  0.781510  0.325250  1.0  0.083
  C  C458  1  0.645650  0.773450  0.354540  1.0  -0.1128
  C  C459  1  0.625910  0.805130  0.374240  1.0  0.0578
  C  C460  1  0.695330  0.747570  0.304760  1.0  -0.0118
  C  C461  1  0.635270  0.635550  0.154780  1.0  0.0676
  C  C462  1  0.664480  0.665150  0.147080  1.0  -0.08
  C  C463  1  0.683980  0.684590  0.178980  1.0  -0.1419
  C  C464  1  0.674540  0.674690  0.218910  1.0  0.087
  C  C465  1  0.645450  0.645210  0.226820  1.0  -0.1194
  C  C466  1  0.625770  0.625590  0.195060  1.0  0.0595
  C  C467  1  0.694990  0.695090  0.253000  1.0  -0.0233
  C  C468  1  0.845330  0.635920  0.365030  1.0  0.0619
  C  C469  1  0.853080  0.666060  0.336400  1.0  -0.0931
  C  C470  1  0.821230  0.685430  0.316750  1.0  -0.1337
  C  C471  1  0.781300  0.674920  0.325480  1.0  0.039
  C  C472  1  0.773330  0.644860  0.353960  1.0  -0.121
  C  C473  1  0.805040  0.625330  0.373810  1.0  0.0618
  C  C474  1  0.747290  0.695180  0.304830  1.0  0.0058
  C  C475  1  0.730300  0.730270  0.322060  1.0  -0.0142
  C  C476  1  0.749530  0.748060  0.359530  1.0  -0.3536
  C  C477  1  0.677790  0.730140  0.269980  1.0  -0.0273
  C  C478  1  0.640200  0.747800  0.250890  1.0  -0.372
  C  C479  1  0.729840  0.677660  0.270100  1.0  -0.0289
  C  C480  1  0.747400  0.639970  0.251140  1.0  -0.3654
  C  C481  1  0.615420  0.615770  0.123010  1.0  -0.1169
  C  C482  1  0.586120  0.586070  0.130940  1.0  -0.1407
  C  C483  1  0.577170  0.576660  0.171400  1.0  -0.0827
  C  C484  1  0.596740  0.596170  0.202990  1.0  -0.1128
  C  C485  1  0.615620  0.877140  0.384390  1.0  -0.1252
  C  C486  1  0.586140  0.869100  0.413890  1.0  -0.1271
  C  C487  1  0.577080  0.828620  0.423040  1.0  -0.074
  C  C488  1  0.596710  0.797100  0.403470  1.0  -0.1141
  C  C489  1  0.877050  0.616210  0.385010  1.0  -0.1102
  C  C490  1  0.869080  0.586000  0.413780  1.0  -0.1343
  C  C491  1  0.828630  0.575990  0.422040  1.0  -0.0789
  C  C492  1  0.797070  0.595400  0.402300  1.0  -0.1084
  C  C493  1  0.364250  0.154550  0.364770  1.0  0.06
  C  C494  1  0.334430  0.146720  0.335830  1.0  -0.0771
  C  C495  1  0.314980  0.178530  0.316200  1.0  -0.129
  C  C496  1  0.325090  0.218500  0.325260  1.0  0.0832
  C  C497  1  0.354820  0.226550  0.354070  1.0  -0.1145
  C  C498  1  0.374450  0.194870  0.373880  1.0  0.0593
  C  C499  1  0.304660  0.252430  0.304770  1.0  0.0302
  C  C500  1  0.364500  0.364680  0.154790  1.0  0.0679
  C  C501  1  0.334810  0.335570  0.147090  1.0  -0.0789
  C  C502  1  0.315420  0.316010  0.178990  1.0  -0.1436
  C  C503  1  0.325470  0.325300  0.218910  1.0  0.0881
  C  C504  1  0.355070  0.354280  0.226820  1.0  -0.1211
  C  C505  1  0.374630  0.374020  0.195060  1.0  0.0609
  C  C506  1  0.305020  0.304910  0.253000  1.0  -0.0085
  C  C507  1  0.154690  0.364150  0.364990  1.0  0.0648
  C  C508  1  0.146940  0.334090  0.336270  1.0  -0.0934
  C  C509  1  0.178790  0.314700  0.316650  1.0  -0.1352
  C  C510  1  0.218730  0.325120  0.325490  1.0  0.039
  C  C511  1  0.226690  0.355100  0.354050  1.0  -0.1188
  C  C512  1  0.194980  0.374640  0.373880  1.0  0.0584
  C  C513  1  0.252740  0.304870  0.304850  1.0  -0.0007
  C  C514  1  0.269720  0.269780  0.322100  1.0  -0.0245
  C  C515  1  0.250540  0.252060  0.359630  1.0  -0.3673
  C  C516  1  0.322170  0.269830  0.269960  1.0  -0.0287
  C  C517  1  0.359650  0.252040  0.250770  1.0  -0.3719
  C  C518  1  0.270190  0.322380  0.270130  1.0  -0.0186
  C  C519  1  0.252700  0.360120  0.251220  1.0  -0.3654
  C  C520  1  0.384210  0.384600  0.123010  1.0  -0.1055
  C  C521  1  0.413990  0.413830  0.130950  1.0  -0.1374
  C  C522  1  0.423560  0.422610  0.171390  1.0  -0.0841
  C  C523  1  0.404140  0.402960  0.202990  1.0  -0.1075
  C  C524  1  0.384030  0.122860  0.384740  1.0  -0.113
  C  C525  1  0.413950  0.130900  0.413800  1.0  -0.1292
  C  C526  1  0.423600  0.171370  0.422360  1.0  -0.0768
  C  C527  1  0.404100  0.202900  0.402650  1.0  -0.1142
  C  C528  1  0.122950  0.383870  0.384950  1.0  -0.113
  C  C529  1  0.130920  0.413990  0.413800  1.0  -0.1268
  C  C530  1  0.171380  0.423920  0.422160  1.0  -0.078
  C  C531  1  0.202940  0.404500  0.402460  1.0  -0.1047
  C  C532  1  0.845500  0.364650  0.364320  1.0  0.0609
  C  C533  1  0.853350  0.335730  0.334480  1.0  -0.0806
  C  C534  1  0.821560  0.316050  0.315040  1.0  -0.1292
  C  C535  1  0.781590  0.325040  0.325180  1.0  0.0825
  C  C536  1  0.773510  0.353820  0.354940  1.0  -0.1158
  C  C537  1  0.805170  0.373680  0.374560  1.0  0.0595
  C  C538  1  0.747670  0.304590  0.304670  1.0  -0.0143
  C  C539  1  0.635670  0.364820  0.154750  1.0  0.0713
  C  C540  1  0.665450  0.335800  0.147030  1.0  -0.0787
  C  C541  1  0.684860  0.316240  0.178920  1.0  -0.1428
  C  C542  1  0.674760  0.325440  0.218850  1.0  0.0874
  C  C543  1  0.645090  0.354330  0.226780  1.0  -0.1172
  C  C544  1  0.625490  0.374070  0.195030  1.0  0.0599
  C  C545  1  0.695170  0.304960  0.252920  1.0  -0.0263
  C  C546  1  0.635740  0.154630  0.364780  1.0  0.0638
  C  C547  1  0.665460  0.146840  0.335730  1.0  -0.0949
  C  C548  1  0.684950  0.178680  0.316160  1.0  -0.1366
  C  C549  1  0.674970  0.218630  0.325390  1.0  0.0372
  C  C550  1  0.645320  0.226640  0.354300  1.0  -0.1207
  C  C551  1  0.625690  0.194940  0.374080  1.0  0.058
  C  C552  1  0.695250  0.252630  0.304730  1.0  0.0072
  C  C553  1  0.730390  0.269570  0.321920  1.0  -0.016
  C  C554  1  0.748340  0.250190  0.359230  1.0  -0.3687
  C  C555  1  0.730220  0.322150  0.269910  1.0  -0.0276
  C  C556  1  0.747850  0.359780  0.250860  1.0  -0.3706
  C  C557  1  0.677740  0.270090  0.270010  1.0  -0.027
  C  C558  1  0.640070  0.252530  0.251020  1.0  -0.3774
  C  C559  1  0.615920  0.384720  0.122990  1.0  -0.1129
  C  C560  1  0.586040  0.413840  0.130940  1.0  -0.125
  C  C561  1  0.576410  0.422530  0.171390  1.0  -0.0754
  C  C562  1  0.595880  0.402900  0.202970  1.0  -0.1085
  C  C563  1  0.877170  0.384700  0.384050  1.0  -0.1214
  C  C564  1  0.869110  0.413740  0.413980  1.0  -0.1259
  C  C565  1  0.828630  0.422220  0.423670  1.0  -0.0774
  C  C566  1  0.797120  0.402440  0.404220  1.0  -0.1136
  C  C567  1  0.615920  0.122910  0.384680  1.0  -0.1147
  C  C568  1  0.586100  0.130920  0.413850  1.0  -0.1169
  C  C569  1  0.576630  0.171390  0.422630  1.0  -0.0843
  C  C570  1  0.596160  0.202930  0.402990  1.0  -0.1133
  O  O571  1  0.459880  0.459880  0.108200  1.0  -0.5924
  O  O572  1  0.425370  0.425370  0.061300  1.0  -0.7125
  O  O573  1  0.540120  0.540120  0.108200  1.0  -0.6126
  O  O574  1  0.574630  0.574630  0.061300  1.0  -0.7142
  O  O575  1  0.540120  0.459880  0.891800  1.0  -0.6041
  O  O576  1  0.574630  0.425370  0.938700  1.0  -0.7074
  O  O577  1  0.459880  0.540120  0.891800  1.0  -0.6042
  O  O578  1  0.425370  0.574630  0.938700  1.0  -0.7144
  O  O579  1  0.108200  0.459880  0.459880  1.0  -0.6055
  O  O580  1  0.061300  0.425370  0.425370  1.0  -0.7068
  O  O581  1  0.108200  0.540120  0.540120  1.0  -0.607
  O  O582  1  0.061300  0.574630  0.574630  1.0  -0.7
  O  O583  1  0.891800  0.540120  0.459880  1.0  -0.5919
  O  O584  1  0.938700  0.574630  0.425370  1.0  -0.7039
  O  O585  1  0.891800  0.459880  0.540120  1.0  -0.6036
  O  O586  1  0.938700  0.425370  0.574630  1.0  -0.7093
  O  O587  1  0.459880  0.108200  0.459880  1.0  -0.6045
  O  O588  1  0.425370  0.061300  0.425370  1.0  -0.7053
  O  O589  1  0.540120  0.108200  0.540120  1.0  -0.6031
  O  O590  1  0.574630  0.061300  0.574630  1.0  -0.7047
  O  O591  1  0.459880  0.891800  0.540120  1.0  -0.6089
  O  O592  1  0.425370  0.938700  0.574630  1.0  -0.6982
  O  O593  1  0.540120  0.891800  0.459880  1.0  -0.5978
  O  O594  1  0.574630  0.938700  0.425370  1.0  -0.7035
  O  O595  1  0.459880  0.459880  0.891800  1.0  -0.5978
  O  O596  1  0.425370  0.425370  0.938700  1.0  -0.7052
  O  O597  1  0.540120  0.540120  0.891800  1.0  -0.6123
  O  O598  1  0.574630  0.574630  0.938700  1.0  -0.7101
  O  O599  1  0.459880  0.540120  0.108200  1.0  -0.6082
  O  O600  1  0.425370  0.574630  0.061300  1.0  -0.7073
  O  O601  1  0.540120  0.459880  0.108200  1.0  -0.6071
  O  O602  1  0.574630  0.425370  0.061300  1.0  -0.7111
  O  O603  1  0.459880  0.108200  0.540120  1.0  -0.6047
  O  O604  1  0.425370  0.061300  0.574630  1.0  -0.7076
  O  O605  1  0.540120  0.108200  0.459880  1.0  -0.6032
  O  O606  1  0.574630  0.061300  0.425370  1.0  -0.7
  O  O607  1  0.540120  0.891800  0.540120  1.0  -0.604
  O  O608  1  0.574630  0.938700  0.574630  1.0  -0.7083
  O  O609  1  0.459880  0.891800  0.459880  1.0  -0.6038
  O  O610  1  0.425370  0.938700  0.425370  1.0  -0.7044
  O  O611  1  0.108200  0.459880  0.540120  1.0  -0.6034
  O  O612  1  0.061300  0.425370  0.574630  1.0  -0.7107
  O  O613  1  0.108200  0.540120  0.459880  1.0  -0.5992
  O  O614  1  0.061300  0.574630  0.425370  1.0  -0.7243
  O  O615  1  0.891800  0.459880  0.459880  1.0  -0.6028
  O  O616  1  0.938700  0.425370  0.425370  1.0  -0.6973
  O  O617  1  0.891800  0.540120  0.540120  1.0  -0.6062
  O  O618  1  0.938700  0.574630  0.574630  1.0  -0.7053
  O  O619  1  0.500000  0.446260  0.963350  1.0  -1.1768
  O  O620  1  0.500000  0.553740  0.963350  1.0  -1.1789
  O  O621  1  0.500000  0.446260  0.036650  1.0  -1.1808
  O  O622  1  0.500000  0.553740  0.036650  1.0  -1.1816
  O  O623  1  0.963350  0.500000  0.446260  1.0  -1.1813
  O  O624  1  0.963350  0.500000  0.553740  1.0  -1.1861
  O  O625  1  0.036650  0.500000  0.446260  1.0  -1.1886
  O  O626  1  0.036650  0.500000  0.553740  1.0  -1.1814
  O  O627  1  0.446260  0.963350  0.500000  1.0  -1.1771
  O  O628  1  0.553740  0.963350  0.500000  1.0  -1.1921
  O  O629  1  0.446260  0.036650  0.500000  1.0  -1.1775
  O  O630  1  0.553740  0.036650  0.500000  1.0  -1.1907
  O  O631  1  0.446260  0.500000  0.036650  1.0  -1.1848
  O  O632  1  0.553740  0.500000  0.036650  1.0  -1.1757
  O  O633  1  0.446260  0.500000  0.963350  1.0  -1.1856
  O  O634  1  0.553740  0.500000  0.963350  1.0  -1.1835
  O  O635  1  0.500000  0.963350  0.553740  1.0  -1.1834
  O  O636  1  0.500000  0.963350  0.446260  1.0  -1.1774
  O  O637  1  0.500000  0.036650  0.553740  1.0  -1.1857
  O  O638  1  0.500000  0.036650  0.446260  1.0  -1.1803
  O  O639  1  0.963350  0.446260  0.500000  1.0  -1.1844
  O  O640  1  0.963350  0.553740  0.500000  1.0  -1.1907
  O  O641  1  0.036650  0.446260  0.500000  1.0  -1.1896
  O  O642  1  0.036650  0.553740  0.500000  1.0  -1.1896
