# generated using pymatgen
data_CeH9C18(NO2)3
_symmetry_space_group_name_H-M   'P 1'
_cell_length_a   10.06100000
_cell_length_b   11.72190000
_cell_length_c   13.68910000
_cell_angle_alpha   66.93400000
_cell_angle_beta   87.18200000
_cell_angle_gamma   76.25700000
_symmetry_Int_Tables_number   1
_chemical_formula_structural   CeH9C18(NO2)3
_chemical_formula_sum   'Ce2 H18 C36 N6 O12'
_cell_volume   1441.07880732
_cell_formula_units_Z   2
loop_
 _symmetry_equiv_pos_site_id
 _symmetry_equiv_pos_as_xyz
  1  'x, y, z'
loop_
 _atom_site_type_symbol
 _atom_site_label
 _atom_site_symmetry_multiplicity
 _atom_site_fract_x
 _atom_site_fract_y
 _atom_site_fract_z
 _atom_site_occupancy
 _atom_site_charge
  Ce  Ce1  1  0.235190  0.528480  0.503390  1.0  2.2477
  Ce  Ce2  1  0.764810  0.471520  0.496610  1.0  2.2473
  H  H3  1  0.694200  0.173400  0.846500  1.0  0.1148
  H  H4  1  0.312900  0.400400  0.796400  1.0  0.1222
  H  H5  1  0.279500  0.297500  0.971600  1.0  0.0677
  H  H6  1  0.557600  0.988600  0.177200  1.0  0.1102
  H  H7  1  0.943900  0.772500  0.238300  1.0  0.1186
  H  H8  1  0.983400  0.882200  0.062600  1.0  0.0745
  H  H9  1  0.909400  0.466200  0.157000  1.0  0.1002
  H  H10  1  0.229500  0.579200  0.221700  1.0  0.1196
  H  H11  1  0.296700  0.607200  0.053300  1.0  0.0684
  H  H12  1  0.305800  0.826600  0.153500  1.0  0.115
  H  H13  1  0.687100  0.599600  0.203600  1.0  0.122
  H  H14  1  0.720500  0.702500  0.028400  1.0  0.0674
  H  H15  1  0.442400  0.011400  0.822800  1.0  0.11
  H  H16  1  0.056100  0.227500  0.761700  1.0  0.1176
  H  H17  1  0.016600  0.117800  0.937400  1.0  0.0737
  H  H18  1  0.090600  0.533800  0.843000  1.0  0.0997
  H  H19  1  0.770500  0.420800  0.778300  1.0  0.1192
  H  H20  1  0.703300  0.392800  0.946700  1.0  0.0696
  C  C21  1  0.536200  0.362600  0.686200  1.0  0.7331
  C  C22  1  0.578400  0.142500  0.975500  1.0  0.1856
  C  C23  1  0.608600  0.200100  0.869800  1.0  -0.0394
  C  C24  1  0.510600  0.296400  0.800500  1.0  -0.0982
  C  C25  1  0.382100  0.334800  0.840600  1.0  -0.1425
  C  C26  1  0.363800  0.272300  0.945700  1.0  0.1711
  C  C27  1  0.707500  0.794700  0.337600  1.0  0.7714
  C  C28  1  0.680400  0.032100  0.054200  1.0  0.1264
  C  C29  1  0.646100  0.966500  0.156400  1.0  -0.079
  C  C30  1  0.742200  0.868400  0.227600  1.0  -0.1168
  C  C31  1  0.874900  0.836800  0.192700  1.0  -0.1464
  C  C32  1  0.898000  0.905500  0.087800  1.0  0.1811
  C  C33  1  0.009200  0.498300  0.319100  1.0  0.8036
  C  C34  1  0.036200  0.512300  0.039600  1.0  0.1742
  C  C35  1  0.989800  0.493900  0.137900  1.0  -0.0546
  C  C36  1  0.061800  0.516300  0.211300  1.0  -0.1424
  C  C37  1  0.178500  0.561200  0.177000  1.0  -0.153
  C  C38  1  0.217300  0.579000  0.074700  1.0  0.1815
  C  C39  1  0.463800  0.637400  0.313800  1.0  0.7359
  C  C40  1  0.421600  0.857500  0.024500  1.0  0.1876
  C  C41  1  0.391400  0.799900  0.130200  1.0  -0.0391
  C  C42  1  0.489400  0.703600  0.199500  1.0  -0.0987
  C  C43  1  0.617900  0.665200  0.159400  1.0  -0.1434
  C  C44  1  0.636200  0.727700  0.054300  1.0  0.1677
  C  C45  1  0.292500  0.205300  0.662400  1.0  0.7707
  C  C46  1  0.319600  0.967900  0.945800  1.0  0.126
  C  C47  1  0.353900  0.033500  0.843600  1.0  -0.0779
  C  C48  1  0.257800  0.131600  0.772400  1.0  -0.1222
  C  C49  1  0.125100  0.163200  0.807300  1.0  -0.147
  C  C50  1  0.102000  0.094500  0.912200  1.0  0.1808
  C  C51  1  0.990800  0.501700  0.680900  1.0  0.8039
  C  C52  1  0.963800  0.487700  0.960400  1.0  0.1731
  C  C53  1  0.010200  0.506100  0.862100  1.0  -0.0503
  C  C54  1  0.938200  0.483700  0.788700  1.0  -0.1412
  C  C55  1  0.821500  0.438800  0.823000  1.0  -0.1536
  C  C56  1  0.782700  0.421000  0.925300  1.0  0.1801
  N  N57  1  0.458100  0.177400  0.014600  1.0  -0.4125
  N  N58  1  0.804500  0.003800  0.020200  1.0  -0.3986
  N  N59  1  0.150800  0.557800  0.005100  1.0  -0.4151
  N  N60  1  0.541900  0.822600  0.985400  1.0  -0.4124
  N  N61  1  0.195500  0.996200  0.979800  1.0  -0.3999
  N  N62  1  0.849200  0.442200  0.994900  1.0  -0.4141
  O  O63  1  0.435200  0.442500  0.624400  1.0  -0.7689
  O  O64  1  0.658300  0.345200  0.657700  1.0  -0.6923
  O  O65  1  0.791800  0.690700  0.392600  1.0  -0.7353
  O  O66  1  0.597600  0.837000  0.372800  1.0  -0.5286
  O  O67  1  0.080600  0.510900  0.383800  1.0  -0.8372
  O  O68  1  0.896100  0.472000  0.336900  1.0  -0.7087
  O  O69  1  0.564800  0.557500  0.375600  1.0  -0.768
  O  O70  1  0.341700  0.654800  0.342300  1.0  -0.6941
  O  O71  1  0.208200  0.309300  0.607400  1.0  -0.736
  O  O72  1  0.402400  0.163000  0.627200  1.0  -0.5239
  O  O73  1  0.919400  0.489100  0.616200  1.0  -0.8371
  O  O74  1  0.103900  0.528000  0.663100  1.0  -0.7103
