# generated using pymatgen
data_Zn2H8C11O7
_symmetry_space_group_name_H-M   'P 1'
_cell_length_a   10.32870000
_cell_length_b   11.73660000
_cell_length_c   20.33540000
_cell_angle_alpha   90.00000000
_cell_angle_beta   90.00000000
_cell_angle_gamma   90.00000000
_symmetry_Int_Tables_number   1
_chemical_formula_structural   Zn2H8C11O7
_chemical_formula_sum   'Zn8 H32 C44 O28'
_cell_volume   2465.13487777
_cell_formula_units_Z   4
loop_
 _symmetry_equiv_pos_site_id
 _symmetry_equiv_pos_as_xyz
  1  'x, y, z'
loop_
 _atom_site_type_symbol
 _atom_site_label
 _atom_site_symmetry_multiplicity
 _atom_site_fract_x
 _atom_site_fract_y
 _atom_site_fract_z
 _atom_site_occupancy
 _atom_site_charge
  Zn  Zn1  1  0.960920  0.420880  0.506810  1.0  1.0916
  Zn  Zn2  1  0.646910  0.325010  0.510180  1.0  1.0609
  Zn  Zn3  1  0.539080  0.579120  0.006810  1.0  1.0915
  Zn  Zn4  1  0.853090  0.674990  0.010180  1.0  1.0595
  Zn  Zn5  1  0.039080  0.920880  0.993190  1.0  1.0926
  Zn  Zn6  1  0.353090  0.825010  0.989820  1.0  1.0585
  Zn  Zn7  1  0.460920  0.079120  0.493190  1.0  1.0913
  Zn  Zn8  1  0.146910  0.174990  0.489820  1.0  1.0581
  H  H9  1  0.740400  0.027700  0.482600  1.0  0.0832
  H  H10  1  0.646400  0.060300  0.377500  1.0  0.1293
  H  H11  1  0.801000  0.062500  0.372300  1.0  0.1229
  H  H12  1  0.721200  0.179400  0.372200  1.0  0.1313
  H  H13  1  0.938800  0.518300  0.310700  1.0  0.1103
  H  H14  1  0.917400  0.557100  0.198300  1.0  0.1048
  H  H15  1  0.535000  0.486800  0.208300  1.0  0.106
  H  H16  1  0.557800  0.440100  0.319600  1.0  0.1082
  H  H17  1  0.759600  0.972300  0.982600  1.0  0.0816
  H  H18  1  0.853600  0.939700  0.877500  1.0  0.128
  H  H19  1  0.699000  0.937500  0.872300  1.0  0.1225
  H  H20  1  0.778800  0.820600  0.872200  1.0  0.1284
  H  H21  1  0.561200  0.481700  0.810700  1.0  0.1105
  H  H22  1  0.582600  0.442900  0.698300  1.0  0.1049
  H  H23  1  0.965000  0.513200  0.708300  1.0  0.1061
  H  H24  1  0.942200  0.559900  0.819600  1.0  0.108
  H  H25  1  0.259600  0.527700  0.017400  1.0  0.0833
  H  H26  1  0.353600  0.560300  0.122500  1.0  0.129
  H  H27  1  0.199000  0.562500  0.127700  1.0  0.1238
  H  H28  1  0.278800  0.679400  0.127800  1.0  0.1313
  H  H29  1  0.061200  0.018300  0.189300  1.0  0.1107
  H  H30  1  0.082600  0.057100  0.301700  1.0  0.1047
  H  H31  1  0.465000  0.986800  0.291700  1.0  0.1062
  H  H32  1  0.442200  0.940100  0.180400  1.0  0.1082
  H  H33  1  0.240400  0.472300  0.517400  1.0  0.0807
  H  H34  1  0.146400  0.439700  0.622500  1.0  0.1297
  H  H35  1  0.301000  0.437500  0.627700  1.0  0.122
  H  H36  1  0.221200  0.320600  0.627800  1.0  0.129
  H  H37  1  0.438800  0.981700  0.689300  1.0  0.1102
  H  H38  1  0.417400  0.942900  0.801700  1.0  0.1049
  H  H39  1  0.035000  0.013200  0.791700  1.0  0.1059
  H  H40  1  0.057800  0.059900  0.680400  1.0  0.1085
  C  C41  1  0.858100  0.171200  0.483920  1.0  0.6684
  C  C42  1  0.734600  0.107200  0.465200  1.0  0.1282
  C  C43  1  0.724900  0.101900  0.390000  1.0  -0.3467
  C  C44  1  0.765300  0.447200  0.398110  1.0  0.7301
  C  C45  1  0.749900  0.476100  0.326300  1.0  -0.1231
  C  C46  1  0.856800  0.510900  0.290000  1.0  -0.0483
  C  C47  1  0.843700  0.535200  0.223200  1.0  -0.0396
  C  C48  1  0.725000  0.527600  0.193100  1.0  -0.12
  C  C49  1  0.617300  0.492500  0.229000  1.0  -0.0399
  C  C50  1  0.630800  0.465700  0.295400  1.0  -0.0426
  C  C51  1  0.711900  0.555500  0.121100  1.0  0.7183
  C  C52  1  0.641900  0.828800  0.983920  1.0  0.6682
  C  C53  1  0.765400  0.892800  0.965200  1.0  0.1263
  C  C54  1  0.775100  0.898100  0.890000  1.0  -0.3475
  C  C55  1  0.734700  0.552800  0.898110  1.0  0.7297
  C  C56  1  0.750100  0.523900  0.826300  1.0  -0.1236
  C  C57  1  0.643200  0.489100  0.790000  1.0  -0.0498
  C  C58  1  0.656300  0.464800  0.723200  1.0  -0.0404
  C  C59  1  0.775000  0.472400  0.693100  1.0  -0.1204
  C  C60  1  0.882700  0.507500  0.729000  1.0  -0.0396
  C  C61  1  0.869200  0.534300  0.795400  1.0  -0.0423
  C  C62  1  0.788100  0.444500  0.621100  1.0  0.7191
  C  C63  1  0.141900  0.671200  0.016080  1.0  0.6675
  C  C64  1  0.265400  0.607200  0.034800  1.0  0.1308
  C  C65  1  0.275100  0.601900  0.110000  1.0  -0.3495
  C  C66  1  0.234700  0.947200  0.101890  1.0  0.7309
  C  C67  1  0.250100  0.976100  0.173700  1.0  -0.123
  C  C68  1  0.143200  0.010900  0.210000  1.0  -0.05
  C  C69  1  0.156300  0.035200  0.276800  1.0  -0.0402
  C  C70  1  0.275000  0.027600  0.306900  1.0  -0.1197
  C  C71  1  0.382700  0.992500  0.271000  1.0  -0.0402
  C  C72  1  0.369200  0.965700  0.204600  1.0  -0.0422
  C  C73  1  0.288100  0.055500  0.378900  1.0  0.7199
  C  C74  1  0.358100  0.328800  0.516080  1.0  0.6688
  C  C75  1  0.234600  0.392800  0.534800  1.0  0.1276
  C  C76  1  0.224900  0.398100  0.610000  1.0  -0.3495
  C  C77  1  0.265300  0.052800  0.601890  1.0  0.7298
  C  C78  1  0.249900  0.023900  0.673700  1.0  -0.123
  C  C79  1  0.356800  0.989100  0.710000  1.0  -0.0487
  C  C80  1  0.343700  0.964800  0.776800  1.0  -0.039
  C  C81  1  0.225000  0.972400  0.806900  1.0  -0.1193
  C  C82  1  0.117300  0.007500  0.771000  1.0  -0.04
  C  C83  1  0.130800  0.034300  0.704600  1.0  -0.0425
  C  C84  1  0.211900  0.944500  0.878900  1.0  0.72
  O  O85  1  0.844800  0.270800  0.507180  1.0  -0.6455
  O  O86  1  0.962700  0.123100  0.473520  1.0  -0.5969
  O  O87  1  0.624700  0.160700  0.493120  1.0  -0.7313
  O  O88  1  0.876500  0.457800  0.421540  1.0  -0.6656
  O  O89  1  0.664900  0.415400  0.427780  1.0  -0.6345
  O  O90  1  0.605300  0.535700  0.094710  1.0  -0.613
  O  O91  1  0.811000  0.596200  0.094160  1.0  -0.6411
  O  O92  1  0.655200  0.729200  0.007180  1.0  -0.646
  O  O93  1  0.537300  0.876900  0.973520  1.0  -0.5965
  O  O94  1  0.875300  0.839300  0.993120  1.0  -0.7313
  O  O95  1  0.623500  0.542200  0.921540  1.0  -0.665
  O  O96  1  0.835100  0.584600  0.927780  1.0  -0.6354
  O  O97  1  0.894700  0.464300  0.594710  1.0  -0.614
  O  O98  1  0.689000  0.403800  0.594160  1.0  -0.6412
  O  O99  1  0.155200  0.770800  0.992820  1.0  -0.6461
  O  O100  1  0.037300  0.623100  0.026480  1.0  -0.5961
  O  O101  1  0.375300  0.660700  0.006880  1.0  -0.7296
  O  O102  1  0.123500  0.957800  0.078460  1.0  -0.6663
  O  O103  1  0.335100  0.915400  0.072220  1.0  -0.6358
  O  O104  1  0.394700  0.035700  0.405290  1.0  -0.6127
  O  O105  1  0.189000  0.096200  0.405840  1.0  -0.6412
  O  O106  1  0.344800  0.229200  0.492820  1.0  -0.6459
  O  O107  1  0.462700  0.376900  0.526480  1.0  -0.5974
  O  O108  1  0.124700  0.339300  0.506880  1.0  -0.7302
  O  O109  1  0.376500  0.042200  0.578460  1.0  -0.6637
  O  O110  1  0.164900  0.084600  0.572220  1.0  -0.6353
  O  O111  1  0.105300  0.964300  0.905290  1.0  -0.6131
  O  O112  1  0.311000  0.903800  0.905840  1.0  -0.6407
