# generated using pymatgen
data_AgH5C3NO
_symmetry_space_group_name_H-M   'P 1'
_cell_length_a   5.74800000
_cell_length_b   17.79400000
_cell_length_c   18.33900000
_cell_angle_alpha   95.83000000
_cell_angle_beta   98.89000000
_cell_angle_gamma   95.49000000
_symmetry_Int_Tables_number   1
_chemical_formula_structural   AgH5C3NO
_chemical_formula_sum   'Ag8 H40 C24 N8 O8'
_cell_volume   1831.71956228
_cell_formula_units_Z   8
loop_
 _symmetry_equiv_pos_site_id
 _symmetry_equiv_pos_as_xyz
  1  'x, y, z'
loop_
 _atom_site_type_symbol
 _atom_site_label
 _atom_site_symmetry_multiplicity
 _atom_site_fract_x
 _atom_site_fract_y
 _atom_site_fract_z
 _atom_site_occupancy
 _atom_site_charge
  Ag  Ag1  1  0.102480  0.551090  0.379650  1.0  0.201
  Ag  Ag2  1  0.364850  0.427630  0.500330  1.0  0.3572
  Ag  Ag3  1  0.617910  0.034450  0.190560  1.0  0.2645
  Ag  Ag4  1  0.267210  0.948600  0.006000  1.0  0.3272
  Ag  Ag5  1  0.897520  0.448910  0.620350  1.0  0.201
  Ag  Ag6  1  0.635150  0.572370  0.499670  1.0  0.3565
  Ag  Ag7  1  0.382090  0.965550  0.809440  1.0  0.2637
  Ag  Ag8  1  0.732790  0.051400  0.994000  1.0  0.3298
  H  H9  1  0.706000  0.391800  0.286700  1.0  0.1046
  H  H10  1  0.639000  0.467200  0.256000  1.0  0.114
  H  H11  1  0.402100  0.364400  0.187300  1.0  0.0717
  H  H12  1  0.246600  0.418400  0.226300  1.0  0.0796
  H  H13  1  0.561300  0.267000  0.287200  1.0  0.0717
  H  H14  1  0.387400  0.228600  0.215800  1.0  0.0775
  H  H15  1  0.411100  0.150200  0.315900  1.0  0.1158
  H  H16  1  0.296800  0.211500  0.362000  1.0  0.1098
  H  H17  1  0.829800  0.808600  0.035600  1.0  0.1268
  H  H18  1  0.991500  0.837400  0.112000  1.0  0.111
  H  H19  1  0.685200  0.730000  0.105500  1.0  0.0699
  H  H20  1  0.512500  0.792600  0.110100  1.0  0.0784
  H  H21  1  0.431300  0.748200  0.237400  1.0  0.0753
  H  H22  1  0.601700  0.686400  0.223200  1.0  0.0693
  H  H23  1  0.851200  0.736600  0.335600  1.0  0.1034
  H  H24  1  0.668600  0.794500  0.350200  1.0  0.0938
  H  H25  1  0.099900  0.301100  0.242600  1.0  0.0729
  H  H26  1  0.244400  0.333600  0.319800  1.0  0.092
  H  H27  1  0.718300  0.843900  0.225900  1.0  0.0754
  H  H28  1  0.905300  0.787000  0.220700  1.0  0.071
  H  H29  1  0.294000  0.608200  0.713300  1.0  0.1052
  H  H30  1  0.361000  0.532800  0.744000  1.0  0.117
  H  H31  1  0.597900  0.635600  0.812700  1.0  0.0732
  H  H32  1  0.753400  0.581600  0.773700  1.0  0.0787
  H  H33  1  0.438700  0.733000  0.712800  1.0  0.0738
  H  H34  1  0.612600  0.771400  0.784200  1.0  0.0769
  H  H35  1  0.588900  0.849800  0.684100  1.0  0.1162
  H  H36  1  0.703200  0.788500  0.638000  1.0  0.1086
  H  H37  1  0.170200  0.191400  0.964400  1.0  0.129
  H  H38  1  0.008500  0.162600  0.888000  1.0  0.1098
  H  H39  1  0.314800  0.270000  0.894500  1.0  0.0712
  H  H40  1  0.487500  0.207400  0.889900  1.0  0.076
  H  H41  1  0.568700  0.251800  0.762600  1.0  0.0735
  H  H42  1  0.398300  0.313600  0.776800  1.0  0.0692
  H  H43  1  0.148800  0.263400  0.664400  1.0  0.1057
  H  H44  1  0.331400  0.205500  0.649800  1.0  0.0957
  H  H45  1  0.900100  0.698900  0.757400  1.0  0.0735
  H  H46  1  0.755600  0.666400  0.680200  1.0  0.0921
  H  H47  1  0.281700  0.156100  0.774100  1.0  0.0739
  H  H48  1  0.094700  0.213000  0.779300  1.0  0.0729
  C  C49  1  0.552900  0.457800  0.358000  1.0  0.7751
  C  C50  1  0.583700  0.425800  0.281800  1.0  -0.3327
  C  C51  1  0.364200  0.383300  0.235100  1.0  0.0249
  C  C52  1  0.396300  0.250200  0.267000  1.0  0.0128
  C  C53  1  0.302100  0.188500  0.312100  1.0  -0.3073
  C  C54  1  0.060300  0.151000  0.277700  1.0  0.2851
  C  C55  1  0.756400  0.911900  0.080400  1.0  0.7512
  C  C56  1  0.830300  0.832900  0.085500  1.0  -0.3359
  C  C57  1  0.675600  0.782600  0.123600  1.0  0.0146
  C  C58  1  0.595400  0.737900  0.245400  1.0  0.0222
  C  C59  1  0.684800  0.744200  0.327100  1.0  -0.2528
  C  C60  1  0.551100  0.687900  0.359000  1.0  0.2668
  C  C61  1  0.447100  0.542200  0.642000  1.0  0.7748
  C  C62  1  0.416300  0.574200  0.718200  1.0  -0.3314
  C  C63  1  0.635800  0.616700  0.764900  1.0  0.023
  C  C64  1  0.603700  0.749800  0.733000  1.0  0.0114
  C  C65  1  0.697900  0.811500  0.687900  1.0  -0.3055
  C  C66  1  0.939700  0.849000  0.722300  1.0  0.2812
  C  C67  1  0.243600  0.088100  0.919600  1.0  0.75
  C  C68  1  0.169700  0.167100  0.914500  1.0  -0.3402
  C  C69  1  0.324400  0.217400  0.876400  1.0  0.0137
  C  C70  1  0.404600  0.262100  0.754600  1.0  0.022
  C  C71  1  0.315200  0.255800  0.672900  1.0  -0.2499
  C  C72  1  0.448900  0.312100  0.641000  1.0  0.2669
  N  N73  1  0.257100  0.317100  0.269300  1.0  -0.0967
  N  N74  1  0.884400  0.119100  0.251500  1.0  -0.4599
  N  N75  1  0.740400  0.793000  0.207700  1.0  -0.0776
  N  N76  1  0.445200  0.642300  0.384000  1.0  -0.4965
  N  N77  1  0.742900  0.682900  0.730700  1.0  -0.0971
  N  N78  1  0.115600  0.880900  0.748500  1.0  -0.4598
  N  N79  1  0.259600  0.207000  0.792300  1.0  -0.0762
  N  N80  1  0.554800  0.357700  0.616000  1.0  -0.4976
  O  O81  1  0.349100  0.446200  0.377900  1.0  -0.7036
  O  O82  1  0.730200  0.494200  0.400500  1.0  -0.7073
  O  O83  1  0.563000  0.926200  0.099000  1.0  -0.6818
  O  O84  1  0.890100  0.957900  0.053900  1.0  -0.6313
  O  O85  1  0.650900  0.553800  0.622100  1.0  -0.7063
  O  O86  1  0.269800  0.505800  0.599500  1.0  -0.7096
  O  O87  1  0.437000  0.073800  0.901000  1.0  -0.6837
  O  O88  1  0.109900  0.042100  0.946100  1.0  -0.6319
