# generated using pymatgen
data_Mn3CrH21C15(N2O)6
_symmetry_space_group_name_H-M   'P 1'
_cell_length_a   13.62060000
_cell_length_b   13.62060000
_cell_length_c   8.17510000
_cell_angle_alpha   90.00000000
_cell_angle_beta   90.00000000
_cell_angle_gamma   120.00000000
_symmetry_Int_Tables_number   1
_chemical_formula_structural   Mn3CrH21C15(N2O)6
_chemical_formula_sum   'Mn6 Cr2 H42 C30 N24 O12'
_cell_volume   1313.45798050
_cell_formula_units_Z   2
loop_
 _symmetry_equiv_pos_site_id
 _symmetry_equiv_pos_as_xyz
  1  'x, y, z'
loop_
 _atom_site_type_symbol
 _atom_site_label
 _atom_site_symmetry_multiplicity
 _atom_site_fract_x
 _atom_site_fract_y
 _atom_site_fract_z
 _atom_site_occupancy
 _atom_site_charge
  Mn  Mn1  1  0.295610  0.334260  0.543830  1.0  0.9612
  Mn  Mn2  1  0.665740  0.961350  0.543830  1.0  0.9612
  Mn  Mn3  1  0.038650  0.704390  0.543830  1.0  0.9616
  Mn  Mn4  1  0.704390  0.665740  0.043830  1.0  0.9621
  Mn  Mn5  1  0.334260  0.038650  0.043830  1.0  0.9613
  Mn  Mn6  1  0.961350  0.295610  0.043830  1.0  0.9616
  Cr  Cr7  1  0.333333  0.666667  0.924570  1.0  0.3507
  Cr  Cr8  1  0.666667  0.333333  0.424570  1.0  0.3507
  H  H9  1  0.408900  0.257800  0.950500  1.0  0.3114
  H  H10  1  0.285200  0.201300  0.945100  1.0  0.3328
  H  H11  1  0.421000  0.286800  0.210800  1.0  0.0899
  H  H12  1  0.346500  0.481100  0.299500  1.0  0.3057
  H  H13  1  0.439100  0.457400  0.307600  1.0  0.2915
  H  H14  1  0.352500  0.397500  0.063700  1.0  0.0701
  H  H15  1  0.237200  0.321600  0.154600  1.0  0.0799
  H  H16  1  0.742200  0.151100  0.950500  1.0  0.3167
  H  H17  1  0.798700  0.083900  0.945100  1.0  0.33
  H  H18  1  0.713200  0.134200  0.210800  1.0  0.0898
  H  H19  1  0.518900  0.865400  0.299500  1.0  0.304
  H  H20  1  0.542600  0.981700  0.307600  1.0  0.2886
  H  H21  1  0.602500  0.955000  0.063700  1.0  0.0703
  H  H22  1  0.678400  0.915600  0.154600  1.0  0.0842
  H  H23  1  0.848900  0.591100  0.950500  1.0  0.3107
  H  H24  1  0.916100  0.714800  0.945100  1.0  0.3322
  H  H25  1  0.865800  0.579000  0.210800  1.0  0.0899
  H  H26  1  0.134600  0.653500  0.299500  1.0  0.3034
  H  H27  1  0.018300  0.560900  0.307600  1.0  0.2906
  H  H28  1  0.045000  0.647500  0.063700  1.0  0.0708
  H  H29  1  0.084400  0.762800  0.154600  1.0  0.0834
  H  H30  1  0.591100  0.742200  0.450500  1.0  0.312
  H  H31  1  0.714800  0.798700  0.445100  1.0  0.3343
  H  H32  1  0.579000  0.713200  0.710800  1.0  0.0882
  H  H33  1  0.653500  0.518900  0.799500  1.0  0.3057
  H  H34  1  0.560900  0.542600  0.807600  1.0  0.2906
  H  H35  1  0.647500  0.602500  0.563700  1.0  0.0708
  H  H36  1  0.762800  0.678400  0.654600  1.0  0.0805
  H  H37  1  0.257800  0.848900  0.450500  1.0  0.3192
  H  H38  1  0.201300  0.916100  0.445100  1.0  0.3307
  H  H39  1  0.286800  0.865800  0.710800  1.0  0.0882
  H  H40  1  0.481100  0.134600  0.799500  1.0  0.3053
  H  H41  1  0.457400  0.018300  0.807600  1.0  0.2895
  H  H42  1  0.397500  0.045000  0.563700  1.0  0.0704
  H  H43  1  0.321600  0.084400  0.654600  1.0  0.0826
  H  H44  1  0.151100  0.408900  0.450500  1.0  0.3131
  H  H45  1  0.083900  0.285200  0.445100  1.0  0.3309
  H  H46  1  0.134200  0.421000  0.710800  1.0  0.0889
  H  H47  1  0.865400  0.346500  0.799500  1.0  0.3058
  H  H48  1  0.981700  0.439100  0.807600  1.0  0.2904
  H  H49  1  0.955000  0.352500  0.563700  1.0  0.0696
  H  H50  1  0.915600  0.237200  0.654600  1.0  0.0828
  C  C51  1  0.530300  0.321700  0.553700  1.0  0.0487
  C  C52  1  0.354300  0.556100  0.775500  1.0  0.1071
  C  C53  1  0.267000  0.158800  0.280200  1.0  0.7067
  C  C54  1  0.344000  0.255000  0.167200  1.0  0.0142
  C  C55  1  0.318500  0.352300  0.161000  1.0  0.0133
  C  C56  1  0.678300  0.208600  0.553700  1.0  0.0484
  C  C57  1  0.443900  0.798200  0.775500  1.0  0.1072
  C  C58  1  0.841200  0.108200  0.280200  1.0  0.7014
  C  C59  1  0.745000  0.089000  0.167200  1.0  0.0136
  C  C60  1  0.647700  0.966200  0.161000  1.0  0.0094
  C  C61  1  0.791400  0.469700  0.553700  1.0  0.0489
  C  C62  1  0.201800  0.645700  0.775500  1.0  0.1068
  C  C63  1  0.891800  0.733000  0.280200  1.0  0.7058
  C  C64  1  0.911000  0.656000  0.167200  1.0  0.0111
  C  C65  1  0.033800  0.681500  0.161000  1.0  0.0137
  C  C66  1  0.469700  0.678300  0.053700  1.0  0.0505
  C  C67  1  0.645700  0.443900  0.275500  1.0  0.1064
  C  C68  1  0.733000  0.841200  0.780200  1.0  0.7046
  C  C69  1  0.656000  0.745000  0.667200  1.0  0.0141
  C  C70  1  0.681500  0.647700  0.661000  1.0  0.0118
  C  C71  1  0.321700  0.791400  0.053700  1.0  0.0488
  C  C72  1  0.556100  0.201800  0.275500  1.0  0.1069
  C  C73  1  0.158800  0.891800  0.780200  1.0  0.703
  C  C74  1  0.255000  0.911000  0.667200  1.0  0.0131
  C  C75  1  0.352300  0.033800  0.661000  1.0  0.0116
  C  C76  1  0.208600  0.530300  0.053700  1.0  0.0474
  C  C77  1  0.798200  0.354300  0.275500  1.0  0.1077
  C  C78  1  0.108200  0.267000  0.780200  1.0  0.7037
  C  C79  1  0.089000  0.344000  0.667200  1.0  0.0119
  C  C80  1  0.966200  0.318500  0.661000  1.0  0.0152
  N  N81  1  0.344800  0.210100  0.004200  1.0  -0.6589
  N  N82  1  0.363100  0.425100  0.307000  1.0  -0.6739
  N  N83  1  0.449900  0.319300  0.603500  1.0  -0.4451
  N  N84  1  0.366000  0.495400  0.691600  1.0  -0.4468
  N  N85  1  0.789900  0.134700  0.004200  1.0  -0.6618
  N  N86  1  0.574900  0.938000  0.307000  1.0  -0.6682
  N  N87  1  0.680700  0.130600  0.603500  1.0  -0.4458
  N  N88  1  0.504600  0.870600  0.691600  1.0  -0.4474
  N  N89  1  0.865300  0.655200  0.004200  1.0  -0.6593
  N  N90  1  0.062000  0.636900  0.307000  1.0  -0.6707
  N  N91  1  0.869400  0.550100  0.603500  1.0  -0.4465
  N  N92  1  0.129400  0.634000  0.691600  1.0  -0.4476
  N  N93  1  0.655200  0.789900  0.504200  1.0  -0.659
  N  N94  1  0.636900  0.574900  0.807000  1.0  -0.6715
  N  N95  1  0.550100  0.680700  0.103500  1.0  -0.4453
  N  N96  1  0.634000  0.504600  0.191600  1.0  -0.4472
  N  N97  1  0.210100  0.865300  0.504200  1.0  -0.6623
  N  N98  1  0.425100  0.062000  0.807000  1.0  -0.6676
  N  N99  1  0.319300  0.869400  0.103500  1.0  -0.4467
  N  N100  1  0.495400  0.129400  0.191600  1.0  -0.4473
  N  N101  1  0.134700  0.344800  0.504200  1.0  -0.6599
  N  N102  1  0.938000  0.363100  0.807000  1.0  -0.6713
  N  N103  1  0.130600  0.449900  0.103500  1.0  -0.4464
  N  N104  1  0.870600  0.366000  0.191600  1.0  -0.4474
  O  O105  1  0.228200  0.180400  0.405100  1.0  -0.5923
  O  O106  1  0.244300  0.058700  0.246500  1.0  -0.6319
  O  O107  1  0.819600  0.047800  0.405100  1.0  -0.5917
  O  O108  1  0.941300  0.185600  0.246500  1.0  -0.6291
  O  O109  1  0.952200  0.771800  0.405100  1.0  -0.5933
  O  O110  1  0.814400  0.755700  0.246500  1.0  -0.6298
  O  O111  1  0.771800  0.819600  0.905100  1.0  -0.5929
  O  O112  1  0.755700  0.941300  0.746500  1.0  -0.6297
  O  O113  1  0.180400  0.952200  0.905100  1.0  -0.5925
  O  O114  1  0.058700  0.814400  0.746500  1.0  -0.6283
  O  O115  1  0.047800  0.228200  0.905100  1.0  -0.5928
  O  O116  1  0.185600  0.244300  0.746500  1.0  -0.6305
