# generated using pymatgen
data_Mn3CrH21C15(N2O)6
_symmetry_space_group_name_H-M   'P 1'
_cell_length_a   13.60130000
_cell_length_b   13.60130000
_cell_length_c   8.14040000
_cell_angle_alpha   90.00000000
_cell_angle_beta   90.00000000
_cell_angle_gamma   120.00000000
_symmetry_Int_Tables_number   1
_chemical_formula_structural   Mn3CrH21C15(N2O)6
_chemical_formula_sum   'Mn6 Cr2 H42 C30 N24 O12'
_cell_volume   1304.17904231
_cell_formula_units_Z   2
loop_
 _symmetry_equiv_pos_site_id
 _symmetry_equiv_pos_as_xyz
  1  'x, y, z'
loop_
 _atom_site_type_symbol
 _atom_site_label
 _atom_site_symmetry_multiplicity
 _atom_site_fract_x
 _atom_site_fract_y
 _atom_site_fract_z
 _atom_site_occupancy
 _atom_site_charge
  Mn  Mn1  1  0.296160  0.335030  0.543160  1.0  0.9767
  Mn  Mn2  1  0.664970  0.961130  0.543160  1.0  0.9762
  Mn  Mn3  1  0.038870  0.703840  0.543160  1.0  0.9767
  Mn  Mn4  1  0.703840  0.664970  0.043160  1.0  0.9762
  Mn  Mn5  1  0.335030  0.038870  0.043160  1.0  0.9767
  Mn  Mn6  1  0.961130  0.296160  0.043160  1.0  0.9767
  Cr  Cr7  1  0.333333  0.666667  0.926420  1.0  0.3493
  Cr  Cr8  1  0.666667  0.333333  0.426420  1.0  0.3493
  H  H9  1  0.410300  0.257500  0.949100  1.0  0.3127
  H  H10  1  0.286400  0.201100  0.942700  1.0  0.3321
  H  H11  1  0.421600  0.286800  0.209300  1.0  0.079
  H  H12  1  0.347900  0.482700  0.297800  1.0  0.3105
  H  H13  1  0.440500  0.458500  0.306000  1.0  0.2927
  H  H14  1  0.352300  0.397600  0.061200  1.0  0.0732
  H  H15  1  0.237400  0.321900  0.153900  1.0  0.0809
  H  H16  1  0.742500  0.152800  0.949100  1.0  0.3183
  H  H17  1  0.798900  0.085300  0.942700  1.0  0.3286
  H  H18  1  0.713200  0.134800  0.209300  1.0  0.0793
  H  H19  1  0.517300  0.865200  0.297800  1.0  0.3093
  H  H20  1  0.541500  0.982000  0.306000  1.0  0.2898
  H  H21  1  0.602400  0.954700  0.061200  1.0  0.0735
  H  H22  1  0.678100  0.915500  0.153900  1.0  0.085
  H  H23  1  0.847200  0.589700  0.949100  1.0  0.3134
  H  H24  1  0.914700  0.713600  0.942700  1.0  0.3306
  H  H25  1  0.865200  0.578400  0.209300  1.0  0.0804
  H  H26  1  0.134800  0.652100  0.297800  1.0  0.3024
  H  H27  1  0.018000  0.559500  0.306000  1.0  0.2912
  H  H28  1  0.045300  0.647700  0.061200  1.0  0.0742
  H  H29  1  0.084500  0.762600  0.153900  1.0  0.0839
  H  H30  1  0.589700  0.742500  0.449100  1.0  0.3132
  H  H31  1  0.713600  0.798900  0.442700  1.0  0.333
  H  H32  1  0.578400  0.713200  0.709300  1.0  0.0786
  H  H33  1  0.652100  0.517300  0.797800  1.0  0.3109
  H  H34  1  0.559500  0.541500  0.806000  1.0  0.2914
  H  H35  1  0.647700  0.602400  0.561200  1.0  0.0741
  H  H36  1  0.762600  0.678100  0.653900  1.0  0.0804
  H  H37  1  0.257500  0.847200  0.449100  1.0  0.3207
  H  H38  1  0.201100  0.914700  0.442700  1.0  0.3292
  H  H39  1  0.286800  0.865200  0.709300  1.0  0.0792
  H  H40  1  0.482700  0.134800  0.797800  1.0  0.3098
  H  H41  1  0.458500  0.018000  0.806000  1.0  0.2908
  H  H42  1  0.397600  0.045300  0.561200  1.0  0.0736
  H  H43  1  0.321900  0.084500  0.653900  1.0  0.0836
  H  H44  1  0.152800  0.410300  0.449100  1.0  0.3153
  H  H45  1  0.085300  0.286400  0.442700  1.0  0.3296
  H  H46  1  0.134800  0.421600  0.709300  1.0  0.0788
  H  H47  1  0.865200  0.347900  0.797800  1.0  0.3091
  H  H48  1  0.982000  0.440500  0.806000  1.0  0.2918
  H  H49  1  0.954700  0.352300  0.561200  1.0  0.0729
  H  H50  1  0.915500  0.237400  0.653900  1.0  0.0839
  C  C51  1  0.529500  0.320800  0.555600  1.0  0.0619
  C  C52  1  0.354900  0.556400  0.776200  1.0  0.097
  C  C53  1  0.267000  0.158900  0.279900  1.0  0.7045
  C  C54  1  0.344600  0.254900  0.165100  1.0  0.0179
  C  C55  1  0.318900  0.352800  0.159500  1.0  0.0135
  C  C56  1  0.679200  0.208700  0.555600  1.0  0.0617
  C  C57  1  0.443600  0.798500  0.776200  1.0  0.0971
  C  C58  1  0.841100  0.108100  0.279900  1.0  0.6998
  C  C59  1  0.745100  0.089700  0.165100  1.0  0.0174
  C  C60  1  0.647200  0.966100  0.159500  1.0  0.0092
  C  C61  1  0.791300  0.470500  0.555600  1.0  0.0616
  C  C62  1  0.201500  0.645100  0.776200  1.0  0.096
  C  C63  1  0.891900  0.733000  0.279900  1.0  0.7038
  C  C64  1  0.910300  0.655400  0.165100  1.0  0.0153
  C  C65  1  0.033900  0.681100  0.159500  1.0  0.0133
  C  C66  1  0.470500  0.679200  0.055600  1.0  0.0626
  C  C67  1  0.645100  0.443600  0.276200  1.0  0.0955
  C  C68  1  0.733000  0.841100  0.779900  1.0  0.7029
  C  C69  1  0.655400  0.745100  0.665100  1.0  0.0177
  C  C70  1  0.681100  0.647200  0.659500  1.0  0.0115
  C  C71  1  0.320800  0.791300  0.055600  1.0  0.0622
  C  C72  1  0.556400  0.201500  0.276200  1.0  0.0962
  C  C73  1  0.158900  0.891900  0.779900  1.0  0.7021
  C  C74  1  0.254900  0.910300  0.665100  1.0  0.0175
  C  C75  1  0.352800  0.033900  0.659500  1.0  0.0123
  C  C76  1  0.208700  0.529500  0.055600  1.0  0.0611
  C  C77  1  0.798500  0.354900  0.276200  1.0  0.0978
  C  C78  1  0.108100  0.267000  0.779900  1.0  0.7014
  C  C79  1  0.089700  0.344600  0.665100  1.0  0.016
  C  C80  1  0.966100  0.318900  0.659500  1.0  0.0151
  N  N81  1  0.345900  0.209800  0.002700  1.0  -0.6642
  N  N82  1  0.364400  0.426500  0.305500  1.0  -0.6805
  N  N83  1  0.448500  0.318700  0.604300  1.0  -0.4387
  N  N84  1  0.366700  0.495500  0.691100  1.0  -0.4536
  N  N85  1  0.790200  0.136100  0.002700  1.0  -0.6669
  N  N86  1  0.573500  0.937900  0.305500  1.0  -0.6746
  N  N87  1  0.681300  0.129800  0.604300  1.0  -0.4393
  N  N88  1  0.504500  0.871200  0.691100  1.0  -0.4542
  N  N89  1  0.863900  0.654100  0.002700  1.0  -0.6644
  N  N90  1  0.062100  0.635600  0.305500  1.0  -0.6765
  N  N91  1  0.870200  0.551500  0.604300  1.0  -0.4401
  N  N92  1  0.128800  0.633300  0.691100  1.0  -0.4545
  N  N93  1  0.654100  0.790200  0.502700  1.0  -0.6642
  N  N94  1  0.635600  0.573500  0.805500  1.0  -0.6787
  N  N95  1  0.551500  0.681300  0.104300  1.0  -0.4387
  N  N96  1  0.633300  0.504500  0.191100  1.0  -0.4541
  N  N97  1  0.209800  0.863900  0.502700  1.0  -0.6675
  N  N98  1  0.426500  0.062100  0.805500  1.0  -0.6742
  N  N99  1  0.318700  0.870200  0.104300  1.0  -0.4402
  N  N100  1  0.495500  0.128800  0.191100  1.0  -0.454
  N  N101  1  0.136100  0.345900  0.502700  1.0  -0.6653
  N  N102  1  0.937900  0.364400  0.805500  1.0  -0.677
  N  N103  1  0.129800  0.448500  0.104300  1.0  -0.4396
  N  N104  1  0.871200  0.366700  0.191100  1.0  -0.4541
  O  O105  1  0.227300  0.180900  0.404300  1.0  -0.5888
  O  O106  1  0.245000  0.058500  0.246400  1.0  -0.6418
  O  O107  1  0.819100  0.046400  0.404300  1.0  -0.5889
  O  O108  1  0.941500  0.186500  0.246400  1.0  -0.6389
  O  O109  1  0.953600  0.772700  0.404300  1.0  -0.5896
  O  O110  1  0.813500  0.755000  0.246400  1.0  -0.6405
  O  O111  1  0.772700  0.819100  0.904300  1.0  -0.5889
  O  O112  1  0.755000  0.941500  0.746400  1.0  -0.6414
  O  O113  1  0.180900  0.953600  0.904300  1.0  -0.5881
  O  O114  1  0.058500  0.813500  0.746400  1.0  -0.6387
  O  O115  1  0.046400  0.227300  0.904300  1.0  -0.5888
  O  O116  1  0.186500  0.245000  0.746400  1.0  -0.6405
