# generated using pymatgen
data_Mn3CrH21C15(N2O)6
_symmetry_space_group_name_H-M   'P 1'
_cell_length_a   8.15300000
_cell_length_b   13.68020000
_cell_length_c   13.68020000
_cell_angle_alpha   120.00000000
_cell_angle_beta   90.00000000
_cell_angle_gamma   90.00000000
_symmetry_Int_Tables_number   1
_chemical_formula_structural   Mn3CrH21C15(N2O)6
_chemical_formula_sum   'Mn6 Cr2 H42 C30 N24 O12'
_cell_volume   1321.39593776
_cell_formula_units_Z   2
loop_
 _symmetry_equiv_pos_site_id
 _symmetry_equiv_pos_as_xyz
  1  'x, y, z'
loop_
 _atom_site_type_symbol
 _atom_site_label
 _atom_site_symmetry_multiplicity
 _atom_site_fract_x
 _atom_site_fract_y
 _atom_site_fract_z
 _atom_site_occupancy
 _atom_site_charge
  Mn  Mn1  1  0.206920  0.334270  0.037880  1.0  0.9519
  Mn  Mn2  1  0.206920  0.703610  0.665730  1.0  0.9519
  Mn  Mn3  1  0.206920  0.962120  0.296390  1.0  0.9525
  Mn  Mn4  1  0.706920  0.665730  0.962120  1.0  0.953
  Mn  Mn5  1  0.706920  0.296390  0.334270  1.0  0.9521
  Mn  Mn6  1  0.706920  0.037880  0.703610  1.0  0.9522
  Cr  Cr7  1  0.589600  0.666667  0.333333  1.0  0.2036
  Cr  Cr8  1  0.089600  0.333333  0.666667  1.0  0.2036
  H  H9  1  0.609500  0.254300  0.848100  1.0  0.3108
  H  H10  1  0.605800  0.197200  0.914200  1.0  0.3286
  H  H11  1  0.869200  0.285800  0.866000  1.0  0.0811
  H  H12  1  0.724100  0.395400  0.043400  1.0  0.0651
  H  H13  1  0.816300  0.320400  0.082800  1.0  0.0911
  H  H14  1  0.960200  0.480200  0.133200  1.0  0.3152
  H  H15  1  0.968600  0.456600  0.017200  1.0  0.307
  H  H16  1  0.609500  0.593800  0.745700  1.0  0.3105
  H  H17  1  0.605800  0.717000  0.802800  1.0  0.3296
  H  H18  1  0.869200  0.580200  0.714200  1.0  0.0819
  H  H19  1  0.724100  0.648000  0.604600  1.0  0.0646
  H  H20  1  0.816300  0.762400  0.679600  1.0  0.0842
  H  H21  1  0.960200  0.653000  0.519800  1.0  0.3148
  H  H22  1  0.968600  0.560600  0.543400  1.0  0.3098
  H  H23  1  0.609500  0.151900  0.406200  1.0  0.31
  H  H24  1  0.605800  0.085800  0.283000  1.0  0.3278
  H  H25  1  0.869200  0.134000  0.419800  1.0  0.0822
  H  H26  1  0.724100  0.956600  0.352000  1.0  0.0651
  H  H27  1  0.816300  0.917200  0.237600  1.0  0.087
  H  H28  1  0.960200  0.866800  0.347000  1.0  0.316
  H  H29  1  0.968600  0.982800  0.439400  1.0  0.3075
  H  H30  1  0.109500  0.745700  0.151900  1.0  0.3108
  H  H31  1  0.105800  0.802800  0.085800  1.0  0.3289
  H  H32  1  0.369200  0.714200  0.134000  1.0  0.0822
  H  H33  1  0.224100  0.604600  0.956600  1.0  0.0655
  H  H34  1  0.316300  0.679600  0.917200  1.0  0.0883
  H  H35  1  0.460200  0.519800  0.866800  1.0  0.3158
  H  H36  1  0.468600  0.543400  0.982800  1.0  0.3071
  H  H37  1  0.109500  0.406200  0.254300  1.0  0.3129
  H  H38  1  0.105800  0.283000  0.197200  1.0  0.3297
  H  H39  1  0.369200  0.419800  0.285800  1.0  0.0811
  H  H40  1  0.224100  0.352000  0.395400  1.0  0.0646
  H  H41  1  0.316300  0.237600  0.320400  1.0  0.0847
  H  H42  1  0.460200  0.347000  0.480200  1.0  0.3136
  H  H43  1  0.468600  0.439400  0.456600  1.0  0.3092
  H  H44  1  0.109500  0.848100  0.593800  1.0  0.3119
  H  H45  1  0.105800  0.914200  0.717000  1.0  0.3276
  H  H46  1  0.369200  0.866000  0.580200  1.0  0.0814
  H  H47  1  0.224100  0.043400  0.648000  1.0  0.0642
  H  H48  1  0.316300  0.082800  0.762400  1.0  0.0878
  H  H49  1  0.460200  0.133200  0.653000  1.0  0.3172
  H  H50  1  0.468600  0.017200  0.560600  1.0  0.3066
  C  C51  1  0.439100  0.556600  0.202600  1.0  0.0728
  C  C52  1  0.826600  0.254100  0.911200  1.0  0.0028
  C  C53  1  0.822100  0.350700  0.032200  1.0  0.0518
  C  C54  1  0.721100  0.679500  0.209800  1.0  0.0299
  C  C55  1  0.944800  0.158600  0.892000  1.0  0.6531
  C  C56  1  0.439100  0.646000  0.443400  1.0  0.0718
  C  C57  1  0.826600  0.657100  0.745900  1.0  0.0016
  C  C58  1  0.822100  0.681500  0.649300  1.0  0.0528
  C  C59  1  0.721100  0.530300  0.320500  1.0  0.0294
  C  C60  1  0.944800  0.733400  0.841400  1.0  0.6507
  C  C61  1  0.439100  0.797400  0.354000  1.0  0.0733
  C  C62  1  0.826600  0.088800  0.342900  1.0  -0.0012
  C  C63  1  0.822100  0.967800  0.318500  1.0  0.0521
  C  C64  1  0.721100  0.790200  0.469700  1.0  0.0289
  C  C65  1  0.944800  0.108000  0.266600  1.0  0.6563
  C  C66  1  0.939100  0.443400  0.797400  1.0  0.0734
  C  C67  1  0.326600  0.745900  0.088800  1.0  0.0045
  C  C68  1  0.322100  0.649300  0.967800  1.0  0.0523
  C  C69  1  0.221100  0.320500  0.790200  1.0  0.0289
  C  C70  1  0.444800  0.841400  0.108000  1.0  0.6515
  C  C71  1  0.939100  0.354000  0.556600  1.0  0.0709
  C  C72  1  0.326600  0.342900  0.254100  1.0  0.0032
  C  C73  1  0.322100  0.318500  0.350700  1.0  0.0521
  C  C74  1  0.221100  0.469700  0.679500  1.0  0.0298
  C  C75  1  0.444800  0.266600  0.158600  1.0  0.6537
  C  C76  1  0.939100  0.202600  0.646000  1.0  0.0728
  C  C77  1  0.326600  0.911200  0.657100  1.0  0.0017
  C  C78  1  0.322100  0.032200  0.681500  1.0  0.053
  C  C79  1  0.221100  0.209800  0.530300  1.0  0.0288
  C  C80  1  0.444800  0.892000  0.733400  1.0  0.6565
  N  N81  1  0.664700  0.207100  0.864200  1.0  -0.6505
  N  N82  1  0.353600  0.495500  0.129400  1.0  -0.4323
  N  N83  1  0.768800  0.680400  0.129900  1.0  -0.421
  N  N84  1  0.968200  0.424500  0.060800  1.0  -0.6744
  N  N85  1  0.664700  0.657100  0.792900  1.0  -0.6544
  N  N86  1  0.353600  0.633900  0.504500  1.0  -0.4335
  N  N87  1  0.768800  0.449500  0.319600  1.0  -0.421
  N  N88  1  0.968200  0.636300  0.575500  1.0  -0.6766
  N  N89  1  0.664700  0.135800  0.342900  1.0  -0.6533
  N  N90  1  0.353600  0.870600  0.366100  1.0  -0.433
  N  N91  1  0.768800  0.870100  0.550500  1.0  -0.422
  N  N92  1  0.968200  0.939200  0.363700  1.0  -0.6782
  N  N93  1  0.164700  0.792900  0.135800  1.0  -0.6503
  N  N94  1  0.853600  0.504500  0.870600  1.0  -0.4327
  N  N95  1  0.268800  0.319600  0.870100  1.0  -0.4213
  N  N96  1  0.468200  0.575500  0.939200  1.0  -0.6726
  N  N97  1  0.164700  0.342900  0.207100  1.0  -0.6598
  N  N98  1  0.853600  0.366100  0.495500  1.0  -0.4333
  N  N99  1  0.268800  0.550500  0.680400  1.0  -0.4216
  N  N100  1  0.468200  0.363700  0.424500  1.0  -0.6779
  N  N101  1  0.164700  0.864200  0.657100  1.0  -0.651
  N  N102  1  0.853600  0.129400  0.633900  1.0  -0.4329
  N  N103  1  0.268800  0.129900  0.449500  1.0  -0.4207
  N  N104  1  0.468200  0.060800  0.636300  1.0  -0.6781
  O  O105  1  0.066400  0.179700  0.952200  1.0  -0.5603
  O  O106  1  0.910300  0.057700  0.813100  1.0  -0.5833
  O  O107  1  0.066400  0.772500  0.820300  1.0  -0.5587
  O  O108  1  0.910300  0.755400  0.942300  1.0  -0.5833
  O  O109  1  0.066400  0.047800  0.227500  1.0  -0.5618
  O  O110  1  0.910300  0.186900  0.244600  1.0  -0.5834
  O  O111  1  0.566400  0.820300  0.047800  1.0  -0.5616
  O  O112  1  0.410300  0.942300  0.186900  1.0  -0.5824
  O  O113  1  0.566400  0.227500  0.179700  1.0  -0.5575
  O  O114  1  0.410300  0.244600  0.057700  1.0  -0.5817
  O  O115  1  0.566400  0.952200  0.772500  1.0  -0.5626
  O  O116  1  0.410300  0.813100  0.755400  1.0  -0.5826
