# generated using pymatgen
data_Mn3CrH21C15(N2O)6
_symmetry_space_group_name_H-M   'P 1'
_cell_length_a   13.60930000
_cell_length_b   13.60930000
_cell_length_c   8.16090000
_cell_angle_alpha   90.00000000
_cell_angle_beta   90.00000000
_cell_angle_gamma   120.00000000
_symmetry_Int_Tables_number   1
_chemical_formula_structural   Mn3CrH21C15(N2O)6
_chemical_formula_sum   'Mn6 Cr2 H42 C30 N24 O12'
_cell_volume   1309.00185880
_cell_formula_units_Z   2
loop_
 _symmetry_equiv_pos_site_id
 _symmetry_equiv_pos_as_xyz
  1  'x, y, z'
loop_
 _atom_site_type_symbol
 _atom_site_label
 _atom_site_symmetry_multiplicity
 _atom_site_fract_x
 _atom_site_fract_y
 _atom_site_fract_z
 _atom_site_occupancy
 _atom_site_charge
  Mn  Mn1  1  0.295780  0.334710  0.543400  1.0  0.9664
  Mn  Mn2  1  0.665290  0.961070  0.543400  1.0  0.9666
  Mn  Mn3  1  0.038930  0.704220  0.543400  1.0  0.9668
  Mn  Mn4  1  0.704220  0.665290  0.043400  1.0  0.9673
  Mn  Mn5  1  0.334710  0.038930  0.043400  1.0  0.9662
  Mn  Mn6  1  0.961070  0.295780  0.043400  1.0  0.967
  Cr  Cr7  1  0.333333  0.666667  0.925660  1.0  0.3462
  Cr  Cr8  1  0.666667  0.333333  0.425660  1.0  0.3462
  H  H9  1  0.410400  0.257700  0.950300  1.0  0.311
  H  H10  1  0.286600  0.201600  0.943700  1.0  0.3342
  H  H11  1  0.421600  0.287200  0.210100  1.0  0.0806
  H  H12  1  0.347000  0.482000  0.299000  1.0  0.3098
  H  H13  1  0.439700  0.458100  0.307100  1.0  0.29
  H  H14  1  0.351800  0.397900  0.063300  1.0  0.0718
  H  H15  1  0.237100  0.321600  0.155800  1.0  0.0805
  H  H16  1  0.742300  0.152700  0.950300  1.0  0.3161
  H  H17  1  0.798400  0.085000  0.943700  1.0  0.3312
  H  H18  1  0.712800  0.134400  0.210100  1.0  0.0806
  H  H19  1  0.518000  0.865000  0.299000  1.0  0.3084
  H  H20  1  0.541900  0.981600  0.307100  1.0  0.2867
  H  H21  1  0.602100  0.953900  0.063300  1.0  0.0715
  H  H22  1  0.678400  0.915500  0.155800  1.0  0.0848
  H  H23  1  0.847300  0.589600  0.950300  1.0  0.3104
  H  H24  1  0.915000  0.713400  0.943700  1.0  0.3338
  H  H25  1  0.865600  0.578400  0.210100  1.0  0.0816
  H  H26  1  0.135000  0.653000  0.299000  1.0  0.3023
  H  H27  1  0.018400  0.560300  0.307100  1.0  0.2886
  H  H28  1  0.046100  0.648200  0.063300  1.0  0.0722
  H  H29  1  0.084500  0.762900  0.155800  1.0  0.0832
  H  H30  1  0.589600  0.742300  0.450300  1.0  0.3111
  H  H31  1  0.713400  0.798400  0.443700  1.0  0.3354
  H  H32  1  0.578400  0.712800  0.710100  1.0  0.0802
  H  H33  1  0.653000  0.518000  0.799000  1.0  0.3098
  H  H34  1  0.560300  0.541900  0.807100  1.0  0.2889
  H  H35  1  0.648200  0.602100  0.563300  1.0  0.0721
  H  H36  1  0.762900  0.678400  0.655800  1.0  0.0801
  H  H37  1  0.257700  0.847300  0.450300  1.0  0.3189
  H  H38  1  0.201600  0.915000  0.443700  1.0  0.3326
  H  H39  1  0.287200  0.865600  0.710100  1.0  0.0804
  H  H40  1  0.482000  0.135000  0.799000  1.0  0.3095
  H  H41  1  0.458100  0.018400  0.807100  1.0  0.2879
  H  H42  1  0.397900  0.046100  0.563300  1.0  0.0718
  H  H43  1  0.321600  0.084500  0.655800  1.0  0.083
  H  H44  1  0.152700  0.410400  0.450300  1.0  0.3129
  H  H45  1  0.085000  0.286600  0.443700  1.0  0.3321
  H  H46  1  0.134400  0.421600  0.710100  1.0  0.0802
  H  H47  1  0.865000  0.347000  0.799000  1.0  0.3087
  H  H48  1  0.981600  0.439700  0.807100  1.0  0.2888
  H  H49  1  0.953900  0.351800  0.563300  1.0  0.0709
  H  H50  1  0.915500  0.237100  0.655800  1.0  0.0836
  C  C51  1  0.529700  0.320700  0.555200  1.0  0.0513
  C  C52  1  0.354400  0.555800  0.776300  1.0  0.1083
  C  C53  1  0.266600  0.158700  0.280000  1.0  0.7049
  C  C54  1  0.344700  0.255400  0.165800  1.0  0.0198
  C  C55  1  0.318600  0.352800  0.161200  1.0  0.016
  C  C56  1  0.679300  0.209000  0.555200  1.0  0.0507
  C  C57  1  0.444200  0.798600  0.776300  1.0  0.1085
  C  C58  1  0.841300  0.107900  0.280000  1.0  0.6997
  C  C59  1  0.744600  0.089300  0.165800  1.0  0.0194
  C  C60  1  0.647200  0.965800  0.161200  1.0  0.0116
  C  C61  1  0.791000  0.470300  0.555200  1.0  0.0512
  C  C62  1  0.201400  0.645600  0.776300  1.0  0.108
  C  C63  1  0.892100  0.733400  0.280000  1.0  0.7038
  C  C64  1  0.910700  0.655300  0.165800  1.0  0.0174
  C  C65  1  0.034200  0.681400  0.161200  1.0  0.0161
  C  C66  1  0.470300  0.679300  0.055200  1.0  0.0523
  C  C67  1  0.645600  0.444200  0.276300  1.0  0.1076
  C  C68  1  0.733400  0.841300  0.780000  1.0  0.7033
  C  C69  1  0.655300  0.744600  0.665800  1.0  0.0198
  C  C70  1  0.681400  0.647200  0.661200  1.0  0.0141
  C  C71  1  0.320700  0.791000  0.055200  1.0  0.0517
  C  C72  1  0.555800  0.201400  0.276300  1.0  0.1082
  C  C73  1  0.158700  0.892100  0.780000  1.0  0.7019
  C  C74  1  0.255400  0.910700  0.665800  1.0  0.0192
  C  C75  1  0.352800  0.034200  0.661200  1.0  0.0146
  C  C76  1  0.209000  0.529700  0.055200  1.0  0.0503
  C  C77  1  0.798600  0.354400  0.276300  1.0  0.1091
  C  C78  1  0.107900  0.266600  0.780000  1.0  0.702
  C  C79  1  0.089300  0.344700  0.665800  1.0  0.0177
  C  C80  1  0.965800  0.318600  0.661200  1.0  0.0176
  N  N81  1  0.345900  0.210100  0.003600  1.0  -0.6631
  N  N82  1  0.363600  0.425900  0.306600  1.0  -0.6791
  N  N83  1  0.448700  0.318900  0.603700  1.0  -0.437
  N  N84  1  0.366500  0.495700  0.691600  1.0  -0.446
  N  N85  1  0.789900  0.135800  0.003600  1.0  -0.6656
  N  N86  1  0.574100  0.937700  0.306600  1.0  -0.6731
  N  N87  1  0.681100  0.129800  0.603700  1.0  -0.4376
  N  N88  1  0.504300  0.870800  0.691600  1.0  -0.447
  N  N89  1  0.864200  0.654100  0.003600  1.0  -0.6633
  N  N90  1  0.062300  0.636400  0.306600  1.0  -0.6751
  N  N91  1  0.870200  0.551300  0.603700  1.0  -0.4384
  N  N92  1  0.129200  0.633500  0.691600  1.0  -0.4468
  N  N93  1  0.654100  0.789900  0.503600  1.0  -0.6629
  N  N94  1  0.636400  0.574100  0.806600  1.0  -0.677
  N  N95  1  0.551300  0.681100  0.103700  1.0  -0.4367
  N  N96  1  0.633500  0.504300  0.191600  1.0  -0.4466
  N  N97  1  0.210100  0.864200  0.503600  1.0  -0.6663
  N  N98  1  0.425900  0.062300  0.806600  1.0  -0.673
  N  N99  1  0.318900  0.870200  0.103700  1.0  -0.4382
  N  N100  1  0.495700  0.129200  0.191600  1.0  -0.4467
  N  N101  1  0.135800  0.345900  0.503600  1.0  -0.6641
  N  N102  1  0.937700  0.363600  0.806600  1.0  -0.6755
  N  N103  1  0.129800  0.448700  0.103700  1.0  -0.4381
  N  N104  1  0.870800  0.366500  0.191600  1.0  -0.4467
  O  O105  1  0.227900  0.180600  0.404800  1.0  -0.5901
  O  O106  1  0.244700  0.058500  0.246700  1.0  -0.6438
  O  O107  1  0.819400  0.047300  0.404800  1.0  -0.5905
  O  O108  1  0.941500  0.186200  0.246700  1.0  -0.6405
  O  O109  1  0.952700  0.772100  0.404800  1.0  -0.5911
  O  O110  1  0.813800  0.755300  0.246700  1.0  -0.6412
  O  O111  1  0.772100  0.819400  0.904800  1.0  -0.5907
  O  O112  1  0.755300  0.941500  0.746700  1.0  -0.6419
  O  O113  1  0.180600  0.952700  0.904800  1.0  -0.5907
  O  O114  1  0.058500  0.813800  0.746700  1.0  -0.64
  O  O115  1  0.047300  0.227900  0.904800  1.0  -0.5902
  O  O116  1  0.186200  0.244700  0.746700  1.0  -0.642
