# generated using pymatgen
data_GdH7(C2O)7
_symmetry_space_group_name_H-M   'P 1'
_cell_length_a   14.39820000
_cell_length_b   15.01750000
_cell_length_c   24.60290000
_cell_angle_alpha   75.08460000
_cell_angle_beta   72.98560000
_cell_angle_gamma   61.35510000
_symmetry_Int_Tables_number   1
_chemical_formula_structural   GdH7(C2O)7
_chemical_formula_sum   'Gd8 H56 C112 O56'
_cell_volume   4420.63013123
_cell_formula_units_Z   8
loop_
 _symmetry_equiv_pos_site_id
 _symmetry_equiv_pos_as_xyz
  1  'x, y, z'
loop_
 _atom_site_type_symbol
 _atom_site_label
 _atom_site_symmetry_multiplicity
 _atom_site_fract_x
 _atom_site_fract_y
 _atom_site_fract_z
 _atom_site_occupancy
 _atom_site_charge
  Gd  Gd1  1  0.850580  0.883260  0.689880  1.0  2.2444
  Gd  Gd2  1  0.251290  0.632510  0.698650  1.0  2.2003
  Gd  Gd3  1  0.423720  0.616740  0.810120  1.0  2.2441
  Gd  Gd4  1  0.582450  0.867490  0.801350  1.0  2.1993
  Gd  Gd5  1  0.149420  0.116740  0.310120  1.0  2.2443
  Gd  Gd6  1  0.748710  0.367490  0.301350  1.0  2.1998
  Gd  Gd7  1  0.576280  0.383260  0.189880  1.0  2.2459
  Gd  Gd8  1  0.417550  0.132510  0.198650  1.0  2.1985
  H  H9  1  0.990000  0.087700  0.717500  1.0  0.1106
  H  H10  1  0.076200  0.171900  0.733300  1.0  0.1092
  H  H11  1  0.236000  0.081300  0.766100  1.0  0.1219
  H  H12  1  0.221600  0.820100  0.769900  1.0  0.0809
  H  H13  1  0.693400  0.871400  0.538800  1.0  0.1302
  H  H14  1  0.595700  0.830800  0.497800  1.0  0.1113
  H  H15  1  0.474600  0.769000  0.554200  1.0  0.1118
  H  H16  1  0.546200  0.787900  0.694700  1.0  0.1014
  H  H17  1  0.591200  0.209800  0.631800  1.0  0.1018
  H  H18  1  0.469100  0.356300  0.585100  1.0  0.1136
  H  H19  1  0.523100  0.415100  0.490300  1.0  0.1099
  H  H20  1  0.825800  0.199000  0.493600  1.0  0.119
  H  H21  1  0.773800  0.097000  0.757600  1.0  0.1112
  H  H22  1  0.795200  0.412300  0.782500  1.0  0.1109
  H  H23  1  0.981400  0.328100  0.766700  1.0  0.1097
  H  H24  1  0.083400  0.418700  0.733900  1.0  0.1214
  H  H25  1  0.811600  0.679900  0.730100  1.0  0.0803
  H  H26  1  0.103600  0.628600  0.961200  1.0  0.1299
  H  H27  1  0.924300  0.669200  0.002200  1.0  0.1114
  H  H28  1  0.797800  0.731000  0.945800  1.0  0.1124
  H  H29  1  0.028800  0.712100  0.805300  1.0  0.101
  H  H30  1  0.432800  0.290200  0.868200  1.0  0.1023
  H  H31  1  0.410500  0.143700  0.914900  1.0  0.1138
  H  H32  1  0.428500  0.084900  0.009700  1.0  0.1101
  H  H33  1  0.518400  0.301000  0.006400  1.0  0.119
  H  H34  1  0.628400  0.403000  0.742400  1.0  0.1098
  H  H35  1  0.010000  0.912300  0.282500  1.0  0.1109
  H  H36  1  0.923800  0.828100  0.266700  1.0  0.1087
  H  H37  1  0.764000  0.918700  0.233900  1.0  0.1215
  H  H38  1  0.778400  0.179900  0.230100  1.0  0.0805
  H  H39  1  0.306600  0.128600  0.461200  1.0  0.1298
  H  H40  1  0.404300  0.169200  0.502200  1.0  0.1116
  H  H41  1  0.525400  0.231000  0.445800  1.0  0.1118
  H  H42  1  0.453800  0.212100  0.305300  1.0  0.1016
  H  H43  1  0.408800  0.790200  0.368200  1.0  0.1017
  H  H44  1  0.530900  0.643700  0.414900  1.0  0.1138
  H  H45  1  0.476900  0.584900  0.509700  1.0  0.1099
  H  H46  1  0.174200  0.801000  0.506400  1.0  0.1186
  H  H47  1  0.226200  0.903000  0.242400  1.0  0.1115
  H  H48  1  0.204800  0.587700  0.217500  1.0  0.1104
  H  H49  1  0.018600  0.671900  0.233300  1.0  0.1088
  H  H50  1  0.916600  0.581300  0.266100  1.0  0.1221
  H  H51  1  0.188400  0.320100  0.269900  1.0  0.0807
  H  H52  1  0.896400  0.371400  0.038800  1.0  0.1302
  H  H53  1  0.075700  0.330800  0.997800  1.0  0.1107
  H  H54  1  0.202200  0.269000  0.054200  1.0  0.1118
  H  H55  1  0.971200  0.287900  0.194700  1.0  0.1015
  H  H56  1  0.567200  0.709800  0.131800  1.0  0.1018
  H  H57  1  0.589500  0.856300  0.085100  1.0  0.1142
  H  H58  1  0.571500  0.915100  0.990300  1.0  0.1099
  H  H59  1  0.481600  0.699000  0.993600  1.0  0.1191
  H  H60  1  0.371600  0.597000  0.257600  1.0  0.1101
  H  H61  1  0.779700  0.250000  0.750000  1.0  0.1077
  H  H62  1  0.458800  0.250000  0.750000  1.0  0.1155
  H  H63  1  0.220300  0.750000  0.250000  1.0  0.1075
  H  H64  1  0.541200  0.750000  0.250000  1.0  0.1166
  C  C65  1  0.052000  0.886100  0.724700  1.0  0.7808
  C  C66  1  0.099900  0.944000  0.740200  1.0  -0.1396
  C  C67  1  0.054700  0.050400  0.730600  1.0  -0.055
  C  C68  1  0.106000  0.100900  0.740300  1.0  -0.0903
  C  C69  1  0.201200  0.046700  0.760500  1.0  -0.0564
  C  C70  1  0.245000  0.940400  0.772400  1.0  -0.1877
  C  C71  1  0.192900  0.891000  0.762000  1.0  -0.0078
  C  C72  1  0.349200  0.877300  0.794100  1.0  0.773
  C  C73  1  0.698900  0.852000  0.648000  1.0  0.7174
  C  C74  1  0.630100  0.833200  0.621400  1.0  -0.1537
  C  C75  1  0.644700  0.846400  0.562000  1.0  -0.0697
  C  C76  1  0.586000  0.822000  0.537600  1.0  -0.1082
  C  C77  1  0.513200  0.785300  0.571300  1.0  -0.0353
  C  C78  1  0.498000  0.772400  0.630200  1.0  -0.1803
  C  C79  1  0.556500  0.796500  0.654900  1.0  0.0278
  C  C80  1  0.419200  0.733100  0.668700  1.0  0.7643
  C  C81  1  0.804600  0.097500  0.597100  1.0  0.7646
  C  C82  1  0.721500  0.190100  0.567700  1.0  -0.1555
  C  C83  1  0.614200  0.236300  0.594700  1.0  -0.035
  C  C84  1  0.540200  0.323000  0.566200  1.0  -0.0778
  C  C85  1  0.572800  0.359100  0.509700  1.0  -0.0133
  C  C86  1  0.679200  0.311800  0.482200  1.0  -0.1568
  C  C87  1  0.753600  0.228900  0.511700  1.0  0.0271
  C  C88  1  0.714200  0.346000  0.419800  1.0  0.6888
  C  C89  1  0.608800  0.057300  0.764900  1.0  0.7023
  C  C90  1  0.615300  0.157100  0.755700  1.0  -0.1216
  C  C91  1  0.711700  0.158200  0.754800  1.0  -0.0442
  C  C92  1  0.662800  0.613900  0.775300  1.0  0.7806
  C  C93  1  0.784100  0.556000  0.759800  1.0  -0.141
  C  C94  1  0.835700  0.449600  0.769400  1.0  -0.0561
  C  C95  1  0.947200  0.399100  0.759700  1.0  -0.0889
  C  C96  1  0.008400  0.453300  0.739500  1.0  -0.0567
  C  C97  1  0.957800  0.559600  0.727600  1.0  -0.1876
  C  C98  1  0.845900  0.609000  0.738000  1.0  -0.0109
  C  C99  1  0.020600  0.622700  0.705900  1.0  0.7683
  C  C100  1  0.198900  0.648000  0.852000  1.0  0.7158
  C  C101  1  0.084700  0.666800  0.878600  1.0  -0.1503
  C  C102  1  0.053100  0.653600  0.938000  1.0  -0.0717
  C  C103  1  0.945600  0.678000  0.962400  1.0  -0.1092
  C  C104  1  0.869800  0.714700  0.928700  1.0  -0.0356
  C  C105  1  0.900600  0.727600  0.869800  1.0  -0.1818
  C  C106  1  0.007900  0.703500  0.845100  1.0  0.0283
  C  C107  1  0.821000  0.766900  0.831300  1.0  0.7665
  C  C108  1  0.499200  0.402500  0.902900  1.0  0.7629
  C  C109  1  0.479300  0.309900  0.932300  1.0  -0.1542
  C  C110  1  0.445200  0.263700  0.905300  1.0  -0.0335
  C  C111  1  0.429400  0.177000  0.933800  1.0  -0.0765
  C  C112  1  0.441600  0.140900  0.990300  1.0  -0.012
  C  C113  1  0.473200  0.188200  0.017800  1.0  -0.1572
  C  C114  1  0.494200  0.271100  0.988300  1.0  0.0267
  C  C115  1  0.480000  0.154000  0.080200  1.0  0.6911
  C  C116  1  0.431000  0.442700  0.735100  1.0  0.7016
  C  C117  1  0.528100  0.342900  0.744300  1.0  -0.1165
  C  C118  1  0.624700  0.341800  0.745200  1.0  -0.0455
  C  C119  1  0.948000  0.113900  0.275300  1.0  0.7799
  C  C120  1  0.900100  0.056000  0.259800  1.0  -0.141
  C  C121  1  0.945300  0.949600  0.269400  1.0  -0.0575
  C  C122  1  0.894000  0.899100  0.259700  1.0  -0.0887
  C  C123  1  0.798800  0.953300  0.239500  1.0  -0.055
  C  C124  1  0.755000  0.059600  0.227600  1.0  -0.1873
  C  C125  1  0.807100  0.109000  0.238000  1.0  -0.0091
  C  C126  1  0.650800  0.122700  0.205900  1.0  0.7707
  C  C127  1  0.301100  0.148000  0.352000  1.0  0.7173
  C  C128  1  0.369900  0.166800  0.378600  1.0  -0.1526
  C  C129  1  0.355300  0.153600  0.438000  1.0  -0.0701
  C  C130  1  0.414000  0.178000  0.462400  1.0  -0.1057
  C  C131  1  0.486800  0.214700  0.428700  1.0  -0.0362
  C  C132  1  0.502000  0.227600  0.369800  1.0  -0.1795
  C  C133  1  0.443500  0.203500  0.345100  1.0  0.0269
  C  C134  1  0.580800  0.266900  0.331300  1.0  0.7652
  C  C135  1  0.195400  0.902500  0.402900  1.0  0.7628
  C  C136  1  0.278500  0.809900  0.432300  1.0  -0.1544
  C  C137  1  0.385800  0.763700  0.405300  1.0  -0.0348
  C  C138  1  0.459800  0.677000  0.433800  1.0  -0.076
  C  C139  1  0.427200  0.640900  0.490300  1.0  -0.0135
  C  C140  1  0.320800  0.688200  0.517800  1.0  -0.1556
  C  C141  1  0.246400  0.771100  0.488300  1.0  0.0251
  C  C142  1  0.285800  0.654000  0.580200  1.0  0.6895
  C  C143  1  0.391200  0.942700  0.235100  1.0  0.7021
  C  C144  1  0.384700  0.842900  0.244300  1.0  -0.12
  C  C145  1  0.288300  0.841800  0.245200  1.0  -0.0443
  C  C146  1  0.337200  0.386100  0.224700  1.0  0.7795
  C  C147  1  0.215900  0.444000  0.240200  1.0  -0.1408
  C  C148  1  0.164300  0.550400  0.230600  1.0  -0.0559
  C  C149  1  0.052800  0.600900  0.240300  1.0  -0.0908
  C  C150  1  0.991600  0.546700  0.260500  1.0  -0.0565
  C  C151  1  0.042200  0.440400  0.272400  1.0  -0.1882
  C  C152  1  0.154100  0.391000  0.262000  1.0  -0.008
  C  C153  1  0.979400  0.377300  0.294100  1.0  0.7683
  C  C154  1  0.801100  0.352000  0.148000  1.0  0.715
  C  C155  1  0.915300  0.333200  0.121400  1.0  -0.1498
  C  C156  1  0.946900  0.346400  0.062000  1.0  -0.0716
  C  C157  1  0.054400  0.322000  0.037600  1.0  -0.1092
  C  C158  1  0.130200  0.285300  0.071300  1.0  -0.0328
  C  C159  1  0.099400  0.272400  0.130200  1.0  -0.1839
  C  C160  1  0.992100  0.296500  0.154900  1.0  0.0275
  C  C161  1  0.179000  0.233100  0.168700  1.0  0.7659
  C  C162  1  0.500800  0.597500  0.097100  1.0  0.7618
  C  C163  1  0.520700  0.690100  0.067700  1.0  -0.1553
  C  C164  1  0.554800  0.736300  0.094700  1.0  -0.0338
  C  C165  1  0.570600  0.823000  0.066200  1.0  -0.0767
  C  C166  1  0.558400  0.859100  0.009700  1.0  -0.0141
  C  C167  1  0.526800  0.811800  0.982200  1.0  -0.1549
  C  C168  1  0.505800  0.728900  0.011700  1.0  0.0273
  C  C169  1  0.520000  0.846000  0.919800  1.0  0.6923
  C  C170  1  0.569000  0.557300  0.264900  1.0  0.7026
  C  C171  1  0.471900  0.657100  0.255700  1.0  -0.1191
  C  C172  1  0.375300  0.658200  0.254800  1.0  -0.045
  C  C173  1  0.715200  0.250000  0.750000  1.0  -0.1174
  C  C174  1  0.523400  0.250000  0.750000  1.0  -0.0375
  C  C175  1  0.284800  0.750000  0.250000  1.0  -0.1172
  C  C176  1  0.476600  0.750000  0.250000  1.0  -0.0375
  O  O177  1  0.954530  0.933230  0.720710  1.0  -0.6472
  O  O178  1  0.112400  0.794590  0.717010  1.0  -0.7253
  O  O179  1  0.367100  0.788100  0.818900  1.0  -0.754
  O  O180  1  0.411760  0.918290  0.785990  1.0  -0.6907
  O  O181  1  0.670700  0.864110  0.700890  1.0  -0.8371
  O  O182  1  0.784650  0.853670  0.618430  1.0  -0.635
  O  O183  1  0.356880  0.723450  0.646990  1.0  -0.6067
  O  O184  1  0.418850  0.714630  0.721070  1.0  -0.6728
  O  O185  1  0.771470  0.048520  0.641740  1.0  -0.6822
  O  O186  1  0.901300  0.075000  0.575200  1.0  -0.5231
  O  O187  1  0.804160  0.286600  0.392680  1.0  -0.6331
  O  O188  1  0.653890  0.429340  0.394680  1.0  -0.617
  O  O189  1  0.696340  0.973840  0.765480  1.0  -0.7971
  O  O190  1  0.519360  0.055650  0.773830  1.0  -0.6429
  O  O191  1  0.608470  0.566770  0.779290  1.0  -0.6467
  O  O192  1  0.624000  0.705410  0.782990  1.0  -0.7303
  O  O193  1  0.974100  0.711900  0.681100  1.0  -0.7574
  O  O194  1  0.116040  0.581710  0.714010  1.0  -0.6941
  O  O195  1  0.235700  0.635890  0.799110  1.0  -0.8352
  O  O196  1  0.256750  0.646330  0.881570  1.0  -0.6334
  O  O197  1  0.727320  0.776550  0.853010  1.0  -0.6075
  O  O198  1  0.854550  0.785370  0.778930  1.0  -0.6738
  O  O199  1  0.461730  0.451480  0.858260  1.0  -0.6787
  O  O200  1  0.551500  0.425000  0.924800  1.0  -0.5273
  O  O201  1  0.483440  0.213400  0.107320  1.0  -0.6329
  O  O202  1  0.477910  0.070660  0.105320  1.0  -0.6176
  O  O203  1  0.435660  0.526160  0.734520  1.0  -0.7953
  O  O204  1  0.348840  0.444350  0.726170  1.0  -0.6414
  O  O205  1  0.045470  0.066770  0.279290  1.0  -0.6476
  O  O206  1  0.887600  0.205410  0.282990  1.0  -0.7278
  O  O207  1  0.632900  0.211900  0.181100  1.0  -0.7555
  O  O208  1  0.588240  0.081710  0.214010  1.0  -0.6904
  O  O209  1  0.329300  0.135890  0.299110  1.0  -0.8342
  O  O210  1  0.215350  0.146330  0.381570  1.0  -0.635
  O  O211  1  0.643120  0.276550  0.353010  1.0  -0.6073
  O  O212  1  0.581150  0.285370  0.278930  1.0  -0.6739
  O  O213  1  0.228530  0.951480  0.358260  1.0  -0.6826
  O  O214  1  0.098700  0.925000  0.424800  1.0  -0.5237
  O  O215  1  0.195840  0.713400  0.607320  1.0  -0.6335
  O  O216  1  0.346110  0.570660  0.605320  1.0  -0.6174
  O  O217  1  0.303660  0.026160  0.234520  1.0  -0.7965
  O  O218  1  0.480640  0.944350  0.226170  1.0  -0.6406
  O  O219  1  0.391530  0.433230  0.220710  1.0  -0.6477
  O  O220  1  0.376000  0.294590  0.217010  1.0  -0.727
  O  O221  1  0.025900  0.288100  0.318900  1.0  -0.7559
  O  O222  1  0.883960  0.418290  0.285990  1.0  -0.6922
  O  O223  1  0.764300  0.364110  0.200890  1.0  -0.8357
  O  O224  1  0.743250  0.353670  0.118430  1.0  -0.6328
  O  O225  1  0.272680  0.223450  0.146990  1.0  -0.6094
  O  O226  1  0.145450  0.214630  0.221070  1.0  -0.6724
  O  O227  1  0.538270  0.548520  0.141740  1.0  -0.6782
  O  O228  1  0.448500  0.575000  0.075200  1.0  -0.5283
  O  O229  1  0.516560  0.786600  0.892680  1.0  -0.6323
  O  O230  1  0.522090  0.929340  0.894680  1.0  -0.618
  O  O231  1  0.564340  0.473840  0.265480  1.0  -0.7974
  O  O232  1  0.651160  0.555650  0.273830  1.0  -0.6398
