# generated using pymatgen
data_EuH11(C11O4)2
_symmetry_space_group_name_H-M   'P 1'
_cell_length_a   10.64700000
_cell_length_b   11.47200000
_cell_length_c   11.76400000
_cell_angle_alpha   104.77800000
_cell_angle_beta   106.93500000
_cell_angle_gamma   95.96400000
_symmetry_Int_Tables_number   1
_chemical_formula_structural   EuH11(C11O4)2
_chemical_formula_sum   'Eu2 H22 C44 O16'
_cell_volume   1304.20633112
_cell_formula_units_Z   2
loop_
 _symmetry_equiv_pos_site_id
 _symmetry_equiv_pos_as_xyz
  1  'x, y, z'
loop_
 _atom_site_type_symbol
 _atom_site_label
 _atom_site_symmetry_multiplicity
 _atom_site_fract_x
 _atom_site_fract_y
 _atom_site_fract_z
 _atom_site_occupancy
 _atom_site_charge
  Eu  Eu1  1  0.899500  0.439860  0.121030  1.0  2.1834
  Eu  Eu2  1  0.100500  0.560140  0.878970  1.0  2.1831
  H  H3  1  0.231600  0.863600  0.978800  1.0  0.0953
  H  H4  1  0.382300  0.270700  0.402100  1.0  0.1079
  H  H5  1  0.218500  0.337700  0.272300  1.0  0.1176
  H  H6  1  0.498400  0.508300  0.172800  1.0  0.1196
  H  H7  1  0.735100  0.232500  0.329800  1.0  0.1159
  H  H8  1  0.859700  0.121600  0.443100  1.0  0.1045
  H  H9  1  0.712900  0.244000  0.719300  1.0  0.1151
  H  H10  1  0.577400  0.343200  0.600300  1.0  0.108
  H  H11  1  0.809100  0.934200  0.516900  1.0  0.1158
  H  H12  1  0.916800  0.807400  0.619000  1.0  0.1235
  H  H13  1  0.064500  0.090100  0.933200  1.0  0.1132
  H  H14  1  0.768400  0.136400  0.021200  1.0  0.0969
  H  H15  1  0.617700  0.729300  0.597900  1.0  0.1085
  H  H16  1  0.781500  0.662300  0.727700  1.0  0.1179
  H  H17  1  0.501600  0.491700  0.827200  1.0  0.1199
  H  H18  1  0.264900  0.767500  0.670200  1.0  0.1157
  H  H19  1  0.140300  0.878400  0.556900  1.0  0.1049
  H  H20  1  0.287100  0.756000  0.280700  1.0  0.1153
  H  H21  1  0.422600  0.656800  0.399700  1.0  0.1075
  H  H22  1  0.190900  0.065800  0.483100  1.0  0.1158
  H  H23  1  0.083200  0.192600  0.381000  1.0  0.1238
  H  H24  1  0.935500  0.909900  0.066800  1.0  0.1136
  C  C25  1  0.719800  0.478400  0.321300  1.0  0.7067
  C  C26  1  0.576600  0.428100  0.304300  1.0  -0.0771
  C  C27  1  0.541300  0.351700  0.371300  1.0  0.0264
  C  C28  1  0.406400  0.319700  0.357000  1.0  -0.1168
  C  C29  1  0.307400  0.358500  0.278000  1.0  -0.0471
  C  C30  1  0.341300  0.428800  0.206900  1.0  -0.1106
  C  C31  1  0.475400  0.462000  0.220700  1.0  -0.0431
  C  C32  1  0.234800  0.469700  0.119300  1.0  0.7446
  C  C33  1  0.638900  0.297000  0.451000  1.0  0.0441
  C  C34  1  0.727300  0.232100  0.406400  1.0  -0.0899
  C  C35  1  0.803700  0.166800  0.475400  1.0  -0.1265
  C  C36  1  0.797400  0.168300  0.592600  1.0  0.0267
  C  C37  1  0.714800  0.238200  0.639600  1.0  -0.1173
  C  C38  1  0.634800  0.299500  0.568500  1.0  -0.1135
  C  C39  1  0.871700  0.090500  0.662000  1.0  0.0377
  C  C40  1  0.861100  0.966100  0.600500  1.0  -0.1093
  C  C41  1  0.925900  0.889800  0.661400  1.0  -0.079
  C  C42  1  0.004700  0.936800  0.785900  1.0  -0.1308
  C  C43  1  0.013900  0.059200  0.849100  1.0  -0.0394
  C  C44  1  0.948700  0.136300  0.788500  1.0  -0.0516
  C  C45  1  0.965800  0.268740  0.862800  1.0  0.7212
  C  C46  1  0.078100  0.855300  0.848900  1.0  0.6707
  C  C47  1  0.280200  0.521600  0.678700  1.0  0.7076
  C  C48  1  0.423400  0.571900  0.695700  1.0  -0.0787
  C  C49  1  0.458700  0.648300  0.628700  1.0  0.028
  C  C50  1  0.593600  0.680300  0.643000  1.0  -0.1165
  C  C51  1  0.692600  0.641500  0.722000  1.0  -0.0476
  C  C52  1  0.658700  0.571200  0.793100  1.0  -0.111
  C  C53  1  0.524600  0.538000  0.779300  1.0  -0.0441
  C  C54  1  0.765200  0.530300  0.880700  1.0  0.7453
  C  C55  1  0.361100  0.703000  0.549000  1.0  0.0448
  C  C56  1  0.272700  0.767900  0.593600  1.0  -0.0892
  C  C57  1  0.196300  0.833200  0.524600  1.0  -0.1265
  C  C58  1  0.202600  0.831700  0.407400  1.0  0.0299
  C  C59  1  0.285200  0.761800  0.360400  1.0  -0.1162
  C  C60  1  0.365200  0.700500  0.431500  1.0  -0.1133
  C  C61  1  0.128300  0.909500  0.338000  1.0  0.0376
  C  C62  1  0.138900  0.033900  0.399500  1.0  -0.1093
  C  C63  1  0.074100  0.110200  0.338600  1.0  -0.0766
  C  C64  1  0.995300  0.063200  0.214100  1.0  -0.1317
  C  C65  1  0.986100  0.940800  0.150900  1.0  -0.0397
  C  C66  1  0.051300  0.863700  0.211500  1.0  -0.0529
  C  C67  1  0.034200  0.731260  0.137200  1.0  0.7202
  C  C68  1  0.921900  0.144700  0.151100  1.0  0.67
  O  O69  1  0.743650  0.483390  0.222550  1.0  -0.6778
  O  O70  1  0.803610  0.515200  0.427810  1.0  -0.538
  O  O71  1  0.051400  0.743470  0.806110  1.0  -0.5965
  O  O72  1  0.175600  0.915060  0.952400  1.0  -0.5058
  O  O73  1  0.907320  0.288040  0.942360  1.0  -0.6961
  O  O74  1  0.038350  0.346810  0.840420  1.0  -0.7288
  O  O75  1  0.120360  0.459790  0.129280  1.0  -0.7477
  O  O76  1  0.265260  0.512210  0.040010  1.0  -0.6614
  O  O77  1  0.256350  0.516610  0.777450  1.0  -0.6783
  O  O78  1  0.196390  0.484800  0.572190  1.0  -0.5384
  O  O79  1  0.948600  0.256530  0.193890  1.0  -0.5961
  O  O80  1  0.824400  0.084940  0.047600  1.0  -0.5062
  O  O81  1  0.092680  0.711960  0.057640  1.0  -0.6946
  O  O82  1  0.961650  0.653190  0.159580  1.0  -0.7257
  O  O83  1  0.879640  0.540210  0.870720  1.0  -0.7455
  O  O84  1  0.734740  0.487790  0.959990  1.0  -0.6621
