# generated using pymatgen
data_DyH11(C11O4)2
_symmetry_space_group_name_H-M   'P 1'
_cell_length_a   10.55900000
_cell_length_b   11.37100000
_cell_length_c   11.67100000
_cell_angle_alpha   104.70000000
_cell_angle_beta   106.81000000
_cell_angle_gamma   96.12700000
_symmetry_Int_Tables_number   1
_chemical_formula_structural   DyH11(C11O4)2
_chemical_formula_sum   'Dy2 H22 C44 O16'
_cell_volume   1272.72257564
_cell_formula_units_Z   2
loop_
 _symmetry_equiv_pos_site_id
 _symmetry_equiv_pos_as_xyz
  1  'x, y, z'
loop_
 _atom_site_type_symbol
 _atom_site_label
 _atom_site_symmetry_multiplicity
 _atom_site_fract_x
 _atom_site_fract_y
 _atom_site_fract_z
 _atom_site_occupancy
 _atom_site_charge
  Dy  Dy1  1  0.100580  0.560960  0.379310  1.0  2.315
  Dy  Dy2  1  0.899420  0.439040  0.620690  1.0  2.3151
  H  H3  1  0.787100  0.135300  0.506600  1.0  0.2302
  H  H4  1  0.617900  0.731100  0.098700  1.0  0.1048
  H  H5  1  0.783600  0.664000  0.228800  1.0  0.1153
  H  H6  1  0.503000  0.490600  0.329800  1.0  0.115
  H  H7  1  0.263400  0.767600  0.171600  1.0  0.1127
  H  H8  1  0.138200  0.877800  0.056900  1.0  0.0985
  H  H9  1  0.287000  0.754400  0.779600  1.0  0.1085
  H  H10  1  0.423300  0.655000  0.899900  1.0  0.1076
  H  H11  1  0.191300  0.066700  0.982400  1.0  0.111
  H  H12  1  0.083200  0.194500  0.880000  1.0  0.1251
  H  H13  1  0.934300  0.908500  0.564800  1.0  0.1149
  H  H14  1  0.212900  0.864700  0.493400  1.0  0.2285
  H  H15  1  0.382100  0.268900  0.901300  1.0  0.105
  H  H16  1  0.216400  0.336000  0.771200  1.0  0.1144
  H  H17  1  0.497000  0.509400  0.670200  1.0  0.1149
  H  H18  1  0.736600  0.232400  0.828400  1.0  0.1127
  H  H19  1  0.861800  0.122200  0.943100  1.0  0.0983
  H  H20  1  0.713000  0.245600  0.220400  1.0  0.1081
  H  H21  1  0.576700  0.345000  0.100100  1.0  0.1081
  H  H22  1  0.808700  0.933300  0.017600  1.0  0.111
  H  H23  1  0.916800  0.805500  0.120000  1.0  0.1256
  H  H24  1  0.065700  0.091500  0.435200  1.0  0.1144
  C  C25  1  0.280030  0.520800  0.180980  1.0  0.7214
  C  C26  1  0.423910  0.571620  0.197630  1.0  -0.0837
  C  C27  1  0.458500  0.647800  0.129900  1.0  0.0274
  C  C28  1  0.594000  0.681200  0.144000  1.0  -0.1596
  C  C29  1  0.694100  0.642600  0.223300  1.0  -0.0581
  C  C30  1  0.660240  0.571660  0.294610  1.0  -0.1572
  C  C31  1  0.525800  0.537490  0.281450  1.0  -0.0481
  C  C32  1  0.768170  0.530570  0.381290  1.0  0.7058
  C  C33  1  0.360600  0.702800  0.050200  1.0  0.0459
  C  C34  1  0.271500  0.767700  0.094400  1.0  -0.1171
  C  C35  1  0.195100  0.832600  0.024700  1.0  -0.1385
  C  C36  1  0.201800  0.831190  0.907290  1.0  0.0336
  C  C37  1  0.285200  0.760500  0.860100  1.0  -0.1201
  C  C38  1  0.365400  0.699200  0.931600  1.0  -0.1176
  C  C39  1  0.127500  0.908950  0.837380  1.0  0.0341
  C  C40  1  0.138600  0.034300  0.898400  1.0  -0.1209
  C  C41  1  0.073900  0.111300  0.837600  1.0  -0.0898
  C  C42  1  0.994800  0.063190  0.712600  1.0  -0.1446
  C  C43  1  0.985300  0.939830  0.649430  1.0  -0.0399
  C  C44  1  0.050820  0.862670  0.710590  1.0  -0.0593
  C  C45  1  0.033710  0.728830  0.636530  1.0  0.7011
  C  C46  1  0.920300  0.144600  0.649400  1.0  0.6696
  C  C47  1  0.719970  0.479200  0.819020  1.0  0.7209
  C  C48  1  0.576090  0.428380  0.802370  1.0  -0.0832
  C  C49  1  0.541500  0.352200  0.870100  1.0  0.0252
  C  C50  1  0.406000  0.318800  0.856000  1.0  -0.1602
  C  C51  1  0.305900  0.357400  0.776700  1.0  -0.0582
  C  C52  1  0.339760  0.428340  0.705390  1.0  -0.1569
  C  C53  1  0.474200  0.462510  0.718550  1.0  -0.0466
  C  C54  1  0.231830  0.469430  0.618710  1.0  0.7053
  C  C55  1  0.639400  0.297200  0.949800  1.0  0.0455
  C  C56  1  0.728500  0.232300  0.905600  1.0  -0.1168
  C  C57  1  0.804900  0.167400  0.975300  1.0  -0.1378
  C  C58  1  0.798200  0.168810  0.092710  1.0  0.0321
  C  C59  1  0.714800  0.239500  0.139900  1.0  -0.123
  C  C60  1  0.634600  0.300800  0.068400  1.0  -0.1168
  C  C61  1  0.872500  0.091050  0.162620  1.0  0.0332
  C  C62  1  0.861400  0.965700  0.101600  1.0  -0.1214
  C  C63  1  0.926100  0.888700  0.162400  1.0  -0.0899
  C  C64  1  0.005200  0.936810  0.287400  1.0  -0.1431
  C  C65  1  0.014700  0.060170  0.350570  1.0  -0.0386
  C  C66  1  0.949180  0.137330  0.289410  1.0  -0.0589
  C  C67  1  0.966290  0.271170  0.363470  1.0  0.7017
  C  C68  1  0.079700  0.855400  0.350600  1.0  0.6688
  O  O69  1  0.255660  0.517200  0.280200  1.0  -0.6638
  O  O70  1  0.196220  0.482600  0.074230  1.0  -0.5641
  O  O71  1  0.946810  0.257180  0.691710  1.0  -0.6117
  O  O72  1  0.822500  0.084000  0.545700  1.0  -0.507
  O  O73  1  0.092890  0.709280  0.556900  1.0  -0.6854
  O  O74  1  0.961320  0.650640  0.659690  1.0  -0.7187
  O  O75  1  0.881950  0.541430  0.369670  1.0  -0.7183
  O  O76  1  0.738670  0.487560  0.461480  1.0  -0.6703
  O  O77  1  0.744340  0.482800  0.719800  1.0  -0.6657
  O  O78  1  0.803780  0.517400  0.925770  1.0  -0.5632
  O  O79  1  0.053190  0.742820  0.308290  1.0  -0.6101
  O  O80  1  0.177500  0.916000  0.454300  1.0  -0.5078
  O  O81  1  0.907110  0.290720  0.443100  1.0  -0.6871
  O  O82  1  0.038680  0.349360  0.340310  1.0  -0.7194
  O  O83  1  0.118050  0.458570  0.630330  1.0  -0.7189
  O  O84  1  0.261330  0.512440  0.538520  1.0  -0.6688
