# generated using pymatgen
data_TbH11(C11O4)2
_symmetry_space_group_name_H-M   'P 1'
_cell_length_a   10.62010000
_cell_length_b   11.40200000
_cell_length_c   11.71300000
_cell_angle_alpha   104.80400000
_cell_angle_beta   106.88300000
_cell_angle_gamma   95.88100000
_symmetry_Int_Tables_number   1
_chemical_formula_structural   TbH11(C11O4)2
_chemical_formula_sum   'Tb2 H22 C44 O16'
_cell_volume   1288.00205900
_cell_formula_units_Z   2
loop_
 _symmetry_equiv_pos_site_id
 _symmetry_equiv_pos_as_xyz
  1  'x, y, z'
loop_
 _atom_site_type_symbol
 _atom_site_label
 _atom_site_symmetry_multiplicity
 _atom_site_fract_x
 _atom_site_fract_y
 _atom_site_fract_z
 _atom_site_occupancy
 _atom_site_charge
  Tb  Tb1  1  0.399410  0.439490  0.620770  1.0  2.2863
  Tb  Tb2  1  0.600590  0.560510  0.379230  1.0  2.2868
  H  H3  1  0.725800  0.861000  0.479600  1.0  0.1605
  H  H4  1  0.882400  0.269800  0.902000  1.0  0.1045
  H  H5  1  0.717400  0.335900  0.770800  1.0  0.1136
  H  H6  1  0.997300  0.508900  0.670900  1.0  0.1149
  H  H7  1  0.236100  0.232400  0.828900  1.0  0.1136
  H  H8  1  0.360900  0.121600  0.943000  1.0  0.0971
  H  H9  1  0.212900  0.244700  0.219900  1.0  0.1087
  H  H10  1  0.077100  0.344500  0.100400  1.0  0.1064
  H  H11  1  0.309600  0.933500  0.017400  1.0  0.1122
  H  H12  1  0.416300  0.805600  0.119600  1.0  0.1274
  H  H13  1  0.565700  0.091300  0.434800  1.0  0.1131
  H  H14  1  0.274200  0.139000  0.520400  1.0  0.1613
  H  H15  1  0.117600  0.730200  0.098000  1.0  0.1051
  H  H16  1  0.282600  0.664100  0.229200  1.0  0.1143
  H  H17  1  0.002700  0.491100  0.329100  1.0  0.1149
  H  H18  1  0.763900  0.767600  0.171100  1.0  0.1137
  H  H19  1  0.639100  0.878400  0.057000  1.0  0.0974
  H  H20  1  0.787100  0.755300  0.780100  1.0  0.109
  H  H21  1  0.922900  0.655500  0.899600  1.0  0.1059
  H  H22  1  0.690400  0.066500  0.982600  1.0  0.1124
  H  H23  1  0.583700  0.194400  0.880400  1.0  0.1276
  H  H24  1  0.434300  0.908700  0.565200  1.0  0.1135
  C  C25  1  0.219980  0.478900  0.819740  1.0  0.701
  C  C26  1  0.076190  0.428300  0.802810  1.0  -0.0773
  C  C27  1  0.041590  0.351940  0.870450  1.0  0.024
  C  C28  1  0.906070  0.319000  0.856400  1.0  -0.1172
  C  C29  1  0.806530  0.357430  0.776920  1.0  -0.0601
  C  C30  1  0.840390  0.428510  0.706120  1.0  -0.1171
  C  C31  1  0.974800  0.462370  0.719180  1.0  -0.0431
  C  C32  1  0.732830  0.469270  0.618970  1.0  0.7039
  C  C33  1  0.139620  0.297320  0.950380  1.0  0.0447
  C  C34  1  0.228200  0.232160  0.905840  1.0  -0.0991
  C  C35  1  0.304500  0.167020  0.975210  1.0  -0.1376
  C  C36  1  0.297840  0.168540  0.092920  1.0  0.0404
  C  C37  1  0.214900  0.238810  0.139820  1.0  -0.1135
  C  C38  1  0.134740  0.300510  0.068740  1.0  -0.1138
  C  C39  1  0.372340  0.090650  0.162640  1.0  0.0313
  C  C40  1  0.361600  0.965600  0.101370  1.0  -0.1211
  C  C41  1  0.425900  0.888720  0.161970  1.0  -0.1013
  C  C42  1  0.505230  0.936570  0.287130  1.0  -0.149
  C  C43  1  0.514750  0.060010  0.350560  1.0  -0.0417
  C  C44  1  0.448900  0.136980  0.289300  1.0  -0.0509
  C  C45  1  0.466360  0.270290  0.363400  1.0  0.6989
  C  C46  1  0.579200  0.855510  0.350250  1.0  0.6662
  C  C47  1  0.780020  0.521100  0.180260  1.0  0.7018
  C  C48  1  0.923810  0.571700  0.197190  1.0  -0.0782
  C  C49  1  0.958410  0.648060  0.129550  1.0  0.0261
  C  C50  1  0.093930  0.681000  0.143600  1.0  -0.1158
  C  C51  1  0.193470  0.642570  0.223080  1.0  -0.0601
  C  C52  1  0.159610  0.571490  0.293880  1.0  -0.1188
  C  C53  1  0.025200  0.537630  0.280820  1.0  -0.0448
  C  C54  1  0.267170  0.530730  0.381030  1.0  0.7049
  C  C55  1  0.860380  0.702680  0.049620  1.0  0.0447
  C  C56  1  0.771800  0.767840  0.094160  1.0  -0.0987
  C  C57  1  0.695500  0.832980  0.024790  1.0  -0.1374
  C  C58  1  0.702160  0.831460  0.907080  1.0  0.0429
  C  C59  1  0.785100  0.761190  0.860180  1.0  -0.1116
  C  C60  1  0.865260  0.699490  0.931260  1.0  -0.1145
  C  C61  1  0.627660  0.909350  0.837360  1.0  0.0314
  C  C62  1  0.638400  0.034400  0.898630  1.0  -0.1197
  C  C63  1  0.574100  0.111280  0.838030  1.0  -0.1001
  C  C64  1  0.494770  0.063430  0.712870  1.0  -0.1497
  C  C65  1  0.485250  0.939990  0.649440  1.0  -0.042
  C  C66  1  0.551100  0.863020  0.710700  1.0  -0.052
  C  C67  1  0.533640  0.729710  0.636600  1.0  0.698
  C  C68  1  0.420800  0.144490  0.649750  1.0  0.6662
  O  O69  1  0.243910  0.483320  0.720660  1.0  -0.6733
  O  O70  1  0.303820  0.516230  0.926390  1.0  -0.5594
  O  O71  1  0.552590  0.742920  0.307780  1.0  -0.5939
  O  O72  1  0.677500  0.915580  0.453650  1.0  -0.5125
  O  O73  1  0.538660  0.348280  0.340330  1.0  -0.7199
  O  O74  1  0.407190  0.289820  0.442670  1.0  -0.6893
  O  O75  1  0.618800  0.458730  0.629880  1.0  -0.7304
  O  O76  1  0.762570  0.512370  0.539180  1.0  -0.6549
  O  O77  1  0.756090  0.516680  0.279340  1.0  -0.6728
  O  O78  1  0.696180  0.483770  0.073610  1.0  -0.5604
  O  O79  1  0.447410  0.257080  0.692220  1.0  -0.5928
  O  O80  1  0.322500  0.084420  0.546350  1.0  -0.51
  O  O81  1  0.461340  0.651720  0.659670  1.0  -0.7176
  O  O82  1  0.592810  0.710180  0.557330  1.0  -0.6886
  O  O83  1  0.381200  0.541270  0.370120  1.0  -0.7286
  O  O84  1  0.237430  0.487630  0.460820  1.0  -0.6561
