# generated using pymatgen
data_Mn(C2N3)3
_symmetry_space_group_name_H-M   'P 1'
_cell_length_a   10.49600000
_cell_length_b   12.39600000
_cell_length_c   16.25400000
_cell_angle_alpha   90.00000000
_cell_angle_beta   90.00000000
_cell_angle_gamma   90.00000000
_symmetry_Int_Tables_number   1
_chemical_formula_structural   Mn(C2N3)3
_chemical_formula_sum   'Mn4 C24 N36'
_cell_volume   2114.78219366
_cell_formula_units_Z   4
loop_
 _symmetry_equiv_pos_site_id
 _symmetry_equiv_pos_as_xyz
  1  'x, y, z'
loop_
 _atom_site_type_symbol
 _atom_site_label
 _atom_site_symmetry_multiplicity
 _atom_site_fract_x
 _atom_site_fract_y
 _atom_site_fract_z
 _atom_site_occupancy
 _atom_site_charge
  Mn  Mn1  1  0.226510  0.048890  0.799880  1.0  0.8818
  Mn  Mn2  1  0.273490  0.951110  0.299880  1.0  0.8848
  Mn  Mn3  1  0.773490  0.548890  0.700120  1.0  0.8832
  Mn  Mn4  1  0.726510  0.451110  0.200120  1.0  0.883
  C  C5  1  0.328900  0.105400  0.984400  1.0  0.6243
  C  C6  1  0.352500  0.062900  0.118700  1.0  0.5574
  C  C7  1  0.086200  0.838000  0.834200  1.0  0.6011
  C  C8  1  0.004200  0.699800  0.759900  1.0  0.6045
  C  C9  1  0.443900  0.858100  0.818800  1.0  0.5544
  C  C10  1  0.582100  0.718600  0.794000  1.0  0.5479
  C  C11  1  0.171100  0.894600  0.484400  1.0  0.6249
  C  C12  1  0.147500  0.937100  0.618700  1.0  0.5573
  C  C13  1  0.413800  0.162000  0.334200  1.0  0.601
  C  C14  1  0.495800  0.300200  0.259900  1.0  0.605
  C  C15  1  0.056100  0.141900  0.318800  1.0  0.5542
  C  C16  1  0.917900  0.281400  0.294000  1.0  0.5468
  C  C17  1  0.671100  0.605400  0.515600  1.0  0.6246
  C  C18  1  0.647500  0.562900  0.381300  1.0  0.557
  C  C19  1  0.913800  0.338000  0.665800  1.0  0.6007
  C  C20  1  0.995800  0.199800  0.740100  1.0  0.6047
  C  C21  1  0.556100  0.358100  0.681200  1.0  0.555
  C  C22  1  0.417900  0.218600  0.706000  1.0  0.547
  C  C23  1  0.828900  0.394600  0.015600  1.0  0.6245
  C  C24  1  0.852500  0.437100  0.881300  1.0  0.5572
  C  C25  1  0.586200  0.662000  0.165800  1.0  0.6
  C  C26  1  0.504200  0.800200  0.240100  1.0  0.6049
  C  C27  1  0.943900  0.641900  0.181200  1.0  0.5536
  C  C28  1  0.082100  0.781400  0.206000  1.0  0.5473
  N  N29  1  0.281200  0.109800  0.922400  1.0  -0.5601
  N  N30  1  0.390900  0.112600  0.052400  1.0  -0.4541
  N  N31  1  0.328500  0.022900  0.178500  1.0  -0.4794
  N  N32  1  0.097500  0.923900  0.857100  1.0  -0.5268
  N  N33  1  0.086500  0.736100  0.812700  1.0  -0.4843
  N  N34  1  0.937500  0.660100  0.713100  1.0  -0.5208
  N  N35  1  0.383200  0.929000  0.808700  1.0  -0.4393
  N  N36  1  0.516500  0.778700  0.844200  1.0  -0.5131
  N  N37  1  0.646400  0.665300  0.760200  1.0  -0.3943
  N  N38  1  0.218800  0.890200  0.422400  1.0  -0.5591
  N  N39  1  0.109100  0.887400  0.552400  1.0  -0.4539
  N  N40  1  0.171500  0.977100  0.678500  1.0  -0.477
  N  N41  1  0.402500  0.076100  0.357100  1.0  -0.5249
  N  N42  1  0.413500  0.263900  0.312700  1.0  -0.4896
  N  N43  1  0.562500  0.339900  0.213100  1.0  -0.5201
  N  N44  1  0.116800  0.071000  0.308700  1.0  -0.4352
  N  N45  1  0.983500  0.221300  0.344200  1.0  -0.513
  N  N46  1  0.853600  0.334700  0.260200  1.0  -0.3949
  N  N47  1  0.718800  0.609800  0.577600  1.0  -0.5598
  N  N48  1  0.609100  0.612600  0.447600  1.0  -0.4532
  N  N49  1  0.671500  0.522900  0.321500  1.0  -0.4796
  N  N50  1  0.902500  0.423900  0.642900  1.0  -0.5272
  N  N51  1  0.913500  0.236100  0.687300  1.0  -0.4878
  N  N52  1  0.062500  0.160100  0.786900  1.0  -0.5212
  N  N53  1  0.616800  0.429000  0.691300  1.0  -0.4401
  N  N54  1  0.483500  0.278700  0.655800  1.0  -0.5123
  N  N55  1  0.353600  0.165300  0.739800  1.0  -0.3957
  N  N56  1  0.781200  0.390200  0.077600  1.0  -0.5591
  N  N57  1  0.890900  0.387400  0.947600  1.0  -0.4534
  N  N58  1  0.828500  0.477100  0.821500  1.0  -0.4804
  N  N59  1  0.597500  0.576100  0.142900  1.0  -0.5251
  N  N60  1  0.586500  0.763900  0.187300  1.0  -0.4876
  N  N61  1  0.437500  0.839900  0.286900  1.0  -0.5221
  N  N62  1  0.883200  0.571000  0.191300  1.0  -0.4364
  N  N63  1  0.016500  0.721300  0.155800  1.0  -0.512
  N  N64  1  0.146400  0.834700  0.239800  1.0  -0.395
