# generated using pymatgen
data_Mn(C2N3)3
_symmetry_space_group_name_H-M   'P 1'
_cell_length_a   10.09800000
_cell_length_b   12.15600000
_cell_length_c   17.11900000
_cell_angle_alpha   90.00000000
_cell_angle_beta   96.32000000
_cell_angle_gamma   90.00000000
_symmetry_Int_Tables_number   1
_chemical_formula_structural   Mn(C2N3)3
_chemical_formula_sum   'Mn4 C24 N36'
_cell_volume   2088.60835654
_cell_formula_units_Z   4
loop_
 _symmetry_equiv_pos_site_id
 _symmetry_equiv_pos_as_xyz
  1  'x, y, z'
loop_
 _atom_site_type_symbol
 _atom_site_label
 _atom_site_symmetry_multiplicity
 _atom_site_fract_x
 _atom_site_fract_y
 _atom_site_fract_z
 _atom_site_occupancy
 _atom_site_charge
  Mn  Mn1  1  0.731100  0.774550  0.212300  1.0  0.7731
  Mn  Mn2  1  0.268900  0.274550  0.287700  1.0  0.7726
  Mn  Mn3  1  0.268900  0.225450  0.787700  1.0  0.7728
  Mn  Mn4  1  0.731100  0.725450  0.712300  1.0  0.7733
  C  C5  1  0.652600  0.037300  0.192860  1.0  0.6099
  C  C6  1  0.822600  0.513100  0.250890  1.0  0.5883
  C  C7  1  0.962500  0.369600  0.279100  1.0  0.674
  C  C8  1  0.758600  0.838600  0.403310  1.0  0.5605
  C  C9  1  0.550000  0.185800  0.236580  1.0  0.6495
  C  C10  1  0.731800  0.816600  0.531670  1.0  0.644
  C  C11  1  0.347400  0.537300  0.307140  1.0  0.61
  C  C12  1  0.177400  0.013100  0.249110  1.0  0.5888
  C  C13  1  0.037500  0.869600  0.220900  1.0  0.6723
  C  C14  1  0.241400  0.338600  0.096690  1.0  0.5599
  C  C15  1  0.450000  0.685800  0.263420  1.0  0.6432
  C  C16  1  0.268200  0.316600  0.968330  1.0  0.6438
  C  C17  1  0.347400  0.962700  0.807140  1.0  0.6107
  C  C18  1  0.177400  0.486900  0.749110  1.0  0.5889
  C  C19  1  0.037500  0.630400  0.720900  1.0  0.6709
  C  C20  1  0.241400  0.161400  0.596690  1.0  0.5601
  C  C21  1  0.450000  0.814200  0.763420  1.0  0.643
  C  C22  1  0.268200  0.183400  0.468330  1.0  0.6444
  C  C23  1  0.652600  0.462700  0.692860  1.0  0.6108
  C  C24  1  0.822600  0.986900  0.750890  1.0  0.5881
  C  C25  1  0.962500  0.130400  0.779100  1.0  0.6741
  C  C26  1  0.758600  0.661400  0.903310  1.0  0.5606
  C  C27  1  0.550000  0.314200  0.736580  1.0  0.6496
  C  C28  1  0.731800  0.683400  0.031670  1.0  0.6443
  N  N29  1  0.673600  0.946400  0.184710  1.0  -0.5299
  N  N30  1  0.791500  0.601900  0.239280  1.0  -0.451
  N  N31  1  0.637300  0.143300  0.195200  1.0  -0.4891
  N  N32  1  0.843400  0.409100  0.264200  1.0  -0.4878
  N  N33  1  0.757100  0.816100  0.339470  1.0  -0.4306
  N  N34  1  0.767000  0.875700  0.474310  1.0  -0.4583
  N  N35  1  0.059200  0.324100  0.293900  1.0  -0.4903
  N  N36  1  0.478600  0.231100  0.272600  1.0  -0.574
  N  N37  1  0.705300  0.774700  0.586700  1.0  -0.5762
  N  N38  1  0.326400  0.446400  0.315290  1.0  -0.5256
  N  N39  1  0.208500  0.101900  0.260720  1.0  -0.4509
  N  N40  1  0.362700  0.643300  0.304800  1.0  -0.4896
  N  N41  1  0.156600  0.909100  0.235800  1.0  -0.4889
  N  N42  1  0.242900  0.316100  0.160530  1.0  -0.43
  N  N43  1  0.233000  0.375700  0.025690  1.0  -0.4621
  N  N44  1  0.940800  0.824100  0.206100  1.0  -0.4885
  N  N45  1  0.521400  0.731100  0.227400  1.0  -0.5833
  N  N46  1  0.294700  0.274700  0.913300  1.0  -0.5739
  N  N47  1  0.326400  0.053600  0.815290  1.0  -0.5288
  N  N48  1  0.208500  0.398100  0.760720  1.0  -0.4508
  N  N49  1  0.362700  0.856700  0.804800  1.0  -0.492
  N  N50  1  0.156600  0.590900  0.735800  1.0  -0.4896
  N  N51  1  0.242900  0.183900  0.660530  1.0  -0.4303
  N  N52  1  0.233000  0.124300  0.525690  1.0  -0.461
  N  N53  1  0.940800  0.675900  0.706100  1.0  -0.4901
  N  N54  1  0.521400  0.768900  0.727400  1.0  -0.5833
  N  N55  1  0.294700  0.225300  0.413300  1.0  -0.5748
  N  N56  1  0.673600  0.553600  0.684710  1.0  -0.5351
  N  N57  1  0.791500  0.898100  0.739280  1.0  -0.451
  N  N58  1  0.637300  0.356700  0.695200  1.0  -0.4916
  N  N59  1  0.843400  0.090900  0.764200  1.0  -0.4884
  N  N60  1  0.757100  0.683900  0.839470  1.0  -0.4313
  N  N61  1  0.767000  0.624300  0.974310  1.0  -0.4574
  N  N62  1  0.059200  0.175900  0.793900  1.0  -0.4922
  N  N63  1  0.478600  0.268900  0.772600  1.0  -0.5751
  N  N64  1  0.705300  0.725300  0.086700  1.0  -0.5782
