# generated using pymatgen
data_Mn(C2N3)3
_symmetry_space_group_name_H-M   'P 1'
_cell_length_a   10.69400000
_cell_length_b   12.09200000
_cell_length_c   16.10800000
_cell_angle_alpha   90.00000000
_cell_angle_beta   90.00000000
_cell_angle_gamma   90.00000000
_symmetry_Int_Tables_number   1
_chemical_formula_structural   Mn(C2N3)3
_chemical_formula_sum   'Mn4 C24 N36'
_cell_volume   2082.95524758
_cell_formula_units_Z   4
loop_
 _symmetry_equiv_pos_site_id
 _symmetry_equiv_pos_as_xyz
  1  'x, y, z'
loop_
 _atom_site_type_symbol
 _atom_site_label
 _atom_site_symmetry_multiplicity
 _atom_site_fract_x
 _atom_site_fract_y
 _atom_site_fract_z
 _atom_site_occupancy
 _atom_site_charge
  Mn  Mn1  1  0.275450  0.554270  0.194510  1.0  0.8814
  Mn  Mn2  1  0.224550  0.445730  0.694510  1.0  0.8829
  Mn  Mn3  1  0.724550  0.054270  0.305490  1.0  0.8818
  Mn  Mn4  1  0.775450  0.945730  0.805490  1.0  0.8823
  C  C5  1  0.167000  0.607900  0.011300  1.0  0.6074
  C  C6  1  0.417100  0.340000  0.161000  1.0  0.6028
  C  C7  1  0.064100  0.354800  0.179600  1.0  0.5135
  C  C8  1  0.921500  0.218600  0.209800  1.0  0.5219
  C  C9  1  0.142400  0.557500  0.876800  1.0  0.5765
  C  C10  1  0.501300  0.206700  0.242100  1.0  0.6093
  C  C11  1  0.333000  0.392100  0.511300  1.0  0.6076
  C  C12  1  0.082900  0.660000  0.661000  1.0  0.6019
  C  C13  1  0.435900  0.645200  0.679600  1.0  0.5134
  C  C14  1  0.578500  0.781400  0.709800  1.0  0.5227
  C  C15  1  0.357600  0.442500  0.376800  1.0  0.577
  C  C16  1  0.998700  0.793300  0.742100  1.0  0.6097
  C  C17  1  0.833000  0.107900  0.488700  1.0  0.6067
  C  C18  1  0.582900  0.840000  0.339000  1.0  0.6029
  C  C19  1  0.935900  0.854800  0.320400  1.0  0.5138
  C  C20  1  0.078500  0.718600  0.290200  1.0  0.5225
  C  C21  1  0.857600  0.057500  0.623200  1.0  0.5768
  C  C22  1  0.498700  0.706700  0.257900  1.0  0.6093
  C  C23  1  0.667000  0.892100  0.988700  1.0  0.6073
  C  C24  1  0.917100  0.160000  0.839000  1.0  0.6026
  C  C25  1  0.564100  0.145200  0.820400  1.0  0.5134
  C  C26  1  0.421500  0.281400  0.790200  1.0  0.5222
  C  C27  1  0.642400  0.942500  0.123200  1.0  0.5767
  C  C28  1  0.001300  0.293300  0.757900  1.0  0.61
  N  N29  1  0.123800  0.427900  0.187100  1.0  -0.4307
  N  N30  1  0.402700  0.426800  0.134900  1.0  -0.5238
  N  N31  1  0.214700  0.617300  0.073000  1.0  -0.5306
  N  N32  1  0.421300  0.237800  0.186400  1.0  -0.5111
  N  N33  1  0.101400  0.607300  0.943500  1.0  -0.4791
  N  N34  1  0.001900  0.266800  0.159200  1.0  -0.4662
  N  N35  1  0.851600  0.170600  0.243400  1.0  -0.3955
  N  N36  1  0.168400  0.517600  0.816100  1.0  -0.4597
  N  N37  1  0.565200  0.170000  0.293100  1.0  -0.5234
  N  N38  1  0.376200  0.572100  0.687100  1.0  -0.4269
  N  N39  1  0.097300  0.573200  0.634900  1.0  -0.5238
  N  N40  1  0.285300  0.382700  0.573000  1.0  -0.53
  N  N41  1  0.078700  0.762200  0.686400  1.0  -0.5114
  N  N42  1  0.398600  0.392700  0.443500  1.0  -0.4782
  N  N43  1  0.498100  0.733200  0.659200  1.0  -0.4665
  N  N44  1  0.648400  0.829400  0.743400  1.0  -0.3945
  N  N45  1  0.331600  0.482400  0.316100  1.0  -0.4593
  N  N46  1  0.934800  0.830000  0.793100  1.0  -0.524
  N  N47  1  0.876200  0.927900  0.312900  1.0  -0.4293
  N  N48  1  0.597300  0.926800  0.365100  1.0  -0.5266
  N  N49  1  0.785300  0.117300  0.427000  1.0  -0.5291
  N  N50  1  0.578700  0.737800  0.313600  1.0  -0.5097
  N  N51  1  0.898600  0.107300  0.556500  1.0  -0.4796
  N  N52  1  0.998100  0.766800  0.340800  1.0  -0.4646
  N  N53  1  0.148400  0.670600  0.256600  1.0  -0.3937
  N  N54  1  0.831600  0.017600  0.683900  1.0  -0.4575
  N  N55  1  0.434800  0.670000  0.206900  1.0  -0.5212
  N  N56  1  0.623800  0.072100  0.812900  1.0  -0.4262
  N  N57  1  0.902700  0.073200  0.865100  1.0  -0.5272
  N  N58  1  0.714700  0.882700  0.927000  1.0  -0.5277
  N  N59  1  0.921300  0.262200  0.813600  1.0  -0.5134
  N  N60  1  0.601400  0.892700  0.056500  1.0  -0.4783
  N  N61  1  0.501900  0.233200  0.840800  1.0  -0.4649
  N  N62  1  0.351600  0.329400  0.756600  1.0  -0.3943
  N  N63  1  0.668400  0.982400  0.183900  1.0  -0.4573
  N  N64  1  0.065200  0.330000  0.706900  1.0  -0.5211
