# generated using pymatgen
data_Mn(C2N3)3
_symmetry_space_group_name_H-M   'P 1'
_cell_length_a   10.39100000
_cell_length_b   15.81000000
_cell_length_c   15.48200000
_cell_angle_alpha   90.00000000
_cell_angle_beta   127.56000000
_cell_angle_gamma   90.00000000
_symmetry_Int_Tables_number   1
_chemical_formula_structural   Mn(C2N3)3
_chemical_formula_sum   'Mn4 C24 N36'
_cell_volume   2016.19985734
_cell_formula_units_Z   4
loop_
 _symmetry_equiv_pos_site_id
 _symmetry_equiv_pos_as_xyz
  1  'x, y, z'
loop_
 _atom_site_type_symbol
 _atom_site_label
 _atom_site_symmetry_multiplicity
 _atom_site_fract_x
 _atom_site_fract_y
 _atom_site_fract_z
 _atom_site_occupancy
 _atom_site_charge
  Mn  Mn1  1  0.416400  0.183860  0.184950  1.0  0.9995
  Mn  Mn2  1  0.583600  0.683860  0.315050  1.0  0.9949
  Mn  Mn3  1  0.583600  0.816140  0.815050  1.0  0.9955
  Mn  Mn4  1  0.416400  0.316140  0.684950  1.0  0.9998
  C  C5  1  0.471300  0.361800  0.322100  1.0  0.4985
  C  C6  1  0.560000  0.496100  0.390700  1.0  0.6683
  C  C7  1  0.495100  0.303800  0.044400  1.0  0.5793
  C  C8  1  0.799100  0.189200  0.397100  1.0  0.5249
  C  C9  1  0.033700  0.255300  0.535700  1.0  0.4817
  C  C10  1  0.464500  0.371200  0.900900  1.0  0.5257
  C  C11  1  0.528700  0.861800  0.177900  1.0  0.4983
  C  C12  1  0.440000  0.996100  0.109300  1.0  0.6688
  C  C13  1  0.504900  0.803800  0.455600  1.0  0.5786
  C  C14  1  0.200900  0.689200  0.102900  1.0  0.5264
  C  C15  1  0.966300  0.755300  0.964300  1.0  0.4811
  C  C16  1  0.535500  0.871200  0.599100  1.0  0.5274
  C  C17  1  0.528700  0.638200  0.677900  1.0  0.4988
  C  C18  1  0.440000  0.503900  0.609300  1.0  0.6681
  C  C19  1  0.504900  0.696200  0.955600  1.0  0.5784
  C  C20  1  0.200900  0.810800  0.602900  1.0  0.5265
  C  C21  1  0.966300  0.744700  0.464300  1.0  0.4808
  C  C22  1  0.535500  0.628800  0.099100  1.0  0.5277
  C  C23  1  0.471300  0.138200  0.822100  1.0  0.4991
  C  C24  1  0.560000  0.003900  0.890700  1.0  0.6678
  C  C25  1  0.495100  0.196200  0.544400  1.0  0.5791
  C  C26  1  0.799100  0.310800  0.897100  1.0  0.5248
  C  C27  1  0.033700  0.244700  0.035700  1.0  0.4814
  C  C28  1  0.464500  0.128800  0.400900  1.0  0.5259
  N  N29  1  0.444600  0.303000  0.272100  1.0  -0.4155
  N  N30  1  0.402700  0.384600  0.810000  1.0  -0.5423
  N  N31  1  0.609800  0.561800  0.396600  1.0  -0.5182
  N  N32  1  0.502600  0.422900  0.392500  1.0  -0.4578
  N  N33  1  0.688000  0.163300  0.308400  1.0  -0.5162
  N  N34  1  0.464500  0.259000  0.084900  1.0  -0.4306
  N  N35  1  0.149200  0.297000  0.575300  1.0  -0.5342
  N  N36  1  0.902000  0.208800  0.497500  1.0  -0.4461
  N  N37  1  0.545900  0.363100  0.008200  1.0  -0.414
  N  N38  1  0.555400  0.803000  0.227900  1.0  -0.4151
  N  N39  1  0.597300  0.884600  0.690000  1.0  -0.541
  N  N40  1  0.390200  0.061800  0.103400  1.0  -0.5182
  N  N41  1  0.497400  0.922900  0.107500  1.0  -0.459
  N  N42  1  0.312000  0.663300  0.191600  1.0  -0.5172
  N  N43  1  0.535500  0.759000  0.415100  1.0  -0.4304
  N  N44  1  0.850800  0.797000  0.924700  1.0  -0.5338
  N  N45  1  0.098000  0.708800  0.002500  1.0  -0.4489
  N  N46  1  0.454100  0.863100  0.491800  1.0  -0.4146
  N  N47  1  0.555400  0.697000  0.727900  1.0  -0.4149
  N  N48  1  0.597300  0.615400  0.190000  1.0  -0.5387
  N  N49  1  0.390200  0.438200  0.603400  1.0  -0.5178
  N  N50  1  0.497400  0.577100  0.607500  1.0  -0.4586
  N  N51  1  0.312000  0.836700  0.691600  1.0  -0.5201
  N  N52  1  0.535500  0.741000  0.915100  1.0  -0.4342
  N  N53  1  0.850800  0.703000  0.424700  1.0  -0.532
  N  N54  1  0.098000  0.791200  0.502500  1.0  -0.4487
  N  N55  1  0.454100  0.636900  0.991800  1.0  -0.4149
  N  N56  1  0.444600  0.197000  0.772100  1.0  -0.415
  N  N57  1  0.402700  0.115400  0.310000  1.0  -0.5398
  N  N58  1  0.609800  0.938200  0.896600  1.0  -0.5197
  N  N59  1  0.502600  0.077100  0.892500  1.0  -0.4576
  N  N60  1  0.688000  0.336700  0.808400  1.0  -0.5177
  N  N61  1  0.464500  0.241000  0.584900  1.0  -0.4314
  N  N62  1  0.149200  0.203000  0.075300  1.0  -0.5337
  N  N63  1  0.902000  0.291200  0.997500  1.0  -0.4464
  N  N64  1  0.545900  0.136900  0.508200  1.0  -0.4129
