# generated using pymatgen
data_H27Pb2C42(NO5)3
_symmetry_space_group_name_H-M   'P 1'
_cell_length_a   17.47220000
_cell_length_b   17.47220000
_cell_length_c   14.45080000
_cell_angle_alpha   90.00000000
_cell_angle_beta   90.00000000
_cell_angle_gamma   90.00000000
_symmetry_Int_Tables_number   1
_chemical_formula_structural   H27Pb2C42(NO5)3
_chemical_formula_sum   'H108 Pb8 C168 N12 O60'
_cell_volume   4411.50803976
_cell_formula_units_Z   4
loop_
 _symmetry_equiv_pos_site_id
 _symmetry_equiv_pos_as_xyz
  1  'x, y, z'
loop_
 _atom_site_type_symbol
 _atom_site_label
 _atom_site_symmetry_multiplicity
 _atom_site_fract_x
 _atom_site_fract_y
 _atom_site_fract_z
 _atom_site_occupancy
 _atom_site_charge
  H  H1  1  0.036200  0.040000  0.268200  1.0  0.1172
  H  H2  1  0.089500  0.239600  0.142500  1.0  0.1269
  H  H3  1  0.156800  0.200200  0.403500  1.0  0.1372
  H  H4  1  0.177100  0.404300  0.229700  1.0  0.1476
  H  H5  1  0.113800  0.356500  0.179000  1.0  0.1244
  H  H6  1  0.316600  0.319000  0.213800  1.0  0.1295
  H  H7  1  0.394800  0.284900  0.101100  1.0  0.0939
  H  H8  1  0.364200  0.280800  0.953800  1.0  0.1325
  H  H9  1  0.240100  0.307200  0.916100  1.0  0.0846
  H  H10  1  0.843600  0.703600  0.284300  1.0  0.138
  H  H11  1  0.842900  0.474700  0.283100  1.0  0.1269
  H  H12  1  0.029100  0.588400  0.372000  1.0  0.1429
  H  H13  1  0.899200  0.394700  0.392100  1.0  0.1283
  H  H14  1  0.977800  0.351800  0.397600  1.0  0.1424
  H  H15  1  0.889000  0.244400  0.338400  1.0  0.1493
  H  H16  1  0.857800  0.177500  0.208800  1.0  0.0992
  H  H17  1  0.872300  0.224300  0.066900  1.0  0.1112
  H  H18  1  0.918400  0.341200  0.051600  1.0  0.0924
  H  H19  1  0.549900  0.486700  0.634200  1.0  0.1055
  H  H20  1  0.747200  0.410300  0.745800  1.0  0.1479
  H  H21  1  0.745800  0.499200  0.490600  1.0  0.1184
  H  H22  1  0.844100  0.339800  0.662000  1.0  0.1093
  H  H23  1  0.878500  0.408300  0.718900  1.0  0.11
  H  H24  1  0.982400  0.478200  0.587000  1.0  0.1448
  H  H25  1  0.103600  0.441400  0.534100  1.0  0.1019
  H  H26  1  0.142100  0.327000  0.521500  1.0  0.1314
  H  H27  1  0.066600  0.234100  0.571900  1.0  0.1028
  H  H28  1  0.963800  0.960000  0.768200  1.0  0.1171
  H  H29  1  0.910500  0.760400  0.642500  1.0  0.1264
  H  H30  1  0.843200  0.799800  0.903500  1.0  0.1375
  H  H31  1  0.822900  0.595700  0.729700  1.0  0.1483
  H  H32  1  0.886200  0.643500  0.679000  1.0  0.1241
  H  H33  1  0.683400  0.681000  0.713800  1.0  0.1294
  H  H34  1  0.605200  0.715100  0.601100  1.0  0.0915
  H  H35  1  0.635800  0.719200  0.453800  1.0  0.1327
  H  H36  1  0.759900  0.692800  0.416100  1.0  0.0846
  H  H37  1  0.156400  0.296400  0.784300  1.0  0.138
  H  H38  1  0.157100  0.525300  0.783100  1.0  0.1268
  H  H39  1  0.970900  0.411600  0.872000  1.0  0.143
  H  H40  1  0.100800  0.605300  0.892100  1.0  0.1293
  H  H41  1  0.022200  0.648200  0.897600  1.0  0.1425
  H  H42  1  0.111000  0.755600  0.838400  1.0  0.1496
  H  H43  1  0.142200  0.822500  0.708800  1.0  0.0992
  H  H44  1  0.127700  0.775700  0.566900  1.0  0.1111
  H  H45  1  0.081600  0.658800  0.551600  1.0  0.0935
  H  H46  1  0.450100  0.513300  0.134200  1.0  0.1055
  H  H47  1  0.252800  0.589700  0.245800  1.0  0.1477
  H  H48  1  0.254200  0.500800  0.990600  1.0  0.1184
  H  H49  1  0.155900  0.660200  0.162000  1.0  0.1095
  H  H50  1  0.121500  0.591700  0.218900  1.0  0.1098
  H  H51  1  0.017600  0.521800  0.087000  1.0  0.1447
  H  H52  1  0.896400  0.558600  0.034100  1.0  0.1015
  H  H53  1  0.857900  0.673000  0.021500  1.0  0.1305
  H  H54  1  0.933400  0.765900  0.071900  1.0  0.1027
  H  H55  1  0.960000  0.036200  0.518200  1.0  0.1158
  H  H56  1  0.760400  0.089500  0.392500  1.0  0.1264
  H  H57  1  0.799800  0.156800  0.653500  1.0  0.1378
  H  H58  1  0.595700  0.177100  0.479700  1.0  0.1474
  H  H59  1  0.643500  0.113800  0.429000  1.0  0.1272
  H  H60  1  0.681000  0.316600  0.463800  1.0  0.1297
  H  H61  1  0.715100  0.394800  0.351100  1.0  0.0904
  H  H62  1  0.719200  0.364200  0.203800  1.0  0.1324
  H  H63  1  0.692800  0.240100  0.166100  1.0  0.0846
  H  H64  1  0.296400  0.843600  0.534300  1.0  0.1367
  H  H65  1  0.525300  0.842900  0.533100  1.0  0.1268
  H  H66  1  0.411600  0.029100  0.622000  1.0  0.1432
  H  H67  1  0.605300  0.899200  0.642100  1.0  0.1282
  H  H68  1  0.648200  0.977800  0.647600  1.0  0.1418
  H  H69  1  0.755600  0.889000  0.588400  1.0  0.1499
  H  H70  1  0.822500  0.857800  0.458800  1.0  0.099
  H  H71  1  0.775700  0.872300  0.316900  1.0  0.1106
  H  H72  1  0.658800  0.918400  0.301600  1.0  0.0919
  H  H73  1  0.513300  0.549900  0.884200  1.0  0.103
  H  H74  1  0.589700  0.747200  0.995800  1.0  0.1472
  H  H75  1  0.500800  0.745800  0.740600  1.0  0.1186
  H  H76  1  0.660200  0.844100  0.912000  1.0  0.1048
  H  H77  1  0.591700  0.878500  0.968900  1.0  0.1097
  H  H78  1  0.521800  0.982400  0.837000  1.0  0.1446
  H  H79  1  0.558600  0.103600  0.784100  1.0  0.1027
  H  H80  1  0.673000  0.142100  0.771500  1.0  0.1306
  H  H81  1  0.765900  0.066600  0.821900  1.0  0.1035
  H  H82  1  0.040000  0.963800  0.018200  1.0  0.1155
  H  H83  1  0.239600  0.910500  0.892500  1.0  0.1265
  H  H84  1  0.200200  0.843200  0.153500  1.0  0.138
  H  H85  1  0.404300  0.822900  0.979700  1.0  0.146
  H  H86  1  0.356500  0.886200  0.929000  1.0  0.1273
  H  H87  1  0.319000  0.683400  0.963800  1.0  0.1291
  H  H88  1  0.284900  0.605200  0.851100  1.0  0.0899
  H  H89  1  0.280800  0.635800  0.703800  1.0  0.1328
  H  H90  1  0.307200  0.759900  0.666100  1.0  0.085
  H  H91  1  0.703600  0.156400  0.034300  1.0  0.1368
  H  H92  1  0.474700  0.157100  0.033100  1.0  0.1271
  H  H93  1  0.588400  0.970900  0.122000  1.0  0.1453
  H  H94  1  0.394700  0.100800  0.142100  1.0  0.127
  H  H95  1  0.351800  0.022200  0.147600  1.0  0.1426
  H  H96  1  0.244400  0.111000  0.088400  1.0  0.1495
  H  H97  1  0.177500  0.142200  0.958800  1.0  0.0991
  H  H98  1  0.224300  0.127700  0.816900  1.0  0.1105
  H  H99  1  0.341200  0.081600  0.801600  1.0  0.0938
  H  H100  1  0.486700  0.450100  0.384200  1.0  0.1031
  H  H101  1  0.410300  0.252800  0.495800  1.0  0.1476
  H  H102  1  0.499200  0.254200  0.240600  1.0  0.1186
  H  H103  1  0.339800  0.155900  0.412000  1.0  0.1097
  H  H104  1  0.408300  0.121500  0.468900  1.0  0.1089
  H  H105  1  0.478200  0.017600  0.337000  1.0  0.1438
  H  H106  1  0.441400  0.896400  0.284100  1.0  0.102
  H  H107  1  0.327000  0.857900  0.271500  1.0  0.1302
  H  H108  1  0.234100  0.933400  0.321900  1.0  0.1029
  Pb  Pb109  1  0.033760  0.876440  0.397100  1.0  1.2132
  Pb  Pb110  1  0.596360  0.587660  0.257930  1.0  1.1841
  Pb  Pb111  1  0.966240  0.123560  0.897100  1.0  1.2135
  Pb  Pb112  1  0.403650  0.412340  0.757930  1.0  1.1855
  Pb  Pb113  1  0.123560  0.033760  0.647100  1.0  1.2134
  Pb  Pb114  1  0.412340  0.596360  0.507930  1.0  1.1842
  Pb  Pb115  1  0.876440  0.966240  0.147100  1.0  1.2126
  Pb  Pb116  1  0.587660  0.403650  0.007930  1.0  1.1849
  C  C117  1  0.098000  0.112700  0.346700  1.0  -0.1111
  C  C118  1  0.058900  0.088100  0.269300  1.0  0.0028
  C  C119  1  0.053800  0.136300  0.192900  1.0  -0.1296
  C  C120  1  0.090200  0.208500  0.194700  1.0  -0.1285
  C  C121  1  0.126800  0.232700  0.273800  1.0  0.295
  C  C122  1  0.131400  0.184300  0.350300  1.0  -0.1189
  C  C123  1  0.103800  0.058700  0.428600  1.0  0.7074
  C  C124  1  0.010300  0.112300  0.108900  1.0  0.725
  C  C125  1  0.164100  0.353700  0.207100  1.0  0.051
  C  C126  1  0.220400  0.330600  0.136300  1.0  0.1521
  C  C127  1  0.297900  0.315700  0.153700  1.0  -0.202
  C  C128  1  0.344700  0.296800  0.084900  1.0  -0.0755
  C  C129  1  0.328200  0.293100  0.998800  1.0  -0.0927
  C  C130  1  0.254300  0.308500  0.978100  1.0  0.1985
  C  C131  1  0.941500  0.658000  0.331600  1.0  -0.1028
  C  C132  1  0.868800  0.657700  0.295900  1.0  -0.0537
  C  C133  1  0.833000  0.588200  0.277100  1.0  -0.1194
  C  C134  1  0.868500  0.520600  0.293500  1.0  -0.1601
  C  C135  1  0.943400  0.520300  0.326000  1.0  0.2329
  C  C136  1  0.979900  0.588600  0.347400  1.0  -0.1241
  C  C137  1  0.979500  0.732400  0.352400  1.0  0.686
  C  C138  1  0.750100  0.590800  0.246600  1.0  0.6836
  C  C139  1  0.946000  0.383800  0.358400  1.0  -0.0626
  C  C140  1  0.926000  0.339800  0.272600  1.0  0.1762
  C  C141  1  0.896200  0.266400  0.280400  1.0  -0.2026
  C  C142  1  0.877500  0.226600  0.201900  1.0  -0.0586
  C  C143  1  0.885600  0.253100  0.118600  1.0  -0.0313
  C  C144  1  0.913200  0.321700  0.111100  1.0  0.231
  C  C145  1  0.642000  0.502200  0.549200  1.0  -0.1147
  C  C146  1  0.602500  0.479100  0.630000  1.0  -0.0016
  C  C147  1  0.640900  0.445700  0.702000  1.0  -0.0777
  C  C148  1  0.720700  0.431900  0.696500  1.0  -0.1706
  C  C149  1  0.758100  0.451700  0.615000  1.0  0.3005
  C  C150  1  0.719300  0.486200  0.544100  1.0  -0.1009
  C  C151  1  0.599900  0.539800  0.471600  1.0  0.7173
  C  C152  1  0.598500  0.421800  0.787200  1.0  0.7449
  C  C153  1  0.873300  0.386800  0.657300  1.0  0.0907
  C  C154  1  0.949200  0.370700  0.618500  1.0  0.2192
  C  C155  1  0.996800  0.427000  0.586700  1.0  -0.2047
  C  C156  1  0.070400  0.402800  0.552900  1.0  -0.067
  C  C157  1  0.094100  0.337800  0.546200  1.0  -0.0914
  C  C158  1  0.049000  0.284300  0.575300  1.0  0.2153
  C  C159  1  0.902000  0.887300  0.846700  1.0  -0.1113
  C  C160  1  0.941100  0.911900  0.769300  1.0  0.0042
  C  C161  1  0.946200  0.863700  0.692900  1.0  -0.1299
  C  C162  1  0.909800  0.791500  0.694700  1.0  -0.1288
  C  C163  1  0.873200  0.767300  0.773800  1.0  0.2963
  C  C164  1  0.868600  0.815700  0.850300  1.0  -0.119
  C  C165  1  0.896200  0.941300  0.928600  1.0  0.7071
  C  C166  1  0.989700  0.887700  0.608900  1.0  0.7258
  C  C167  1  0.835900  0.646300  0.707100  1.0  0.0516
  C  C168  1  0.779600  0.669400  0.636300  1.0  0.1523
  C  C169  1  0.702100  0.684300  0.653700  1.0  -0.2013
  C  C170  1  0.655300  0.703200  0.584900  1.0  -0.0767
  C  C171  1  0.671800  0.706900  0.498800  1.0  -0.092
  C  C172  1  0.745700  0.691500  0.478100  1.0  0.1994
  C  C173  1  0.058500  0.342000  0.831600  1.0  -0.1029
  C  C174  1  0.131200  0.342300  0.795900  1.0  -0.0543
  C  C175  1  0.167000  0.411800  0.777100  1.0  -0.1177
  C  C176  1  0.131500  0.479400  0.793500  1.0  -0.1614
  C  C177  1  0.056600  0.479700  0.826000  1.0  0.2324
  C  C178  1  0.020100  0.411400  0.847400  1.0  -0.1241
  C  C179  1  0.020500  0.267600  0.852400  1.0  0.6867
  C  C180  1  0.249900  0.409200  0.746600  1.0  0.6833
  C  C181  1  0.054000  0.616200  0.858400  1.0  -0.0619
  C  C182  1  0.074000  0.660200  0.772600  1.0  0.1761
  C  C183  1  0.103800  0.733600  0.780400  1.0  -0.2028
  C  C184  1  0.122500  0.773400  0.701900  1.0  -0.057
  C  C185  1  0.114400  0.746900  0.618600  1.0  -0.0314
  C  C186  1  0.086800  0.678300  0.611100  1.0  0.2315
  C  C187  1  0.358000  0.497800  0.049200  1.0  -0.1142
  C  C188  1  0.397500  0.520900  0.130000  1.0  -0.001
  C  C189  1  0.359100  0.554300  0.202000  1.0  -0.0782
  C  C190  1  0.279300  0.568100  0.196500  1.0  -0.171
  C  C191  1  0.241900  0.548300  0.115000  1.0  0.3008
  C  C192  1  0.280700  0.513800  0.044100  1.0  -0.1003
  C  C193  1  0.400100  0.460200  0.971600  1.0  0.7168
  C  C194  1  0.401500  0.578200  0.287200  1.0  0.7444
  C  C195  1  0.126700  0.613200  0.157300  1.0  0.0909
  C  C196  1  0.050800  0.629300  0.118500  1.0  0.2205
  C  C197  1  0.003200  0.573000  0.086700  1.0  -0.2028
  C  C198  1  0.929600  0.597200  0.052900  1.0  -0.0733
  C  C199  1  0.905900  0.662200  0.046200  1.0  -0.0955
  C  C200  1  0.951000  0.715700  0.075300  1.0  0.2164
  C  C201  1  0.887300  0.098000  0.596700  1.0  -0.1088
  C  C202  1  0.911900  0.058900  0.519300  1.0  0.0009
  C  C203  1  0.863700  0.053800  0.442900  1.0  -0.1297
  C  C204  1  0.791500  0.090200  0.444700  1.0  -0.1293
  C  C205  1  0.767300  0.126800  0.523800  1.0  0.296
  C  C206  1  0.815700  0.131400  0.600300  1.0  -0.1194
  C  C207  1  0.941300  0.103800  0.678600  1.0  0.7059
  C  C208  1  0.887700  0.010300  0.358900  1.0  0.7262
  C  C209  1  0.646300  0.164100  0.457100  1.0  0.0515
  C  C210  1  0.669400  0.220400  0.386300  1.0  0.1522
  C  C211  1  0.684300  0.297900  0.403700  1.0  -0.2014
  C  C212  1  0.703200  0.344700  0.334900  1.0  -0.0728
  C  C213  1  0.706900  0.328200  0.248800  1.0  -0.091
  C  C214  1  0.691500  0.254300  0.228100  1.0  0.1994
  C  C215  1  0.342000  0.941500  0.581600  1.0  -0.1045
  C  C216  1  0.342300  0.868800  0.545900  1.0  -0.0533
  C  C217  1  0.411800  0.833000  0.527100  1.0  -0.1158
  C  C218  1  0.479400  0.868500  0.543500  1.0  -0.1592
  C  C219  1  0.479700  0.943400  0.576000  1.0  0.2324
  C  C220  1  0.411400  0.979900  0.597400  1.0  -0.1265
  C  C221  1  0.267600  0.979500  0.602400  1.0  0.6838
  C  C222  1  0.409200  0.750100  0.496600  1.0  0.6866
  C  C223  1  0.616200  0.946000  0.608400  1.0  -0.06
  C  C224  1  0.660200  0.926000  0.522600  1.0  0.1762
  C  C225  1  0.733600  0.896200  0.530400  1.0  -0.2032
  C  C226  1  0.773400  0.877500  0.451900  1.0  -0.0598
  C  C227  1  0.746900  0.885600  0.368600  1.0  -0.0322
  C  C228  1  0.678300  0.913200  0.361100  1.0  0.2299
  C  C229  1  0.497800  0.642000  0.799200  1.0  -0.1173
  C  C230  1  0.520900  0.602500  0.880000  1.0  0.0014
  C  C231  1  0.554300  0.640900  0.952000  1.0  -0.081
  C  C232  1  0.568100  0.720700  0.946500  1.0  -0.1722
  C  C233  1  0.548300  0.758100  0.865000  1.0  0.299
  C  C234  1  0.513800  0.719300  0.794100  1.0  -0.104
  C  C235  1  0.460200  0.599900  0.721600  1.0  0.7181
  C  C236  1  0.578200  0.598500  0.037200  1.0  0.7481
  C  C237  1  0.613200  0.873300  0.907300  1.0  0.0901
  C  C238  1  0.629300  0.949200  0.868500  1.0  0.2203
  C  C239  1  0.573000  0.996800  0.836700  1.0  -0.2031
  C  C240  1  0.597200  0.070400  0.802900  1.0  -0.0713
  C  C241  1  0.662200  0.094100  0.796200  1.0  -0.0884
  C  C242  1  0.715700  0.049000  0.825300  1.0  0.215
  C  C243  1  0.112700  0.902000  0.096700  1.0  -0.1082
  C  C244  1  0.088100  0.941100  0.019300  1.0  0.0028
  C  C245  1  0.136300  0.946200  0.942900  1.0  -0.1298
  C  C246  1  0.208500  0.909800  0.944700  1.0  -0.1296
  C  C247  1  0.232700  0.873200  0.023800  1.0  0.2966
  C  C248  1  0.184300  0.868600  0.100300  1.0  -0.1181
  C  C249  1  0.058700  0.896200  0.178600  1.0  0.706
  C  C250  1  0.112300  0.989700  0.858900  1.0  0.7262
  C  C251  1  0.353700  0.835900  0.957100  1.0  0.0508
  C  C252  1  0.330600  0.779600  0.886300  1.0  0.1529
  C  C253  1  0.315700  0.702100  0.903700  1.0  -0.2013
  C  C254  1  0.296800  0.655300  0.834900  1.0  -0.0752
  C  C255  1  0.293100  0.671800  0.748800  1.0  -0.0912
  C  C256  1  0.308500  0.745700  0.728100  1.0  0.1988
  C  C257  1  0.658000  0.058500  0.081600  1.0  -0.1031
  C  C258  1  0.657700  0.131200  0.045900  1.0  -0.0547
  C  C259  1  0.588200  0.167000  0.027100  1.0  -0.1162
  C  C260  1  0.520600  0.131500  0.043500  1.0  -0.1596
  C  C261  1  0.520300  0.056600  0.076000  1.0  0.2328
  C  C262  1  0.588600  0.020100  0.097400  1.0  -0.1269
  C  C263  1  0.732400  0.020500  0.102400  1.0  0.6851
  C  C264  1  0.590800  0.249900  0.996600  1.0  0.6841
  C  C265  1  0.383800  0.054000  0.108400  1.0  -0.0597
  C  C266  1  0.339800  0.074000  0.022600  1.0  0.1768
  C  C267  1  0.266400  0.103800  0.030400  1.0  -0.2032
  C  C268  1  0.226600  0.122500  0.951900  1.0  -0.0614
  C  C269  1  0.253100  0.114400  0.868600  1.0  -0.0313
  C  C270  1  0.321700  0.086800  0.861100  1.0  0.2302
  C  C271  1  0.502200  0.358000  0.299200  1.0  -0.117
  C  C272  1  0.479100  0.397500  0.380000  1.0  0.0007
  C  C273  1  0.445700  0.359100  0.452000  1.0  -0.0795
  C  C274  1  0.431900  0.279300  0.446500  1.0  -0.1735
  C  C275  1  0.451700  0.241900  0.365000  1.0  0.2987
  C  C276  1  0.486200  0.280700  0.294100  1.0  -0.1026
  C  C277  1  0.539800  0.400100  0.221600  1.0  0.7186
  C  C278  1  0.421800  0.401500  0.537200  1.0  0.7477
  C  C279  1  0.386800  0.126700  0.407300  1.0  0.0902
  C  C280  1  0.370700  0.050800  0.368500  1.0  0.2189
  C  C281  1  0.427000  0.003200  0.336700  1.0  -0.2036
  C  C282  1  0.402800  0.929600  0.302900  1.0  -0.0713
  C  C283  1  0.337800  0.905900  0.296200  1.0  -0.091
  C  C284  1  0.284300  0.951000  0.325300  1.0  0.2154
  N  N285  1  0.198700  0.325900  0.041500  1.0  -0.417
  N  N286  1  0.935600  0.368400  0.183300  1.0  -0.3933
  N  N287  1  0.975000  0.296400  0.611800  1.0  -0.408
  N  N288  1  0.801300  0.674100  0.541500  1.0  -0.4184
  N  N289  1  0.064400  0.631600  0.683300  1.0  -0.3922
  N  N290  1  0.025000  0.703600  0.111800  1.0  -0.409
  N  N291  1  0.674100  0.198700  0.291500  1.0  -0.4163
  N  N292  1  0.631600  0.935600  0.433300  1.0  -0.3926
  N  N293  1  0.703600  0.975000  0.861800  1.0  -0.4076
  N  N294  1  0.325900  0.801300  0.791500  1.0  -0.4182
  N  N295  1  0.368400  0.064400  0.933300  1.0  -0.3939
  N  N296  1  0.296400  0.025000  0.361800  1.0  -0.4087
  O  O297  1  0.092400  0.989400  0.416900  1.0  -0.6565
  O  O298  1  0.123400  0.087500  0.506000  1.0  -0.6332
  O  O299  1  0.959500  0.060700  0.117800  1.0  -0.687
  O  O300  1  0.024500  0.143800  0.033100  1.0  -0.5964
  O  O301  1  0.161600  0.301600  0.283600  1.0  -0.2395
  O  O302  1  0.941200  0.794900  0.337300  1.0  -0.6046
  O  O303  1  0.044300  0.737500  0.386800  1.0  -0.5869
  O  O304  1  0.712600  0.652900  0.253500  1.0  -0.6064
  O  O305  1  0.716100  0.530800  0.222600  1.0  -0.6049
  O  O306  1  0.985400  0.454500  0.341900  1.0  -0.2597
  O  O307  1  0.634900  0.546200  0.395400  1.0  -0.6212
  O  O308  1  0.533500  0.561700  0.483900  1.0  -0.6315
  O  O309  1  0.529300  0.405200  0.778900  1.0  -0.7027
  O  O310  1  0.632800  0.423000  0.862900  1.0  -0.61
  O  O311  1  0.834700  0.439300  0.598900  1.0  -0.2583
  O  O312  1  0.907600  0.010600  0.916900  1.0  -0.6578
  O  O313  1  0.876600  0.912500  0.006000  1.0  -0.6326
  O  O314  1  0.040500  0.939300  0.617800  1.0  -0.6864
  O  O315  1  0.975500  0.856200  0.533100  1.0  -0.5963
  O  O316  1  0.838400  0.698400  0.783600  1.0  -0.2405
  O  O317  1  0.058800  0.205100  0.837300  1.0  -0.604
  O  O318  1  0.955700  0.262500  0.886800  1.0  -0.5883
  O  O319  1  0.287400  0.347100  0.753500  1.0  -0.6073
  O  O320  1  0.283900  0.469200  0.722600  1.0  -0.6057
  O  O321  1  0.014600  0.545500  0.841900  1.0  -0.2596
  O  O322  1  0.365100  0.453800  0.895400  1.0  -0.6203
  O  O323  1  0.466500  0.438300  0.983900  1.0  -0.6314
  O  O324  1  0.470700  0.594800  0.278900  1.0  -0.7012
  O  O325  1  0.367200  0.577000  0.362900  1.0  -0.608
  O  O326  1  0.165300  0.560700  0.098900  1.0  -0.2575
  O  O327  1  0.010600  0.092400  0.666900  1.0  -0.656
  O  O328  1  0.912500  0.123400  0.756000  1.0  -0.6333
  O  O329  1  0.939300  0.959500  0.367800  1.0  -0.6875
  O  O330  1  0.856200  0.024500  0.283100  1.0  -0.5952
  O  O331  1  0.698400  0.161600  0.533600  1.0  -0.2415
  O  O332  1  0.205100  0.941200  0.587300  1.0  -0.6055
  O  O333  1  0.262500  0.044300  0.636800  1.0  -0.5817
  O  O334  1  0.347100  0.712600  0.503500  1.0  -0.6072
  O  O335  1  0.469200  0.716100  0.472600  1.0  -0.6069
  O  O336  1  0.545500  0.985400  0.591900  1.0  -0.2632
  O  O337  1  0.453800  0.634900  0.645400  1.0  -0.6216
  O  O338  1  0.438300  0.533500  0.733900  1.0  -0.6296
  O  O339  1  0.594800  0.529300  0.028900  1.0  -0.7056
  O  O340  1  0.577000  0.632800  0.112900  1.0  -0.6081
  O  O341  1  0.560700  0.834700  0.848900  1.0  -0.2566
  O  O342  1  0.989400  0.907600  0.166900  1.0  -0.6566
  O  O343  1  0.087500  0.876600  0.256000  1.0  -0.6329
  O  O344  1  0.060700  0.040500  0.867800  1.0  -0.6872
  O  O345  1  0.143800  0.975500  0.783100  1.0  -0.5951
  O  O346  1  0.301600  0.838400  0.033600  1.0  -0.2398
  O  O347  1  0.794900  0.058800  0.087300  1.0  -0.6049
  O  O348  1  0.737500  0.955700  0.136800  1.0  -0.5813
  O  O349  1  0.652900  0.287400  0.003500  1.0  -0.6079
  O  O350  1  0.530800  0.283900  0.972600  1.0  -0.6057
  O  O351  1  0.454500  0.014600  0.091900  1.0  -0.2614
  O  O352  1  0.546200  0.365100  0.145400  1.0  -0.6208
  O  O353  1  0.561700  0.466500  0.233900  1.0  -0.629
  O  O354  1  0.405200  0.470700  0.528900  1.0  -0.7063
  O  O355  1  0.423000  0.367200  0.612900  1.0  -0.6083
  O  O356  1  0.439300  0.165300  0.348900  1.0  -0.2576
