# generated using pymatgen
data_Al3H9C24N3O13
_symmetry_space_group_name_H-M   'P 1'
_cell_length_a   21.49340000
_cell_length_b   21.49340000
_cell_length_c   21.49340000
_cell_angle_alpha   90.00000000
_cell_angle_beta   90.00000000
_cell_angle_gamma   90.00000000
_symmetry_Int_Tables_number   1
_chemical_formula_structural   Al3H9C24N3O13
_chemical_formula_sum   'Al24 H72 C192 N24 O104'
_cell_volume   9929.22525933
_cell_formula_units_Z   8
loop_
 _symmetry_equiv_pos_site_id
 _symmetry_equiv_pos_as_xyz
  1  'x, y, z'
loop_
 _atom_site_type_symbol
 _atom_site_label
 _atom_site_symmetry_multiplicity
 _atom_site_fract_x
 _atom_site_fract_y
 _atom_site_fract_z
 _atom_site_occupancy
 _atom_site_charge
  Al  Al1  1  0.260720  0.198520  0.319230  1.0  1.7661
  Al  Al2  1  0.739280  0.801480  0.319230  1.0  1.7654
  Al  Al3  1  0.739280  0.198520  0.680770  1.0  1.7663
  Al  Al4  1  0.260720  0.801480  0.680770  1.0  1.7647
  Al  Al5  1  0.319230  0.260720  0.198520  1.0  1.765
  Al  Al6  1  0.319230  0.739280  0.801480  1.0  1.7637
  Al  Al7  1  0.680770  0.739280  0.198520  1.0  1.7677
  Al  Al8  1  0.680770  0.260720  0.801480  1.0  1.7635
  Al  Al9  1  0.198520  0.319230  0.260720  1.0  1.7648
  Al  Al10  1  0.801480  0.319230  0.739280  1.0  1.7632
  Al  Al11  1  0.198520  0.680770  0.739280  1.0  1.7655
  Al  Al12  1  0.801480  0.680770  0.260720  1.0  1.7638
  Al  Al13  1  0.698520  0.760720  0.819230  1.0  1.7645
  Al  Al14  1  0.301480  0.239280  0.819230  1.0  1.7647
  Al  Al15  1  0.698520  0.239280  0.180770  1.0  1.7661
  Al  Al16  1  0.301480  0.760720  0.180770  1.0  1.7627
  Al  Al17  1  0.760720  0.819230  0.698520  1.0  1.7671
  Al  Al18  1  0.239280  0.819230  0.301480  1.0  1.7646
  Al  Al19  1  0.239280  0.180770  0.698520  1.0  1.7684
  Al  Al20  1  0.760720  0.180770  0.301480  1.0  1.7656
  Al  Al21  1  0.819230  0.698520  0.760720  1.0  1.7638
  Al  Al22  1  0.819230  0.301480  0.239280  1.0  1.7632
  Al  Al23  1  0.180770  0.698520  0.239280  1.0  1.7651
  Al  Al24  1  0.180770  0.301480  0.760720  1.0  1.7649
  H  H25  1  0.508900  0.230100  0.251600  1.0  0.0976
  H  H26  1  0.609600  0.188700  0.405000  1.0  0.091
  H  H27  1  0.421900  0.200300  0.415500  1.0  0.0928
  H  H28  1  0.491100  0.769900  0.251600  1.0  0.0979
  H  H29  1  0.390400  0.811300  0.405000  1.0  0.0912
  H  H30  1  0.578100  0.799700  0.415500  1.0  0.093
  H  H31  1  0.491100  0.230100  0.748400  1.0  0.098
  H  H32  1  0.390400  0.188700  0.595000  1.0  0.091
  H  H33  1  0.578100  0.200300  0.584500  1.0  0.0923
  H  H34  1  0.508900  0.769900  0.748400  1.0  0.0979
  H  H35  1  0.609600  0.811300  0.595000  1.0  0.0907
  H  H36  1  0.421900  0.799700  0.584500  1.0  0.0928
  H  H37  1  0.251600  0.508900  0.230100  1.0  0.0968
  H  H38  1  0.405000  0.609600  0.188700  1.0  0.0906
  H  H39  1  0.415500  0.421900  0.200300  1.0  0.0926
  H  H40  1  0.251600  0.491100  0.769900  1.0  0.0969
  H  H41  1  0.405000  0.390400  0.811300  1.0  0.0905
  H  H42  1  0.415500  0.578100  0.799700  1.0  0.092
  H  H43  1  0.748400  0.491100  0.230100  1.0  0.0976
  H  H44  1  0.595000  0.390400  0.188700  1.0  0.0905
  H  H45  1  0.584500  0.578100  0.200300  1.0  0.0921
  H  H46  1  0.748400  0.508900  0.769900  1.0  0.0978
  H  H47  1  0.595000  0.609600  0.811300  1.0  0.0913
  H  H48  1  0.584500  0.421900  0.799700  1.0  0.0921
  H  H49  1  0.230100  0.251600  0.508900  1.0  0.0992
  H  H50  1  0.188700  0.405000  0.609600  1.0  0.0925
  H  H51  1  0.200300  0.415500  0.421900  1.0  0.0922
  H  H52  1  0.769900  0.251600  0.491100  1.0  0.0986
  H  H53  1  0.811300  0.405000  0.390400  1.0  0.0916
  H  H54  1  0.799700  0.415500  0.578100  1.0  0.0937
  H  H55  1  0.230100  0.748400  0.491100  1.0  0.0986
  H  H56  1  0.188700  0.595000  0.390400  1.0  0.0919
  H  H57  1  0.200300  0.584500  0.578100  1.0  0.0935
  H  H58  1  0.769900  0.748400  0.508900  1.0  0.0992
  H  H59  1  0.811300  0.595000  0.609600  1.0  0.0921
  H  H60  1  0.799700  0.584500  0.421900  1.0  0.0928
  H  H61  1  0.730100  0.008900  0.751600  1.0  0.0981
  H  H62  1  0.688700  0.109600  0.905000  1.0  0.091
  H  H63  1  0.700300  0.921900  0.915500  1.0  0.0921
  H  H64  1  0.269900  0.991100  0.751600  1.0  0.0982
  H  H65  1  0.311300  0.890400  0.905000  1.0  0.0908
  H  H66  1  0.299700  0.078100  0.915500  1.0  0.0923
  H  H67  1  0.730100  0.991100  0.248400  1.0  0.0985
  H  H68  1  0.688700  0.890400  0.095000  1.0  0.0906
  H  H69  1  0.700300  0.078100  0.084500  1.0  0.0914
  H  H70  1  0.269900  0.008900  0.248400  1.0  0.0985
  H  H71  1  0.311300  0.109600  0.095000  1.0  0.0906
  H  H72  1  0.299700  0.921900  0.084500  1.0  0.0921
  H  H73  1  0.008900  0.751600  0.730100  1.0  0.0982
  H  H74  1  0.109600  0.905000  0.688700  1.0  0.091
  H  H75  1  0.921900  0.915500  0.700300  1.0  0.0925
  H  H76  1  0.991100  0.751600  0.269900  1.0  0.0983
  H  H77  1  0.890400  0.905000  0.311300  1.0  0.0917
  H  H78  1  0.078100  0.915500  0.299700  1.0  0.0924
  H  H79  1  0.991100  0.248400  0.730100  1.0  0.0983
  H  H80  1  0.890400  0.095000  0.688700  1.0  0.0911
  H  H81  1  0.078100  0.084500  0.700300  1.0  0.0921
  H  H82  1  0.008900  0.248400  0.269900  1.0  0.0983
  H  H83  1  0.109600  0.095000  0.311300  1.0  0.0912
  H  H84  1  0.921900  0.084500  0.299700  1.0  0.0922
  H  H85  1  0.751600  0.730100  0.008900  1.0  0.0973
  H  H86  1  0.905000  0.688700  0.109600  1.0  0.0917
  H  H87  1  0.915500  0.700300  0.921900  1.0  0.0934
  H  H88  1  0.751600  0.269900  0.991100  1.0  0.0968
  H  H89  1  0.905000  0.311300  0.890400  1.0  0.0915
  H  H90  1  0.915500  0.299700  0.078100  1.0  0.0945
  H  H91  1  0.248400  0.730100  0.991100  1.0  0.0975
  H  H92  1  0.095000  0.688700  0.890400  1.0  0.0916
  H  H93  1  0.084500  0.700300  0.078100  1.0  0.0941
  H  H94  1  0.248400  0.269900  0.008900  1.0  0.0983
  H  H95  1  0.095000  0.311300  0.109600  1.0  0.0922
  H  H96  1  0.084500  0.299700  0.921900  1.0  0.0933
  C  C97  1  0.456700  0.214350  0.330070  1.0  -0.1331
  C  C98  1  0.510890  0.218890  0.294350  1.0  -0.0313
  C  C99  1  0.568370  0.206530  0.322990  1.0  -0.174
  C  C100  1  0.570520  0.195200  0.385390  1.0  -0.0994
  C  C101  1  0.516820  0.193000  0.420290  1.0  0.0503
  C  C102  1  0.459090  0.202300  0.391720  1.0  -0.0383
  C  C103  1  0.393460  0.223410  0.300890  1.0  0.6664
  C  C104  1  0.628130  0.207190  0.288090  1.0  0.6895
  C  C105  1  0.543300  0.785650  0.330070  1.0  -0.1316
  C  C106  1  0.489110  0.781110  0.294350  1.0  -0.0305
  C  C107  1  0.431630  0.793470  0.322990  1.0  -0.1744
  C  C108  1  0.429480  0.804800  0.385390  1.0  -0.1005
  C  C109  1  0.483180  0.807000  0.420290  1.0  0.0503
  C  C110  1  0.540910  0.797700  0.391720  1.0  -0.038
  C  C111  1  0.606540  0.776590  0.300890  1.0  0.6664
  C  C112  1  0.371870  0.792810  0.288090  1.0  0.6897
  C  C113  1  0.543300  0.214350  0.669930  1.0  -0.132
  C  C114  1  0.489110  0.218890  0.705650  1.0  -0.0311
  C  C115  1  0.431630  0.206530  0.677010  1.0  -0.174
  C  C116  1  0.429480  0.195200  0.614610  1.0  -0.0999
  C  C117  1  0.483180  0.193000  0.579710  1.0  0.0509
  C  C118  1  0.540910  0.202300  0.608280  1.0  -0.0379
  C  C119  1  0.606540  0.223410  0.699110  1.0  0.6668
  C  C120  1  0.371870  0.207190  0.711910  1.0  0.6906
  C  C121  1  0.456700  0.785650  0.669930  1.0  -0.133
  C  C122  1  0.510890  0.781110  0.705650  1.0  -0.031
  C  C123  1  0.568370  0.793470  0.677010  1.0  -0.1737
  C  C124  1  0.570520  0.804800  0.614610  1.0  -0.0996
  C  C125  1  0.516820  0.807000  0.579710  1.0  0.0516
  C  C126  1  0.459090  0.797700  0.608280  1.0  -0.0383
  C  C127  1  0.393460  0.776590  0.699110  1.0  0.6662
  C  C128  1  0.628130  0.792810  0.711910  1.0  0.6893
  C  C129  1  0.330070  0.456700  0.214350  1.0  -0.1324
  C  C130  1  0.294350  0.510890  0.218890  1.0  -0.0319
  C  C131  1  0.322990  0.568370  0.206530  1.0  -0.1741
  C  C132  1  0.385390  0.570520  0.195200  1.0  -0.1022
  C  C133  1  0.420290  0.516820  0.193000  1.0  0.0512
  C  C134  1  0.391720  0.459090  0.202300  1.0  -0.037
  C  C135  1  0.300890  0.393460  0.223410  1.0  0.669
  C  C136  1  0.288090  0.628130  0.207190  1.0  0.6898
  C  C137  1  0.330070  0.543300  0.785650  1.0  -0.1328
  C  C138  1  0.294350  0.489110  0.781110  1.0  -0.032
  C  C139  1  0.322990  0.431630  0.793470  1.0  -0.1737
  C  C140  1  0.385390  0.429480  0.804800  1.0  -0.1017
  C  C141  1  0.420290  0.483180  0.807000  1.0  0.0508
  C  C142  1  0.391720  0.540910  0.797700  1.0  -0.0369
  C  C143  1  0.300890  0.606540  0.776590  1.0  0.669
  C  C144  1  0.288090  0.371870  0.792810  1.0  0.6911
  C  C145  1  0.669930  0.543300  0.214350  1.0  -0.1321
  C  C146  1  0.705650  0.489110  0.218890  1.0  -0.0308
  C  C147  1  0.677010  0.431630  0.206530  1.0  -0.1741
  C  C148  1  0.614610  0.429480  0.195200  1.0  -0.1027
  C  C149  1  0.579710  0.483180  0.193000  1.0  0.0511
  C  C150  1  0.608280  0.540910  0.202300  1.0  -0.0367
  C  C151  1  0.699110  0.606540  0.223410  1.0  0.6682
  C  C152  1  0.711910  0.371870  0.207190  1.0  0.69
  C  C153  1  0.669930  0.456700  0.785650  1.0  -0.1312
  C  C154  1  0.705650  0.510890  0.781110  1.0  -0.0315
  C  C155  1  0.677010  0.568370  0.793470  1.0  -0.1741
  C  C156  1  0.614610  0.570520  0.804800  1.0  -0.1026
  C  C157  1  0.579710  0.516820  0.807000  1.0  0.0508
  C  C158  1  0.608280  0.459090  0.797700  1.0  -0.0374
  C  C159  1  0.699110  0.393460  0.776590  1.0  0.6683
  C  C160  1  0.711910  0.628130  0.792810  1.0  0.6893
  C  C161  1  0.214350  0.330070  0.456700  1.0  -0.1324
  C  C162  1  0.218890  0.294350  0.510890  1.0  -0.0307
  C  C163  1  0.206530  0.322990  0.568370  1.0  -0.1726
  C  C164  1  0.195200  0.385390  0.570520  1.0  -0.1047
  C  C165  1  0.193000  0.420290  0.516820  1.0  0.051
  C  C166  1  0.202300  0.391720  0.459090  1.0  -0.0372
  C  C167  1  0.223410  0.300890  0.393460  1.0  0.6688
  C  C168  1  0.207190  0.288090  0.628130  1.0  0.6888
  C  C169  1  0.785650  0.330070  0.543300  1.0  -0.1333
  C  C170  1  0.781110  0.294350  0.489110  1.0  -0.0312
  C  C171  1  0.793470  0.322990  0.431630  1.0  -0.1741
  C  C172  1  0.804800  0.385390  0.429480  1.0  -0.1053
  C  C173  1  0.807000  0.420290  0.483180  1.0  0.0507
  C  C174  1  0.797700  0.391720  0.540910  1.0  -0.0368
  C  C175  1  0.776590  0.300890  0.606540  1.0  0.6673
  C  C176  1  0.792810  0.288090  0.371870  1.0  0.6884
  C  C177  1  0.214350  0.669930  0.543300  1.0  -0.1333
  C  C178  1  0.218890  0.705650  0.489110  1.0  -0.0326
  C  C179  1  0.206530  0.677010  0.431630  1.0  -0.1731
  C  C180  1  0.195200  0.614610  0.429480  1.0  -0.1051
  C  C181  1  0.193000  0.579710  0.483180  1.0  0.05
  C  C182  1  0.202300  0.608280  0.540910  1.0  -0.0373
  C  C183  1  0.223410  0.699110  0.606540  1.0  0.668
  C  C184  1  0.207190  0.711910  0.371870  1.0  0.6887
  C  C185  1  0.785650  0.669930  0.456700  1.0  -0.1333
  C  C186  1  0.781110  0.705650  0.510890  1.0  -0.0334
  C  C187  1  0.793470  0.677010  0.568370  1.0  -0.1741
  C  C188  1  0.804800  0.614610  0.570520  1.0  -0.104
  C  C189  1  0.807000  0.579710  0.516820  1.0  0.0506
  C  C190  1  0.797700  0.608280  0.459090  1.0  -0.0374
  C  C191  1  0.776590  0.699110  0.393460  1.0  0.6681
  C  C192  1  0.792810  0.711910  0.628130  1.0  0.6896
  C  C193  1  0.714350  0.956700  0.830070  1.0  -0.1318
  C  C194  1  0.718890  0.010890  0.794350  1.0  -0.0312
  C  C195  1  0.706530  0.068370  0.822990  1.0  -0.1731
  C  C196  1  0.695200  0.070520  0.885390  1.0  -0.1002
  C  C197  1  0.693000  0.016820  0.920290  1.0  0.0506
  C  C198  1  0.702300  0.959090  0.891720  1.0  -0.0377
  C  C199  1  0.723410  0.893460  0.800890  1.0  0.6684
  C  C200  1  0.707190  0.128130  0.788090  1.0  0.6884
  C  C201  1  0.285650  0.043300  0.830070  1.0  -0.1326
  C  C202  1  0.281110  0.989110  0.794350  1.0  -0.0312
  C  C203  1  0.293470  0.931630  0.822990  1.0  -0.1744
  C  C204  1  0.304800  0.929480  0.885390  1.0  -0.1
  C  C205  1  0.307000  0.983180  0.920290  1.0  0.0507
  C  C206  1  0.297700  0.040910  0.891720  1.0  -0.0368
  C  C207  1  0.276590  0.106540  0.800890  1.0  0.6676
  C  C208  1  0.292810  0.871870  0.788090  1.0  0.6895
  C  C209  1  0.714350  0.043300  0.169930  1.0  -0.1321
  C  C210  1  0.718890  0.989110  0.205650  1.0  -0.0311
  C  C211  1  0.706530  0.931630  0.177010  1.0  -0.1725
  C  C212  1  0.695200  0.929480  0.114610  1.0  -0.0996
  C  C213  1  0.693000  0.983180  0.079710  1.0  0.0512
  C  C214  1  0.702300  0.040910  0.108280  1.0  -0.0372
  C  C215  1  0.723410  0.106540  0.199110  1.0  0.6684
  C  C216  1  0.707190  0.871870  0.211910  1.0  0.6895
  C  C217  1  0.285650  0.956700  0.169930  1.0  -0.1322
  C  C218  1  0.281110  0.010890  0.205650  1.0  -0.0322
  C  C219  1  0.293470  0.068370  0.177010  1.0  -0.1736
  C  C220  1  0.304800  0.070520  0.114610  1.0  -0.1002
  C  C221  1  0.307000  0.016820  0.079710  1.0  0.0513
  C  C222  1  0.297700  0.959090  0.108280  1.0  -0.0375
  C  C223  1  0.276590  0.893460  0.199110  1.0  0.6674
  C  C224  1  0.292810  0.128130  0.211910  1.0  0.6888
  C  C225  1  0.956700  0.830070  0.714350  1.0  -0.1326
  C  C226  1  0.010890  0.794350  0.718890  1.0  -0.0306
  C  C227  1  0.068370  0.822990  0.706530  1.0  -0.1736
  C  C228  1  0.070520  0.885390  0.695200  1.0  -0.1015
  C  C229  1  0.016820  0.920290  0.693000  1.0  0.0496
  C  C230  1  0.959090  0.891720  0.702300  1.0  -0.0377
  C  C231  1  0.893460  0.800890  0.723410  1.0  0.6662
  C  C232  1  0.128130  0.788090  0.707190  1.0  0.688
  C  C233  1  0.043300  0.830070  0.285650  1.0  -0.1312
  C  C234  1  0.989110  0.794350  0.281110  1.0  -0.0301
  C  C235  1  0.931630  0.822990  0.293470  1.0  -0.1739
  C  C236  1  0.929480  0.885390  0.304800  1.0  -0.1029
  C  C237  1  0.983180  0.920290  0.307000  1.0  0.0498
  C  C238  1  0.040910  0.891720  0.297700  1.0  -0.0367
  C  C239  1  0.106540  0.800890  0.276590  1.0  0.6665
  C  C240  1  0.871870  0.788090  0.292810  1.0  0.6892
  C  C241  1  0.043300  0.169930  0.714350  1.0  -0.1319
  C  C242  1  0.989110  0.205650  0.718890  1.0  -0.0324
  C  C243  1  0.931630  0.177010  0.706530  1.0  -0.1742
  C  C244  1  0.929480  0.114610  0.695200  1.0  -0.1022
  C  C245  1  0.983180  0.079710  0.693000  1.0  0.0493
  C  C246  1  0.040910  0.108280  0.702300  1.0  -0.0373
  C  C247  1  0.106540  0.199110  0.723410  1.0  0.6665
  C  C248  1  0.871870  0.211910  0.707190  1.0  0.6894
  C  C249  1  0.956700  0.169930  0.285650  1.0  -0.1331
  C  C250  1  0.010890  0.205650  0.281110  1.0  -0.0328
  C  C251  1  0.068370  0.177010  0.293470  1.0  -0.1738
  C  C252  1  0.070520  0.114610  0.304800  1.0  -0.1017
  C  C253  1  0.016820  0.079710  0.307000  1.0  0.0488
  C  C254  1  0.959090  0.108280  0.297700  1.0  -0.0374
  C  C255  1  0.893460  0.199110  0.276590  1.0  0.6664
  C  C256  1  0.128130  0.211910  0.292810  1.0  0.6889
  C  C257  1  0.830070  0.714350  0.956700  1.0  -0.1336
  C  C258  1  0.794350  0.718890  0.010890  1.0  -0.0323
  C  C259  1  0.822990  0.706530  0.068370  1.0  -0.1742
  C  C260  1  0.885390  0.695200  0.070520  1.0  -0.1034
  C  C261  1  0.920290  0.693000  0.016820  1.0  0.0524
  C  C262  1  0.891720  0.702300  0.959090  1.0  -0.0378
  C  C263  1  0.800890  0.723410  0.893460  1.0  0.6696
  C  C264  1  0.788090  0.707190  0.128130  1.0  0.6919
  C  C265  1  0.830070  0.285650  0.043300  1.0  -0.1339
  C  C266  1  0.794350  0.281110  0.989110  1.0  -0.0318
  C  C267  1  0.822990  0.293470  0.931630  1.0  -0.1741
  C  C268  1  0.885390  0.304800  0.929480  1.0  -0.1049
  C  C269  1  0.920290  0.307000  0.983180  1.0  0.052
  C  C270  1  0.891720  0.297700  0.040910  1.0  -0.0377
  C  C271  1  0.800890  0.276590  0.106540  1.0  0.6685
  C  C272  1  0.788090  0.292810  0.871870  1.0  0.6908
  C  C273  1  0.169930  0.714350  0.043300  1.0  -0.1332
  C  C274  1  0.205650  0.718890  0.989110  1.0  -0.0316
  C  C275  1  0.177010  0.706530  0.931630  1.0  -0.1743
  C  C276  1  0.114610  0.695200  0.929480  1.0  -0.1054
  C  C277  1  0.079710  0.693000  0.983180  1.0  0.0519
  C  C278  1  0.108280  0.702300  0.040910  1.0  -0.0378
  C  C279  1  0.199110  0.723410  0.106540  1.0  0.6682
  C  C280  1  0.211910  0.707190  0.871870  1.0  0.6902
  C  C281  1  0.169930  0.285650  0.956700  1.0  -0.1328
  C  C282  1  0.205650  0.281110  0.010890  1.0  -0.0311
  C  C283  1  0.177010  0.293470  0.068370  1.0  -0.1742
  C  C284  1  0.114610  0.304800  0.070520  1.0  -0.1049
  C  C285  1  0.079710  0.307000  0.016820  1.0  0.0527
  C  C286  1  0.108280  0.297700  0.959090  1.0  -0.0375
  C  C287  1  0.199110  0.276590  0.893460  1.0  0.6685
  C  C288  1  0.211910  0.292810  0.128130  1.0  0.6904
  N  N289  1  0.524000  0.191200  0.485860  1.0  -0.1736
  N  N290  1  0.476000  0.808800  0.485860  1.0  -0.1712
  N  N291  1  0.476000  0.191200  0.514140  1.0  -0.1721
  N  N292  1  0.524000  0.808800  0.514140  1.0  -0.1743
  N  N293  1  0.485860  0.524000  0.191200  1.0  -0.1764
  N  N294  1  0.485860  0.476000  0.808800  1.0  -0.1745
  N  N295  1  0.514140  0.476000  0.191200  1.0  -0.1745
  N  N296  1  0.514140  0.524000  0.808800  1.0  -0.1752
  N  N297  1  0.191200  0.485860  0.524000  1.0  -0.1759
  N  N298  1  0.808800  0.485860  0.476000  1.0  -0.1773
  N  N299  1  0.191200  0.514140  0.476000  1.0  -0.1777
  N  N300  1  0.808800  0.514140  0.524000  1.0  -0.1762
  N  N301  1  0.691200  0.024000  0.985860  1.0  -0.1761
  N  N302  1  0.308800  0.976000  0.985860  1.0  -0.1746
  N  N303  1  0.691200  0.976000  0.014140  1.0  -0.1751
  N  N304  1  0.308800  0.024000  0.014140  1.0  -0.1764
  N  N305  1  0.024000  0.985860  0.691200  1.0  -0.1748
  N  N306  1  0.976000  0.985860  0.308800  1.0  -0.1715
  N  N307  1  0.976000  0.014140  0.691200  1.0  -0.1725
  N  N308  1  0.024000  0.014140  0.308800  1.0  -0.1741
  N  N309  1  0.985860  0.691200  0.024000  1.0  -0.1758
  N  N310  1  0.985860  0.308800  0.976000  1.0  -0.1767
  N  N311  1  0.014140  0.691200  0.976000  1.0  -0.1767
  N  N312  1  0.014140  0.308800  0.024000  1.0  -0.1751
  O  O313  1  0.348300  0.199780  0.330580  1.0  -0.6366
  O  O314  1  0.389450  0.252970  0.251280  1.0  -0.6029
  O  O315  1  0.673230  0.181200  0.314130  1.0  -0.6272
  O  O316  1  0.629610  0.233200  0.236040  1.0  -0.6098
  O  O317  1  0.651700  0.800220  0.330580  1.0  -0.6359
  O  O318  1  0.610550  0.747030  0.251280  1.0  -0.6037
  O  O319  1  0.326770  0.818800  0.314130  1.0  -0.6234
  O  O320  1  0.370390  0.766800  0.236040  1.0  -0.6094
  O  O321  1  0.651700  0.199780  0.669420  1.0  -0.6356
  O  O322  1  0.610550  0.252970  0.748720  1.0  -0.6023
  O  O323  1  0.326770  0.181200  0.685870  1.0  -0.6263
  O  O324  1  0.370390  0.233200  0.763960  1.0  -0.6105
  O  O325  1  0.348300  0.800220  0.669420  1.0  -0.636
  O  O326  1  0.389450  0.747030  0.748720  1.0  -0.6024
  O  O327  1  0.673230  0.818800  0.685870  1.0  -0.6254
  O  O328  1  0.629610  0.766800  0.763960  1.0  -0.6093
  O  O329  1  0.330580  0.348300  0.199780  1.0  -0.6347
  O  O330  1  0.251280  0.389450  0.252970  1.0  -0.6021
  O  O331  1  0.314130  0.673230  0.181200  1.0  -0.6252
  O  O332  1  0.236040  0.629610  0.233200  1.0  -0.6097
  O  O333  1  0.330580  0.651700  0.800220  1.0  -0.6341
  O  O334  1  0.251280  0.610550  0.747030  1.0  -0.6035
  O  O335  1  0.314130  0.326770  0.818800  1.0  -0.6251
  O  O336  1  0.236040  0.370390  0.766800  1.0  -0.6096
  O  O337  1  0.669420  0.651700  0.199780  1.0  -0.6341
  O  O338  1  0.748720  0.610550  0.252970  1.0  -0.6032
  O  O339  1  0.685870  0.326770  0.181200  1.0  -0.6243
  O  O340  1  0.763960  0.370390  0.233200  1.0  -0.6101
  O  O341  1  0.669420  0.348300  0.800220  1.0  -0.6353
  O  O342  1  0.748720  0.389450  0.747030  1.0  -0.6038
  O  O343  1  0.685870  0.673230  0.818800  1.0  -0.624
  O  O344  1  0.763960  0.629610  0.766800  1.0  -0.6103
  O  O345  1  0.199780  0.330580  0.348300  1.0  -0.6359
  O  O346  1  0.252970  0.251280  0.389450  1.0  -0.6039
  O  O347  1  0.181200  0.314130  0.673230  1.0  -0.624
  O  O348  1  0.233200  0.236040  0.629610  1.0  -0.6102
  O  O349  1  0.800220  0.330580  0.651700  1.0  -0.636
  O  O350  1  0.747030  0.251280  0.610550  1.0  -0.6017
  O  O351  1  0.818800  0.314130  0.326770  1.0  -0.6239
  O  O352  1  0.766800  0.236040  0.370390  1.0  -0.6099
  O  O353  1  0.199780  0.669420  0.651700  1.0  -0.6367
  O  O354  1  0.252970  0.748720  0.610550  1.0  -0.6024
  O  O355  1  0.181200  0.685870  0.326770  1.0  -0.6251
  O  O356  1  0.233200  0.763960  0.370390  1.0  -0.6098
  O  O357  1  0.800220  0.669420  0.348300  1.0  -0.6371
  O  O358  1  0.747030  0.748720  0.389450  1.0  -0.6022
  O  O359  1  0.818800  0.685870  0.673230  1.0  -0.6261
  O  O360  1  0.766800  0.763960  0.629610  1.0  -0.6098
  O  O361  1  0.699780  0.848300  0.830580  1.0  -0.6362
  O  O362  1  0.752970  0.889450  0.751280  1.0  -0.6031
  O  O363  1  0.681200  0.173230  0.814130  1.0  -0.6247
  O  O364  1  0.733200  0.129610  0.736040  1.0  -0.6087
  O  O365  1  0.300220  0.151700  0.830580  1.0  -0.6348
  O  O366  1  0.247030  0.110550  0.751280  1.0  -0.602
  O  O367  1  0.318800  0.826770  0.814130  1.0  -0.6258
  O  O368  1  0.266800  0.870390  0.736040  1.0  -0.6088
  O  O369  1  0.699780  0.151700  0.169420  1.0  -0.6345
  O  O370  1  0.752970  0.110550  0.248720  1.0  -0.603
  O  O371  1  0.681200  0.826770  0.185870  1.0  -0.6256
  O  O372  1  0.733200  0.870390  0.263960  1.0  -0.6091
  O  O373  1  0.300220  0.848300  0.169420  1.0  -0.636
  O  O374  1  0.247030  0.889450  0.248720  1.0  -0.6009
  O  O375  1  0.318800  0.173230  0.185870  1.0  -0.6253
  O  O376  1  0.266800  0.129610  0.263960  1.0  -0.6092
  O  O377  1  0.848300  0.830580  0.699780  1.0  -0.6363
  O  O378  1  0.889450  0.751280  0.752970  1.0  -0.603
  O  O379  1  0.173230  0.814130  0.681200  1.0  -0.6256
  O  O380  1  0.129610  0.736040  0.733200  1.0  -0.6098
  O  O381  1  0.151700  0.830580  0.300220  1.0  -0.6357
  O  O382  1  0.110550  0.751280  0.247030  1.0  -0.6044
  O  O383  1  0.826770  0.814130  0.318800  1.0  -0.6235
  O  O384  1  0.870390  0.736040  0.266800  1.0  -0.6107
  O  O385  1  0.151700  0.169420  0.699780  1.0  -0.6362
  O  O386  1  0.110550  0.248720  0.752970  1.0  -0.6027
  O  O387  1  0.826770  0.185870  0.681200  1.0  -0.6266
  O  O388  1  0.870390  0.263960  0.733200  1.0  -0.6109
  O  O389  1  0.848300  0.169420  0.300220  1.0  -0.637
  O  O390  1  0.889450  0.248720  0.247030  1.0  -0.6035
  O  O391  1  0.173230  0.185870  0.318800  1.0  -0.6272
  O  O392  1  0.129610  0.263960  0.266800  1.0  -0.6101
  O  O393  1  0.830580  0.699780  0.848300  1.0  -0.636
  O  O394  1  0.751280  0.752970  0.889450  1.0  -0.6029
  O  O395  1  0.814130  0.681200  0.173230  1.0  -0.6258
  O  O396  1  0.736040  0.733200  0.129610  1.0  -0.6101
  O  O397  1  0.830580  0.300220  0.151700  1.0  -0.6354
  O  O398  1  0.751280  0.247030  0.110550  1.0  -0.6021
  O  O399  1  0.814130  0.318800  0.826770  1.0  -0.623
  O  O400  1  0.736040  0.266800  0.870390  1.0  -0.61
  O  O401  1  0.169420  0.699780  0.151700  1.0  -0.6355
  O  O402  1  0.248720  0.752970  0.110550  1.0  -0.6024
  O  O403  1  0.185870  0.681200  0.826770  1.0  -0.6242
  O  O404  1  0.263960  0.733200  0.870390  1.0  -0.6106
  O  O405  1  0.169420  0.300220  0.848300  1.0  -0.6353
  O  O406  1  0.248720  0.247030  0.889450  1.0  -0.6036
  O  O407  1  0.185870  0.318800  0.173230  1.0  -0.6229
  O  O408  1  0.263960  0.266800  0.129610  1.0  -0.6109
  O  O409  1  0.259380  0.259380  0.259380  1.0  -0.987
  O  O410  1  0.740620  0.740620  0.259380  1.0  -0.987
  O  O411  1  0.740620  0.259380  0.740620  1.0  -0.9875
  O  O412  1  0.259380  0.740620  0.740620  1.0  -0.9872
  O  O413  1  0.759380  0.759380  0.759380  1.0  -0.987
  O  O414  1  0.240620  0.240620  0.759380  1.0  -0.987
  O  O415  1  0.759380  0.240620  0.240620  1.0  -0.9872
  O  O416  1  0.240620  0.759380  0.240620  1.0  -0.9875
