# generated using pymatgen
data_CuH7C13NO4
_symmetry_space_group_name_H-M   'P 1'
_cell_length_a   20.12400000
_cell_length_b   7.03120000
_cell_length_c   17.22740000
_cell_angle_alpha   90.00000000
_cell_angle_beta   90.00000000
_cell_angle_gamma   90.00000000
_symmetry_Int_Tables_number   1
_chemical_formula_structural   CuH7C13NO4
_chemical_formula_sum   'Cu8 H56 C104 N8 O32'
_cell_volume   2437.60593017
_cell_formula_units_Z   8
loop_
 _symmetry_equiv_pos_site_id
 _symmetry_equiv_pos_as_xyz
  1  'x, y, z'
loop_
 _atom_site_type_symbol
 _atom_site_label
 _atom_site_symmetry_multiplicity
 _atom_site_fract_x
 _atom_site_fract_y
 _atom_site_fract_z
 _atom_site_occupancy
 _atom_site_charge
  Cu  Cu1  1  0.508560  0.845510  0.594780  1.0  0.8889
  Cu  Cu2  1  0.008560  0.154490  0.905210  1.0  0.888
  Cu  Cu3  1  0.008560  0.345510  0.405220  1.0  0.8887
  Cu  Cu4  1  0.508560  0.654490  0.094780  1.0  0.8888
  Cu  Cu5  1  0.991440  0.654490  0.594780  1.0  0.8899
  Cu  Cu6  1  0.491440  0.345510  0.905210  1.0  0.8891
  Cu  Cu7  1  0.491440  0.154490  0.405220  1.0  0.8898
  Cu  Cu8  1  0.991440  0.845510  0.094780  1.0  0.8898
  H  H9  1  0.487900  0.644000  0.347000  1.0  0.1302
  H  H10  1  0.315900  0.457700  0.260200  1.0  0.1113
  H  H11  1  0.328900  0.597500  0.484200  1.0  0.1156
  H  H12  1  0.211300  0.524500  0.270700  1.0  0.1216
  H  H13  1  0.101700  0.469200  0.284400  1.0  0.1017
  H  H14  1  0.124800  0.377100  0.506800  1.0  0.0975
  H  H15  1  0.234800  0.441300  0.497600  1.0  0.1211
  H  H16  1  0.987900  0.356000  0.153000  1.0  0.1303
  H  H17  1  0.815900  0.542300  0.239800  1.0  0.1106
  H  H18  1  0.828900  0.402500  0.015800  1.0  0.1155
  H  H19  1  0.711300  0.475500  0.229300  1.0  0.1216
  H  H20  1  0.601700  0.530800  0.215600  1.0  0.1003
  H  H21  1  0.624800  0.622900  0.993200  1.0  0.0988
  H  H22  1  0.734800  0.558700  0.002400  1.0  0.1211
  H  H23  1  0.987900  0.144000  0.653000  1.0  0.1302
  H  H24  1  0.815900  0.957700  0.739800  1.0  0.1105
  H  H25  1  0.828900  0.097500  0.515800  1.0  0.1155
  H  H26  1  0.711300  0.024500  0.729300  1.0  0.1216
  H  H27  1  0.601700  0.969200  0.715600  1.0  0.1004
  H  H28  1  0.624800  0.877100  0.493200  1.0  0.0987
  H  H29  1  0.734800  0.941300  0.502400  1.0  0.1212
  H  H30  1  0.487900  0.856000  0.847000  1.0  0.1303
  H  H31  1  0.315900  0.042300  0.760200  1.0  0.1116
  H  H32  1  0.328900  0.902500  0.984200  1.0  0.1157
  H  H33  1  0.211300  0.975500  0.770700  1.0  0.1218
  H  H34  1  0.101700  0.030800  0.784400  1.0  0.1016
  H  H35  1  0.124800  0.122900  0.006800  1.0  0.0975
  H  H36  1  0.234800  0.058700  0.997600  1.0  0.1211
  H  H37  1  0.012100  0.856000  0.347000  1.0  0.1305
  H  H38  1  0.184100  0.042300  0.260200  1.0  0.1116
  H  H39  1  0.171100  0.902500  0.484200  1.0  0.1157
  H  H40  1  0.288700  0.975500  0.270700  1.0  0.1216
  H  H41  1  0.398300  0.030800  0.284400  1.0  0.1019
  H  H42  1  0.375200  0.122900  0.506800  1.0  0.0972
  H  H43  1  0.265200  0.058700  0.497600  1.0  0.1205
  H  H44  1  0.512100  0.144000  0.153000  1.0  0.1305
  H  H45  1  0.684100  0.957700  0.239800  1.0  0.1104
  H  H46  1  0.671100  0.097500  0.015800  1.0  0.1155
  H  H47  1  0.788700  0.024500  0.229300  1.0  0.1214
  H  H48  1  0.898300  0.969200  0.215600  1.0  0.1011
  H  H49  1  0.875200  0.877100  0.993200  1.0  0.0989
  H  H50  1  0.765200  0.941300  0.002400  1.0  0.121
  H  H51  1  0.512100  0.356000  0.653000  1.0  0.1305
  H  H52  1  0.684100  0.542300  0.739800  1.0  0.1104
  H  H53  1  0.671100  0.402500  0.515800  1.0  0.1154
  H  H54  1  0.788700  0.475500  0.729300  1.0  0.1214
  H  H55  1  0.898300  0.530800  0.715600  1.0  0.101
  H  H56  1  0.875200  0.622900  0.493200  1.0  0.0986
  H  H57  1  0.765200  0.558700  0.502400  1.0  0.1208
  H  H58  1  0.012100  0.644000  0.847000  1.0  0.1304
  H  H59  1  0.184100  0.457700  0.760200  1.0  0.1114
  H  H60  1  0.171100  0.597500  0.984200  1.0  0.1157
  H  H61  1  0.288700  0.524500  0.770700  1.0  0.1214
  H  H62  1  0.398300  0.469200  0.784400  1.0  0.102
  H  H63  1  0.375200  0.377100  0.006800  1.0  0.0977
  H  H64  1  0.265200  0.441300  0.997600  1.0  0.1205
  C  C65  1  0.451570  0.706900  0.491520  1.0  0.6268
  C  C66  1  0.435310  0.535500  0.211890  1.0  0.6526
  C  C67  1  0.413010  0.627000  0.426020  1.0  -0.1403
  C  C68  1  0.443450  0.611300  0.353670  1.0  -0.0101
  C  C69  1  0.405890  0.545700  0.292200  1.0  -0.1579
  C  C70  1  0.340230  0.502400  0.302280  1.0  -0.0694
  C  C71  1  0.308790  0.523100  0.373730  1.0  0.0389
  C  C72  1  0.347960  0.584900  0.435350  1.0  -0.0891
  C  C73  1  0.237530  0.489000  0.382290  1.0  0.0947
  C  C74  1  0.194540  0.495400  0.319570  1.0  -0.1616
  C  C75  1  0.129030  0.460400  0.327730  1.0  0.1543
  C  C76  1  0.142470  0.407600  0.458530  1.0  0.1705
  C  C77  1  0.208640  0.445100  0.453130  1.0  -0.1685
  C  C78  1  0.951570  0.293100  0.008480  1.0  0.6264
  C  C79  1  0.935310  0.464500  0.288110  1.0  0.6522
  C  C80  1  0.913010  0.373000  0.073980  1.0  -0.1397
  C  C81  1  0.943450  0.388700  0.146330  1.0  -0.01
  C  C82  1  0.905890  0.454300  0.207800  1.0  -0.1577
  C  C83  1  0.840230  0.497600  0.197720  1.0  -0.0693
  C  C84  1  0.808790  0.476900  0.126270  1.0  0.0391
  C  C85  1  0.847960  0.415100  0.064650  1.0  -0.0872
  C  C86  1  0.737530  0.511000  0.117710  1.0  0.0943
  C  C87  1  0.694540  0.504600  0.180430  1.0  -0.1619
  C  C88  1  0.629030  0.539600  0.172270  1.0  0.1546
  C  C89  1  0.642470  0.592400  0.041470  1.0  0.1706
  C  C90  1  0.708640  0.554900  0.046870  1.0  -0.1691
  C  C91  1  0.951570  0.206900  0.508480  1.0  0.6264
  C  C92  1  0.935310  0.035500  0.788110  1.0  0.6522
  C  C93  1  0.913010  0.127000  0.573980  1.0  -0.1397
  C  C94  1  0.943450  0.111300  0.646330  1.0  -0.0099
  C  C95  1  0.905890  0.045700  0.707800  1.0  -0.1572
  C  C96  1  0.840230  0.002400  0.697720  1.0  -0.0694
  C  C97  1  0.808790  0.023100  0.626270  1.0  0.039
  C  C98  1  0.847960  0.084900  0.564650  1.0  -0.0872
  C  C99  1  0.737530  0.989000  0.617710  1.0  0.0945
  C  C100  1  0.694540  0.995400  0.680430  1.0  -0.1621
  C  C101  1  0.629030  0.960400  0.672270  1.0  0.1546
  C  C102  1  0.642470  0.907600  0.541470  1.0  0.1706
  C  C103  1  0.708640  0.945100  0.546870  1.0  -0.1692
  C  C104  1  0.451570  0.793100  0.991520  1.0  0.6266
  C  C105  1  0.435310  0.964500  0.711890  1.0  0.6527
  C  C106  1  0.413010  0.873000  0.926020  1.0  -0.1405
  C  C107  1  0.443450  0.888700  0.853670  1.0  -0.0101
  C  C108  1  0.405890  0.954300  0.792200  1.0  -0.1576
  C  C109  1  0.340230  0.997600  0.802280  1.0  -0.0694
  C  C110  1  0.308790  0.976900  0.873730  1.0  0.039
  C  C111  1  0.347960  0.915100  0.935350  1.0  -0.0894
  C  C112  1  0.237530  0.011000  0.882290  1.0  0.0945
  C  C113  1  0.194540  0.004600  0.819570  1.0  -0.1611
  C  C114  1  0.129030  0.039600  0.827730  1.0  0.1545
  C  C115  1  0.142470  0.092400  0.958530  1.0  0.1702
  C  C116  1  0.208640  0.054900  0.953130  1.0  -0.1685
  C  C117  1  0.048430  0.793100  0.491520  1.0  0.6274
  C  C118  1  0.064690  0.964500  0.211890  1.0  0.6539
  C  C119  1  0.086990  0.873000  0.426020  1.0  -0.1407
  C  C120  1  0.056550  0.888700  0.353670  1.0  -0.0113
  C  C121  1  0.094110  0.954300  0.292200  1.0  -0.1572
  C  C122  1  0.159770  0.997600  0.302280  1.0  -0.07
  C  C123  1  0.191210  0.976900  0.373730  1.0  0.0387
  C  C124  1  0.152040  0.915100  0.435350  1.0  -0.0879
  C  C125  1  0.262470  0.011000  0.382290  1.0  0.0945
  C  C126  1  0.305460  0.004600  0.319570  1.0  -0.1612
  C  C127  1  0.370970  0.039600  0.327730  1.0  0.1545
  C  C128  1  0.357530  0.092400  0.458530  1.0  0.1713
  C  C129  1  0.291360  0.054900  0.453130  1.0  -0.1686
  C  C130  1  0.548430  0.206900  0.008480  1.0  0.6276
  C  C131  1  0.564690  0.035500  0.288110  1.0  0.6531
  C  C132  1  0.586990  0.127000  0.073980  1.0  -0.1412
  C  C133  1  0.556550  0.111300  0.146330  1.0  -0.0114
  C  C134  1  0.594110  0.045700  0.207800  1.0  -0.1564
  C  C135  1  0.659770  0.002400  0.197720  1.0  -0.069
  C  C136  1  0.691210  0.023100  0.126270  1.0  0.0388
  C  C137  1  0.652040  0.084900  0.064650  1.0  -0.0863
  C  C138  1  0.762470  0.989000  0.117710  1.0  0.0946
  C  C139  1  0.805460  0.995400  0.180430  1.0  -0.1626
  C  C140  1  0.870970  0.960400  0.172270  1.0  0.1556
  C  C141  1  0.857530  0.907600  0.041470  1.0  0.1706
  C  C142  1  0.791360  0.945100  0.046870  1.0  -0.1679
  C  C143  1  0.548430  0.293100  0.508480  1.0  0.6277
  C  C144  1  0.564690  0.464500  0.788110  1.0  0.6528
  C  C145  1  0.586990  0.373000  0.573980  1.0  -0.1409
  C  C146  1  0.556550  0.388700  0.646330  1.0  -0.0114
  C  C147  1  0.594110  0.454300  0.707800  1.0  -0.1567
  C  C148  1  0.659770  0.497600  0.697720  1.0  -0.0691
  C  C149  1  0.691210  0.476900  0.626270  1.0  0.0388
  C  C150  1  0.652040  0.415100  0.564650  1.0  -0.0862
  C  C151  1  0.762470  0.511000  0.617710  1.0  0.0944
  C  C152  1  0.805460  0.504600  0.680430  1.0  -0.1625
  C  C153  1  0.870970  0.539600  0.672270  1.0  0.1556
  C  C154  1  0.857530  0.592400  0.541470  1.0  0.1707
  C  C155  1  0.791360  0.554900  0.546870  1.0  -0.1679
  C  C156  1  0.048430  0.706900  0.991520  1.0  0.6277
  C  C157  1  0.064690  0.535500  0.711890  1.0  0.6538
  C  C158  1  0.086990  0.627000  0.926020  1.0  -0.1407
  C  C159  1  0.056550  0.611300  0.853670  1.0  -0.0114
  C  C160  1  0.094110  0.545700  0.792200  1.0  -0.1577
  C  C161  1  0.159770  0.502400  0.802280  1.0  -0.07
  C  C162  1  0.191210  0.523100  0.873730  1.0  0.0386
  C  C163  1  0.152040  0.584900  0.935350  1.0  -0.0876
  C  C164  1  0.262470  0.489000  0.882290  1.0  0.0948
  C  C165  1  0.305460  0.495400  0.819570  1.0  -0.1616
  C  C166  1  0.370970  0.460400  0.827730  1.0  0.1543
  C  C167  1  0.357530  0.407600  0.958530  1.0  0.1716
  C  C168  1  0.291360  0.445100  0.953130  1.0  -0.1685
  N  N169  1  0.101760  0.412900  0.396830  1.0  -0.3625
  N  N170  1  0.601760  0.587100  0.103170  1.0  -0.3614
  N  N171  1  0.601760  0.912900  0.603170  1.0  -0.3624
  N  N172  1  0.101760  0.087100  0.896830  1.0  -0.3618
  N  N173  1  0.398240  0.087100  0.396830  1.0  -0.3606
  N  N174  1  0.898240  0.912900  0.103170  1.0  -0.3602
  N  N175  1  0.898240  0.587100  0.603170  1.0  -0.3605
  N  N176  1  0.398240  0.412900  0.896830  1.0  -0.3605
  O  O177  1  0.427780  0.704500  0.558760  1.0  -0.5437
  O  O178  1  0.507070  0.779900  0.482810  1.0  -0.5409
  O  O179  1  0.488120  0.630100  0.201390  1.0  -0.5918
  O  O180  1  0.407640  0.442700  0.161020  1.0  -0.5954
  O  O181  1  0.927780  0.295500  0.941240  1.0  -0.544
  O  O182  1  0.007070  0.220100  0.017190  1.0  -0.5406
  O  O183  1  0.988120  0.369900  0.298610  1.0  -0.5922
  O  O184  1  0.907640  0.557300  0.338980  1.0  -0.5954
  O  O185  1  0.927780  0.204500  0.441240  1.0  -0.5419
  O  O186  1  0.007070  0.279900  0.517190  1.0  -0.5405
  O  O187  1  0.988120  0.130100  0.798610  1.0  -0.5919
  O  O188  1  0.907640  0.942700  0.838980  1.0  -0.5956
  O  O189  1  0.427780  0.795500  0.058760  1.0  -0.5414
  O  O190  1  0.507070  0.720100  0.982810  1.0  -0.5408
  O  O191  1  0.488120  0.869900  0.701390  1.0  -0.5921
  O  O192  1  0.407640  0.057300  0.661020  1.0  -0.5941
  O  O193  1  0.072220  0.795500  0.558760  1.0  -0.5429
  O  O194  1  0.992930  0.720100  0.482810  1.0  -0.5409
  O  O195  1  0.011880  0.869900  0.201390  1.0  -0.5921
  O  O196  1  0.092360  0.057300  0.161020  1.0  -0.5928
  O  O197  1  0.572220  0.204500  0.941240  1.0  -0.5433
  O  O198  1  0.492930  0.279900  0.017190  1.0  -0.5408
  O  O199  1  0.511880  0.130100  0.298610  1.0  -0.5918
  O  O200  1  0.592360  0.942700  0.338980  1.0  -0.5943
  O  O201  1  0.572220  0.295500  0.441240  1.0  -0.5412
  O  O202  1  0.492930  0.220100  0.517190  1.0  -0.5406
  O  O203  1  0.511880  0.369900  0.798610  1.0  -0.5922
  O  O204  1  0.592360  0.557300  0.838980  1.0  -0.5945
  O  O205  1  0.072220  0.704500  0.058760  1.0  -0.5407
  O  O206  1  0.992930  0.779900  0.982810  1.0  -0.5411
  O  O207  1  0.011880  0.630100  0.701390  1.0  -0.5917
  O  O208  1  0.092360  0.442700  0.661020  1.0  -0.5937
