# generated using pymatgen
data_LiH16(CN)4
_symmetry_space_group_name_H-M   'P 1'
_cell_length_a   14.72400000
_cell_length_b   8.56100000
_cell_length_c   13.26700000
_cell_angle_alpha   90.00000000
_cell_angle_beta   104.11000000
_cell_angle_gamma   90.00000000
_symmetry_Int_Tables_number   1
_chemical_formula_structural   LiH16(CN)4
_chemical_formula_sum   'Li4 H64 C16 N16'
_cell_volume   1621.87887439
_cell_formula_units_Z   4
loop_
 _symmetry_equiv_pos_site_id
 _symmetry_equiv_pos_as_xyz
  1  'x, y, z'
loop_
 _atom_site_type_symbol
 _atom_site_label
 _atom_site_symmetry_multiplicity
 _atom_site_fract_x
 _atom_site_fract_y
 _atom_site_fract_z
 _atom_site_occupancy
 _atom_site_charge
  Li  Li1  1  0.248300  0.040100  0.493000  1.0  0.8119
  Li  Li2  1  0.751700  0.540100  0.007000  1.0  0.8118
  Li  Li3  1  0.751700  0.959900  0.507000  1.0  0.8118
  Li  Li4  1  0.248300  0.459900  0.993000  1.0  0.8119
  H  H5  1  0.175000  0.045000  0.312000  1.0  0.1311
  H  H6  1  0.161000  0.214000  0.343000  1.0  0.2633
  H  H7  1  0.324000  0.427000  0.168000  1.0  0.1101
  H  H8  1  0.340000  0.264000  0.134000  1.0  0.1856
  H  H9  1  0.140000  0.899000  0.573000  1.0  0.271
  H  H10  1  0.112000  0.835000  0.477000  1.0  0.1787
  H  H11  1  0.388000  0.845000  0.522000  1.0  0.1878
  H  H12  1  0.361000  0.895000  0.421000  1.0  0.2534
  H  H13  1  0.315000  0.291000  0.339000  1.0  0.0353
  H  H14  1  0.314000  0.105000  0.287000  1.0  0.0418
  H  H15  1  0.191000  0.177000  0.140000  1.0  0.0456
  H  H16  1  0.185000  0.355000  0.190000  1.0  0.0469
  H  H17  1  0.440000  0.146000  0.474000  1.0  0.0346
  H  H18  1  0.472000  0.062000  0.586000  1.0  0.0322
  H  H19  1  0.058000  0.142000  0.510000  1.0  0.0359
  H  H20  1  0.020000  0.045000  0.403000  1.0  0.0312
  H  H21  1  0.825000  0.545000  0.188000  1.0  0.1298
  H  H22  1  0.839000  0.714000  0.157000  1.0  0.2634
  H  H23  1  0.676000  0.927000  0.332000  1.0  0.1098
  H  H24  1  0.660000  0.764000  0.366000  1.0  0.1845
  H  H25  1  0.860000  0.399000  0.927000  1.0  0.2716
  H  H26  1  0.888000  0.335000  0.023000  1.0  0.1786
  H  H27  1  0.612000  0.345000  0.978000  1.0  0.1873
  H  H28  1  0.639000  0.395000  0.079000  1.0  0.2526
  H  H29  1  0.685000  0.791000  0.161000  1.0  0.0374
  H  H30  1  0.686000  0.605000  0.213000  1.0  0.0424
  H  H31  1  0.809000  0.677000  0.360000  1.0  0.046
  H  H32  1  0.815000  0.855000  0.310000  1.0  0.0479
  H  H33  1  0.560000  0.646000  0.026000  1.0  0.035
  H  H34  1  0.528000  0.562000  0.914000  1.0  0.0304
  H  H35  1  0.942000  0.642000  0.990000  1.0  0.0356
  H  H36  1  0.980000  0.545000  0.097000  1.0  0.0328
  H  H37  1  0.825000  0.955000  0.688000  1.0  0.1292
  H  H38  1  0.839000  0.786000  0.657000  1.0  0.2638
  H  H39  1  0.676000  0.573000  0.832000  1.0  0.1091
  H  H40  1  0.660000  0.736000  0.866000  1.0  0.1834
  H  H41  1  0.860000  0.101000  0.427000  1.0  0.2703
  H  H42  1  0.888000  0.165000  0.523000  1.0  0.1839
  H  H43  1  0.612000  0.155000  0.478000  1.0  0.195
  H  H44  1  0.639000  0.105000  0.579000  1.0  0.2523
  H  H45  1  0.685000  0.709000  0.661000  1.0  0.036
  H  H46  1  0.686000  0.895000  0.713000  1.0  0.0422
  H  H47  1  0.809000  0.823000  0.860000  1.0  0.045
  H  H48  1  0.815000  0.645000  0.810000  1.0  0.0489
  H  H49  1  0.560000  0.854000  0.526000  1.0  0.0334
  H  H50  1  0.528000  0.938000  0.414000  1.0  0.0304
  H  H51  1  0.942000  0.858000  0.490000  1.0  0.0358
  H  H52  1  0.980000  0.955000  0.597000  1.0  0.0327
  H  H53  1  0.175000  0.455000  0.812000  1.0  0.1312
  H  H54  1  0.161000  0.286000  0.843000  1.0  0.2633
  H  H55  1  0.324000  0.073000  0.668000  1.0  0.1107
  H  H56  1  0.340000  0.236000  0.634000  1.0  0.1848
  H  H57  1  0.140000  0.601000  0.073000  1.0  0.27
  H  H58  1  0.112000  0.665000  0.977000  1.0  0.1855
  H  H59  1  0.388000  0.655000  0.022000  1.0  0.1945
  H  H60  1  0.361000  0.605000  0.921000  1.0  0.2535
  H  H61  1  0.315000  0.209000  0.839000  1.0  0.0351
  H  H62  1  0.314000  0.395000  0.787000  1.0  0.0416
  H  H63  1  0.191000  0.323000  0.640000  1.0  0.0466
  H  H64  1  0.185000  0.145000  0.690000  1.0  0.0484
  H  H65  1  0.440000  0.354000  0.974000  1.0  0.0338
  H  H66  1  0.472000  0.438000  0.086000  1.0  0.0322
  H  H67  1  0.058000  0.358000  0.010000  1.0  0.0357
  H  H68  1  0.020000  0.455000  0.903000  1.0  0.0303
  C  C69  1  0.272200  0.199800  0.291500  1.0  -0.0339
  C  C70  1  0.227500  0.266200  0.184800  1.0  -0.0777
  C  C71  1  0.042400  0.031900  0.483100  1.0  -0.0142
  C  C72  1  0.455800  0.035700  0.509800  1.0  -0.055
  C  C73  1  0.727800  0.699800  0.208500  1.0  -0.0337
  C  C74  1  0.772500  0.766200  0.315200  1.0  -0.0768
  C  C75  1  0.957600  0.531900  0.016900  1.0  -0.0142
  C  C76  1  0.544200  0.535700  0.990200  1.0  -0.0555
  C  C77  1  0.727800  0.800200  0.708500  1.0  -0.0335
  C  C78  1  0.772500  0.733800  0.815200  1.0  -0.0762
  C  C79  1  0.957600  0.968100  0.516900  1.0  -0.0159
  C  C80  1  0.544200  0.964300  0.490200  1.0  -0.0576
  C  C81  1  0.272200  0.300200  0.791500  1.0  -0.0338
  C  C82  1  0.227500  0.233800  0.684800  1.0  -0.0774
  C  C83  1  0.042400  0.468100  0.983100  1.0  -0.0153
  C  C84  1  0.455800  0.464300  0.009800  1.0  -0.0574
  N  N85  1  0.203700  0.137400  0.346700  1.0  -0.6456
  N  N86  1  0.295100  0.339400  0.133300  1.0  -0.6391
  N  N87  1  0.126200  0.933400  0.509400  1.0  -0.6173
  N  N88  1  0.373200  0.934800  0.485500  1.0  -0.6131
  N  N89  1  0.796300  0.637400  0.153300  1.0  -0.6492
  N  N90  1  0.704900  0.839400  0.366700  1.0  -0.6385
  N  N91  1  0.873800  0.433400  0.990600  1.0  -0.619
  N  N92  1  0.626800  0.434800  0.014500  1.0  -0.6108
  N  N93  1  0.796300  0.862600  0.653300  1.0  -0.649
  N  N94  1  0.704900  0.660600  0.866700  1.0  -0.6381
  N  N95  1  0.873800  0.066600  0.490600  1.0  -0.6179
  N  N96  1  0.626800  0.065200  0.514500  1.0  -0.617
  N  N97  1  0.203700  0.362600  0.846700  1.0  -0.6462
  N  N98  1  0.295100  0.160600  0.633300  1.0  -0.6397
  N  N99  1  0.126200  0.566600  0.009400  1.0  -0.6191
  N  N100  1  0.373200  0.565200  0.985500  1.0  -0.6176
