# generated using pymatgen
data_ZnH10C17NO4
_symmetry_space_group_name_H-M   'P 1'
_cell_length_a   7.75300000
_cell_length_b   10.45800000
_cell_length_c   11.23860000
_cell_angle_alpha   62.27210000
_cell_angle_beta   85.33360000
_cell_angle_gamma   79.92990000
_symmetry_Int_Tables_number   1
_chemical_formula_structural   ZnH10C17NO4
_chemical_formula_sum   'Zn2 H20 C34 N2 O8'
_cell_volume   794.16979452
_cell_formula_units_Z   2
loop_
 _symmetry_equiv_pos_site_id
 _symmetry_equiv_pos_as_xyz
  1  'x, y, z'
loop_
 _atom_site_type_symbol
 _atom_site_label
 _atom_site_symmetry_multiplicity
 _atom_site_fract_x
 _atom_site_fract_y
 _atom_site_fract_z
 _atom_site_occupancy
 _atom_site_charge
  Zn  Zn1  1  0.112400  0.600110  0.000000  1.0  0.9412
  Zn  Zn2  1  0.887600  0.399890  0.000000  1.0  0.9413
  H  H3  1  0.771600  0.145900  0.426800  1.0  0.1215
  H  H4  1  0.899700  0.971800  0.620400  1.0  0.0959
  H  H5  1  0.493400  0.747100  0.722200  1.0  0.1078
  H  H6  1  0.228400  0.427300  0.426800  1.0  0.1219
  H  H7  1  0.100300  0.407800  0.620400  1.0  0.0959
  H  H8  1  0.506600  0.530700  0.722200  1.0  0.1078
  H  H9  1  0.228400  0.854100  0.573200  1.0  0.121
  H  H10  1  0.100300  0.028200  0.379600  1.0  0.0961
  H  H11  1  0.506600  0.252900  0.277800  1.0  0.1085
  H  H12  1  0.771600  0.572700  0.573200  1.0  0.1219
  H  H13  1  0.899700  0.592200  0.379600  1.0  0.0958
  H  H14  1  0.493400  0.469300  0.277800  1.0  0.1087
  H  H15  1  0.036100  0.903200  0.000000  1.0  0.0819
  H  H16  1  0.197300  0.071500  0.000000  1.0  0.121
  H  H17  1  0.646200  0.809600  0.000000  1.0  0.1305
  H  H18  1  0.485100  0.641300  0.000000  1.0  0.1017
  H  H19  1  0.963900  0.096800  0.000000  1.0  0.0821
  H  H20  1  0.802700  0.928500  0.000000  1.0  0.1198
  H  H21  1  0.353800  0.190400  0.000000  1.0  0.132
  H  H22  1  0.514900  0.358700  0.000000  1.0  0.1018
  C  C23  1  0.539300  0.063000  0.453000  1.0  0.0464
  C  C24  1  0.712400  0.068500  0.485200  1.0  -0.145
  C  C25  1  0.789200  0.962600  0.599000  1.0  -0.0445
  C  C26  1  0.547600  0.827300  0.662800  1.0  -0.0888
  C  C27  1  0.715000  0.837600  0.689400  1.0  -0.1465
  C  C28  1  0.807000  0.715400  0.809200  1.0  0.6866
  C  C29  1  0.460700  0.484000  0.453000  1.0  0.0454
  C  C30  1  0.287600  0.446300  0.485200  1.0  -0.1458
  C  C31  1  0.210800  0.438400  0.599000  1.0  -0.0438
  C  C32  1  0.452400  0.509900  0.662800  1.0  -0.0912
  C  C33  1  0.285000  0.473000  0.689400  1.0  -0.1458
  C  C34  1  0.193000  0.475400  0.809200  1.0  0.6879
  C  C35  1  0.460700  0.937000  0.547000  1.0  0.0461
  C  C36  1  0.287600  0.931500  0.514800  1.0  -0.1378
  C  C37  1  0.210800  0.037400  0.401000  1.0  -0.0429
  C  C38  1  0.452400  0.172700  0.337200  1.0  -0.0921
  C  C39  1  0.285000  0.162400  0.310600  1.0  -0.1462
  C  C40  1  0.193000  0.284600  0.190800  1.0  0.687
  C  C41  1  0.539300  0.516000  0.547000  1.0  0.046
  C  C42  1  0.712400  0.553700  0.514800  1.0  -0.1352
  C  C43  1  0.789200  0.561600  0.401000  1.0  -0.0462
  C  C44  1  0.547600  0.490100  0.337200  1.0  -0.0918
  C  C45  1  0.715000  0.527000  0.310600  1.0  -0.1455
  C  C46  1  0.807000  0.524600  0.190800  1.0  0.6871
  C  C47  1  0.159200  0.884300  0.000000  1.0  0.1475
  C  C48  1  0.255300  0.984800  0.000000  1.0  -0.1764
  C  C49  1  0.437300  0.956800  0.000000  1.0  0.1038
  C  C50  1  0.523100  0.828500  0.000000  1.0  -0.1761
  C  C51  1  0.427000  0.728100  0.000000  1.0  0.1423
  C  C52  1  0.840800  0.115700  0.000000  1.0  0.1485
  C  C53  1  0.744700  0.015200  0.000000  1.0  -0.1769
  C  C54  1  0.562700  0.043200  0.000000  1.0  0.1045
  C  C55  1  0.476900  0.171500  0.000000  1.0  -0.1781
  C  C56  1  0.573000  0.271900  0.000000  1.0  0.1432
  N  N57  1  0.245000  0.756000  0.000000  1.0  -0.3242
  N  N58  1  0.755000  0.244000  0.000000  1.0  -0.324
  O  O59  1  0.932900  0.741400  0.853800  1.0  -0.5948
  O  O60  1  0.760800  0.591600  0.859400  1.0  -0.5872
  O  O61  1  0.067100  0.404800  0.853800  1.0  -0.5954
  O  O62  1  0.239200  0.549000  0.859400  1.0  -0.5892
  O  O63  1  0.067100  0.258600  0.146200  1.0  -0.5956
  O  O64  1  0.239200  0.408400  0.140600  1.0  -0.5875
  O  O65  1  0.932900  0.595200  0.146200  1.0  -0.5949
  O  O66  1  0.760800  0.451000  0.140600  1.0  -0.5891
