# generated using pymatgen
data_ZnH8C13NO4
_symmetry_space_group_name_H-M   'P 1'
_cell_length_a   10.88300000
_cell_length_b   10.92580000
_cell_length_c   14.06580000
_cell_angle_alpha   92.41700000
_cell_angle_beta   90.09900000
_cell_angle_gamma   101.72300000
_symmetry_Int_Tables_number   1
_chemical_formula_structural   ZnH8C13NO4
_chemical_formula_sum   'Zn4 H32 C52 N4 O16'
_cell_volume   1636.06706275
_cell_formula_units_Z   4
loop_
 _symmetry_equiv_pos_site_id
 _symmetry_equiv_pos_as_xyz
  1  'x, y, z'
loop_
 _atom_site_type_symbol
 _atom_site_label
 _atom_site_symmetry_multiplicity
 _atom_site_fract_x
 _atom_site_fract_y
 _atom_site_fract_z
 _atom_site_occupancy
 _atom_site_charge
  Zn  Zn1  1  0.265040  0.344380  0.890780  1.0  0.9043
  Zn  Zn2  1  0.262090  0.331560  0.681860  1.0  0.9208
  Zn  Zn3  1  0.734960  0.655620  0.109220  1.0  0.9058
  Zn  Zn4  1  0.737910  0.668440  0.318140  1.0  0.9231
  H  H5  1  0.661800  0.356800  0.930600  1.0  0.0985
  H  H6  1  0.873700  0.349200  0.929800  1.0  0.1018
  H  H7  1  0.654000  0.326500  0.643900  1.0  0.1027
  H  H8  1  0.255200  0.717400  0.643700  1.0  0.099
  H  H9  1  0.265200  0.744400  0.927100  1.0  0.0929
  H  H10  1  0.250300  0.953000  0.924200  1.0  0.1107
  H  H11  1  0.237800  0.927400  0.639300  1.0  0.1104
  H  H12  1  0.865700  0.319500  0.643300  1.0  0.1113
  H  H13  1  0.084900  0.319500  0.521300  1.0  0.0824
  H  H14  1  0.079100  0.314800  0.358600  1.0  0.1141
  H  H15  1  0.447900  0.362300  0.359500  1.0  0.1173
  H  H16  1  0.443400  0.358500  0.522600  1.0  0.0802
  H  H17  1  0.075000  0.324200  0.212200  1.0  0.1257
  H  H18  1  0.451200  0.353300  0.214400  1.0  0.1172
  H  H19  1  0.081900  0.323900  0.049600  1.0  0.0849
  H  H20  1  0.445500  0.351200  0.051600  1.0  0.0809
  H  H21  1  0.338200  0.643200  0.069400  1.0  0.0978
  H  H22  1  0.126300  0.650800  0.070200  1.0  0.1012
  H  H23  1  0.346000  0.673500  0.356100  1.0  0.1022
  H  H24  1  0.744800  0.282600  0.356300  1.0  0.0985
  H  H25  1  0.734800  0.255600  0.072900  1.0  0.0924
  H  H26  1  0.749700  0.047000  0.075800  1.0  0.1109
  H  H27  1  0.762200  0.072600  0.360700  1.0  0.1104
  H  H28  1  0.134300  0.680500  0.356700  1.0  0.1117
  H  H29  1  0.915100  0.680500  0.478700  1.0  0.0826
  H  H30  1  0.920900  0.685200  0.641400  1.0  0.1124
  H  H31  1  0.552100  0.637700  0.640500  1.0  0.1173
  H  H32  1  0.556600  0.641500  0.477400  1.0  0.0799
  H  H33  1  0.925000  0.675800  0.787800  1.0  0.1267
  H  H34  1  0.548800  0.646700  0.785600  1.0  0.117
  H  H35  1  0.918100  0.676100  0.950400  1.0  0.0852
  H  H36  1  0.554500  0.648800  0.948400  1.0  0.08
  C  C37  1  0.499700  0.349500  0.787600  1.0  0.6683
  C  C38  1  0.636300  0.342900  0.787900  1.0  -0.138
  C  C39  1  0.702600  0.349200  0.872500  1.0  -0.0474
  C  C40  1  0.829100  0.344600  0.872000  1.0  -0.0448
  C  C41  1  0.698500  0.331300  0.701800  1.0  -0.0486
  C  C42  1  0.279300  0.577400  0.787600  1.0  0.6943
  C  C43  1  0.266600  0.711600  0.786000  1.0  -0.1317
  C  C44  1  0.255600  0.765300  0.700800  1.0  -0.0552
  C  C45  1  0.261800  0.781500  0.868300  1.0  -0.0559
  C  C46  1  0.242400  0.098500  0.778200  1.0  0.6863
  C  C47  1  0.245100  0.961200  0.782000  1.0  -0.1159
  C  C48  1  0.252100  0.906300  0.866700  1.0  -0.0693
  C  C49  1  0.244900  0.891200  0.697900  1.0  -0.0727
  C  C50  1  0.027900  0.328300  0.787200  1.0  0.6916
  C  C51  1  0.889500  0.333100  0.787200  1.0  -0.1243
  C  C52  1  0.824300  0.326800  0.701300  1.0  -0.0631
  C  C53  1  0.160700  0.325900  0.488200  1.0  0.1595
  C  C54  1  0.156900  0.324600  0.390200  1.0  -0.1866
  C  C55  1  0.263400  0.337200  0.338800  1.0  0.0963
  C  C56  1  0.370300  0.351200  0.390600  1.0  -0.1762
  C  C57  1  0.367100  0.349300  0.489000  1.0  0.1729
  C  C58  1  0.262900  0.337600  0.234400  1.0  0.0725
  C  C59  1  0.152300  0.329800  0.181200  1.0  -0.1886
  C  C60  1  0.374000  0.346900  0.182500  1.0  -0.1936
  C  C61  1  0.157400  0.330500  0.083900  1.0  0.1716
  C  C62  1  0.369900  0.346600  0.084800  1.0  0.1794
  C  C63  1  0.500300  0.650500  0.212400  1.0  0.6691
  C  C64  1  0.363700  0.657100  0.212100  1.0  -0.1381
  C  C65  1  0.297400  0.650800  0.127500  1.0  -0.0455
  C  C66  1  0.170900  0.655400  0.128000  1.0  -0.0444
  C  C67  1  0.301500  0.668700  0.298200  1.0  -0.0487
  C  C68  1  0.720700  0.422600  0.212400  1.0  0.6943
  C  C69  1  0.733400  0.288400  0.214000  1.0  -0.1312
  C  C70  1  0.744400  0.234700  0.299200  1.0  -0.0551
  C  C71  1  0.738200  0.218500  0.131700  1.0  -0.0563
  C  C72  1  0.757600  0.901500  0.221800  1.0  0.6865
  C  C73  1  0.754900  0.038800  0.218000  1.0  -0.1163
  C  C74  1  0.747900  0.093700  0.133300  1.0  -0.0707
  C  C75  1  0.755100  0.108800  0.302100  1.0  -0.0722
  C  C76  1  0.972100  0.671700  0.212800  1.0  0.6917
  C  C77  1  0.110500  0.666900  0.212800  1.0  -0.1258
  C  C78  1  0.175700  0.673200  0.298700  1.0  -0.0658
  C  C79  1  0.839300  0.674100  0.511800  1.0  0.1593
  C  C80  1  0.843100  0.675400  0.609800  1.0  -0.1865
  C  C81  1  0.736600  0.662800  0.661200  1.0  0.0977
  C  C82  1  0.629700  0.648800  0.609400  1.0  -0.1776
  C  C83  1  0.632900  0.650700  0.511000  1.0  0.1732
  C  C84  1  0.737100  0.662400  0.765600  1.0  0.0721
  C  C85  1  0.847700  0.670200  0.818800  1.0  -0.1905
  C  C86  1  0.626000  0.653100  0.817500  1.0  -0.194
  C  C87  1  0.842600  0.669500  0.916100  1.0  0.1711
  C  C88  1  0.630100  0.653400  0.915200  1.0  0.1803
  N  N89  1  0.263800  0.335300  0.537000  1.0  -0.2776
  N  N90  1  0.265100  0.340200  0.034800  1.0  -0.3134
  N  N91  1  0.736200  0.664700  0.463000  1.0  -0.278
  N  N92  1  0.734900  0.659800  0.965200  1.0  -0.3108
  O  O93  1  0.449700  0.357200  0.866900  1.0  -0.5824
  O  O94  1  0.446800  0.345000  0.707900  1.0  -0.5945
  O  O95  1  0.283900  0.531700  0.867700  1.0  -0.5888
  O  O96  1  0.285800  0.521100  0.710600  1.0  -0.5937
  O  O97  1  0.243900  0.157200  0.857700  1.0  -0.6102
  O  O98  1  0.239600  0.145000  0.698800  1.0  -0.5894
  O  O99  1  0.080500  0.331200  0.865900  1.0  -0.5854
  O  O100  1  0.078700  0.323800  0.707400  1.0  -0.5989
  O  O101  1  0.550300  0.642800  0.133100  1.0  -0.5827
  O  O102  1  0.553200  0.655000  0.292100  1.0  -0.5944
  O  O103  1  0.716100  0.468300  0.132300  1.0  -0.5891
  O  O104  1  0.714200  0.478900  0.289400  1.0  -0.5934
  O  O105  1  0.756100  0.842800  0.142300  1.0  -0.6098
  O  O106  1  0.760400  0.855000  0.301200  1.0  -0.5893
  O  O107  1  0.919500  0.668800  0.134100  1.0  -0.5865
  O  O108  1  0.921300  0.676200  0.292600  1.0  -0.5989
