# generated using pymatgen
data_Cu3H16C24(N10Cl)2
_symmetry_space_group_name_H-M   'P 1'
_cell_length_a   12.33050000
_cell_length_b   15.50690000
_cell_length_c   15.64120000
_cell_angle_alpha   90.00000000
_cell_angle_beta   90.00000000
_cell_angle_gamma   90.00000000
_symmetry_Int_Tables_number   1
_chemical_formula_structural   Cu3H16C24(N10Cl)2
_chemical_formula_sum   'Cu6 H32 C48 N40 Cl4'
_cell_volume   2990.71991763
_cell_formula_units_Z   2
loop_
 _symmetry_equiv_pos_site_id
 _symmetry_equiv_pos_as_xyz
  1  'x, y, z'
loop_
 _atom_site_type_symbol
 _atom_site_label
 _atom_site_symmetry_multiplicity
 _atom_site_fract_x
 _atom_site_fract_y
 _atom_site_fract_z
 _atom_site_occupancy
 _atom_site_charge
  Cu  Cu1  1  0.000000  0.000000  0.000000  1.0  0.4824
  Cu  Cu2  1  0.500000  0.500000  0.500000  1.0  0.4824
  Cu  Cu3  1  0.152510  0.000000  0.192160  1.0  0.5347
  Cu  Cu4  1  0.847490  0.000000  0.807840  1.0  0.5338
  Cu  Cu5  1  0.347490  0.500000  0.692160  1.0  0.5343
  Cu  Cu6  1  0.652510  0.500000  0.307840  1.0  0.5341
  H  H7  1  0.773700  0.716200  0.097300  1.0  0.1329
  H  H8  1  0.678600  0.600500  0.150100  1.0  0.0812
  H  H9  1  0.842400  0.603900  0.358500  1.0  0.0861
  H  H10  1  0.943300  0.718800  0.311200  1.0  0.127
  H  H11  1  0.226300  0.716200  0.902700  1.0  0.1324
  H  H12  1  0.321400  0.600500  0.849900  1.0  0.0817
  H  H13  1  0.157600  0.603900  0.641500  1.0  0.0861
  H  H14  1  0.056700  0.718800  0.688800  1.0  0.1272
  H  H15  1  0.726300  0.783800  0.597300  1.0  0.1333
  H  H16  1  0.821400  0.899500  0.650100  1.0  0.0812
  H  H17  1  0.657600  0.896100  0.858500  1.0  0.0863
  H  H18  1  0.556700  0.781200  0.811200  1.0  0.1275
  H  H19  1  0.273700  0.783800  0.402700  1.0  0.1327
  H  H20  1  0.178600  0.899500  0.349900  1.0  0.0816
  H  H21  1  0.342400  0.896100  0.141500  1.0  0.0865
  H  H22  1  0.443300  0.781200  0.188800  1.0  0.1271
  H  H23  1  0.226300  0.283800  0.902700  1.0  0.1326
  H  H24  1  0.321400  0.399500  0.849900  1.0  0.0818
  H  H25  1  0.157600  0.396100  0.641500  1.0  0.0862
  H  H26  1  0.056700  0.281200  0.688800  1.0  0.1274
  H  H27  1  0.773700  0.283800  0.097300  1.0  0.1333
  H  H28  1  0.678600  0.399500  0.150100  1.0  0.0816
  H  H29  1  0.842400  0.396100  0.358500  1.0  0.086
  H  H30  1  0.943300  0.281200  0.311200  1.0  0.1274
  H  H31  1  0.273700  0.216200  0.402700  1.0  0.1325
  H  H32  1  0.178600  0.100500  0.349900  1.0  0.0818
  H  H33  1  0.342400  0.103900  0.141500  1.0  0.0864
  H  H34  1  0.443300  0.218800  0.188800  1.0  0.1267
  H  H35  1  0.726300  0.216200  0.597300  1.0  0.1329
  H  H36  1  0.821400  0.100500  0.650100  1.0  0.0815
  H  H37  1  0.657600  0.103900  0.858500  1.0  0.0867
  H  H38  1  0.556700  0.218800  0.811200  1.0  0.1271
  C  C39  1  0.933500  0.805400  0.166900  1.0  0.3197
  C  C40  1  0.871600  0.729900  0.198600  1.0  0.0629
  C  C41  1  0.790200  0.694300  0.151100  1.0  -0.1641
  C  C42  1  0.732400  0.625000  0.183900  1.0  0.1305
  C  C43  1  0.827700  0.626800  0.304800  1.0  0.1581
  C  C44  1  0.889400  0.695900  0.276400  1.0  -0.1606
  C  C45  1  0.066500  0.805400  0.833100  1.0  0.32
  C  C46  1  0.128400  0.729900  0.801400  1.0  0.0638
  C  C47  1  0.209800  0.694300  0.848900  1.0  -0.1646
  C  C48  1  0.267600  0.625000  0.816100  1.0  0.1315
  C  C49  1  0.172300  0.626800  0.695200  1.0  0.1583
  C  C50  1  0.110600  0.695900  0.723600  1.0  -0.1617
  C  C51  1  0.566500  0.694600  0.666900  1.0  0.3205
  C  C52  1  0.628400  0.770100  0.698600  1.0  0.0635
  C  C53  1  0.709800  0.805700  0.651100  1.0  -0.1644
  C  C54  1  0.767600  0.875000  0.683900  1.0  0.1305
  C  C55  1  0.672300  0.873200  0.804800  1.0  0.1585
  C  C56  1  0.610600  0.804100  0.776400  1.0  -0.1634
  C  C57  1  0.433500  0.694600  0.333100  1.0  0.3204
  C  C58  1  0.371600  0.770100  0.301400  1.0  0.0644
  C  C59  1  0.290200  0.805700  0.348900  1.0  -0.1647
  C  C60  1  0.232400  0.875000  0.316100  1.0  0.1311
  C  C61  1  0.327700  0.873200  0.195200  1.0  0.1585
  C  C62  1  0.389400  0.804100  0.223600  1.0  -0.1606
  C  C63  1  0.066500  0.194600  0.833100  1.0  0.3206
  C  C64  1  0.128400  0.270100  0.801400  1.0  0.0641
  C  C65  1  0.209800  0.305700  0.848900  1.0  -0.1642
  C  C66  1  0.267600  0.375000  0.816100  1.0  0.1313
  C  C67  1  0.172300  0.373200  0.695200  1.0  0.1588
  C  C68  1  0.110600  0.304100  0.723600  1.0  -0.1616
  C  C69  1  0.933500  0.194600  0.166900  1.0  0.3202
  C  C70  1  0.871600  0.270100  0.198600  1.0  0.0642
  C  C71  1  0.790200  0.305700  0.151100  1.0  -0.1637
  C  C72  1  0.732400  0.375000  0.183900  1.0  0.1307
  C  C73  1  0.827700  0.373200  0.304800  1.0  0.1581
  C  C74  1  0.889400  0.304100  0.276400  1.0  -0.1605
  C  C75  1  0.433500  0.305400  0.333100  1.0  0.3199
  C  C76  1  0.371600  0.229900  0.301400  1.0  0.0629
  C  C77  1  0.290200  0.194300  0.348900  1.0  -0.1651
  C  C78  1  0.232400  0.125000  0.316100  1.0  0.132
  C  C79  1  0.327700  0.126800  0.195200  1.0  0.1582
  C  C80  1  0.389400  0.195900  0.223600  1.0  -0.1608
  C  C81  1  0.566500  0.305400  0.666900  1.0  0.3199
  C  C82  1  0.628400  0.229900  0.698600  1.0  0.0636
  C  C83  1  0.709800  0.194300  0.651100  1.0  -0.1649
  C  C84  1  0.767600  0.125000  0.683900  1.0  0.1297
  C  C85  1  0.672300  0.126800  0.804800  1.0  0.1584
  C  C86  1  0.610600  0.195900  0.776400  1.0  -0.1635
  N  N87  1  0.985200  0.908160  0.091050  1.0  0.0475
  N  N88  1  0.040000  0.909360  0.163890  1.0  0.0056
  N  N89  1  0.008700  0.844870  0.213200  1.0  -0.3491
  N  N90  1  0.916400  0.842090  0.091410  1.0  -0.308
  N  N91  1  0.749700  0.592440  0.259510  1.0  -0.2487
  N  N92  1  0.014800  0.908160  0.908950  1.0  0.0468
  N  N93  1  0.960000  0.909360  0.836110  1.0  0.0052
  N  N94  1  0.991300  0.844870  0.786800  1.0  -0.3502
  N  N95  1  0.083600  0.842090  0.908590  1.0  -0.3072
  N  N96  1  0.250300  0.592440  0.740490  1.0  -0.2492
  N  N97  1  0.514800  0.591840  0.591050  1.0  0.0467
  N  N98  1  0.460000  0.590640  0.663890  1.0  0.0047
  N  N99  1  0.491300  0.655130  0.713200  1.0  -0.3491
  N  N100  1  0.583600  0.657910  0.591410  1.0  -0.3081
  N  N101  1  0.750300  0.907560  0.759510  1.0  -0.2481
  N  N102  1  0.485200  0.591840  0.408950  1.0  0.0467
  N  N103  1  0.540000  0.590640  0.336110  1.0  0.0058
  N  N104  1  0.508700  0.655130  0.286800  1.0  -0.3494
  N  N105  1  0.416400  0.657910  0.408590  1.0  -0.307
  N  N106  1  0.249700  0.907560  0.240490  1.0  -0.2479
  N  N107  1  0.014800  0.091840  0.908950  1.0  0.0464
  N  N108  1  0.960000  0.090640  0.836110  1.0  0.005
  N  N109  1  0.991300  0.155130  0.786800  1.0  -0.3498
  N  N110  1  0.083600  0.157910  0.908590  1.0  -0.3074
  N  N111  1  0.250300  0.407560  0.740490  1.0  -0.2482
  N  N112  1  0.985200  0.091840  0.091050  1.0  0.0473
  N  N113  1  0.040000  0.090640  0.163890  1.0  0.0053
  N  N114  1  0.008700  0.155130  0.213200  1.0  -0.3494
  N  N115  1  0.916400  0.157910  0.091410  1.0  -0.3075
  N  N116  1  0.749700  0.407560  0.259510  1.0  -0.2477
  N  N117  1  0.485200  0.408160  0.408950  1.0  0.0472
  N  N118  1  0.540000  0.409360  0.336110  1.0  0.0058
  N  N119  1  0.508700  0.344870  0.286800  1.0  -0.3499
  N  N120  1  0.416400  0.342090  0.408590  1.0  -0.307
  N  N121  1  0.249700  0.092440  0.240490  1.0  -0.2484
  N  N122  1  0.514800  0.408160  0.591050  1.0  0.0475
  N  N123  1  0.460000  0.409360  0.663890  1.0  0.005
  N  N124  1  0.491300  0.344870  0.713200  1.0  -0.3489
  N  N125  1  0.583600  0.342090  0.591410  1.0  -0.3085
  N  N126  1  0.750300  0.092440  0.759510  1.0  -0.2493
  Cl  Cl127  1  0.216170  0.000000  0.037710  1.0  -0.6192
  Cl  Cl128  1  0.783830  0.000000  0.962290  1.0  -0.6176
  Cl  Cl129  1  0.283830  0.500000  0.537710  1.0  -0.6184
  Cl  Cl130  1  0.716170  0.500000  0.462290  1.0  -0.6197
