# generated using pymatgen
data_Al3P3O12F
_symmetry_space_group_name_H-M   'P 1'
_cell_length_a   9.08970000
_cell_length_b   9.20750000
_cell_length_c   9.29140000
_cell_angle_alpha   76.54600000
_cell_angle_beta   87.29900000
_cell_angle_gamma   89.41100000
_symmetry_Int_Tables_number   1
_chemical_formula_structural   Al3P3O12F
_chemical_formula_sum   'Al6 P6 O24 F2'
_cell_volume   755.44814164
_cell_formula_units_Z   2
loop_
 _symmetry_equiv_pos_site_id
 _symmetry_equiv_pos_as_xyz
  1  'x, y, z'
loop_
 _atom_site_type_symbol
 _atom_site_label
 _atom_site_symmetry_multiplicity
 _atom_site_fract_x
 _atom_site_fract_y
 _atom_site_fract_z
 _atom_site_occupancy
 _atom_site_charge
  Al  Al1  1  0.065520  0.867640  0.587460  1.0  1.8369
  Al  Al2  1  0.660350  0.625580  0.574310  1.0  1.9547
  Al  Al3  1  0.118940  0.391200  0.841980  1.0  1.959
  Al  Al4  1  0.934480  0.132360  0.412540  1.0  1.8372
  Al  Al5  1  0.339650  0.374420  0.425690  1.0  1.9544
  Al  Al6  1  0.881060  0.608800  0.158020  1.0  1.9631
  P  P7  1  0.313070  0.618690  0.597150  1.0  2.0381
  P  P8  1  0.882740  0.627920  0.823080  1.0  2.0226
  P  P9  1  0.146090  0.168290  0.645720  1.0  1.8269
  P  P10  1  0.686930  0.381310  0.402850  1.0  2.0387
  P  P11  1  0.117260  0.372080  0.176920  1.0  2.0293
  P  P12  1  0.853910  0.831710  0.354280  1.0  1.8261
  O  O13  1  0.238360  0.767950  0.570130  1.0  -0.9343
  O  O14  1  0.998480  0.744500  0.762410  1.0  -0.9263
  O  O15  1  0.151590  0.998880  0.687850  1.0  -0.764
  O  O16  1  0.747140  0.642900  0.730300  1.0  -0.9786
  O  O17  1  0.032370  0.233510  0.533590  1.0  -0.8373
  O  O18  1  0.945410  0.470480  0.837200  1.0  -0.9431
  O  O19  1  0.118000  0.222810  0.789650  1.0  -0.9226
  O  O20  1  0.249700  0.510270  0.736360  1.0  -1.0101
  O  O21  1  0.475390  0.639100  0.623000  1.0  -0.9759
  O  O22  1  0.303100  0.547900  0.463770  1.0  -0.9411
  O  O23  1  0.299970  0.230460  0.580940  1.0  -0.8571
  O  O24  1  0.825430  0.644300  0.976580  1.0  -0.9769
  O  O25  1  0.761640  0.232050  0.429870  1.0  -0.9323
  O  O26  1  0.001520  0.255500  0.237590  1.0  -0.9269
  O  O27  1  0.848410  0.001120  0.312150  1.0  -0.764
  O  O28  1  0.252860  0.357100  0.269700  1.0  -0.9773
  O  O29  1  0.967630  0.766490  0.466410  1.0  -0.8385
  O  O30  1  0.054590  0.529520  0.162800  1.0  -0.9423
  O  O31  1  0.882000  0.777190  0.210350  1.0  -0.9244
  O  O32  1  0.750300  0.489730  0.263640  1.0  -1.01
  O  O33  1  0.524610  0.360900  0.377000  1.0  -0.9752
  O  O34  1  0.696900  0.452100  0.536230  1.0  -0.9401
  O  O35  1  0.700030  0.769540  0.419060  1.0  -0.8544
  O  O36  1  0.174570  0.355700  0.023420  1.0  -0.9762
  F  F37  1  0.105750  0.014150  0.416240  1.0  -0.5805
  F  F38  1  0.894250  0.985850  0.583760  1.0  -0.5776
