# generated using pymatgen
data_Al4(PO4)5
_symmetry_space_group_name_H-M   'P 1'
_cell_length_a   9.16200000
_cell_length_b   9.29100000
_cell_length_c   16.50400000
_cell_angle_alpha   75.03800000
_cell_angle_beta   75.24400000
_cell_angle_gamma   83.86700000
_symmetry_Int_Tables_number   1
_chemical_formula_structural   Al4(PO4)5
_chemical_formula_sum   'Al8 P10 O40'
_cell_volume   1311.22651935
_cell_formula_units_Z   2
loop_
 _symmetry_equiv_pos_site_id
 _symmetry_equiv_pos_as_xyz
  1  'x, y, z'
loop_
 _atom_site_type_symbol
 _atom_site_label
 _atom_site_symmetry_multiplicity
 _atom_site_fract_x
 _atom_site_fract_y
 _atom_site_fract_z
 _atom_site_occupancy
 _atom_site_charge
  Al  Al1  1  0.314060  0.849400  0.534190  1.0  2.0068
  Al  Al2  1  0.895160  0.611200  0.374860  1.0  1.8538
  Al  Al3  1  0.666420  0.554600  0.634770  1.0  2.0095
  Al  Al4  1  0.070200  0.548600  0.859700  1.0  2.0111
  Al  Al5  1  0.685940  0.150600  0.465810  1.0  2.0071
  Al  Al6  1  0.104840  0.388800  0.625140  1.0  1.8531
  Al  Al7  1  0.333580  0.445400  0.365230  1.0  2.0092
  Al  Al8  1  0.929800  0.451400  0.140300  1.0  2.0109
  P  P9  1  0.665790  0.817870  0.474160  1.0  2.0301
  P  P10  1  0.312160  0.580070  0.693590  1.0  2.1063
  P  P11  1  0.135040  0.663640  0.467860  1.0  2.0429
  P  P12  1  0.021700  0.736600  0.998890  1.0  1.7822
  P  P13  1  0.146610  0.547500  0.225460  1.0  1.8941
  P  P14  1  0.334210  0.182130  0.525840  1.0  2.0366
  P  P15  1  0.687840  0.419930  0.306410  1.0  2.1091
  P  P16  1  0.864960  0.336360  0.532140  1.0  2.044
  P  P17  1  0.978300  0.263400  0.001110  1.0  1.7818
  P  P18  1  0.853390  0.452500  0.774540  1.0  1.8864
  O  O19  1  0.498800  0.839900  0.474900  1.0  -1.0398
  O  O20  1  0.018300  0.711200  0.416600  1.0  -0.7611
  O  O21  1  0.071300  0.563400  0.554900  1.0  -0.9618
  O  O22  1  0.192200  0.803500  0.480400  1.0  -0.9354
  O  O23  1  0.732100  0.970400  0.455100  1.0  -0.9558
  O  O24  1  0.478400  0.533300  0.687600  1.0  -1.0016
  O  O25  1  0.074000  0.438400  0.193400  1.0  -0.892
  O  O26  1  0.742300  0.738300  0.404100  1.0  -0.9496
  O  O27  1  0.684300  0.727900  0.564000  1.0  -1.0021
  O  O28  1  0.236900  0.469200  0.668700  1.0  -0.8847
  O  O29  1  0.243400  0.587800  0.787600  1.0  -0.8783
  O  O30  1  0.273300  0.584800  0.419100  1.0  -0.9982
  O  O31  1  0.026100  0.644400  0.271500  1.0  -0.8625
  O  O32  1  0.300900  0.737700  0.637400  1.0  -1.0218
  O  O33  1  0.251600  0.647200  0.149000  1.0  -0.5484
  O  O34  1  0.028900  0.686100  0.917000  1.0  -0.9688
  O  O35  1  0.921300  0.629400  0.075000  1.0  -0.9409
  O  O36  1  0.237000  0.452400  0.287000  1.0  -0.9924
  O  O37  1  0.180900  0.732700  0.011000  1.0  -0.5708
  O  O38  1  0.947900  0.890300  0.987800  1.0  -0.5726
  O  O39  1  0.501200  0.160100  0.525100  1.0  -1.039
  O  O40  1  0.981700  0.288800  0.583400  1.0  -0.763
  O  O41  1  0.928700  0.436600  0.445100  1.0  -0.9589
  O  O42  1  0.807800  0.196500  0.519600  1.0  -0.9352
  O  O43  1  0.267900  0.029600  0.544900  1.0  -0.956
  O  O44  1  0.521600  0.466700  0.312400  1.0  -1.0023
  O  O45  1  0.926000  0.561600  0.806600  1.0  -0.8951
  O  O46  1  0.257700  0.261700  0.595900  1.0  -0.9509
  O  O47  1  0.315700  0.272100  0.436000  1.0  -1.0018
  O  O48  1  0.763100  0.530800  0.331300  1.0  -0.8863
  O  O49  1  0.756600  0.412200  0.212400  1.0  -0.8762
  O  O50  1  0.726700  0.415200  0.580900  1.0  -0.9975
  O  O51  1  0.973900  0.355600  0.728500  1.0  -0.8625
  O  O52  1  0.699100  0.262300  0.362600  1.0  -1.0219
  O  O53  1  0.748400  0.352800  0.851000  1.0  -0.5493
  O  O54  1  0.971100  0.313900  0.083000  1.0  -0.966
  O  O55  1  0.078700  0.370600  0.925000  1.0  -0.9419
  O  O56  1  0.763000  0.547600  0.713000  1.0  -0.9943
  O  O57  1  0.819100  0.267300  0.989000  1.0  -0.569
  O  O58  1  0.052100  0.109700  0.012200  1.0  -0.5693
