# generated using pymatgen
data_AgH18(C3S)3
_symmetry_space_group_name_H-M   'P 1'
_cell_length_a   8.60100000
_cell_length_b   14.22400000
_cell_length_c   16.09800000
_cell_angle_alpha   90.00000000
_cell_angle_beta   90.00000000
_cell_angle_gamma   90.00000000
_symmetry_Int_Tables_number   1
_chemical_formula_structural   AgH18(C3S)3
_chemical_formula_sum   'Ag4 H72 C36 S12'
_cell_volume   1969.43936515
_cell_formula_units_Z   4
loop_
 _symmetry_equiv_pos_site_id
 _symmetry_equiv_pos_as_xyz
  1  'x, y, z'
loop_
 _atom_site_type_symbol
 _atom_site_label
 _atom_site_symmetry_multiplicity
 _atom_site_fract_x
 _atom_site_fract_y
 _atom_site_fract_z
 _atom_site_occupancy
 _atom_site_charge
  Ag  Ag1  1  0.941450  0.430420  0.374500  1.0  -0.2563
  Ag  Ag2  1  0.558550  0.569580  0.874500  1.0  -0.2558
  Ag  Ag3  1  0.058550  0.930420  0.125500  1.0  -0.2563
  Ag  Ag4  1  0.441450  0.069580  0.625500  1.0  -0.2565
  H  H5  1  0.280700  0.367000  0.257100  1.0  0.0873
  H  H6  1  0.142500  0.332000  0.189400  1.0  0.0975
  H  H7  1  0.360700  0.206400  0.264600  1.0  0.0652
  H  H8  1  0.386600  0.225400  0.176100  1.0  0.0819
  H  H9  1  0.845000  0.658000  0.373800  1.0  0.0574
  H  H10  1  0.917100  0.642500  0.264600  1.0  0.0618
  H  H11  1  0.635400  0.433900  0.217500  1.0  0.1042
  H  H12  1  0.616400  0.550000  0.191900  1.0  0.0845
  H  H13  1  0.890000  0.551600  0.156700  1.0  0.0717
  H  H14  1  0.868200  0.423000  0.148700  1.0  0.0902
  H  H15  1  0.828200  0.568000  0.565800  1.0  0.0652
  H  H16  1  0.660700  0.525900  0.530800  1.0  0.091
  H  H17  1  0.582900  0.359500  0.447100  1.0  0.0795
  H  H18  1  0.576100  0.346400  0.547300  1.0  0.0737
  H  H19  1  0.793900  0.209300  0.468100  1.0  0.0874
  H  H20  1  0.612500  0.200500  0.497100  1.0  0.0816
  H  H21  1  0.299300  0.370200  0.424200  1.0  0.0435
  H  H22  1  0.358900  0.268400  0.394600  1.0  0.0948
  H  H23  1  0.219300  0.633000  0.757100  1.0  0.0874
  H  H24  1  0.357500  0.668000  0.689400  1.0  0.0972
  H  H25  1  0.139300  0.793600  0.764600  1.0  0.0656
  H  H26  1  0.113400  0.774600  0.676100  1.0  0.0716
  H  H27  1  0.655000  0.342000  0.873800  1.0  0.0586
  H  H28  1  0.582900  0.357500  0.764600  1.0  0.0602
  H  H29  1  0.864600  0.566100  0.717500  1.0  0.1044
  H  H30  1  0.883600  0.450000  0.691900  1.0  0.0837
  H  H31  1  0.610000  0.448400  0.656700  1.0  0.0718
  H  H32  1  0.631800  0.577000  0.648700  1.0  0.0905
  H  H33  1  0.671800  0.432000  0.065800  1.0  0.0633
  H  H34  1  0.839300  0.474100  0.030800  1.0  0.0926
  H  H35  1  0.917100  0.640500  0.947100  1.0  0.08
  H  H36  1  0.923900  0.653600  0.047300  1.0  0.0728
  H  H37  1  0.706100  0.790700  0.968100  1.0  0.0878
  H  H38  1  0.887500  0.799500  0.997100  1.0  0.0844
  H  H39  1  0.200700  0.629800  0.924200  1.0  0.0341
  H  H40  1  0.141100  0.731600  0.894600  1.0  0.0973
  H  H41  1  0.719300  0.867000  0.242900  1.0  0.087
  H  H42  1  0.857500  0.832000  0.310600  1.0  0.0986
  H  H43  1  0.639300  0.706400  0.235400  1.0  0.0655
  H  H44  1  0.613400  0.725400  0.323900  1.0  0.0677
  H  H45  1  0.155000  0.158000  0.126200  1.0  0.0584
  H  H46  1  0.082900  0.142500  0.235400  1.0  0.058
  H  H47  1  0.364600  0.933900  0.282500  1.0  0.1042
  H  H48  1  0.383600  0.050000  0.308100  1.0  0.0829
  H  H49  1  0.110000  0.051600  0.343300  1.0  0.0722
  H  H50  1  0.131800  0.923000  0.351300  1.0  0.0905
  H  H51  1  0.171800  0.068000  0.934200  1.0  0.0654
  H  H52  1  0.339300  0.025900  0.969200  1.0  0.0935
  H  H53  1  0.417100  0.859500  0.052900  1.0  0.0782
  H  H54  1  0.423900  0.846400  0.952700  1.0  0.0733
  H  H55  1  0.206100  0.709300  0.031900  1.0  0.0885
  H  H56  1  0.387500  0.700500  0.002900  1.0  0.0878
  H  H57  1  0.700700  0.870200  0.075800  1.0  0.0439
  H  H58  1  0.641100  0.768400  0.105400  1.0  0.0961
  H  H59  1  0.780700  0.133000  0.742900  1.0  0.0865
  H  H60  1  0.642500  0.168000  0.810600  1.0  0.0982
  H  H61  1  0.860700  0.293600  0.735400  1.0  0.0641
  H  H62  1  0.886600  0.274600  0.823900  1.0  0.0748
  H  H63  1  0.345000  0.842000  0.626200  1.0  0.0586
  H  H64  1  0.417100  0.857500  0.735400  1.0  0.0608
  H  H65  1  0.135400  0.066100  0.782500  1.0  0.1041
  H  H66  1  0.116400  0.950000  0.808100  1.0  0.0849
  H  H67  1  0.390000  0.948400  0.843300  1.0  0.072
  H  H68  1  0.368200  0.077000  0.851300  1.0  0.0902
  H  H69  1  0.328200  0.932000  0.434200  1.0  0.0648
  H  H70  1  0.160700  0.974100  0.469200  1.0  0.0946
  H  H71  1  0.082900  0.140500  0.552900  1.0  0.0782
  H  H72  1  0.076100  0.153600  0.452700  1.0  0.074
  H  H73  1  0.293900  0.290700  0.531900  1.0  0.0876
  H  H74  1  0.112500  0.299500  0.502900  1.0  0.0805
  H  H75  1  0.799300  0.129800  0.575800  1.0  0.0336
  H  H76  1  0.858900  0.231600  0.605400  1.0  0.0949
  C  C77  1  0.211700  0.310900  0.240400  1.0  -0.1492
  C  C78  1  0.294700  0.222200  0.214100  1.0  -0.0993
  C  C79  1  0.820000  0.644500  0.306000  1.0  -0.1318
  C  C80  1  0.684000  0.499000  0.207700  1.0  -0.1301
  C  C81  1  0.819800  0.486400  0.149300  1.0  -0.1703
  C  C82  1  0.736500  0.519400  0.559900  1.0  -0.0787
  C  C83  1  0.664900  0.337100  0.502600  1.0  -0.1393
  C  C84  1  0.713700  0.235000  0.502800  1.0  -0.1189
  C  C85  1  0.269400  0.301600  0.413400  1.0  -0.1073
  C  C86  1  0.288300  0.689100  0.740400  1.0  -0.1491
  C  C87  1  0.205300  0.777800  0.714100  1.0  -0.0987
  C  C88  1  0.680000  0.355500  0.806000  1.0  -0.1306
  C  C89  1  0.816000  0.501000  0.707700  1.0  -0.1315
  C  C90  1  0.680200  0.513600  0.649300  1.0  -0.1693
  C  C91  1  0.763500  0.480600  0.059900  1.0  -0.0778
  C  C92  1  0.835100  0.662900  0.002600  1.0  -0.1394
  C  C93  1  0.786300  0.765000  0.002800  1.0  -0.122
  C  C94  1  0.230600  0.698400  0.913400  1.0  -0.109
  C  C95  1  0.788300  0.810900  0.259600  1.0  -0.1537
  C  C96  1  0.705300  0.722200  0.285900  1.0  -0.1008
  C  C97  1  0.180000  0.144500  0.194000  1.0  -0.1302
  C  C98  1  0.316000  0.999000  0.292300  1.0  -0.1298
  C  C99  1  0.180200  0.986400  0.350700  1.0  -0.1687
  C  C100  1  0.263500  0.019400  0.940100  1.0  -0.0791
  C  C101  1  0.335100  0.837100  0.997400  1.0  -0.1398
  C  C102  1  0.286300  0.735000  0.997200  1.0  -0.1177
  C  C103  1  0.730600  0.801600  0.086600  1.0  -0.1107
  C  C104  1  0.711700  0.189100  0.759600  1.0  -0.1493
  C  C105  1  0.794700  0.277800  0.785900  1.0  -0.1003
  C  C106  1  0.320000  0.855500  0.694000  1.0  -0.1316
  C  C107  1  0.184000  0.001000  0.792300  1.0  -0.1299
  C  C108  1  0.319800  0.013600  0.850700  1.0  -0.1711
  C  C109  1  0.236500  0.980600  0.440100  1.0  -0.0772
  C  C110  1  0.164900  0.162900  0.497400  1.0  -0.1381
  C  C111  1  0.213700  0.265000  0.497200  1.0  -0.1188
  C  C112  1  0.769400  0.198400  0.586600  1.0  -0.1116
  S  S113  1  0.110100  0.296200  0.339400  1.0  0.0238
  S  S114  1  0.731100  0.528200  0.314700  1.0  -0.0201
  S  S115  1  0.829800  0.411500  0.525090  1.0  -0.0295
  S  S116  1  0.389900  0.703800  0.839400  1.0  0.0231
  S  S117  1  0.768900  0.471800  0.814700  1.0  -0.0202
  S  S118  1  0.670200  0.588500  0.025090  1.0  -0.0282
  S  S119  1  0.889900  0.796200  0.160600  1.0  0.0238
  S  S120  1  0.268900  0.028200  0.185300  1.0  -0.0197
  S  S121  1  0.170200  0.911500  0.974910  1.0  -0.0291
  S  S122  1  0.610100  0.203800  0.660600  1.0  0.0242
  S  S123  1  0.231100  0.971800  0.685300  1.0  -0.0195
  S  S124  1  0.329800  0.088500  0.474910  1.0  -0.0291
