# generated using pymatgen
data_Sm2Cu3H30C24(NO4)6
_symmetry_space_group_name_H-M   'P 1'
_cell_length_a   13.37700000
_cell_length_b   13.37700000
_cell_length_c   14.46200000
_cell_angle_alpha   90.00000000
_cell_angle_beta   90.00000000
_cell_angle_gamma   120.00000000
_symmetry_Int_Tables_number   1
_chemical_formula_structural   Sm2Cu3H30C24(NO4)6
_chemical_formula_sum   'Sm4 Cu6 H60 C48 N12 O48'
_cell_volume   2241.17847666
_cell_formula_units_Z   2
loop_
 _symmetry_equiv_pos_site_id
 _symmetry_equiv_pos_as_xyz
  1  'x, y, z'
loop_
 _atom_site_type_symbol
 _atom_site_label
 _atom_site_symmetry_multiplicity
 _atom_site_fract_x
 _atom_site_fract_y
 _atom_site_fract_z
 _atom_site_occupancy
 _atom_site_charge
  Sm  Sm1  1  0.666667  0.333333  0.332430  1.0  2.3036
  Sm  Sm2  1  0.333333  0.666667  0.167570  1.0  2.3037
  Sm  Sm3  1  0.333333  0.666667  0.667570  1.0  2.3037
  Sm  Sm4  1  0.666667  0.333333  0.832430  1.0  2.3036
  Cu  Cu5  1  0.500000  0.000000  0.500000  1.0  0.815
  Cu  Cu6  1  0.500000  0.500000  0.500000  1.0  0.815
  Cu  Cu7  1  0.000000  0.500000  0.500000  1.0  0.815
  Cu  Cu8  1  0.500000  0.000000  0.000000  1.0  0.8151
  Cu  Cu9  1  0.000000  0.500000  0.000000  1.0  0.8151
  Cu  Cu10  1  0.500000  0.500000  0.000000  1.0  0.8151
  H  H11  1  0.960800  0.254500  0.950000  1.0  0.1287
  H  H12  1  0.862400  0.180900  0.021100  1.0  0.1099
  H  H13  1  0.806500  0.267200  0.128300  1.0  0.1309
  H  H14  1  0.914300  0.313600  0.193500  1.0  0.1384
  H  H15  1  0.023800  0.349800  0.078700  1.0  0.2535
  H  H16  1  0.293700  0.039200  0.950000  1.0  0.1288
  H  H17  1  0.318500  0.137600  0.021100  1.0  0.1097
  H  H18  1  0.460700  0.193500  0.128300  1.0  0.1313
  H  H19  1  0.399300  0.085700  0.193500  1.0  0.1387
  H  H20  1  0.326000  0.976200  0.078700  1.0  0.2537
  H  H21  1  0.745500  0.706300  0.950000  1.0  0.1287
  H  H22  1  0.819100  0.681500  0.021100  1.0  0.1091
  H  H23  1  0.732800  0.539300  0.128300  1.0  0.1335
  H  H24  1  0.686400  0.600700  0.193500  1.0  0.1382
  H  H25  1  0.650200  0.674000  0.078700  1.0  0.2527
  H  H26  1  0.706300  0.745500  0.550000  1.0  0.1287
  H  H27  1  0.681500  0.819100  0.478900  1.0  0.109
  H  H28  1  0.539300  0.732800  0.371700  1.0  0.1314
  H  H29  1  0.600700  0.686400  0.306500  1.0  0.1392
  H  H30  1  0.674000  0.650200  0.421300  1.0  0.2535
  H  H31  1  0.254500  0.960800  0.550000  1.0  0.1289
  H  H32  1  0.180900  0.862400  0.478900  1.0  0.1095
  H  H33  1  0.267200  0.806500  0.371700  1.0  0.1316
  H  H34  1  0.313600  0.914300  0.306500  1.0  0.1388
  H  H35  1  0.349800  0.023800  0.421300  1.0  0.2537
  H  H36  1  0.039200  0.293700  0.550000  1.0  0.1288
  H  H37  1  0.137600  0.318500  0.478900  1.0  0.1085
  H  H38  1  0.193500  0.460700  0.371700  1.0  0.1346
  H  H39  1  0.085700  0.399300  0.306500  1.0  0.1385
  H  H40  1  0.976200  0.326000  0.421300  1.0  0.253
  H  H41  1  0.039200  0.745500  0.050000  1.0  0.1275
  H  H42  1  0.137600  0.819100  0.978900  1.0  0.11
  H  H43  1  0.193500  0.732800  0.871700  1.0  0.1309
  H  H44  1  0.085700  0.686400  0.806500  1.0  0.1387
  H  H45  1  0.976200  0.650200  0.921300  1.0  0.254
  H  H46  1  0.706300  0.960800  0.050000  1.0  0.1263
  H  H47  1  0.681500  0.862400  0.978900  1.0  0.1105
  H  H48  1  0.539300  0.806500  0.871700  1.0  0.1319
  H  H49  1  0.600700  0.914300  0.806500  1.0  0.1384
  H  H50  1  0.674000  0.023800  0.921300  1.0  0.2533
  H  H51  1  0.254500  0.293700  0.050000  1.0  0.127
  H  H52  1  0.180900  0.318500  0.978900  1.0  0.1094
  H  H53  1  0.267200  0.460700  0.871700  1.0  0.1324
  H  H54  1  0.313600  0.399300  0.806500  1.0  0.1384
  H  H55  1  0.349800  0.326000  0.921300  1.0  0.2528
  H  H56  1  0.293700  0.254500  0.450000  1.0  0.1273
  H  H57  1  0.318500  0.180900  0.521100  1.0  0.1104
  H  H58  1  0.460700  0.267200  0.628300  1.0  0.1307
  H  H59  1  0.399300  0.313600  0.693500  1.0  0.1386
  H  H60  1  0.326000  0.349800  0.578700  1.0  0.2538
  H  H61  1  0.745500  0.039200  0.450000  1.0  0.1267
  H  H62  1  0.819100  0.137600  0.521100  1.0  0.1108
  H  H63  1  0.732800  0.193500  0.628300  1.0  0.1314
  H  H64  1  0.686400  0.085700  0.693500  1.0  0.138
  H  H65  1  0.650200  0.976200  0.578700  1.0  0.2532
  H  H66  1  0.960800  0.706300  0.450000  1.0  0.1266
  H  H67  1  0.862400  0.681500  0.521100  1.0  0.1095
  H  H68  1  0.806500  0.539300  0.628300  1.0  0.1318
  H  H69  1  0.914300  0.600700  0.693500  1.0  0.1384
  H  H70  1  0.023800  0.674000  0.578700  1.0  0.2521
  C  C71  1  0.730100  0.183800  0.431400  1.0  0.6987
  C  C72  1  0.745600  0.097900  0.489900  1.0  -0.1826
  C  C73  1  0.875700  0.437800  0.159900  1.0  0.7542
  C  C74  1  0.883200  0.332000  0.139800  1.0  -0.2243
  C  C75  1  0.453700  0.269900  0.431400  1.0  0.6973
  C  C76  1  0.352300  0.254400  0.489900  1.0  -0.1811
  C  C77  1  0.562100  0.124300  0.159900  1.0  0.7529
  C  C78  1  0.448800  0.116800  0.139800  1.0  -0.224
  C  C79  1  0.816200  0.546300  0.431400  1.0  0.6982
  C  C80  1  0.902100  0.647700  0.489900  1.0  -0.1817
  C  C81  1  0.562200  0.437900  0.159900  1.0  0.7541
  C  C82  1  0.668000  0.551200  0.139800  1.0  -0.2232
  C  C83  1  0.546300  0.816200  0.068600  1.0  0.6987
  C  C84  1  0.647700  0.902100  0.010100  1.0  -0.1836
  C  C85  1  0.437900  0.562200  0.340100  1.0  0.754
  C  C86  1  0.551200  0.668000  0.360200  1.0  -0.2243
  C  C87  1  0.183800  0.730100  0.068600  1.0  0.6976
  C  C88  1  0.097900  0.745600  0.010100  1.0  -0.1809
  C  C89  1  0.437800  0.875700  0.340100  1.0  0.7529
  C  C90  1  0.332000  0.883200  0.360200  1.0  -0.2242
  C  C91  1  0.269900  0.453700  0.068600  1.0  0.6982
  C  C92  1  0.254400  0.352300  0.010100  1.0  -0.1826
  C  C93  1  0.124300  0.562100  0.340100  1.0  0.7552
  C  C94  1  0.116800  0.448800  0.360200  1.0  -0.2236
  C  C95  1  0.269900  0.816200  0.568600  1.0  0.6984
  C  C96  1  0.254400  0.902100  0.510100  1.0  -0.1833
  C  C97  1  0.124300  0.562200  0.840100  1.0  0.7546
  C  C98  1  0.116800  0.668000  0.860200  1.0  -0.2247
  C  C99  1  0.546300  0.730100  0.568600  1.0  0.6971
  C  C100  1  0.647700  0.745600  0.510100  1.0  -0.1816
  C  C101  1  0.437900  0.875700  0.840100  1.0  0.7528
  C  C102  1  0.551200  0.883200  0.860200  1.0  -0.2236
  C  C103  1  0.183800  0.453700  0.568600  1.0  0.699
  C  C104  1  0.097900  0.352300  0.510100  1.0  -0.1835
  C  C105  1  0.437800  0.562100  0.840100  1.0  0.7554
  C  C106  1  0.332000  0.448800  0.860200  1.0  -0.2232
  C  C107  1  0.453700  0.183800  0.931400  1.0  0.6986
  C  C108  1  0.352300  0.097900  0.989900  1.0  -0.1835
  C  C109  1  0.562100  0.437800  0.659900  1.0  0.7553
  C  C110  1  0.448800  0.332000  0.639800  1.0  -0.2244
  C  C111  1  0.816200  0.269900  0.931400  1.0  0.6972
  C  C112  1  0.902100  0.254400  0.989900  1.0  -0.1811
  C  C113  1  0.562200  0.124300  0.659900  1.0  0.7523
  C  C114  1  0.668000  0.116800  0.639800  1.0  -0.2231
  C  C115  1  0.730100  0.546300  0.931400  1.0  0.6981
  C  C116  1  0.745600  0.647700  0.989900  1.0  -0.1818
  C  C117  1  0.875700  0.437900  0.659900  1.0  0.7547
  C  C118  1  0.883200  0.551200  0.639800  1.0  -0.2232
  N  N119  1  0.652600  0.041900  0.558700  1.0  -0.2806
  N  N120  1  0.389300  0.347400  0.558700  1.0  -0.2787
  N  N121  1  0.958100  0.610700  0.558700  1.0  -0.2801
  N  N122  1  0.610700  0.958100  0.941300  1.0  -0.2803
  N  N123  1  0.041900  0.652600  0.941300  1.0  -0.2784
  N  N124  1  0.347400  0.389300  0.941300  1.0  -0.28
  N  N125  1  0.347400  0.958100  0.441300  1.0  -0.2798
  N  N126  1  0.610700  0.652600  0.441300  1.0  -0.2791
  N  N127  1  0.041900  0.389300  0.441300  1.0  -0.2806
  N  N128  1  0.389300  0.041900  0.058700  1.0  -0.2805
  N  N129  1  0.958100  0.347400  0.058700  1.0  -0.2789
  N  N130  1  0.652600  0.610700  0.058700  1.0  -0.2804
  O  O131  1  0.639100  0.187900  0.441700  1.0  -0.7388
  O  O132  1  0.754500  0.559500  0.373000  1.0  -0.665
  O  O133  1  0.597700  0.073700  0.107700  1.0  -0.5629
  O  O134  1  0.817100  0.435800  0.228400  1.0  -0.7318
  O  O135  1  0.548800  0.360900  0.441700  1.0  -0.7402
  O  O136  1  0.805000  0.245500  0.373000  1.0  -0.666
  O  O137  1  0.476000  0.402300  0.107700  1.0  -0.5639
  O  O138  1  0.618700  0.182900  0.228400  1.0  -0.7332
  O  O139  1  0.812100  0.451200  0.441700  1.0  -0.7414
  O  O140  1  0.440500  0.195000  0.373000  1.0  -0.6673
  O  O141  1  0.926300  0.524000  0.107700  1.0  -0.5642
  O  O142  1  0.564200  0.381300  0.228400  1.0  -0.7352
  O  O143  1  0.451200  0.812100  0.058300  1.0  -0.7388
  O  O144  1  0.195000  0.440500  0.127000  1.0  -0.6667
  O  O145  1  0.524000  0.926300  0.392300  1.0  -0.5624
  O  O146  1  0.381300  0.564200  0.271600  1.0  -0.731
  O  O147  1  0.187900  0.639100  0.058300  1.0  -0.7397
  O  O148  1  0.559500  0.754500  0.127000  1.0  -0.6677
  O  O149  1  0.073700  0.597700  0.392300  1.0  -0.5636
  O  O150  1  0.435800  0.817100  0.271600  1.0  -0.731
  O  O151  1  0.360900  0.548800  0.058300  1.0  -0.7418
  O  O152  1  0.245500  0.805000  0.127000  1.0  -0.6683
  O  O153  1  0.402300  0.476000  0.392300  1.0  -0.5636
  O  O154  1  0.182900  0.618700  0.271600  1.0  -0.7328
  O  O155  1  0.360900  0.812100  0.558300  1.0  -0.7382
  O  O156  1  0.245500  0.440500  0.627000  1.0  -0.6668
  O  O157  1  0.402300  0.926300  0.892300  1.0  -0.5629
  O  O158  1  0.182900  0.564200  0.771600  1.0  -0.7313
  O  O159  1  0.451200  0.639100  0.558300  1.0  -0.7397
  O  O160  1  0.195000  0.754500  0.627000  1.0  -0.6679
  O  O161  1  0.524000  0.597700  0.892300  1.0  -0.5635
  O  O162  1  0.381300  0.817100  0.771600  1.0  -0.7309
  O  O163  1  0.187900  0.548800  0.558300  1.0  -0.7416
  O  O164  1  0.559500  0.805000  0.627000  1.0  -0.668
  O  O165  1  0.073700  0.476000  0.892300  1.0  -0.5638
  O  O166  1  0.435800  0.618700  0.771600  1.0  -0.7316
  O  O167  1  0.548800  0.187900  0.941700  1.0  -0.7385
  O  O168  1  0.805000  0.559500  0.873000  1.0  -0.6652
  O  O169  1  0.476000  0.073700  0.607700  1.0  -0.5634
  O  O170  1  0.618700  0.435800  0.728400  1.0  -0.7326
  O  O171  1  0.812100  0.360900  0.941700  1.0  -0.7403
  O  O172  1  0.440500  0.245500  0.873000  1.0  -0.6661
  O  O173  1  0.926300  0.402300  0.607700  1.0  -0.5637
  O  O174  1  0.564200  0.182900  0.728400  1.0  -0.7329
  O  O175  1  0.639100  0.451200  0.941700  1.0  -0.7416
  O  O176  1  0.754500  0.195000  0.873000  1.0  -0.6672
  O  O177  1  0.597700  0.524000  0.607700  1.0  -0.5645
  O  O178  1  0.817100  0.381300  0.728400  1.0  -0.7344
