# generated using pymatgen
data_InHC2O5
_symmetry_space_group_name_H-M   'P 1'
_cell_length_a   7.95300000
_cell_length_b   11.09920000
_cell_length_c   11.09920000
_cell_angle_alpha   65.51660000
_cell_angle_beta   76.18160000
_cell_angle_gamma   103.81800000
_symmetry_Int_Tables_number   1
_chemical_formula_structural   InHC2O5
_chemical_formula_sum   'In6 H6 C12 O30'
_cell_volume   800.08550333
_cell_formula_units_Z   6
loop_
 _symmetry_equiv_pos_site_id
 _symmetry_equiv_pos_as_xyz
  1  'x, y, z'
loop_
 _atom_site_type_symbol
 _atom_site_label
 _atom_site_symmetry_multiplicity
 _atom_site_fract_x
 _atom_site_fract_y
 _atom_site_fract_z
 _atom_site_occupancy
 _atom_site_charge
  In  In1  1  0.951900  0.597220  0.397720  1.0  1.5936
  In  In2  1  0.349620  0.397720  0.005060  1.0  1.593
  In  In3  1  0.354680  0.005060  0.597220  1.0  1.5886
  In  In4  1  0.849620  0.994940  0.602280  1.0  1.5868
  In  In5  1  0.854680  0.402780  0.994940  1.0  1.5947
  In  In6  1  0.451900  0.602280  0.402780  1.0  1.5919
  H  H7  1  0.699200  0.666200  0.489200  1.0  0.4195
  H  H8  1  0.188400  0.489200  0.844600  1.0  0.4218
  H  H9  1  0.033000  0.844600  0.666200  1.0  0.4235
  H  H10  1  0.688400  0.155400  0.510800  1.0  0.4249
  H  H11  1  0.533000  0.333800  0.155400  1.0  0.4213
  H  H12  1  0.199200  0.510800  0.333800  1.0  0.4216
  C  C13  1  0.931400  0.574100  0.682100  1.0  0.6217
  C  C14  1  0.862200  0.417000  0.717000  1.0  0.6031
  C  C15  1  0.613500  0.682100  0.743800  1.0  0.6204
  C  C16  1  0.579200  0.717000  0.866000  1.0  0.6077
  C  C17  1  0.357300  0.743800  0.574100  1.0  0.6204
  C  C18  1  0.445200  0.866000  0.417000  1.0  0.6057
  C  C19  1  0.113500  0.256200  0.317900  1.0  0.6214
  C  C20  1  0.079200  0.134000  0.283000  1.0  0.6059
  C  C21  1  0.857300  0.425900  0.256200  1.0  0.6222
  C  C22  1  0.945200  0.583000  0.134000  1.0  0.6019
  C  C23  1  0.431400  0.317900  0.425900  1.0  0.6198
  C  C24  1  0.362200  0.283000  0.583000  1.0  0.6087
  O  O25  1  0.709900  0.638800  0.430600  1.0  -0.8904
  O  O26  1  0.993600  0.669900  0.551100  1.0  -0.594
  O  O27  1  0.844700  0.394600  0.619300  1.0  -0.5948
  O  O28  1  0.329500  0.620000  0.596300  1.0  -0.5963
  O  O29  1  0.493800  0.832700  0.324800  1.0  -0.5853
  O  O30  1  0.140500  0.430600  0.930600  1.0  -0.8859
  O  O31  1  0.544700  0.551100  0.779000  1.0  -0.5926
  O  O32  1  0.464000  0.619300  0.986100  1.0  -0.5942
  O  O33  1  0.925800  0.596300  0.783700  1.0  -0.5955
  O  O34  1  0.818600  0.324800  0.842500  1.0  -0.5648
  O  O35  1  0.071100  0.930600  0.638800  1.0  -0.8729
  O  O36  1  0.323700  0.779000  0.669900  1.0  -0.5947
  O  O37  1  0.450100  0.986100  0.394600  1.0  -0.5954
  O  O38  1  0.709500  0.783700  0.620000  1.0  -0.5962
  O  O39  1  0.661100  0.842500  0.832700  1.0  -0.5659
  O  O40  1  0.640500  0.069400  0.569400  1.0  -0.8832
  O  O41  1  0.044700  0.221000  0.448900  1.0  -0.5938
  O  O42  1  0.964000  0.013900  0.380700  1.0  -0.5952
  O  O43  1  0.425800  0.216300  0.403700  1.0  -0.5956
  O  O44  1  0.318600  0.157500  0.675200  1.0  -0.5825
  O  O45  1  0.571100  0.361200  0.069400  1.0  -0.8907
  O  O46  1  0.823700  0.330100  0.221000  1.0  -0.5938
  O  O47  1  0.950100  0.605400  0.013900  1.0  -0.5948
  O  O48  1  0.209500  0.380000  0.216300  1.0  -0.5965
  O  O49  1  0.161100  0.167300  0.157500  1.0  -0.5665
  O  O50  1  0.209900  0.569400  0.361200  1.0  -0.8859
  O  O51  1  0.493600  0.448900  0.330100  1.0  -0.5928
  O  O52  1  0.344700  0.380700  0.605400  1.0  -0.5925
  O  O53  1  0.829500  0.403700  0.380000  1.0  -0.5951
  O  O54  1  0.993800  0.675200  0.167300  1.0  -0.5624
