# generated using pymatgen
data_KGdH2C10O9
_symmetry_space_group_name_H-M   'P 1'
_cell_length_a   7.11900000
_cell_length_b   8.78300000
_cell_length_c   15.06700000
_cell_angle_alpha   79.61000000
_cell_angle_beta   87.52000000
_cell_angle_gamma   83.21000000
_symmetry_Int_Tables_number   1
_chemical_formula_structural   KGdH2C10O9
_chemical_formula_sum   'K2 Gd2 H4 C20 O18'
_cell_volume   919.90293850
_cell_formula_units_Z   2
loop_
 _symmetry_equiv_pos_site_id
 _symmetry_equiv_pos_as_xyz
  1  'x, y, z'
loop_
 _atom_site_type_symbol
 _atom_site_label
 _atom_site_symmetry_multiplicity
 _atom_site_fract_x
 _atom_site_fract_y
 _atom_site_fract_z
 _atom_site_occupancy
 _atom_site_charge
  K  K1  1  0.013730  0.551820  0.127510  1.0  0.9646
  K  K2  1  0.986270  0.448180  0.872490  1.0  0.9651
  Gd  Gd3  1  0.523960  0.390180  0.225090  1.0  2.0858
  Gd  Gd4  1  0.476040  0.609820  0.774910  1.0  2.0861
  H  H5  1  0.324600  0.491200  0.486100  1.0  0.1149
  H  H6  1  0.626600  0.034600  0.854200  1.0  0.131
  H  H7  1  0.675400  0.508800  0.513900  1.0  0.1164
  H  H8  1  0.373400  0.965400  0.145800  1.0  0.1311
  C  C9  1  0.193600  0.494500  0.491900  1.0  -0.0468
  C  C10  1  0.092100  0.466300  0.421500  1.0  -0.0072
  C  C11  1  0.104400  0.527600  0.570900  1.0  -0.1126
  C  C12  1  0.207800  0.429200  0.340000  1.0  0.6706
  C  C13  1  0.222000  0.558600  0.644600  1.0  0.7073
  C  C14  1  0.488000  0.149300  0.946800  1.0  -0.03
  C  C15  1  0.298600  0.262100  0.070300  1.0  0.733
  C  C16  1  0.410300  0.127300  0.035100  1.0  -0.0809
  C  C17  1  0.576200  0.020900  0.912700  1.0  -0.052
  C  C18  1  0.487700  0.308000  0.891000  1.0  0.6591
  C  C19  1  0.806400  0.505500  0.508100  1.0  -0.0481
  C  C20  1  0.907900  0.533700  0.578500  1.0  -0.0054
  C  C21  1  0.895600  0.472400  0.429100  1.0  -0.1129
  C  C22  1  0.792200  0.570800  0.660000  1.0  0.6746
  C  C23  1  0.778000  0.441400  0.355400  1.0  0.7079
  C  C24  1  0.512000  0.850700  0.053200  1.0  -0.0286
  C  C25  1  0.701400  0.737900  0.929700  1.0  0.7342
  C  C26  1  0.589700  0.872700  0.964900  1.0  -0.0821
  C  C27  1  0.423800  0.979100  0.087300  1.0  -0.0524
  C  C28  1  0.512300  0.692000  0.109000  1.0  0.6591
  O  O29  1  0.287700  0.293600  0.342280  1.0  -0.589
  O  O30  1  0.239100  0.537800  0.276200  1.0  -0.6735
  O  O31  1  0.145900  0.591800  0.716310  1.0  -0.7004
  O  O32  1  0.398000  0.552800  0.630790  1.0  -0.6444
  O  O33  1  0.320000  0.270100  0.152270  1.0  -0.7248
  O  O34  1  0.193200  0.354400  0.017760  1.0  -0.6245
  O  O35  1  0.584400  0.404400  0.914170  1.0  -0.6167
  O  O36  1  0.393800  0.342600  0.818960  1.0  -0.6831
  O  O37  1  0.730800  0.343800  0.097400  1.0  -0.4891
  O  O38  1  0.712300  0.706400  0.657720  1.0  -0.5852
  O  O39  1  0.760900  0.462200  0.723800  1.0  -0.6734
  O  O40  1  0.854100  0.408200  0.283690  1.0  -0.6981
  O  O41  1  0.602000  0.447200  0.369210  1.0  -0.6439
  O  O42  1  0.680000  0.729900  0.847730  1.0  -0.7276
  O  O43  1  0.806800  0.645600  0.982240  1.0  -0.6239
  O  O44  1  0.415600  0.595600  0.085830  1.0  -0.6161
  O  O45  1  0.606200  0.657400  0.181040  1.0  -0.6802
  O  O46  1  0.269200  0.656200  0.902600  1.0  -0.4881
