# generated using pymatgen
data_Cr2Cu3H39(C16N7)3
_symmetry_space_group_name_H-M   'P 1'
_cell_length_a   18.00500000
_cell_length_b   23.23500000
_cell_length_c   23.73200000
_cell_angle_alpha   90.00000000
_cell_angle_beta   90.00000000
_cell_angle_gamma   90.46000000
_symmetry_Int_Tables_number   1
_chemical_formula_structural   Cr2Cu3H39(C16N7)3
_chemical_formula_sum   'Cr8 Cu12 H156 C192 N84'
_cell_volume   9927.87145587
_cell_formula_units_Z   4
loop_
 _symmetry_equiv_pos_site_id
 _symmetry_equiv_pos_as_xyz
  1  'x, y, z'
loop_
 _atom_site_type_symbol
 _atom_site_label
 _atom_site_symmetry_multiplicity
 _atom_site_fract_x
 _atom_site_fract_y
 _atom_site_fract_z
 _atom_site_occupancy
 _atom_site_charge
  Cr  Cr1  1  0.992590  0.147250  0.347990  1.0  0.6825
  Cr  Cr2  1  0.007410  0.352750  0.847990  1.0  0.6787
  Cr  Cr3  1  0.007410  0.852750  0.652010  1.0  0.6817
  Cr  Cr4  1  0.992590  0.647250  0.152010  1.0  0.6855
  Cr  Cr5  1  0.500000  0.500000  0.500000  1.0  0.6514
  Cr  Cr6  1  0.500000  0.000000  0.000000  1.0  0.6514
  Cr  Cr7  1  0.000000  0.500000  0.500000  1.0  0.3317
  Cr  Cr8  1  0.000000  0.000000  0.000000  1.0  0.3317
  Cu  Cu9  1  0.743130  0.598920  0.443590  1.0  0.8184
  Cu  Cu10  1  0.877340  0.293510  0.485690  1.0  0.8394
  Cu  Cu11  1  0.912190  0.509280  0.712690  1.0  0.783
  Cu  Cu12  1  0.256870  0.901080  0.943590  1.0  0.8202
  Cu  Cu13  1  0.122660  0.206490  0.985690  1.0  0.841
  Cu  Cu14  1  0.087810  0.990720  0.212690  1.0  0.7823
  Cu  Cu15  1  0.256870  0.401080  0.556410  1.0  0.823
  Cu  Cu16  1  0.122660  0.706490  0.514310  1.0  0.8383
  Cu  Cu17  1  0.087810  0.490720  0.287310  1.0  0.7838
  Cu  Cu18  1  0.743130  0.098920  0.056410  1.0  0.8205
  Cu  Cu19  1  0.877340  0.793510  0.014310  1.0  0.838
  Cu  Cu20  1  0.912190  0.009280  0.787310  1.0  0.7831
  H  H21  1  0.659900  0.642700  0.547500  1.0  0.0565
  H  H22  1  0.671300  0.713800  0.616200  1.0  0.111
  H  H23  1  0.774300  0.751100  0.622100  1.0  0.0482
  H  H24  1  0.860100  0.757600  0.554300  1.0  0.1026
  H  H25  1  0.889000  0.707600  0.434300  1.0  0.0823
  H  H26  1  0.903400  0.645900  0.459000  1.0  0.101
  H  H27  1  0.899400  0.595700  0.389000  1.0  0.0833
  H  H28  1  0.887700  0.644200  0.343500  1.0  0.0732
  H  H29  1  0.865600  0.574400  0.264300  1.0  0.1022
  H  H30  1  0.787900  0.515700  0.225900  1.0  0.0598
  H  H31  1  0.682400  0.480500  0.270000  1.0  0.1118
  H  H32  1  0.659100  0.522000  0.363300  1.0  0.0658
  H  H33  1  0.813600  0.273600  0.365400  1.0  0.0733
  H  H34  1  0.727400  0.312500  0.307000  1.0  0.1163
  H  H35  1  0.651300  0.383400  0.342900  1.0  0.0906
  H  H36  1  0.669500  0.418700  0.432900  1.0  0.099
  H  H37  1  0.810500  0.416600  0.509600  1.0  0.0845
  H  H38  1  0.731800  0.396100  0.530700  1.0  0.0918
  H  H39  1  0.822300  0.357100  0.620400  1.0  0.0764
  H  H40  1  0.882100  0.385600  0.580700  1.0  0.0782
  H  H41  1  0.921200  0.321700  0.683500  1.0  0.1077
  H  H42  1  0.006200  0.250500  0.695200  1.0  0.081
  H  H43  1  0.041200  0.183100  0.623900  1.0  0.1251
  H  H44  1  0.988800  0.204300  0.533300  1.0  0.0823
  H  H45  1  0.810300  0.411400  0.741200  1.0  0.0284
  H  H46  1  0.693400  0.375300  0.721600  1.0  0.1142
  H  H47  1  0.637600  0.421300  0.654700  1.0  0.0773
  H  H48  1  0.670300  0.508000  0.613600  1.0  0.1073
  H  H49  1  0.841500  0.556200  0.601400  1.0  0.0743
  H  H50  1  0.781400  0.595500  0.629600  1.0  0.0838
  H  H51  1  0.912800  0.656400  0.654100  1.0  0.0914
  H  H52  1  0.945100  0.603600  0.621000  1.0  0.09
  H  H53  1  0.042300  0.690600  0.686200  1.0  0.1041
  H  H54  1  0.142400  0.672400  0.747200  1.0  0.084
  H  H55  1  0.140600  0.591600  0.804100  1.0  0.1148
  H  H56  1  0.049700  0.523500  0.788700  1.0  0.0757
  H  H57  1  0.772400  0.653000  0.405800  1.0  0.1959
  H  H58  1  0.804300  0.300900  0.529300  1.0  0.1971
  H  H59  1  0.863100  0.570500  0.712600  1.0  0.2272
  H  H60  1  0.340100  0.857300  0.047500  1.0  0.0567
  H  H61  1  0.328700  0.786200  0.116200  1.0  0.1101
  H  H62  1  0.225700  0.748900  0.122100  1.0  0.0481
  H  H63  1  0.139900  0.742400  0.054300  1.0  0.1024
  H  H64  1  0.111000  0.792400  0.934300  1.0  0.083
  H  H65  1  0.096600  0.854100  0.959000  1.0  0.1005
  H  H66  1  0.100600  0.904300  0.889000  1.0  0.0824
  H  H67  1  0.112300  0.855800  0.843500  1.0  0.0731
  H  H68  1  0.134400  0.925600  0.764300  1.0  0.1017
  H  H69  1  0.212100  0.984300  0.725900  1.0  0.0605
  H  H70  1  0.317600  0.019500  0.770000  1.0  0.1125
  H  H71  1  0.340900  0.978000  0.863300  1.0  0.0671
  H  H72  1  0.186400  0.226400  0.865400  1.0  0.0734
  H  H73  1  0.272600  0.187500  0.807000  1.0  0.1156
  H  H74  1  0.348700  0.116600  0.842900  1.0  0.0915
  H  H75  1  0.330500  0.081300  0.932900  1.0  0.0989
  H  H76  1  0.189500  0.083400  0.009600  1.0  0.0846
  H  H77  1  0.268200  0.103900  0.030700  1.0  0.0908
  H  H78  1  0.177700  0.142900  0.120400  1.0  0.0752
  H  H79  1  0.117900  0.114400  0.080700  1.0  0.0785
  H  H80  1  0.078800  0.178300  0.183500  1.0  0.108
  H  H81  1  0.993800  0.249500  0.195200  1.0  0.081
  H  H82  1  0.958800  0.316900  0.123900  1.0  0.1263
  H  H83  1  0.011200  0.295700  0.033300  1.0  0.084
  H  H84  1  0.189700  0.088600  0.241200  1.0  0.0277
  H  H85  1  0.306600  0.124700  0.221600  1.0  0.1131
  H  H86  1  0.362400  0.078700  0.154700  1.0  0.0787
  H  H87  1  0.329700  0.992000  0.113600  1.0  0.1076
  H  H88  1  0.158500  0.943800  0.101400  1.0  0.0733
  H  H89  1  0.218600  0.904500  0.129600  1.0  0.0841
  H  H90  1  0.087200  0.843600  0.154100  1.0  0.0909
  H  H91  1  0.054900  0.896400  0.121000  1.0  0.0898
  H  H92  1  0.957700  0.809400  0.186200  1.0  0.1045
  H  H93  1  0.857600  0.827600  0.247200  1.0  0.0846
  H  H94  1  0.859400  0.908400  0.304100  1.0  0.1158
  H  H95  1  0.950300  0.976500  0.288700  1.0  0.0758
  H  H96  1  0.227600  0.847000  0.905800  1.0  0.1949
  H  H97  1  0.195700  0.199100  0.029300  1.0  0.2015
  H  H98  1  0.136900  0.929500  0.212600  1.0  0.2249
  H  H99  1  0.340100  0.357300  0.452500  1.0  0.0568
  H  H100  1  0.328700  0.286200  0.383800  1.0  0.111
  H  H101  1  0.225700  0.248900  0.377900  1.0  0.0484
  H  H102  1  0.139900  0.242400  0.445700  1.0  0.1023
  H  H103  1  0.111000  0.292400  0.565700  1.0  0.0832
  H  H104  1  0.096600  0.354100  0.541000  1.0  0.1012
  H  H105  1  0.100600  0.404300  0.611000  1.0  0.0826
  H  H106  1  0.112300  0.355800  0.656500  1.0  0.0746
  H  H107  1  0.134400  0.425600  0.735700  1.0  0.1016
  H  H108  1  0.212100  0.484300  0.774100  1.0  0.06
  H  H109  1  0.317600  0.519500  0.730000  1.0  0.1123
  H  H110  1  0.340900  0.478000  0.636700  1.0  0.0678
  H  H111  1  0.186400  0.726400  0.634600  1.0  0.0726
  H  H112  1  0.272600  0.687500  0.693000  1.0  0.1154
  H  H113  1  0.348700  0.616600  0.657100  1.0  0.091
  H  H114  1  0.330500  0.581300  0.567100  1.0  0.0992
  H  H115  1  0.189500  0.583400  0.490400  1.0  0.085
  H  H116  1  0.268200  0.603900  0.469300  1.0  0.0911
  H  H117  1  0.177700  0.642900  0.379600  1.0  0.0761
  H  H118  1  0.117900  0.614400  0.419300  1.0  0.0783
  H  H119  1  0.078800  0.678300  0.316500  1.0  0.1078
  H  H120  1  0.993800  0.749500  0.304800  1.0  0.0814
  H  H121  1  0.958800  0.816900  0.376100  1.0  0.1265
  H  H122  1  0.011200  0.795700  0.466700  1.0  0.0825
  H  H123  1  0.189700  0.588600  0.258800  1.0  0.0269
  H  H124  1  0.306600  0.624700  0.278400  1.0  0.1139
  H  H125  1  0.362400  0.578700  0.345300  1.0  0.0784
  H  H126  1  0.329700  0.492000  0.386400  1.0  0.1072
  H  H127  1  0.158500  0.443800  0.398600  1.0  0.0749
  H  H128  1  0.218600  0.404500  0.370400  1.0  0.085
  H  H129  1  0.087200  0.343600  0.345900  1.0  0.0909
  H  H130  1  0.054900  0.396400  0.379000  1.0  0.0896
  H  H131  1  0.957700  0.309400  0.313800  1.0  0.1045
  H  H132  1  0.857600  0.327600  0.252800  1.0  0.0846
  H  H133  1  0.859400  0.408400  0.195900  1.0  0.1153
  H  H134  1  0.950300  0.476500  0.211300  1.0  0.0758
  H  H135  1  0.227600  0.347000  0.594200  1.0  0.194
  H  H136  1  0.195700  0.699100  0.470700  1.0  0.2015
  H  H137  1  0.136900  0.429500  0.287400  1.0  0.2279
  H  H138  1  0.659900  0.142700  0.952500  1.0  0.0564
  H  H139  1  0.671300  0.213800  0.883800  1.0  0.1108
  H  H140  1  0.774300  0.251100  0.877900  1.0  0.0481
  H  H141  1  0.860100  0.257600  0.945700  1.0  0.1025
  H  H142  1  0.889000  0.207600  0.065700  1.0  0.0823
  H  H143  1  0.903400  0.145900  0.041000  1.0  0.1009
  H  H144  1  0.899400  0.095700  0.111000  1.0  0.0828
  H  H145  1  0.887700  0.144200  0.156500  1.0  0.0739
  H  H146  1  0.865600  0.074400  0.235700  1.0  0.1018
  H  H147  1  0.787900  0.015700  0.274100  1.0  0.0608
  H  H148  1  0.682400  0.980500  0.230000  1.0  0.1129
  H  H149  1  0.659100  0.022000  0.136700  1.0  0.0664
  H  H150  1  0.813600  0.773600  0.134600  1.0  0.0729
  H  H151  1  0.727400  0.812500  0.193000  1.0  0.1172
  H  H152  1  0.651300  0.883400  0.157100  1.0  0.091
  H  H153  1  0.669500  0.918700  0.067100  1.0  0.0991
  H  H154  1  0.810500  0.916600  0.990400  1.0  0.0844
  H  H155  1  0.731800  0.896100  0.969300  1.0  0.0916
  H  H156  1  0.822300  0.857100  0.879600  1.0  0.0765
  H  H157  1  0.882100  0.885600  0.919300  1.0  0.0784
  H  H158  1  0.921200  0.821700  0.816500  1.0  0.1072
  H  H159  1  0.006200  0.750500  0.804800  1.0  0.081
  H  H160  1  0.041200  0.683100  0.876100  1.0  0.1258
  H  H161  1  0.988800  0.704300  0.966700  1.0  0.0827
  H  H162  1  0.810300  0.911400  0.758800  1.0  0.0269
  H  H163  1  0.693400  0.875300  0.778400  1.0  0.1124
  H  H164  1  0.637600  0.921300  0.845300  1.0  0.0768
  H  H165  1  0.670300  0.008000  0.886400  1.0  0.1065
  H  H166  1  0.841500  0.056200  0.898600  1.0  0.0756
  H  H167  1  0.781400  0.095500  0.870400  1.0  0.0846
  H  H168  1  0.912800  0.156400  0.845900  1.0  0.0915
  H  H169  1  0.945100  0.103600  0.879000  1.0  0.0897
  H  H170  1  0.042300  0.190600  0.813800  1.0  0.1042
  H  H171  1  0.142400  0.172400  0.752800  1.0  0.0846
  H  H172  1  0.140600  0.091600  0.695900  1.0  0.1156
  H  H173  1  0.049700  0.023500  0.711300  1.0  0.0759
  H  H174  1  0.772400  0.153000  0.094200  1.0  0.1965
  H  H175  1  0.804300  0.800900  0.970700  1.0  0.1972
  H  H176  1  0.863100  0.070500  0.787400  1.0  0.2291
  C  C177  1  0.702300  0.665900  0.547500  1.0  0.1582
  C  C178  1  0.708700  0.706300  0.590200  1.0  -0.036
  C  C179  1  0.764900  0.729500  0.589900  1.0  -0.0927
  C  C180  1  0.820900  0.731400  0.551200  1.0  -0.1016
  C  C181  1  0.816100  0.688300  0.502800  1.0  -0.0269
  C  C182  1  0.865000  0.673000  0.448700  1.0  -0.0577
  C  C183  1  0.862500  0.618400  0.369400  1.0  0.0233
  C  C184  1  0.811400  0.581900  0.340000  1.0  0.2446
  C  C185  1  0.824000  0.562200  0.284300  1.0  -0.1708
  C  C186  1  0.777900  0.528000  0.262400  1.0  -0.061
  C  C187  1  0.714200  0.506900  0.287000  1.0  -0.1468
  C  C188  1  0.702500  0.531400  0.344000  1.0  0.1585
  C  C189  1  0.785700  0.304200  0.378800  1.0  0.1532
  C  C190  1  0.733100  0.325900  0.343700  1.0  -0.1984
  C  C191  1  0.689000  0.368400  0.365100  1.0  -0.0832
  C  C192  1  0.699500  0.389400  0.419100  1.0  -0.1334
  C  C193  1  0.757400  0.365500  0.453700  1.0  0.2224
  C  C194  1  0.776200  0.384200  0.511000  1.0  -0.0342
  C  C195  1  0.854400  0.350500  0.588200  1.0  -0.0675
  C  C196  1  0.907700  0.302200  0.601400  1.0  0.2512
  C  C197  1  0.935000  0.297700  0.654100  1.0  -0.1214
  C  C198  1  0.984800  0.254400  0.659800  1.0  -0.099
  C  C199  1  0.008900  0.213400  0.617300  1.0  -0.1402
  C  C200  1  0.975800  0.226400  0.564400  1.0  0.118
  C  C201  1  0.781000  0.430900  0.715300  1.0  0.1509
  C  C202  1  0.713500  0.407800  0.704300  1.0  -0.1808
  C  C203  1  0.682400  0.437100  0.666900  1.0  -0.1069
  C  C204  1  0.701300  0.489700  0.639300  1.0  -0.1273
  C  C205  1  0.773700  0.511700  0.655300  1.0  0.2005
  C  C206  1  0.815800  0.564300  0.636400  1.0  -0.0477
  C  C207  1  0.928900  0.616900  0.657800  1.0  -0.1361
  C  C208  1  0.992600  0.613400  0.699500  1.0  0.1859
  C  C209  1  0.045200  0.656200  0.706100  1.0  -0.1435
  C  C210  1  0.103700  0.645900  0.744200  1.0  -0.1103
  C  C211  1  0.104300  0.597300  0.776800  1.0  -0.1251
  C  C212  1  0.049200  0.557300  0.767700  1.0  0.1649
  C  C213  1  0.600400  0.537600  0.482800  1.0  0.1401
  C  C214  1  0.552900  0.425500  0.529100  1.0  0.1412
  C  C215  1  0.499400  0.465900  0.417900  1.0  0.1562
  C  C216  1  0.889600  0.524100  0.488500  1.0  0.1118
  C  C217  1  0.972900  0.415400  0.482500  1.0  0.1156
  C  C218  1  0.978400  0.486400  0.583900  1.0  0.1081
  C  C219  1  0.951300  0.205300  0.405000  1.0  0.0963
  C  C220  1  0.064600  0.122600  0.407700  1.0  0.1381
  C  C221  1  0.068500  0.205500  0.316900  1.0  0.1382
  C  C222  1  0.917200  0.180300  0.290700  1.0  0.1212
  C  C223  1  0.918100  0.085000  0.371500  1.0  0.2075
  C  C224  1  0.966900  0.410300  0.792500  1.0  0.1081
  C  C225  1  0.297700  0.834100  0.047500  1.0  0.1604
  C  C226  1  0.291300  0.793700  0.090200  1.0  -0.0354
  C  C227  1  0.235100  0.770500  0.089900  1.0  -0.0959
  C  C228  1  0.179100  0.768600  0.051200  1.0  -0.1004
  C  C229  1  0.183900  0.811700  0.002800  1.0  -0.0282
  C  C230  1  0.135000  0.827000  0.948700  1.0  -0.0592
  C  C231  1  0.137500  0.881600  0.869400  1.0  0.0242
  C  C232  1  0.188600  0.918100  0.840000  1.0  0.2456
  C  C233  1  0.176000  0.937800  0.784300  1.0  -0.1706
  C  C234  1  0.222100  0.972000  0.762400  1.0  -0.0593
  C  C235  1  0.285800  0.993100  0.787000  1.0  -0.1454
  C  C236  1  0.297500  0.968600  0.844000  1.0  0.1593
  C  C237  1  0.214300  0.195800  0.878800  1.0  0.1524
  C  C238  1  0.266900  0.174100  0.843700  1.0  -0.1993
  C  C239  1  0.311000  0.131600  0.865100  1.0  -0.081
  C  C240  1  0.300500  0.110600  0.919100  1.0  -0.1318
  C  C241  1  0.242600  0.134500  0.953700  1.0  0.2237
  C  C242  1  0.223800  0.115800  0.011000  1.0  -0.0342
  C  C243  1  0.145600  0.149500  0.088200  1.0  -0.0694
  C  C244  1  0.092300  0.197800  0.101400  1.0  0.2493
  C  C245  1  0.065000  0.202300  0.154100  1.0  -0.1213
  C  C246  1  0.015200  0.245600  0.159800  1.0  -0.0993
  C  C247  1  0.991100  0.286600  0.117300  1.0  -0.1389
  C  C248  1  0.024200  0.273600  0.064400  1.0  0.1154
  C  C249  1  0.219000  0.069100  0.215300  1.0  0.1514
  C  C250  1  0.286500  0.092200  0.204300  1.0  -0.1824
  C  C251  1  0.317600  0.062900  0.166900  1.0  -0.1071
  C  C252  1  0.298700  0.010300  0.139300  1.0  -0.1243
  C  C253  1  0.226300  0.988300  0.155300  1.0  0.2004
  C  C254  1  0.184200  0.935700  0.136400  1.0  -0.0479
  C  C255  1  0.071100  0.883100  0.157800  1.0  -0.135
  C  C256  1  0.007400  0.886600  0.199500  1.0  0.1855
  C  C257  1  0.954800  0.843800  0.206100  1.0  -0.1436
  C  C258  1  0.896300  0.854100  0.244200  1.0  -0.1117
  C  C259  1  0.895700  0.902700  0.276800  1.0  -0.1262
  C  C260  1  0.950800  0.942700  0.267700  1.0  0.1642
  C  C261  1  0.399600  0.962400  0.982800  1.0  0.1386
  C  C262  1  0.447100  0.074500  0.029100  1.0  0.1426
  C  C263  1  0.500600  0.034100  0.917900  1.0  0.1559
  C  C264  1  0.110400  0.975900  0.988500  1.0  0.112
  C  C265  1  0.027100  0.084600  0.982500  1.0  0.1169
  C  C266  1  0.021600  0.013600  0.083900  1.0  0.1078
  C  C267  1  0.048700  0.294700  0.905000  1.0  0.0955
  C  C268  1  0.935400  0.377400  0.907700  1.0  0.1385
  C  C269  1  0.931500  0.294500  0.816900  1.0  0.1366
  C  C270  1  0.082800  0.319700  0.790700  1.0  0.1232
  C  C271  1  0.081900  0.415000  0.871500  1.0  0.2073
  C  C272  1  0.033100  0.089700  0.292500  1.0  0.1078
  C  C273  1  0.297700  0.334100  0.452500  1.0  0.1599
  C  C274  1  0.291300  0.293700  0.409800  1.0  -0.0363
  C  C275  1  0.235100  0.270500  0.410100  1.0  -0.0964
  C  C276  1  0.179100  0.268600  0.448800  1.0  -0.1009
  C  C277  1  0.183900  0.311700  0.497200  1.0  -0.028
  C  C278  1  0.135000  0.327000  0.551300  1.0  -0.0594
  C  C279  1  0.137500  0.381600  0.630600  1.0  0.0233
  C  C280  1  0.188600  0.418100  0.660000  1.0  0.2466
  C  C281  1  0.176000  0.437800  0.715700  1.0  -0.1708
  C  C282  1  0.222100  0.472000  0.737600  1.0  -0.0597
  C  C283  1  0.285800  0.493100  0.713000  1.0  -0.1429
  C  C284  1  0.297500  0.468600  0.656000  1.0  0.1563
  C  C285  1  0.214300  0.695800  0.621200  1.0  0.1524
  C  C286  1  0.266900  0.674100  0.656300  1.0  -0.2011
  C  C287  1  0.311000  0.631600  0.634900  1.0  -0.0822
  C  C288  1  0.300500  0.610600  0.580900  1.0  -0.1314
  C  C289  1  0.242600  0.634500  0.546300  1.0  0.223
  C  C290  1  0.223800  0.615800  0.489000  1.0  -0.035
  C  C291  1  0.145600  0.649500  0.411800  1.0  -0.0705
  C  C292  1  0.092300  0.697800  0.398600  1.0  0.2499
  C  C293  1  0.065000  0.702300  0.345900  1.0  -0.1191
  C  C294  1  0.015200  0.745600  0.340200  1.0  -0.1016
  C  C295  1  0.991100  0.786600  0.382700  1.0  -0.1391
  C  C296  1  0.024200  0.773600  0.435600  1.0  0.1155
  C  C297  1  0.219000  0.569100  0.284700  1.0  0.1532
  C  C298  1  0.286500  0.592200  0.295700  1.0  -0.1837
  C  C299  1  0.317600  0.562900  0.333100  1.0  -0.1065
  C  C300  1  0.298700  0.510300  0.360700  1.0  -0.1235
  C  C301  1  0.226300  0.488300  0.344700  1.0  0.2009
  C  C302  1  0.184200  0.435700  0.363600  1.0  -0.0503
  C  C303  1  0.071100  0.383100  0.342200  1.0  -0.1372
  C  C304  1  0.007400  0.386600  0.300500  1.0  0.1851
  C  C305  1  0.954800  0.343800  0.293900  1.0  -0.1435
  C  C306  1  0.896300  0.354100  0.255800  1.0  -0.1115
  C  C307  1  0.895700  0.402700  0.223200  1.0  -0.1265
  C  C308  1  0.950800  0.442700  0.232300  1.0  0.1636
  C  C309  1  0.399600  0.462400  0.517200  1.0  0.1382
  C  C310  1  0.447100  0.574500  0.470900  1.0  0.1426
  C  C311  1  0.500600  0.534100  0.582100  1.0  0.1554
  C  C312  1  0.110400  0.475900  0.511500  1.0  0.1115
  C  C313  1  0.027100  0.584600  0.517500  1.0  0.1177
  C  C314  1  0.021600  0.513600  0.416100  1.0  0.1078
  C  C315  1  0.048700  0.794700  0.595000  1.0  0.0966
  C  C316  1  0.935400  0.877400  0.592300  1.0  0.1376
  C  C317  1  0.931500  0.794500  0.683100  1.0  0.1382
  C  C318  1  0.082800  0.819700  0.709300  1.0  0.1237
  C  C319  1  0.081900  0.915000  0.628500  1.0  0.207
  C  C320  1  0.033100  0.589700  0.207500  1.0  0.111
  C  C321  1  0.702300  0.165900  0.952500  1.0  0.1577
  C  C322  1  0.708700  0.206300  0.909800  1.0  -0.0362
  C  C323  1  0.764900  0.229500  0.910100  1.0  -0.0898
  C  C324  1  0.820900  0.231400  0.948800  1.0  -0.1017
  C  C325  1  0.816100  0.188300  0.997200  1.0  -0.0268
  C  C326  1  0.865000  0.173000  0.051300  1.0  -0.0573
  C  C327  1  0.862500  0.118400  0.130600  1.0  0.0232
  C  C328  1  0.811400  0.081900  0.160000  1.0  0.2465
  C  C329  1  0.824000  0.062200  0.215700  1.0  -0.1721
  C  C330  1  0.777900  0.028000  0.237600  1.0  -0.0606
  C  C331  1  0.714200  0.006900  0.213000  1.0  -0.1457
  C  C332  1  0.702500  0.031400  0.156000  1.0  0.1561
  C  C333  1  0.785700  0.804200  0.121200  1.0  0.1534
  C  C334  1  0.733100  0.825900  0.156300  1.0  -0.1994
  C  C335  1  0.689000  0.868400  0.134900  1.0  -0.084
  C  C336  1  0.699500  0.889400  0.080900  1.0  -0.1323
  C  C337  1  0.757400  0.865500  0.046300  1.0  0.222
  C  C338  1  0.776200  0.884200  0.989000  1.0  -0.0342
  C  C339  1  0.854400  0.850500  0.911800  1.0  -0.0692
  C  C340  1  0.907700  0.802200  0.898600  1.0  0.2509
  C  C341  1  0.935000  0.797700  0.845900  1.0  -0.118
  C  C342  1  0.984800  0.754400  0.840200  1.0  -0.1011
  C  C343  1  0.008900  0.713400  0.882700  1.0  -0.1401
  C  C344  1  0.975800  0.726400  0.935600  1.0  0.1179
  C  C345  1  0.781000  0.930900  0.784700  1.0  0.1518
  C  C346  1  0.713500  0.907800  0.795700  1.0  -0.1819
  C  C347  1  0.682400  0.937100  0.833100  1.0  -0.1052
  C  C348  1  0.701300  0.989700  0.860700  1.0  -0.1265
  C  C349  1  0.773700  0.011700  0.844700  1.0  0.2007
  C  C350  1  0.815800  0.064300  0.863600  1.0  -0.0498
  C  C351  1  0.928900  0.116900  0.842200  1.0  -0.1376
  C  C352  1  0.992600  0.113400  0.800500  1.0  0.1856
  C  C353  1  0.045200  0.156200  0.793900  1.0  -0.143
  C  C354  1  0.103700  0.145900  0.755800  1.0  -0.1101
  C  C355  1  0.104300  0.097300  0.723200  1.0  -0.1262
  C  C356  1  0.049200  0.057300  0.732300  1.0  0.1642
  C  C357  1  0.600400  0.037600  0.017200  1.0  0.1397
  C  C358  1  0.552900  0.925500  0.970900  1.0  0.1407
  C  C359  1  0.499400  0.965900  0.082100  1.0  0.1557
  C  C360  1  0.889600  0.024100  0.011500  1.0  0.1117
  C  C361  1  0.972900  0.915400  0.017500  1.0  0.116
  C  C362  1  0.978400  0.986400  0.916100  1.0  0.1074
  C  C363  1  0.951300  0.705300  0.095000  1.0  0.098
  C  C364  1  0.064600  0.622600  0.092300  1.0  0.1357
  C  C365  1  0.068500  0.705500  0.183100  1.0  0.1399
  C  C366  1  0.917200  0.680300  0.209300  1.0  0.1213
  C  C367  1  0.918100  0.585000  0.128500  1.0  0.2083
  C  C368  1  0.966900  0.910300  0.707500  1.0  0.1125
  N  N369  1  0.750300  0.657400  0.507600  1.0  -0.3703
  N  N370  1  0.819800  0.649200  0.407500  1.0  -0.27
  N  N371  1  0.748500  0.564200  0.367100  1.0  -0.3091
  N  N372  1  0.801200  0.323100  0.431500  1.0  -0.3985
  N  N373  1  0.810300  0.335900  0.540200  1.0  -0.3471
  N  N374  1  0.926000  0.269600  0.557100  1.0  -0.4022
  N  N375  1  0.810000  0.478600  0.693100  1.0  -0.3767
  N  N376  1  0.867400  0.580800  0.677900  1.0  -0.4018
  N  N377  1  0.996100  0.564500  0.730900  1.0  -0.3781
  N  N378  1  0.653900  0.558500  0.470300  1.0  -0.3587
  N  N379  1  0.581500  0.385400  0.546200  1.0  -0.437
  N  N380  1  0.500800  0.448700  0.374800  1.0  -0.4338
  N  N381  1  0.830700  0.539100  0.480700  1.0  -0.5046
  N  N382  1  0.954700  0.368500  0.474500  1.0  -0.5006
  N  N383  1  0.964500  0.479500  0.630000  1.0  -0.4783
  N  N384  1  0.924700  0.238600  0.436200  1.0  -0.3806
  N  N385  1  0.102300  0.111900  0.444700  1.0  -0.4244
  N  N386  1  0.109200  0.235300  0.297900  1.0  -0.4509
  N  N387  1  0.874900  0.200500  0.261400  1.0  -0.3988
  N  N388  1  0.876700  0.048900  0.382300  1.0  -0.4495
  N  N389  1  0.945700  0.446500  0.762600  1.0  -0.3817
  N  N390  1  0.249700  0.842600  0.007600  1.0  -0.3675
  N  N391  1  0.180200  0.850800  0.907500  1.0  -0.2739
  N  N392  1  0.251500  0.935800  0.867100  1.0  -0.307
  N  N393  1  0.198800  0.176900  0.931500  1.0  -0.3995
  N  N394  1  0.189700  0.164100  0.040200  1.0  -0.3472
  N  N395  1  0.074000  0.230400  0.057100  1.0  -0.4034
  N  N396  1  0.190000  0.021400  0.193100  1.0  -0.3762
  N  N397  1  0.132600  0.919200  0.177900  1.0  -0.4011
  N  N398  1  0.003900  0.935500  0.230900  1.0  -0.3786
  N  N399  1  0.346100  0.941500  0.970300  1.0  -0.3572
  N  N400  1  0.418500  0.114600  0.046200  1.0  -0.4363
  N  N401  1  0.499200  0.051300  0.874800  1.0  -0.4328
  N  N402  1  0.169300  0.960900  0.980700  1.0  -0.507
  N  N403  1  0.045300  0.131500  0.974500  1.0  -0.5021
  N  N404  1  0.035500  0.020500  0.130000  1.0  -0.4804
  N  N405  1  0.075300  0.261400  0.936200  1.0  -0.3839
  N  N406  1  0.897700  0.388100  0.944700  1.0  -0.425
  N  N407  1  0.890800  0.264700  0.797900  1.0  -0.4522
  N  N408  1  0.125100  0.299500  0.761400  1.0  -0.3973
  N  N409  1  0.123300  0.451100  0.882300  1.0  -0.449
  N  N410  1  0.054300  0.053500  0.262600  1.0  -0.3827
  N  N411  1  0.249700  0.342600  0.492400  1.0  -0.3683
  N  N412  1  0.180200  0.350800  0.592500  1.0  -0.2726
  N  N413  1  0.251500  0.435800  0.632900  1.0  -0.3074
  N  N414  1  0.198800  0.676900  0.568500  1.0  -0.3998
  N  N415  1  0.189700  0.664100  0.459800  1.0  -0.3481
  N  N416  1  0.074000  0.730400  0.442900  1.0  -0.4023
  N  N417  1  0.190000  0.521400  0.306900  1.0  -0.3787
  N  N418  1  0.132600  0.419200  0.322100  1.0  -0.4011
  N  N419  1  0.003900  0.435500  0.269100  1.0  -0.3776
  N  N420  1  0.346100  0.441500  0.529700  1.0  -0.3576
  N  N421  1  0.418500  0.614600  0.453800  1.0  -0.4361
  N  N422  1  0.499200  0.551300  0.625200  1.0  -0.4326
  N  N423  1  0.169300  0.460900  0.519300  1.0  -0.507
  N  N424  1  0.045300  0.631500  0.525500  1.0  -0.5021
  N  N425  1  0.035500  0.520500  0.370000  1.0  -0.4791
  N  N426  1  0.075300  0.761400  0.563800  1.0  -0.3851
  N  N427  1  0.897700  0.888100  0.555300  1.0  -0.4249
  N  N428  1  0.890800  0.764700  0.702100  1.0  -0.4523
  N  N429  1  0.125100  0.799500  0.738600  1.0  -0.3978
  N  N430  1  0.123300  0.951100  0.617700  1.0  -0.45
  N  N431  1  0.054300  0.553500  0.237400  1.0  -0.3787
  N  N432  1  0.750300  0.157400  0.992400  1.0  -0.3704
  N  N433  1  0.819800  0.149200  0.092500  1.0  -0.2701
  N  N434  1  0.748500  0.064200  0.132900  1.0  -0.3093
  N  N435  1  0.801200  0.823100  0.068500  1.0  -0.3983
  N  N436  1  0.810300  0.835900  0.959800  1.0  -0.3483
  N  N437  1  0.926000  0.769600  0.942900  1.0  -0.404
  N  N438  1  0.810000  0.978600  0.806900  1.0  -0.3768
  N  N439  1  0.867400  0.080800  0.822100  1.0  -0.4006
  N  N440  1  0.996100  0.064500  0.769100  1.0  -0.3789
  N  N441  1  0.653900  0.058500  0.029700  1.0  -0.3581
  N  N442  1  0.581500  0.885400  0.953800  1.0  -0.4377
  N  N443  1  0.500800  0.948700  0.125200  1.0  -0.4324
  N  N444  1  0.830700  0.039100  0.019300  1.0  -0.5051
  N  N445  1  0.954700  0.868500  0.025500  1.0  -0.4996
  N  N446  1  0.964500  0.979500  0.870000  1.0  -0.477
  N  N447  1  0.924700  0.738600  0.063800  1.0  -0.3816
  N  N448  1  0.102300  0.611900  0.055300  1.0  -0.4243
  N  N449  1  0.109200  0.735300  0.202100  1.0  -0.4514
  N  N450  1  0.874900  0.700500  0.238600  1.0  -0.3991
  N  N451  1  0.876700  0.548900  0.117700  1.0  -0.4486
  N  N452  1  0.945700  0.946500  0.737400  1.0  -0.3776
