# generated using pymatgen
data_CoH7C9NO5
_symmetry_space_group_name_H-M   'P 1'
_cell_length_a   9.35820000
_cell_length_b   10.95300000
_cell_length_c   24.37000000
_cell_angle_alpha   90.00000000
_cell_angle_beta   90.00000000
_cell_angle_gamma   90.00000000
_symmetry_Int_Tables_number   1
_chemical_formula_structural   CoH7C9NO5
_chemical_formula_sum   'Co8 H56 C72 N8 O40'
_cell_volume   2497.93388530
_cell_formula_units_Z   8
loop_
 _symmetry_equiv_pos_site_id
 _symmetry_equiv_pos_as_xyz
  1  'x, y, z'
loop_
 _atom_site_type_symbol
 _atom_site_label
 _atom_site_symmetry_multiplicity
 _atom_site_fract_x
 _atom_site_fract_y
 _atom_site_fract_z
 _atom_site_occupancy
 _atom_site_charge
  Co  Co1  1  0.757350  0.270130  0.961620  1.0  1.1236
  Co  Co2  1  0.742650  0.229870  0.461620  1.0  1.1233
  Co  Co3  1  0.242650  0.270130  0.538380  1.0  1.124
  Co  Co4  1  0.257350  0.229870  0.038380  1.0  1.1241
  Co  Co5  1  0.242650  0.729870  0.038380  1.0  1.1238
  Co  Co6  1  0.257350  0.770130  0.538380  1.0  1.1243
  Co  Co7  1  0.757350  0.729870  0.461620  1.0  1.1236
  Co  Co8  1  0.742650  0.770130  0.961620  1.0  1.1233
  H  H9  1  0.615500  0.065400  0.071500  1.0  0.0933
  H  H10  1  0.849800  0.980000  0.067300  1.0  0.1543
  H  H11  1  0.838100  0.092100  0.106800  1.0  0.1388
  H  H12  1  0.900500  0.098300  0.882200  1.0  0.0812
  H  H13  1  0.003000  0.090400  0.797300  1.0  0.1374
  H  H14  1  0.912700  0.446800  0.780600  1.0  0.1292
  H  H15  1  0.816400  0.442900  0.866500  1.0  0.0782
  H  H16  1  0.884500  0.434600  0.571500  1.0  0.0931
  H  H17  1  0.650200  0.520000  0.567300  1.0  0.1502
  H  H18  1  0.661900  0.407900  0.606800  1.0  0.1392
  H  H19  1  0.599500  0.401700  0.382200  1.0  0.081
  H  H20  1  0.497000  0.409600  0.297300  1.0  0.1373
  H  H21  1  0.587300  0.053200  0.280600  1.0  0.1284
  H  H22  1  0.683600  0.057100  0.366500  1.0  0.0781
  H  H23  1  0.384500  0.065400  0.428500  1.0  0.093
  H  H24  1  0.150200  0.980000  0.432700  1.0  0.1536
  H  H25  1  0.161900  0.092100  0.393200  1.0  0.1387
  H  H26  1  0.099500  0.098300  0.617800  1.0  0.0815
  H  H27  1  0.997000  0.090400  0.702700  1.0  0.1372
  H  H28  1  0.087300  0.446800  0.719400  1.0  0.1294
  H  H29  1  0.183600  0.442900  0.633500  1.0  0.0785
  H  H30  1  0.115500  0.434600  0.928500  1.0  0.0933
  H  H31  1  0.349800  0.520000  0.932700  1.0  0.1505
  H  H32  1  0.338100  0.407900  0.893200  1.0  0.1387
  H  H33  1  0.400500  0.401700  0.117800  1.0  0.081
  H  H34  1  0.503000  0.409600  0.202700  1.0  0.137
  H  H35  1  0.412700  0.053200  0.219400  1.0  0.1291
  H  H36  1  0.316400  0.057100  0.133500  1.0  0.0785
  H  H37  1  0.384500  0.934600  0.928500  1.0  0.093
  H  H38  1  0.150200  0.020000  0.932700  1.0  0.15
  H  H39  1  0.161900  0.907900  0.893200  1.0  0.139
  H  H40  1  0.099500  0.901700  0.117800  1.0  0.0811
  H  H41  1  0.997000  0.909600  0.202700  1.0  0.1372
  H  H42  1  0.087300  0.553200  0.219400  1.0  0.129
  H  H43  1  0.183600  0.557100  0.133500  1.0  0.0786
  H  H44  1  0.115500  0.565400  0.428500  1.0  0.0931
  H  H45  1  0.349800  0.480000  0.432700  1.0  0.1546
  H  H46  1  0.338100  0.592100  0.393200  1.0  0.1384
  H  H47  1  0.400500  0.598300  0.617800  1.0  0.0815
  H  H48  1  0.503000  0.590400  0.702700  1.0  0.1371
  H  H49  1  0.412700  0.946800  0.719400  1.0  0.1295
  H  H50  1  0.316400  0.942900  0.633500  1.0  0.0785
  H  H51  1  0.615500  0.934600  0.571500  1.0  0.0932
  H  H52  1  0.849800  0.020000  0.567300  1.0  0.1506
  H  H53  1  0.838100  0.907900  0.606800  1.0  0.1392
  H  H54  1  0.900500  0.901700  0.382200  1.0  0.081
  H  H55  1  0.003000  0.909600  0.297300  1.0  0.1372
  H  H56  1  0.912700  0.553200  0.280600  1.0  0.1285
  H  H57  1  0.816400  0.557100  0.366500  1.0  0.0778
  H  H58  1  0.884500  0.565400  0.071500  1.0  0.0936
  H  H59  1  0.650200  0.480000  0.067300  1.0  0.1536
  H  H60  1  0.661900  0.592100  0.106800  1.0  0.1388
  H  H61  1  0.599500  0.598300  0.882200  1.0  0.0812
  H  H62  1  0.497000  0.590400  0.797300  1.0  0.1373
  H  H63  1  0.587300  0.946800  0.780600  1.0  0.1291
  H  H64  1  0.683600  0.942900  0.866500  1.0  0.0782
  C  C65  1  0.664500  0.035900  0.989610  1.0  0.6448
  C  C66  1  0.687700  0.096100  0.045840  1.0  0.102
  C  C67  1  0.835700  0.067700  0.068570  1.0  -0.3903
  C  C68  1  0.958600  0.127700  0.039530  1.0  0.7517
  C  C69  1  0.903500  0.169300  0.861290  1.0  0.2001
  C  C70  1  0.964500  0.163200  0.810180  1.0  -0.2148
  C  C71  1  0.967700  0.268700  0.777870  1.0  0.0986
  C  C72  1  0.911500  0.374200  0.800350  1.0  -0.2134
  C  C73  1  0.853700  0.371000  0.852130  1.0  0.1929
  C  C74  1  0.835500  0.464100  0.489610  1.0  0.6447
  C  C75  1  0.812300  0.403900  0.545840  1.0  0.1022
  C  C76  1  0.664300  0.432300  0.568570  1.0  -0.3893
  C  C77  1  0.541400  0.372300  0.539530  1.0  0.7513
  C  C78  1  0.596500  0.330700  0.361290  1.0  0.1995
  C  C79  1  0.535500  0.336800  0.310180  1.0  -0.2152
  C  C80  1  0.532300  0.231300  0.277870  1.0  0.0987
  C  C81  1  0.588500  0.125800  0.300350  1.0  -0.2135
  C  C82  1  0.646300  0.129000  0.352130  1.0  0.1938
  C  C83  1  0.335500  0.035900  0.510390  1.0  0.6459
  C  C84  1  0.312300  0.096100  0.454160  1.0  0.1026
  C  C85  1  0.164300  0.067700  0.431430  1.0  -0.3893
  C  C86  1  0.041400  0.127700  0.460470  1.0  0.751
  C  C87  1  0.096500  0.169300  0.638710  1.0  0.2006
  C  C88  1  0.035500  0.163200  0.689820  1.0  -0.215
  C  C89  1  0.032300  0.268700  0.722130  1.0  0.0987
  C  C90  1  0.088500  0.374200  0.699650  1.0  -0.2143
  C  C91  1  0.146300  0.371000  0.647870  1.0  0.1927
  C  C92  1  0.164500  0.464100  0.010390  1.0  0.6454
  C  C93  1  0.187700  0.403900  0.954160  1.0  0.1018
  C  C94  1  0.335700  0.432300  0.931430  1.0  -0.3903
  C  C95  1  0.458600  0.372300  0.960470  1.0  0.7513
  C  C96  1  0.403500  0.330700  0.138710  1.0  0.1991
  C  C97  1  0.464500  0.336800  0.189820  1.0  -0.2153
  C  C98  1  0.467700  0.231300  0.222130  1.0  0.0983
  C  C99  1  0.411500  0.125800  0.199650  1.0  -0.2134
  C  C100  1  0.353700  0.129000  0.147870  1.0  0.1925
  C  C101  1  0.335500  0.964100  0.010390  1.0  0.6458
  C  C102  1  0.312300  0.903900  0.954160  1.0  0.1016
  C  C103  1  0.164300  0.932300  0.931430  1.0  -0.3901
  C  C104  1  0.041400  0.872300  0.960470  1.0  0.7511
  C  C105  1  0.096500  0.830700  0.138710  1.0  0.1996
  C  C106  1  0.035500  0.836800  0.189820  1.0  -0.2152
  C  C107  1  0.032300  0.731300  0.222130  1.0  0.0987
  C  C108  1  0.088500  0.625800  0.199650  1.0  -0.2135
  C  C109  1  0.146300  0.629000  0.147870  1.0  0.193
  C  C110  1  0.164500  0.535900  0.510390  1.0  0.6457
  C  C111  1  0.187700  0.596100  0.454160  1.0  0.1022
  C  C112  1  0.335700  0.567700  0.431430  1.0  -0.3898
  C  C113  1  0.458600  0.627700  0.460470  1.0  0.7512
  C  C114  1  0.403500  0.669300  0.638710  1.0  0.2001
  C  C115  1  0.464500  0.663200  0.689820  1.0  -0.2146
  C  C116  1  0.467700  0.768700  0.722130  1.0  0.0984
  C  C117  1  0.411500  0.874200  0.699650  1.0  -0.2147
  C  C118  1  0.353700  0.871000  0.647870  1.0  0.1922
  C  C119  1  0.664500  0.964100  0.489610  1.0  0.6447
  C  C120  1  0.687700  0.903900  0.545840  1.0  0.1022
  C  C121  1  0.835700  0.932300  0.568570  1.0  -0.3896
  C  C122  1  0.958600  0.872300  0.539530  1.0  0.7517
  C  C123  1  0.903500  0.830700  0.361290  1.0  0.1992
  C  C124  1  0.964500  0.836800  0.310180  1.0  -0.2154
  C  C125  1  0.967700  0.731300  0.277870  1.0  0.0985
  C  C126  1  0.911500  0.625800  0.300350  1.0  -0.2132
  C  C127  1  0.853700  0.629000  0.352130  1.0  0.1934
  C  C128  1  0.835500  0.535900  0.989610  1.0  0.6448
  C  C129  1  0.812300  0.596100  0.045840  1.0  0.1024
  C  C130  1  0.664300  0.567700  0.068570  1.0  -0.3901
  C  C131  1  0.541400  0.627700  0.039530  1.0  0.7512
  C  C132  1  0.596500  0.669300  0.861290  1.0  0.2006
  C  C133  1  0.535500  0.663200  0.810180  1.0  -0.2152
  C  C134  1  0.532300  0.768700  0.777870  1.0  0.0988
  C  C135  1  0.588500  0.874200  0.800350  1.0  -0.2134
  C  C136  1  0.646300  0.871000  0.852130  1.0  0.1934
  N  N137  1  0.848100  0.270900  0.882860  1.0  -0.3388
  N  N138  1  0.651900  0.229100  0.382860  1.0  -0.3377
  N  N139  1  0.151900  0.270900  0.617140  1.0  -0.3399
  N  N140  1  0.348100  0.229100  0.117140  1.0  -0.3396
  N  N141  1  0.151900  0.729100  0.117140  1.0  -0.3398
  N  N142  1  0.348100  0.770900  0.617140  1.0  -0.3396
  N  N143  1  0.848100  0.729100  0.382860  1.0  -0.3389
  N  N144  1  0.651900  0.770900  0.882860  1.0  -0.3377
  O  O145  1  0.665000  0.101600  0.947480  1.0  -0.5648
  O  O146  1  0.646100  0.923060  0.990760  1.0  -0.5683
  O  O147  1  0.675000  0.226120  0.042140  1.0  -0.4488
  O  O148  1  0.938400  0.172350  0.991630  1.0  -0.5818
  O  O149  1  0.076900  0.129200  0.063330  1.0  -0.602
  O  O150  1  0.835000  0.398400  0.447480  1.0  -0.5655
  O  O151  1  0.853900  0.576940  0.490760  1.0  -0.5684
  O  O152  1  0.825000  0.273880  0.542140  1.0  -0.4503
  O  O153  1  0.561600  0.327650  0.491630  1.0  -0.5819
  O  O154  1  0.423100  0.370800  0.563330  1.0  -0.6027
  O  O155  1  0.335000  0.101600  0.552520  1.0  -0.5637
  O  O156  1  0.353900  0.923060  0.509240  1.0  -0.5683
  O  O157  1  0.325000  0.226120  0.457860  1.0  -0.4482
  O  O158  1  0.061600  0.172350  0.508370  1.0  -0.5821
  O  O159  1  0.923100  0.129200  0.436670  1.0  -0.6029
  O  O160  1  0.165000  0.398400  0.052520  1.0  -0.5641
  O  O161  1  0.146100  0.576940  0.009240  1.0  -0.5679
  O  O162  1  0.175000  0.273880  0.957860  1.0  -0.4483
  O  O163  1  0.438400  0.327650  0.008370  1.0  -0.5816
  O  O164  1  0.576900  0.370800  0.936670  1.0  -0.6026
  O  O165  1  0.335000  0.898400  0.052520  1.0  -0.5636
  O  O166  1  0.353900  0.076940  0.009240  1.0  -0.5683
  O  O167  1  0.325000  0.773880  0.957860  1.0  -0.4491
  O  O168  1  0.061600  0.827650  0.008370  1.0  -0.5815
  O  O169  1  0.923100  0.870800  0.936670  1.0  -0.6032
  O  O170  1  0.165000  0.601600  0.552520  1.0  -0.5641
  O  O171  1  0.146100  0.423060  0.509240  1.0  -0.5681
  O  O172  1  0.175000  0.726120  0.457860  1.0  -0.447
  O  O173  1  0.438400  0.672350  0.508370  1.0  -0.5821
  O  O174  1  0.576900  0.629200  0.436670  1.0  -0.6025
  O  O175  1  0.665000  0.898400  0.447480  1.0  -0.5654
  O  O176  1  0.646100  0.076940  0.490760  1.0  -0.5687
  O  O177  1  0.675000  0.773880  0.542140  1.0  -0.449
  O  O178  1  0.938400  0.827650  0.491630  1.0  -0.5819
  O  O179  1  0.076900  0.870800  0.563330  1.0  -0.602
  O  O180  1  0.835000  0.601600  0.947480  1.0  -0.5651
  O  O181  1  0.853900  0.423060  0.990760  1.0  -0.5688
  O  O182  1  0.825000  0.726120  0.042140  1.0  -0.4502
  O  O183  1  0.561600  0.672350  0.991630  1.0  -0.5819
  O  O184  1  0.423100  0.629200  0.063330  1.0  -0.6027
