# generated using pymatgen
data_CoNiH14C18(NO5)2
_symmetry_space_group_name_H-M   'P 1'
_cell_length_a   9.35250000
_cell_length_b   10.91700000
_cell_length_c   24.17500000
_cell_angle_alpha   90.00000000
_cell_angle_beta   90.00000000
_cell_angle_gamma   90.00000000
_symmetry_Int_Tables_number   1
_chemical_formula_structural   CoNiH14C18(NO5)2
_chemical_formula_sum   'Co4 Ni4 H56 C72 N8 O40'
_cell_volume   2468.29753744
_cell_formula_units_Z   4
loop_
 _symmetry_equiv_pos_site_id
 _symmetry_equiv_pos_as_xyz
  1  'x, y, z'
loop_
 _atom_site_type_symbol
 _atom_site_label
 _atom_site_symmetry_multiplicity
 _atom_site_fract_x
 _atom_site_fract_y
 _atom_site_fract_z
 _atom_site_occupancy
 _atom_site_charge
  Co  Co1  1  0.240040  0.230110  0.037750  1.0  1.0469
  Co  Co2  1  0.259960  0.269890  0.537750  1.0  1.0474
  Co  Co3  1  0.759960  0.230110  0.462260  1.0  1.0472
  Co  Co4  1  0.740040  0.269890  0.962260  1.0  1.047
  Ni  Ni5  1  0.259960  0.730110  0.037750  1.0  0.9375
  Ni  Ni6  1  0.240040  0.769890  0.537750  1.0  0.9371
  Ni  Ni7  1  0.740040  0.730110  0.462260  1.0  0.937
  Ni  Ni8  1  0.759960  0.769890  0.962260  1.0  0.9378
  H  H9  1  0.382600  0.429100  0.927500  1.0  0.0975
  H  H10  1  0.159100  0.405400  0.891800  1.0  0.1442
  H  H11  1  0.148600  0.517800  0.931800  1.0  0.1467
  H  H12  1  0.101900  0.402500  0.116600  1.0  0.0918
  H  H13  1  0.999000  0.408500  0.203000  1.0  0.1309
  H  H14  1  0.085600  0.050300  0.218600  1.0  0.124
  H  H15  1  0.178700  0.053500  0.130300  1.0  0.0853
  H  H16  1  0.117400  0.070900  0.427500  1.0  0.0976
  H  H17  1  0.340900  0.094600  0.391800  1.0  0.1436
  H  H18  1  0.351400  0.982200  0.431800  1.0  0.1484
  H  H19  1  0.398100  0.097500  0.616600  1.0  0.0919
  H  H20  1  0.501000  0.091500  0.703000  1.0  0.1314
  H  H21  1  0.414400  0.449700  0.718600  1.0  0.1243
  H  H22  1  0.321300  0.446500  0.630300  1.0  0.085
  H  H23  1  0.617400  0.429100  0.572500  1.0  0.0978
  H  H24  1  0.840900  0.405400  0.608200  1.0  0.1455
  H  H25  1  0.851400  0.517800  0.568200  1.0  0.1466
  H  H26  1  0.898100  0.402500  0.383400  1.0  0.0916
  H  H27  1  0.001000  0.408500  0.297000  1.0  0.1314
  H  H28  1  0.914400  0.050300  0.281400  1.0  0.1236
  H  H29  1  0.821300  0.053500  0.369700  1.0  0.0842
  H  H30  1  0.882600  0.070900  0.072500  1.0  0.0978
  H  H31  1  0.659100  0.094600  0.108200  1.0  0.1448
  H  H32  1  0.648600  0.982200  0.068200  1.0  0.1466
  H  H33  1  0.601900  0.097500  0.883400  1.0  0.0918
  H  H34  1  0.499000  0.091500  0.797000  1.0  0.1312
  H  H35  1  0.585600  0.449700  0.781400  1.0  0.124
  H  H36  1  0.678700  0.446500  0.869700  1.0  0.0843
  H  H37  1  0.617400  0.570900  0.072500  1.0  0.0976
  H  H38  1  0.840900  0.594600  0.108200  1.0  0.1448
  H  H39  1  0.851400  0.482200  0.068200  1.0  0.1474
  H  H40  1  0.898100  0.597500  0.883400  1.0  0.0917
  H  H41  1  0.001000  0.591500  0.797000  1.0  0.1316
  H  H42  1  0.914400  0.949700  0.781400  1.0  0.1241
  H  H43  1  0.821300  0.946500  0.869700  1.0  0.0841
  H  H44  1  0.882600  0.929100  0.572500  1.0  0.0974
  H  H45  1  0.659100  0.905400  0.608200  1.0  0.1455
  H  H46  1  0.648600  0.017800  0.568200  1.0  0.1463
  H  H47  1  0.601900  0.902500  0.383400  1.0  0.0917
  H  H48  1  0.499000  0.908500  0.297000  1.0  0.1309
  H  H49  1  0.585600  0.550300  0.281400  1.0  0.1234
  H  H50  1  0.678700  0.553500  0.369700  1.0  0.0844
  H  H51  1  0.382600  0.570900  0.427500  1.0  0.0971
  H  H52  1  0.159100  0.594600  0.391800  1.0  0.1439
  H  H53  1  0.148600  0.482200  0.431800  1.0  0.1472
  H  H54  1  0.101900  0.597500  0.616600  1.0  0.0919
  H  H55  1  0.999000  0.591500  0.703000  1.0  0.1313
  H  H56  1  0.085600  0.949700  0.718600  1.0  0.1243
  H  H57  1  0.178700  0.946500  0.630300  1.0  0.085
  H  H58  1  0.117400  0.929100  0.927500  1.0  0.0979
  H  H59  1  0.340900  0.905400  0.891800  1.0  0.144
  H  H60  1  0.351400  0.017800  0.931800  1.0  0.147
  H  H61  1  0.398100  0.902500  0.116600  1.0  0.0916
  H  H62  1  0.501000  0.908500  0.203000  1.0  0.1312
  H  H63  1  0.414400  0.550300  0.218600  1.0  0.1242
  H  H64  1  0.321300  0.553500  0.130300  1.0  0.0853
  C  C65  1  0.332900  0.461500  0.009870  1.0  0.6478
  C  C66  1  0.309800  0.399700  0.953390  1.0  0.1047
  C  C67  1  0.162000  0.429700  0.930410  1.0  -0.373
  C  C68  1  0.037700  0.368600  0.960530  1.0  0.757
  C  C69  1  0.097700  0.330900  0.137430  1.0  0.1719
  C  C70  1  0.036600  0.335500  0.189570  1.0  -0.1896
  C  C71  1  0.032000  0.229700  0.221620  1.0  0.0968
  C  C72  1  0.087000  0.123100  0.198630  1.0  -0.1881
  C  C73  1  0.144000  0.125900  0.145540  1.0  0.1717
  C  C74  1  0.167100  0.038500  0.509870  1.0  0.6476
  C  C75  1  0.190200  0.100300  0.453390  1.0  0.1056
  C  C76  1  0.338000  0.070300  0.430410  1.0  -0.374
  C  C77  1  0.462300  0.131400  0.460530  1.0  0.7577
  C  C78  1  0.402300  0.169100  0.637430  1.0  0.1719
  C  C79  1  0.463400  0.164500  0.689570  1.0  -0.1882
  C  C80  1  0.468000  0.270300  0.721620  1.0  0.0967
  C  C81  1  0.413000  0.376900  0.698630  1.0  -0.1884
  C  C82  1  0.356000  0.374100  0.645540  1.0  0.1714
  C  C83  1  0.667100  0.461500  0.490130  1.0  0.6479
  C  C84  1  0.690200  0.399700  0.546610  1.0  0.105
  C  C85  1  0.838000  0.429700  0.569590  1.0  -0.3729
  C  C86  1  0.962300  0.368600  0.539470  1.0  0.7571
  C  C87  1  0.902300  0.330900  0.362570  1.0  0.1729
  C  C88  1  0.963400  0.335500  0.310430  1.0  -0.1901
  C  C89  1  0.968000  0.229700  0.278380  1.0  0.096
  C  C90  1  0.913000  0.123100  0.301370  1.0  -0.1879
  C  C91  1  0.856000  0.125900  0.354460  1.0  0.1719
  C  C92  1  0.832900  0.038500  0.990130  1.0  0.6475
  C  C93  1  0.809800  0.100300  0.046610  1.0  0.1055
  C  C94  1  0.662000  0.070300  0.069590  1.0  -0.3728
  C  C95  1  0.537700  0.131400  0.039470  1.0  0.7567
  C  C96  1  0.597700  0.169100  0.862570  1.0  0.1731
  C  C97  1  0.536600  0.164500  0.810430  1.0  -0.189
  C  C98  1  0.532000  0.270300  0.778380  1.0  0.0962
  C  C99  1  0.587000  0.376900  0.801370  1.0  -0.1872
  C  C100  1  0.644000  0.374100  0.854460  1.0  0.1722
  C  C101  1  0.667100  0.538500  0.990130  1.0  0.6478
  C  C102  1  0.690200  0.600300  0.046610  1.0  0.1055
  C  C103  1  0.838000  0.570300  0.069590  1.0  -0.3738
  C  C104  1  0.962300  0.631400  0.039470  1.0  0.7577
  C  C105  1  0.902300  0.669100  0.862570  1.0  0.1731
  C  C106  1  0.963400  0.664500  0.810430  1.0  -0.189
  C  C107  1  0.968000  0.770300  0.778380  1.0  0.096
  C  C108  1  0.913000  0.876900  0.801370  1.0  -0.1875
  C  C109  1  0.856000  0.874100  0.854460  1.0  0.1719
  C  C110  1  0.832900  0.961500  0.490130  1.0  0.6476
  C  C111  1  0.809800  0.899700  0.546610  1.0  0.1058
  C  C112  1  0.662000  0.929700  0.569590  1.0  -0.3719
  C  C113  1  0.537700  0.868600  0.539470  1.0  0.7564
  C  C114  1  0.597700  0.830900  0.362570  1.0  0.1729
  C  C115  1  0.536600  0.835500  0.310430  1.0  -0.1902
  C  C116  1  0.532000  0.729700  0.278380  1.0  0.0962
  C  C117  1  0.587000  0.623100  0.301370  1.0  -0.1879
  C  C118  1  0.644000  0.625900  0.354460  1.0  0.1722
  C  C119  1  0.332900  0.538500  0.509870  1.0  0.6476
  C  C120  1  0.309800  0.600300  0.453390  1.0  0.1063
  C  C121  1  0.162000  0.570300  0.430410  1.0  -0.3725
  C  C122  1  0.037700  0.631400  0.460530  1.0  0.7571
  C  C123  1  0.097700  0.669100  0.637430  1.0  0.172
  C  C124  1  0.036600  0.664500  0.689570  1.0  -0.1882
  C  C125  1  0.032000  0.770300  0.721620  1.0  0.0969
  C  C126  1  0.087000  0.876900  0.698630  1.0  -0.1878
  C  C127  1  0.144000  0.874100  0.645540  1.0  0.1718
  C  C128  1  0.167100  0.961500  0.009870  1.0  0.6476
  C  C129  1  0.190200  0.899700  0.953390  1.0  0.1056
  C  C130  1  0.338000  0.929700  0.930410  1.0  -0.3742
  C  C131  1  0.462300  0.868600  0.960530  1.0  0.7573
  C  C132  1  0.402300  0.830900  0.137430  1.0  0.1716
  C  C133  1  0.463400  0.835500  0.189570  1.0  -0.1895
  C  C134  1  0.468000  0.729700  0.221620  1.0  0.0966
  C  C135  1  0.413000  0.623100  0.198630  1.0  -0.1883
  C  C136  1  0.356000  0.625900  0.145540  1.0  0.171
  N  N137  1  0.151000  0.227300  0.115800  1.0  -0.3042
  N  N138  1  0.349000  0.272700  0.615800  1.0  -0.3035
  N  N139  1  0.849000  0.227300  0.384200  1.0  -0.3025
  N  N140  1  0.651000  0.272700  0.884200  1.0  -0.3026
  N  N141  1  0.849000  0.772700  0.884200  1.0  -0.3024
  N  N142  1  0.651000  0.727300  0.384200  1.0  -0.3027
  N  N143  1  0.151000  0.772700  0.615800  1.0  -0.3041
  N  N144  1  0.349000  0.727300  0.115800  1.0  -0.3036
  O  O145  1  0.331400  0.397000  0.052100  1.0  -0.5503
  O  O146  1  0.320400  0.268280  0.957970  1.0  -0.4568
  O  O147  1  0.059200  0.323100  0.008150  1.0  -0.5479
  O  O148  1  0.353500  0.575500  0.008300  1.0  -0.5795
  O  O149  1  0.919300  0.369700  0.936860  1.0  -0.5728
  O  O150  1  0.168600  0.103000  0.552100  1.0  -0.5508
  O  O151  1  0.179600  0.231720  0.457970  1.0  -0.455
  O  O152  1  0.440800  0.176900  0.508150  1.0  -0.5482
  O  O153  1  0.146500  0.924500  0.508300  1.0  -0.5787
  O  O154  1  0.580700  0.130300  0.436860  1.0  -0.5728
  O  O155  1  0.668600  0.397000  0.447900  1.0  -0.5511
  O  O156  1  0.679600  0.268280  0.542030  1.0  -0.464
  O  O157  1  0.940800  0.323100  0.491850  1.0  -0.5486
  O  O158  1  0.646500  0.575500  0.491700  1.0  -0.5795
  O  O159  1  0.080700  0.369700  0.563140  1.0  -0.5728
  O  O160  1  0.831400  0.103000  0.947900  1.0  -0.5501
  O  O161  1  0.820400  0.231720  0.042030  1.0  -0.466
  O  O162  1  0.559200  0.176900  0.991850  1.0  -0.5477
  O  O163  1  0.853500  0.924500  0.991700  1.0  -0.5793
  O  O164  1  0.419300  0.130300  0.063140  1.0  -0.5729
  O  O165  1  0.668600  0.603000  0.947900  1.0  -0.5508
  O  O166  1  0.679600  0.731720  0.042030  1.0  -0.4568
  O  O167  1  0.940800  0.676900  0.991850  1.0  -0.5482
  O  O168  1  0.646500  0.424500  0.991700  1.0  -0.5788
  O  O169  1  0.080700  0.630300  0.063140  1.0  -0.5731
  O  O170  1  0.831400  0.897000  0.447900  1.0  -0.5508
  O  O171  1  0.820400  0.768280  0.542030  1.0  -0.4583
  O  O172  1  0.559200  0.823100  0.491850  1.0  -0.5479
  O  O173  1  0.853500  0.075500  0.491700  1.0  -0.5797
  O  O174  1  0.419300  0.869700  0.563140  1.0  -0.573
  O  O175  1  0.331400  0.603000  0.552100  1.0  -0.5503
  O  O176  1  0.320400  0.731720  0.457970  1.0  -0.4606
  O  O177  1  0.059200  0.676900  0.508150  1.0  -0.5475
  O  O178  1  0.353500  0.424500  0.508300  1.0  -0.5793
  O  O179  1  0.919300  0.630300  0.436860  1.0  -0.5724
  O  O180  1  0.168600  0.897000  0.052100  1.0  -0.5513
  O  O181  1  0.179600  0.768280  0.957970  1.0  -0.4598
  O  O182  1  0.440800  0.823100  0.008150  1.0  -0.5483
  O  O183  1  0.146500  0.075500  0.008300  1.0  -0.5793
  O  O184  1  0.580700  0.869700  0.936860  1.0  -0.5728
