# generated using pymatgen
data_Nd2H30C51(NO4)3
_symmetry_space_group_name_H-M   'P 1'
_cell_length_a   15.15600000
_cell_length_b   15.65700000
_cell_length_c   26.96700000
_cell_angle_alpha   81.60300000
_cell_angle_beta   78.04200000
_cell_angle_gamma   73.52900000
_symmetry_Int_Tables_number   1
_chemical_formula_structural   Nd2H30C51(NO4)3
_chemical_formula_sum   'Nd4 H60 C102 N6 O24'
_cell_volume   5977.39361118
_cell_formula_units_Z   2
loop_
 _symmetry_equiv_pos_site_id
 _symmetry_equiv_pos_as_xyz
  1  'x, y, z'
loop_
 _atom_site_type_symbol
 _atom_site_label
 _atom_site_symmetry_multiplicity
 _atom_site_fract_x
 _atom_site_fract_y
 _atom_site_fract_z
 _atom_site_occupancy
 _atom_site_charge
  Nd  Nd1  1  0.866090  0.227970  0.792430  1.0  2.2388
  Nd  Nd2  1  0.954990  0.855880  0.325520  1.0  2.1765
  Nd  Nd3  1  0.133910  0.772030  0.207570  1.0  2.2382
  Nd  Nd4  1  0.045010  0.144120  0.674480  1.0  2.1739
  H  H5  1  0.834500  0.558400  0.768700  1.0  0.1159
  H  H6  1  0.827000  0.693200  0.796400  1.0  0.1058
  H  H7  1  0.907600  0.569000  0.928300  1.0  0.1302
  H  H8  1  0.916400  0.434300  0.899200  1.0  0.0943
  H  H9  1  0.947600  0.735600  0.157000  1.0  0.1021
  H  H10  1  0.872200  0.709800  0.100200  1.0  0.1025
  H  H11  1  0.630900  0.870000  0.165300  1.0  0.1129
  H  H12  1  0.709700  0.899100  0.222500  1.0  0.1081
  H  H13  1  0.770300  0.633200  0.370000  1.0  0.1038
  H  H14  1  0.693000  0.534100  0.419700  1.0  0.1292
  H  H15  1  0.787000  0.577500  0.541300  1.0  0.1133
  H  H16  1  0.862900  0.675300  0.490300  1.0  0.1121
  H  H17  1  0.472700  0.651700  0.172000  1.0  0.1128
  H  H18  1  0.390200  0.888100  0.096100  1.0  0.1038
  H  H19  1  0.835200  0.014000  0.825100  1.0  0.1071
  H  H20  1  0.789600  0.901300  0.879600  1.0  0.104
  H  H21  1  0.544000  0.630000  0.499900  1.0  0.1255
  H  H22  1  0.603500  0.363800  0.512100  1.0  0.1115
  H  H23  1  0.850500  0.398000  0.527300  1.0  0.1172
  H  H24  1  0.906300  0.319400  0.598900  1.0  0.1056
  H  H25  1  0.646200  0.360000  0.673900  1.0  0.1074
  H  H26  1  0.591700  0.441900  0.603700  1.0  0.1092
  H  H27  1  0.836600  0.837000  0.028100  1.0  0.1309
  H  H28  1  0.900200  0.811400  0.946700  1.0  0.0983
  H  H29  1  0.715900  0.681000  0.938700  1.0  0.1127
  H  H30  1  0.650300  0.702600  0.020000  1.0  0.1118
  H  H31  1  0.627500  0.654700  0.143400  1.0  0.1253
  H  H32  1  0.541800  0.891600  0.065700  1.0  0.123
  H  H33  1  0.993100  0.718200  0.805100  1.0  0.1299
  H  H34  1  0.038100  0.831500  0.747100  1.0  0.1121
  H  H35  1  0.165500  0.441600  0.231300  1.0  0.1167
  H  H36  1  0.173000  0.306800  0.203600  1.0  0.107
  H  H37  1  0.092400  0.431000  0.071700  1.0  0.1305
  H  H38  1  0.083600  0.565700  0.100800  1.0  0.0942
  H  H39  1  0.052400  0.264400  0.843000  1.0  0.1023
  H  H40  1  0.127800  0.290200  0.899800  1.0  0.1036
  H  H41  1  0.369100  0.130000  0.834700  1.0  0.1129
  H  H42  1  0.290300  0.100900  0.777500  1.0  0.108
  H  H43  1  0.229700  0.366800  0.630000  1.0  0.1027
  H  H44  1  0.307000  0.465900  0.580300  1.0  0.1292
  H  H45  1  0.213000  0.422500  0.458700  1.0  0.1141
  H  H46  1  0.137100  0.324700  0.509700  1.0  0.1116
  H  H47  1  0.527300  0.348300  0.828000  1.0  0.1123
  H  H48  1  0.609800  0.111900  0.903900  1.0  0.1034
  H  H49  1  0.164800  0.986000  0.174900  1.0  0.1072
  H  H50  1  0.210400  0.098700  0.120400  1.0  0.1044
  H  H51  1  0.456000  0.370000  0.500100  1.0  0.1252
  H  H52  1  0.396500  0.636200  0.487900  1.0  0.111
  H  H53  1  0.149500  0.602000  0.472700  1.0  0.1177
  H  H54  1  0.093700  0.680600  0.401100  1.0  0.1062
  H  H55  1  0.353800  0.640000  0.326100  1.0  0.1078
  H  H56  1  0.408300  0.558100  0.396300  1.0  0.1097
  H  H57  1  0.163400  0.163000  0.971900  1.0  0.131
  H  H58  1  0.099800  0.188600  0.053300  1.0  0.0993
  H  H59  1  0.284100  0.319000  0.061300  1.0  0.1128
  H  H60  1  0.349700  0.297400  0.980000  1.0  0.1119
  H  H61  1  0.372500  0.345300  0.856600  1.0  0.1263
  H  H62  1  0.458200  0.108400  0.934300  1.0  0.1225
  H  H63  1  0.006900  0.281800  0.194900  1.0  0.1297
  H  H64  1  0.961900  0.168500  0.252900  1.0  0.112
  C  C65  1  0.871700  0.393800  0.819500  1.0  0.6514
  C  C66  1  0.873100  0.481100  0.834200  1.0  -0.1562
  C  C67  1  0.848000  0.560800  0.800500  1.0  -0.0294
  C  C68  1  0.844700  0.640800  0.817300  1.0  -0.2009
  C  C69  1  0.866400  0.646500  0.863600  1.0  0.1699
  C  C70  1  0.893300  0.567100  0.896700  1.0  -0.2252
  C  C71  1  0.896700  0.487000  0.879000  1.0  -0.0127
  C  C72  1  0.882900  0.837200  0.236200  1.0  0.7469
  C  C73  1  0.835600  0.818600  0.196800  1.0  -0.1649
  C  C74  1  0.884200  0.762900  0.158500  1.0  -0.0108
  C  C75  1  0.839700  0.749200  0.124500  1.0  -0.1588
  C  C76  1  0.743000  0.792800  0.123700  1.0  0.2005
  C  C77  1  0.695000  0.845000  0.162700  1.0  -0.2096
  C  C78  1  0.741600  0.860300  0.197800  1.0  -0.021
  C  C79  1  0.876600  0.723700  0.390500  1.0  0.7033
  C  C80  1  0.826400  0.661000  0.423600  1.0  -0.1563
  C  C81  1  0.774400  0.620900  0.404400  1.0  0.0025
  C  C82  1  0.726800  0.562000  0.434200  1.0  -0.2245
  C  C83  1  0.730500  0.545200  0.486700  1.0  0.1566
  C  C84  1  0.783400  0.588300  0.506800  1.0  -0.1993
  C  C85  1  0.829600  0.646100  0.476300  1.0  -0.0543
  C  C86  1  0.316900  0.768900  0.155700  1.0  0.6933
  C  C87  1  0.486800  0.700500  0.150900  1.0  -0.031
  C  C88  1  0.416500  0.770000  0.136400  1.0  -0.0947
  C  C89  1  0.438300  0.840600  0.105600  1.0  -0.0308
  C  C90  1  0.972100  0.008000  0.740800  1.0  0.6913
  C  C91  1  0.940500  0.935100  0.781700  1.0  -0.175
  C  C92  1  0.867100  0.954700  0.820500  1.0  0.0022
  C  C93  1  0.839800  0.887100  0.853100  1.0  -0.1689
  C  C94  1  0.590900  0.494200  0.508800  1.0  0.1631
  C  C95  1  0.527000  0.577300  0.500300  1.0  -0.1777
  C  C96  1  0.561800  0.419500  0.507500  1.0  -0.1672
  C  C97  1  0.714200  0.436500  0.558900  1.0  0.2011
  C  C98  1  0.808800  0.393400  0.557500  1.0  -0.1947
  C  C99  1  0.842500  0.343800  0.600100  1.0  -0.0421
  C  C100  1  0.688500  0.368600  0.644500  1.0  -0.0093
  C  C101  1  0.655800  0.419100  0.602300  1.0  -0.2084
  C  C102  1  0.819000  0.282300  0.688200  1.0  0.7187
  C  C103  1  0.781000  0.331300  0.643800  1.0  -0.1657
  C  C104  1  0.738500  0.767000  0.034600  1.0  0.1259
  C  C105  1  0.813100  0.803700  0.010700  1.0  -0.1868
  C  C106  1  0.849300  0.789100  0.962000  1.0  -0.1384
  C  C107  1  0.817200  0.744300  0.933200  1.0  0.1305
  C  C108  1  0.740600  0.711700  0.957000  1.0  -0.1348
  C  C109  1  0.702200  0.723700  0.005500  1.0  -0.1626
  C  C110  1  0.579500  0.702600  0.134200  1.0  -0.208
  C  C111  1  0.600400  0.777400  0.103300  1.0  0.1774
  C  C112  1  0.529100  0.843800  0.088100  1.0  -0.2077
  C  C113  1  0.884200  0.801400  0.847200  1.0  0.204
  C  C114  1  0.961100  0.777800  0.808200  1.0  -0.2137
  C  C115  1  0.988900  0.845300  0.774100  1.0  -0.0294
  C  C116  1  0.128300  0.606200  0.180500  1.0  0.6515
  C  C117  1  0.126900  0.518900  0.165800  1.0  -0.1565
  C  C118  1  0.152000  0.439200  0.199500  1.0  -0.0286
  C  C119  1  0.155300  0.359200  0.182700  1.0  -0.2006
  C  C120  1  0.133600  0.353500  0.136400  1.0  0.1691
  C  C121  1  0.106700  0.432900  0.103300  1.0  -0.2259
  C  C122  1  0.103300  0.513000  0.121000  1.0  -0.0118
  C  C123  1  0.117100  0.162800  0.763800  1.0  0.7472
  C  C124  1  0.164400  0.181400  0.803200  1.0  -0.1717
  C  C125  1  0.115800  0.237100  0.841500  1.0  -0.0101
  C  C126  1  0.160300  0.250800  0.875500  1.0  -0.1673
  C  C127  1  0.257000  0.207200  0.876300  1.0  0.2005
  C  C128  1  0.305000  0.155000  0.837300  1.0  -0.21
  C  C129  1  0.258400  0.139700  0.802200  1.0  -0.0204
  C  C130  1  0.123400  0.276300  0.609500  1.0  0.7033
  C  C131  1  0.173600  0.339000  0.576400  1.0  -0.1601
  C  C132  1  0.225600  0.379100  0.595600  1.0  0.0034
  C  C133  1  0.273200  0.438000  0.565800  1.0  -0.2226
  C  C134  1  0.269500  0.454800  0.513300  1.0  0.1565
  C  C135  1  0.216600  0.411700  0.493200  1.0  -0.1964
  C  C136  1  0.170400  0.353900  0.523700  1.0  -0.0619
  C  C137  1  0.683100  0.231100  0.844300  1.0  0.6941
  C  C138  1  0.513200  0.299500  0.849100  1.0  -0.032
  C  C139  1  0.583500  0.230000  0.863600  1.0  -0.0941
  C  C140  1  0.561700  0.159400  0.894400  1.0  -0.0318
  C  C141  1  0.027900  0.992000  0.259200  1.0  0.6906
  C  C142  1  0.059500  0.064900  0.218300  1.0  -0.1757
  C  C143  1  0.132900  0.045300  0.179500  1.0  0.0022
  C  C144  1  0.160200  0.112900  0.146900  1.0  -0.1681
  C  C145  1  0.409100  0.505800  0.491200  1.0  0.1625
  C  C146  1  0.473000  0.422700  0.499700  1.0  -0.1811
  C  C147  1  0.438200  0.580500  0.492500  1.0  -0.1653
  C  C148  1  0.285800  0.563500  0.441100  1.0  0.1995
  C  C149  1  0.191200  0.606600  0.442500  1.0  -0.1968
  C  C150  1  0.157500  0.656200  0.399900  1.0  -0.0454
  C  C151  1  0.311500  0.631400  0.355500  1.0  -0.0078
  C  C152  1  0.344200  0.580900  0.397700  1.0  -0.2086
  C  C153  1  0.181000  0.717700  0.311800  1.0  0.7183
  C  C154  1  0.219000  0.668700  0.356200  1.0  -0.1638
  C  C155  1  0.261500  0.233000  0.965400  1.0  0.125
  C  C156  1  0.186900  0.196300  0.989300  1.0  -0.182
  C  C157  1  0.150700  0.210900  0.038000  1.0  -0.1366
  C  C158  1  0.182800  0.255700  0.066800  1.0  0.1296
  C  C159  1  0.259400  0.288300  0.043000  1.0  -0.1351
  C  C160  1  0.297800  0.276300  0.994500  1.0  -0.1648
  C  C161  1  0.420500  0.297400  0.865800  1.0  -0.2073
  C  C162  1  0.399600  0.222600  0.896700  1.0  0.1777
  C  C163  1  0.470900  0.156200  0.911900  1.0  -0.2088
  C  C164  1  0.115800  0.198600  0.152800  1.0  0.2043
  C  C165  1  0.038900  0.222200  0.191800  1.0  -0.2151
  C  C166  1  0.011100  0.154700  0.225900  1.0  -0.0335
  N  N167  1  0.861000  0.729700  0.881800  1.0  -0.1546
  N  N168  1  0.697000  0.779000  0.087200  1.0  -0.1602
  N  N169  1  0.677900  0.488400  0.517300  1.0  -0.1146
  N  N170  1  0.139000  0.270300  0.118200  1.0  -0.1544
  N  N171  1  0.303000  0.221000  0.912800  1.0  -0.16
  N  N172  1  0.322100  0.511600  0.482700  1.0  -0.1149
  O  O173  1  0.854500  0.391100  0.773600  1.0  -0.6673
  O  O174  1  0.889600  0.324100  0.850500  1.0  -0.6984
  O  O175  1  0.841500  0.895900  0.265600  1.0  -0.6775
  O  O176  1  0.964400  0.790400  0.239500  1.0  -0.8104
  O  O177  1  0.926400  0.760300  0.408300  1.0  -0.6987
  O  O178  1  0.867000  0.741000  0.345400  1.0  -0.6607
  O  O179  1  0.927800  0.090400  0.751110  1.0  -0.8467
  O  O180  1  0.042500  0.987800  0.707600  1.0  -0.6732
  O  O181  1  0.256300  0.843400  0.162500  1.0  -0.7133
  O  O182  1  0.296000  0.696200  0.164400  1.0  -0.6283
  O  O183  1  0.902800  0.261600  0.691300  1.0  -0.796
  O  O184  1  0.761300  0.264600  0.728200  1.0  -0.6371
  O  O185  1  0.145500  0.608900  0.226400  1.0  -0.6653
  O  O186  1  0.110400  0.675900  0.149500  1.0  -0.7016
  O  O187  1  0.158500  0.104100  0.734400  1.0  -0.6758
  O  O188  1  0.035600  0.209600  0.760500  1.0  -0.81
  O  O189  1  0.073600  0.239700  0.591700  1.0  -0.7116
  O  O190  1  0.133000  0.259000  0.654600  1.0  -0.6605
  O  O191  1  0.072200  0.909600  0.248890  1.0  -0.8482
  O  O192  1  0.957500  0.012200  0.292400  1.0  -0.6713
  O  O193  1  0.743700  0.156600  0.837500  1.0  -0.712
  O  O194  1  0.704000  0.303800  0.835600  1.0  -0.6337
  O  O195  1  0.097200  0.738400  0.308700  1.0  -0.796
  O  O196  1  0.238700  0.735400  0.271800  1.0  -0.6416
