# generated using pymatgen
data_Fe3As4H3(CO7)3
_symmetry_space_group_name_H-M   'P 1'
_cell_length_a   13.98990000
_cell_length_b   13.98990000
_cell_length_c   14.93600000
_cell_angle_alpha   90.00000000
_cell_angle_beta   90.00000000
_cell_angle_gamma   120.00000000
_symmetry_Int_Tables_number   1
_chemical_formula_structural   Fe3As4H3(CO7)3
_chemical_formula_sum   'Fe12 As16 H12 C12 O84'
_cell_volume   2531.59457856
_cell_formula_units_Z   4
loop_
 _symmetry_equiv_pos_site_id
 _symmetry_equiv_pos_as_xyz
  1  'x, y, z'
loop_
 _atom_site_type_symbol
 _atom_site_label
 _atom_site_symmetry_multiplicity
 _atom_site_fract_x
 _atom_site_fract_y
 _atom_site_fract_z
 _atom_site_occupancy
 _atom_site_charge
  Fe  Fe1  1  0.536740  0.870240  0.595950  1.0  1.2609
  Fe  Fe2  1  0.129760  0.666500  0.595950  1.0  1.2596
  Fe  Fe3  1  0.333500  0.463260  0.595950  1.0  1.2605
  Fe  Fe4  1  0.870240  0.536740  0.904050  1.0  1.2595
  Fe  Fe5  1  0.666500  0.129760  0.904050  1.0  1.2623
  Fe  Fe6  1  0.463260  0.333500  0.904050  1.0  1.2613
  Fe  Fe7  1  0.463260  0.129760  0.404050  1.0  1.2618
  Fe  Fe8  1  0.870240  0.333500  0.404050  1.0  1.2609
  Fe  Fe9  1  0.666500  0.536740  0.404050  1.0  1.2602
  Fe  Fe10  1  0.129760  0.463260  0.095950  1.0  1.2606
  Fe  Fe11  1  0.333500  0.870240  0.095950  1.0  1.2605
  Fe  Fe12  1  0.536740  0.666500  0.095950  1.0  1.2602
  As  As13  1  0.325320  0.863130  0.480330  1.0  1.8145
  As  As14  1  0.136870  0.462190  0.480330  1.0  1.818
  As  As15  1  0.537810  0.674680  0.480330  1.0  1.8161
  As  As16  1  0.863130  0.325320  0.019670  1.0  1.8148
  As  As17  1  0.462190  0.136870  0.019670  1.0  1.8141
  As  As18  1  0.674680  0.537810  0.019670  1.0  1.8179
  As  As19  1  0.674680  0.136870  0.519670  1.0  1.8146
  As  As20  1  0.863130  0.537810  0.519670  1.0  1.8163
  As  As21  1  0.462190  0.325320  0.519670  1.0  1.8159
  As  As22  1  0.136870  0.674680  0.980330  1.0  1.8164
  As  As23  1  0.537810  0.863130  0.980330  1.0  1.8146
  As  As24  1  0.325320  0.462190  0.980330  1.0  1.8178
  As  As25  1  0.333333  0.666667  0.708260  1.0  1.279
  As  As26  1  0.666667  0.333333  0.791740  1.0  1.2785
  As  As27  1  0.666667  0.333333  0.291740  1.0  1.2785
  As  As28  1  0.333333  0.666667  0.208260  1.0  1.279
  H  H29  1  0.312400  0.773600  0.360900  1.0  0.4628
  H  H30  1  0.226400  0.538800  0.360900  1.0  0.4655
  H  H31  1  0.461200  0.687600  0.360900  1.0  0.4652
  H  H32  1  0.773600  0.312400  0.139100  1.0  0.465
  H  H33  1  0.538800  0.226400  0.139100  1.0  0.464
  H  H34  1  0.687600  0.461200  0.139100  1.0  0.465
  H  H35  1  0.687600  0.226400  0.639100  1.0  0.4669
  H  H36  1  0.773600  0.461200  0.639100  1.0  0.4667
  H  H37  1  0.538800  0.312400  0.639100  1.0  0.4666
  H  H38  1  0.226400  0.687600  0.860900  1.0  0.4666
  H  H39  1  0.461200  0.773600  0.860900  1.0  0.4662
  H  H40  1  0.312400  0.538800  0.860900  1.0  0.4676
  C  C41  1  0.549400  0.000000  0.750000  1.0  0.67
  C  C42  1  0.659200  0.000000  0.750000  1.0  0.6305
  C  C43  1  0.000000  0.549400  0.750000  1.0  0.6693
  C  C44  1  0.000000  0.659200  0.750000  1.0  0.634
  C  C45  1  0.450600  0.450600  0.750000  1.0  0.6717
  C  C46  1  0.340800  0.340800  0.750000  1.0  0.6309
  C  C47  1  0.450600  0.000000  0.250000  1.0  0.6676
  C  C48  1  0.340800  0.000000  0.250000  1.0  0.6308
  C  C49  1  0.000000  0.450600  0.250000  1.0  0.6733
  C  C50  1  0.000000  0.340800  0.250000  1.0  0.6307
  C  C51  1  0.549400  0.549400  0.250000  1.0  0.6701
  C  C52  1  0.659200  0.659200  0.250000  1.0  0.6331
  O  O53  1  0.409500  0.821000  0.519550  1.0  -0.8591
  O  O54  1  0.376700  0.999400  0.483020  1.0  -0.7502
  O  O55  1  0.202800  0.807200  0.532430  1.0  -0.6776
  O  O56  1  0.298700  0.823200  0.370210  1.0  -0.6652
  O  O57  1  0.465700  0.746500  0.679090  1.0  -0.6889
  O  O58  1  0.486800  0.957400  0.683770  1.0  -0.4944
  O  O59  1  0.671300  0.945500  0.688990  1.0  -0.4844
  O  O60  1  0.179000  0.588500  0.519550  1.0  -0.8592
  O  O61  1  0.000600  0.377300  0.483020  1.0  -0.7556
  O  O62  1  0.192800  0.395600  0.532430  1.0  -0.679
  O  O63  1  0.176800  0.475500  0.370210  1.0  -0.6628
  O  O64  1  0.253500  0.719200  0.679090  1.0  -0.6902
  O  O65  1  0.042600  0.529400  0.683770  1.0  -0.4948
  O  O66  1  0.054500  0.725800  0.688990  1.0  -0.4839
  O  O67  1  0.411500  0.590500  0.519550  1.0  -0.8603
  O  O68  1  0.622700  0.623300  0.483020  1.0  -0.7511
  O  O69  1  0.604400  0.797200  0.532430  1.0  -0.6759
  O  O70  1  0.524500  0.701300  0.370210  1.0  -0.6626
  O  O71  1  0.280800  0.534300  0.679090  1.0  -0.6901
  O  O72  1  0.470600  0.513200  0.683770  1.0  -0.4931
  O  O73  1  0.274200  0.328700  0.688990  1.0  -0.4875
  O  O74  1  0.821000  0.409500  0.980450  1.0  -0.8597
  O  O75  1  0.999400  0.376700  0.016980  1.0  -0.7496
  O  O76  1  0.807200  0.202800  0.967570  1.0  -0.6763
  O  O77  1  0.823200  0.298700  0.129790  1.0  -0.6645
  O  O78  1  0.746500  0.465700  0.820910  1.0  -0.6898
  O  O79  1  0.957400  0.486800  0.816230  1.0  -0.4917
  O  O80  1  0.945500  0.671300  0.811010  1.0  -0.4859
  O  O81  1  0.588500  0.179000  0.980450  1.0  -0.8592
  O  O82  1  0.377300  0.000600  0.016980  1.0  -0.7511
  O  O83  1  0.395600  0.192800  0.967570  1.0  -0.6771
  O  O84  1  0.475500  0.176800  0.129790  1.0  -0.6665
  O  O85  1  0.719200  0.253500  0.820910  1.0  -0.6894
  O  O86  1  0.529400  0.042600  0.816230  1.0  -0.4928
  O  O87  1  0.725800  0.054500  0.811010  1.0  -0.4823
  O  O88  1  0.590500  0.411500  0.980450  1.0  -0.8596
  O  O89  1  0.623300  0.622700  0.016980  1.0  -0.756
  O  O90  1  0.797200  0.604400  0.967570  1.0  -0.6747
  O  O91  1  0.701300  0.524500  0.129790  1.0  -0.6619
  O  O92  1  0.534300  0.280800  0.820910  1.0  -0.6909
  O  O93  1  0.513200  0.470600  0.816230  1.0  -0.494
  O  O94  1  0.328700  0.274200  0.811010  1.0  -0.4841
  O  O95  1  0.590500  0.179000  0.480450  1.0  -0.8595
  O  O96  1  0.623300  0.000600  0.516980  1.0  -0.7492
  O  O97  1  0.797200  0.192800  0.467570  1.0  -0.6769
  O  O98  1  0.701300  0.176800  0.629790  1.0  -0.6646
  O  O99  1  0.534300  0.253500  0.320910  1.0  -0.6906
  O  O100  1  0.513200  0.042600  0.316230  1.0  -0.4932
  O  O101  1  0.328700  0.054500  0.311010  1.0  -0.4821
  O  O102  1  0.821000  0.411500  0.480450  1.0  -0.8596
  O  O103  1  0.999400  0.622700  0.516980  1.0  -0.7559
  O  O104  1  0.807200  0.604400  0.467570  1.0  -0.675
  O  O105  1  0.823200  0.524500  0.629790  1.0  -0.664
  O  O106  1  0.746500  0.280800  0.320910  1.0  -0.6902
  O  O107  1  0.957400  0.470600  0.316230  1.0  -0.4935
  O  O108  1  0.945500  0.274200  0.311010  1.0  -0.486
  O  O109  1  0.588500  0.409500  0.480450  1.0  -0.8589
  O  O110  1  0.377300  0.376700  0.516980  1.0  -0.749
  O  O111  1  0.395600  0.202800  0.467570  1.0  -0.6748
  O  O112  1  0.475500  0.298700  0.629790  1.0  -0.663
  O  O113  1  0.719200  0.465700  0.320910  1.0  -0.6891
  O  O114  1  0.529400  0.486800  0.316230  1.0  -0.492
  O  O115  1  0.725800  0.671300  0.311010  1.0  -0.487
  O  O116  1  0.179000  0.590500  0.019550  1.0  -0.8598
  O  O117  1  0.000600  0.623300  0.983020  1.0  -0.75
  O  O118  1  0.192800  0.797200  0.032430  1.0  -0.6739
  O  O119  1  0.176800  0.701300  0.870210  1.0  -0.6612
  O  O120  1  0.253500  0.534300  0.179090  1.0  -0.6898
  O  O121  1  0.042600  0.513200  0.183770  1.0  -0.4936
  O  O122  1  0.054500  0.328700  0.188990  1.0  -0.486
  O  O123  1  0.411500  0.821000  0.019550  1.0  -0.8593
  O  O124  1  0.622700  0.999400  0.983020  1.0  -0.75
  O  O125  1  0.604400  0.807200  0.032430  1.0  -0.6772
  O  O126  1  0.524500  0.823200  0.870210  1.0  -0.6642
  O  O127  1  0.280800  0.746500  0.179090  1.0  -0.6901
  O  O128  1  0.470600  0.957400  0.183770  1.0  -0.4946
  O  O129  1  0.274200  0.945500  0.188990  1.0  -0.4827
  O  O130  1  0.409500  0.588500  0.019550  1.0  -0.8592
  O  O131  1  0.376700  0.377300  0.983020  1.0  -0.7546
  O  O132  1  0.202800  0.395600  0.032430  1.0  -0.6796
  O  O133  1  0.298700  0.475500  0.870210  1.0  -0.6632
  O  O134  1  0.465700  0.719200  0.179090  1.0  -0.6896
  O  O135  1  0.486800  0.529400  0.183770  1.0  -0.4947
  O  O136  1  0.671300  0.725800  0.188990  1.0  -0.4837
