# generated using pymatgen
data_NiH7C9NO5
_symmetry_space_group_name_H-M   'P 1'
_cell_length_a   9.35490000
_cell_length_b   13.10400000
_cell_length_c   10.88300000
_cell_angle_alpha   113.08000000
_cell_angle_beta   90.00000000
_cell_angle_gamma   90.00000000
_symmetry_Int_Tables_number   1
_chemical_formula_structural   NiH7C9NO5
_chemical_formula_sum   'Ni4 H28 C36 N4 O20'
_cell_volume   1227.32575787
_cell_formula_units_Z   4
loop_
 _symmetry_equiv_pos_site_id
 _symmetry_equiv_pos_as_xyz
  1  'x, y, z'
loop_
 _atom_site_type_symbol
 _atom_site_label
 _atom_site_symmetry_multiplicity
 _atom_site_fract_x
 _atom_site_fract_y
 _atom_site_fract_z
 _atom_site_occupancy
 _atom_site_charge
  Ni  Ni1  1  0.761610  0.574370  0.806660  1.0  0.9768
  Ni  Ni2  1  0.261610  0.425630  0.693340  1.0  0.9768
  Ni  Ni3  1  0.238390  0.425630  0.193340  1.0  0.976
  Ni  Ni4  1  0.738390  0.574370  0.306660  1.0  0.976
  H  H5  1  0.620300  0.353000  0.503000  1.0  0.0986
  H  H6  1  0.844100  0.282700  0.495000  1.0  0.1449
  H  H7  1  0.853800  0.361700  0.418600  1.0  0.1415
  H  H8  1  0.893700  0.731100  0.706900  1.0  0.0824
  H  H9  1  0.991800  0.904000  0.776600  1.0  0.1292
  H  H10  1  0.926500  0.936400  0.152000  1.0  0.1282
  H  H11  1  0.835700  0.759800  0.071800  1.0  0.0828
  H  H12  1  0.120300  0.647000  0.997000  1.0  0.0992
  H  H13  1  0.344100  0.717300  0.005000  1.0  0.146
  H  H14  1  0.353800  0.638300  0.081400  1.0  0.1398
  H  H15  1  0.393700  0.268900  0.793100  1.0  0.0833
  H  H16  1  0.491800  0.096000  0.723400  1.0  0.1297
  H  H17  1  0.426500  0.063600  0.348000  1.0  0.1279
  H  H18  1  0.335700  0.240200  0.428200  1.0  0.0838
  H  H19  1  0.379700  0.647000  0.497000  1.0  0.0988
  H  H20  1  0.155900  0.717300  0.505000  1.0  0.1459
  H  H21  1  0.146200  0.638300  0.581400  1.0  0.1395
  H  H22  1  0.106300  0.268900  0.293100  1.0  0.0834
  H  H23  1  0.008200  0.096000  0.223400  1.0  0.1296
  H  H24  1  0.073500  0.063600  0.848000  1.0  0.1278
  H  H25  1  0.164300  0.240200  0.928200  1.0  0.0839
  H  H26  1  0.879700  0.353000  0.003000  1.0  0.0987
  H  H27  1  0.655900  0.282700  0.995000  1.0  0.145
  H  H28  1  0.646200  0.361700  0.918600  1.0  0.1414
  H  H29  1  0.606300  0.731100  0.206900  1.0  0.0823
  H  H30  1  0.508200  0.904000  0.276600  1.0  0.1292
  H  H31  1  0.573500  0.936400  0.652000  1.0  0.1283
  H  H32  1  0.664300  0.759800  0.571800  1.0  0.0829
  C  C33  1  0.668000  0.518000  0.547800  1.0  0.6382
  C  C34  1  0.692500  0.405600  0.557300  1.0  0.1075
  C  C35  1  0.840600  0.359800  0.506000  1.0  -0.382
  C  C36  1  0.963600  0.420700  0.594500  1.0  0.7384
  C  C37  1  0.899600  0.773300  0.798200  1.0  0.1892
  C  C38  1  0.958700  0.877400  0.839100  1.0  -0.2093
  C  C39  1  0.968400  0.942700  0.975300  1.0  0.0924
  C  C40  1  0.921000  0.896200  0.060300  1.0  -0.1797
  C  C41  1  0.864700  0.790000  0.011400  1.0  0.1706
  C  C42  1  0.168000  0.482000  0.952200  1.0  0.6395
  C  C43  1  0.192500  0.594400  0.942700  1.0  0.1071
  C  C44  1  0.340600  0.640200  0.994000  1.0  -0.383
  C  C45  1  0.463600  0.579300  0.905500  1.0  0.7393
  C  C46  1  0.399600  0.226700  0.701800  1.0  0.1903
  C  C47  1  0.458700  0.122600  0.660900  1.0  -0.2093
  C  C48  1  0.468400  0.057300  0.524700  1.0  0.0915
  C  C49  1  0.421000  0.103800  0.439700  1.0  -0.1794
  C  C50  1  0.364700  0.210000  0.488600  1.0  0.1705
  C  C51  1  0.332000  0.482000  0.452200  1.0  0.6394
  C  C52  1  0.307500  0.594400  0.442700  1.0  0.1069
  C  C53  1  0.159400  0.640200  0.494000  1.0  -0.3828
  C  C54  1  0.036400  0.579300  0.405500  1.0  0.7383
  C  C55  1  0.100400  0.226700  0.201800  1.0  0.1903
  C  C56  1  0.041300  0.122600  0.160900  1.0  -0.2119
  C  C57  1  0.031600  0.057300  0.024700  1.0  0.0915
  C  C58  1  0.079000  0.103800  0.939700  1.0  -0.1798
  C  C59  1  0.135300  0.210000  0.988600  1.0  0.1709
  C  C60  1  0.832000  0.518000  0.047800  1.0  0.638
  C  C61  1  0.807500  0.405600  0.057300  1.0  0.1075
  C  C62  1  0.659400  0.359800  0.006000  1.0  -0.3814
  C  C63  1  0.536400  0.420700  0.094500  1.0  0.7366
  C  C64  1  0.600400  0.773300  0.298200  1.0  0.1889
  C  C65  1  0.541300  0.877400  0.339100  1.0  -0.2118
  C  C66  1  0.531600  0.942700  0.475300  1.0  0.0921
  C  C67  1  0.579000  0.896200  0.560300  1.0  -0.1801
  C  C68  1  0.635300  0.790000  0.511400  1.0  0.1708
  N  N69  1  0.850600  0.729100  0.880600  1.0  -0.2937
  N  N70  1  0.350600  0.270900  0.619400  1.0  -0.2943
  N  N71  1  0.149400  0.270900  0.119400  1.0  -0.2932
  N  N72  1  0.649400  0.729100  0.380600  1.0  -0.2928
  O  O73  1  0.669000  0.603800  0.653800  1.0  -0.5433
  O  O74  1  0.645500  0.513800  0.432600  1.0  -0.5564
  O  O75  1  0.680900  0.414600  0.693300  1.0  -0.4342
  O  O76  1  0.942400  0.515900  0.685600  1.0  -0.54
  O  O77  1  0.084400  0.374500  0.571200  1.0  -0.5813
  O  O78  1  0.169000  0.396200  0.846200  1.0  -0.5441
  O  O79  1  0.145500  0.486200  0.067400  1.0  -0.5565
  O  O80  1  0.180900  0.585400  0.806700  1.0  -0.4317
  O  O81  1  0.442400  0.484100  0.814400  1.0  -0.54
  O  O82  1  0.584400  0.625500  0.928800  1.0  -0.5817
  O  O83  1  0.331000  0.396200  0.346200  1.0  -0.5433
  O  O84  1  0.354500  0.486200  0.567400  1.0  -0.5571
  O  O85  1  0.319100  0.585400  0.306700  1.0  -0.4321
  O  O86  1  0.057600  0.484100  0.314400  1.0  -0.5393
  O  O87  1  0.915600  0.625500  0.428800  1.0  -0.5817
  O  O88  1  0.831000  0.603800  0.153800  1.0  -0.5428
  O  O89  1  0.854500  0.513800  0.932600  1.0  -0.5566
  O  O90  1  0.819100  0.414600  0.193300  1.0  -0.4369
  O  O91  1  0.557600  0.515900  0.185600  1.0  -0.5397
  O  O92  1  0.415600  0.374500  0.071200  1.0  -0.5818
