# generated using pymatgen
data_NdH21(C7O4)2
_symmetry_space_group_name_H-M   'P 1'
_cell_length_a   8.64630000
_cell_length_b   9.08050000
_cell_length_c   11.88800000
_cell_angle_alpha   110.25000000
_cell_angle_beta   90.00000000
_cell_angle_gamma   90.00000000
_symmetry_Int_Tables_number   1
_chemical_formula_structural   NdH21(C7O4)2
_chemical_formula_sum   'Nd2 H42 C28 O16'
_cell_volume   875.66960890
_cell_formula_units_Z   2
loop_
 _symmetry_equiv_pos_site_id
 _symmetry_equiv_pos_as_xyz
  1  'x, y, z'
loop_
 _atom_site_type_symbol
 _atom_site_label
 _atom_site_symmetry_multiplicity
 _atom_site_fract_x
 _atom_site_fract_y
 _atom_site_fract_z
 _atom_site_occupancy
 _atom_site_charge
  Nd  Nd1  1  0.748880  0.525590  0.987730  1.0  2.3481
  Nd  Nd2  1  0.248880  0.474410  0.012270  1.0  2.3482
  H  H3  1  0.626200  0.129200  0.581500  1.0  0.0752
  H  H4  1  0.590100  0.277800  0.542000  1.0  0.0739
  H  H5  1  0.358100  0.329200  0.661700  1.0  0.1236
  H  H6  1  0.394000  0.180700  0.701100  1.0  0.1363
  H  H7  1  0.595700  0.073300  0.320200  1.0  0.0752
  H  H8  1  0.620400  0.934500  0.372700  1.0  0.069
  H  H9  1  0.372100  0.830300  0.283700  1.0  0.1115
  H  H10  1  0.378000  0.954700  0.215900  1.0  0.1105
  H  H11  1  0.155600  0.588200  0.632400  1.0  0.115
  H  H12  1  0.976300  0.636500  0.643200  1.0  0.1165
  H  H13  1  0.362600  0.155300  0.439000  1.0  0.0831
  H  H14  1  0.380900  0.013000  0.488600  1.0  0.0779
  H  H15  1  0.064600  0.136700  0.371300  1.0  0.0804
  H  H16  1  0.882200  0.168900  0.382800  1.0  0.0745
  H  H17  1  0.114500  0.412600  0.423700  1.0  0.0812
  H  H18  1  0.932500  0.447900  0.428200  1.0  0.0756
  H  H19  1  0.082200  0.315700  0.588300  1.0  0.0803
  H  H20  1  0.903400  0.365300  0.595900  1.0  0.0828
  H  H21  1  0.888400  0.255400  0.216800  1.0  0.1292
  H  H22  1  0.950300  0.079500  0.179300  1.0  0.1367
  H  H23  1  0.912000  0.713000  0.788000  1.0  0.4078
  H  H24  1  0.126200  0.870800  0.418500  1.0  0.0752
  H  H25  1  0.090100  0.722200  0.458000  1.0  0.0743
  H  H26  1  0.858100  0.670800  0.338300  1.0  0.1159
  H  H27  1  0.894000  0.819300  0.298900  1.0  0.1355
  H  H28  1  0.095700  0.926700  0.679800  1.0  0.077
  H  H29  1  0.120400  0.065500  0.627300  1.0  0.0691
  H  H30  1  0.872100  0.169700  0.716300  1.0  0.112
  H  H31  1  0.878000  0.045300  0.784100  1.0  0.1105
  H  H32  1  0.655600  0.411800  0.367600  1.0  0.1154
  H  H33  1  0.476300  0.363500  0.356800  1.0  0.1158
  H  H34  1  0.862600  0.844700  0.561000  1.0  0.0828
  H  H35  1  0.880900  0.987000  0.511400  1.0  0.0773
  H  H36  1  0.564600  0.863300  0.628700  1.0  0.0817
  H  H37  1  0.382200  0.831100  0.617200  1.0  0.0763
  H  H38  1  0.614500  0.587400  0.576300  1.0  0.0821
  H  H39  1  0.432500  0.552100  0.571800  1.0  0.0757
  H  H40  1  0.582200  0.684300  0.411700  1.0  0.0796
  H  H41  1  0.403400  0.634700  0.404100  1.0  0.0825
  H  H42  1  0.388400  0.744600  0.783200  1.0  0.1298
  H  H43  1  0.450300  0.920500  0.820700  1.0  0.1415
  H  H44  1  0.412000  0.287000  0.212000  1.0  0.4051
  C  C45  1  0.535800  0.776400  0.150400  1.0  0.7933
  C  C46  1  0.542400  0.193300  0.565100  1.0  -0.0863
  C  C47  1  0.442000  0.265700  0.678700  1.0  -0.3579
  C  C48  1  0.541500  0.997200  0.349100  1.0  -0.0874
  C  C49  1  0.442500  0.890100  0.249700  1.0  -0.359
  C  C50  1  0.052500  0.573800  0.786900  1.0  0.7455
  C  C51  1  0.052000  0.561400  0.655100  1.0  -0.3491
  C  C52  1  0.438600  0.088900  0.461600  1.0  -0.1559
  C  C53  1  0.131000  0.240000  0.172000  1.0  0.6842
  C  C54  1  0.981000  0.205000  0.359800  1.0  -0.0764
  C  C55  1  0.012000  0.378000  0.442700  1.0  -0.1328
  C  C56  1  0.008000  0.391000  0.574800  1.0  -0.0799
  C  C57  1  0.975000  0.190000  0.227300  1.0  -0.3956
  C  C58  1  0.539300  0.367500  0.780900  1.0  0.7939
  C  C59  1  0.035800  0.223600  0.849600  1.0  0.7947
  C  C60  1  0.042400  0.806700  0.434900  1.0  -0.0865
  C  C61  1  0.942000  0.734300  0.321300  1.0  -0.3563
  C  C62  1  0.041500  0.002800  0.650900  1.0  -0.0913
  C  C63  1  0.942500  0.109900  0.750300  1.0  -0.3619
  C  C64  1  0.552500  0.426200  0.213100  1.0  0.7269
  C  C65  1  0.552000  0.438600  0.344900  1.0  -0.3514
  C  C66  1  0.938600  0.911100  0.538400  1.0  -0.1558
  C  C67  1  0.631000  0.760000  0.828000  1.0  0.6698
  C  C68  1  0.481000  0.795000  0.640200  1.0  -0.076
  C  C69  1  0.512000  0.622000  0.557300  1.0  -0.1328
  C  C70  1  0.508000  0.609000  0.425200  1.0  -0.079
  C  C71  1  0.475000  0.810000  0.772700  1.0  -0.3981
  C  C72  1  0.039300  0.632500  0.219100  1.0  0.7912
  O  O73  1  0.469600  0.423300  0.885300  1.0  -0.8886
  O  O74  1  0.938300  0.632400  0.849700  1.0  -0.5908
  O  O75  1  0.116400  0.268000  0.081700  1.0  -0.6012
  O  O76  1  0.675900  0.797700  0.132100  1.0  -0.6544
  O  O77  1  0.678700  0.399700  0.775600  1.0  -0.6501
  O  O78  1  0.170100  0.521400  0.823300  1.0  -0.6845
  O  O79  1  0.469300  0.645800  0.083900  1.0  -0.8874
  O  O80  1  0.261000  0.234900  0.231000  1.0  -0.6233
  O  O81  1  0.969600  0.576700  0.114700  1.0  -0.8844
  O  O82  1  0.438300  0.367600  0.150300  1.0  -0.5895
  O  O83  1  0.616400  0.732000  0.918300  1.0  -0.6008
  O  O84  1  0.175900  0.202300  0.867900  1.0  -0.6545
  O  O85  1  0.178700  0.600300  0.224400  1.0  -0.6437
  O  O86  1  0.670100  0.478600  0.176700  1.0  -0.6864
  O  O87  1  0.969300  0.354200  0.916100  1.0  -0.8907
  O  O88  1  0.761000  0.765100  0.769000  1.0  -0.6278
