# generated using pymatgen
data_Ga2P3H4(O3F)3
_symmetry_space_group_name_H-M   'P 1'
_cell_length_a   7.10720000
_cell_length_b   9.40940000
_cell_length_c   11.78470000
_cell_angle_alpha   71.60200000
_cell_angle_beta   78.16500000
_cell_angle_gamma   70.29600000
_symmetry_Int_Tables_number   1
_chemical_formula_structural   Ga2P3H4(O3F)3
_chemical_formula_sum   'Ga4 P6 H8 O18 F6'
_cell_volume   699.71855091
_cell_formula_units_Z   2
loop_
 _symmetry_equiv_pos_site_id
 _symmetry_equiv_pos_as_xyz
  1  'x, y, z'
loop_
 _atom_site_type_symbol
 _atom_site_label
 _atom_site_symmetry_multiplicity
 _atom_site_fract_x
 _atom_site_fract_y
 _atom_site_fract_z
 _atom_site_occupancy
 _atom_site_charge
  Ga  Ga1  1  0.465210  0.375650  0.839570  1.0  1.6751
  Ga  Ga2  1  0.534790  0.624350  0.160430  1.0  1.6758
  Ga  Ga3  1  0.000000  0.000000  0.500000  1.0  1.6604
  Ga  Ga4  1  0.500000  0.000000  0.500000  1.0  1.6282
  P  P5  1  0.645710  0.098330  0.697750  1.0  1.6136
  P  P6  1  0.309900  0.734270  0.671250  1.0  1.615
  P  P7  1  0.712920  0.547140  0.905630  1.0  1.5979
  P  P8  1  0.354290  0.901670  0.302250  1.0  1.6141
  P  P9  1  0.690100  0.265730  0.328750  1.0  1.615
  P  P10  1  0.287080  0.452860  0.094370  1.0  1.6055
  H  H11  1  0.586000  0.689000  0.861000  1.0  -0.0904
  H  H12  1  0.219000  0.773000  0.768000  1.0  -0.1221
  H  H13  1  0.609000  0.994000  0.807000  1.0  -0.0633
  H  H14  1  0.028000  0.522000  0.856000  1.0  0.4323
  H  H15  1  0.414000  0.311000  0.139000  1.0  -0.0898
  H  H16  1  0.781000  0.227000  0.232000  1.0  -0.1176
  H  H17  1  0.391000  0.006000  0.193000  1.0  -0.0641
  H  H18  1  0.972000  0.478000  0.144000  1.0  0.4312
  O  O19  1  0.709200  0.421000  0.851500  1.0  -0.7796
  O  O20  1  0.400900  0.557300  0.700700  1.0  -0.7905
  O  O21  1  0.682500  0.502400  0.041600  1.0  -0.7946
  O  O22  1  0.610800  0.256100  0.722000  1.0  -0.7743
  O  O23  1  0.866600  0.034300  0.654000  1.0  -0.7861
  O  O24  1  0.469400  0.819900  0.631000  1.0  -0.8012
  O  O25  1  0.499900  0.107000  0.616400  1.0  -0.7929
  O  O26  1  0.157300  0.788800  0.580300  1.0  -0.7826
  O  O27  1  0.914300  0.590100  0.857100  1.0  -0.6327
  O  O28  1  0.290800  0.579000  0.148500  1.0  -0.7809
  O  O29  1  0.599100  0.442700  0.299300  1.0  -0.7886
  O  O30  1  0.317500  0.497600  0.958400  1.0  -0.7948
  O  O31  1  0.389200  0.743900  0.278000  1.0  -0.7729
  O  O32  1  0.133400  0.965700  0.346000  1.0  -0.7876
  O  O33  1  0.530600  0.180100  0.369000  1.0  -0.8019
  O  O34  1  0.500100  0.893000  0.383600  1.0  -0.793
  O  O35  1  0.842700  0.211200  0.419700  1.0  -0.7815
  O  O36  1  0.085700  0.409900  0.142900  1.0  -0.6329
  F  F37  1  0.205800  0.088700  0.509980  1.0  -0.5147
  F  F38  1  0.525400  0.188200  0.964340  1.0  -0.4343
  F  F39  1  0.220800  0.338100  0.836800  1.0  -0.4248
  F  F40  1  0.794200  0.911300  0.490020  1.0  -0.5196
  F  F41  1  0.474600  0.811800  0.035660  1.0  -0.4306
  F  F42  1  0.779200  0.661900  0.163200  1.0  -0.4241
