# generated using pymatgen
data_LaCr(CN)6
_symmetry_space_group_name_H-M   'P 1'
_cell_length_a   7.70530000
_cell_length_b   7.70530000
_cell_length_c   14.81550000
_cell_angle_alpha   90.00000000
_cell_angle_beta   90.00000000
_cell_angle_gamma   120.00000000
_symmetry_Int_Tables_number   1
_chemical_formula_structural   LaCr(CN)6
_chemical_formula_sum   'La2 Cr2 C12 N12'
_cell_volume   761.77383057
_cell_formula_units_Z   2
loop_
 _symmetry_equiv_pos_site_id
 _symmetry_equiv_pos_as_xyz
  1  'x, y, z'
loop_
 _atom_site_type_symbol
 _atom_site_label
 _atom_site_symmetry_multiplicity
 _atom_site_fract_x
 _atom_site_fract_y
 _atom_site_fract_z
 _atom_site_occupancy
 _atom_site_charge
  La  La1  1  0.666667  0.333333  0.750000  1.0  2.1496
  La  La2  1  0.333333  0.666667  0.250000  1.0  2.1496
  Cr  Cr3  1  0.000000  0.000000  0.500000  1.0  0.085
  Cr  Cr4  1  0.000000  0.000000  0.000000  1.0  0.085
  C  C5  1  0.251600  0.109200  0.580700  1.0  0.1833
  C  C6  1  0.857600  0.748400  0.580700  1.0  0.1834
  C  C7  1  0.890800  0.142400  0.580700  1.0  0.1831
  C  C8  1  0.748400  0.890800  0.080700  1.0  0.1834
  C  C9  1  0.142400  0.251600  0.080700  1.0  0.1834
  C  C10  1  0.109200  0.857600  0.080700  1.0  0.1838
  C  C11  1  0.748400  0.890800  0.419300  1.0  0.1838
  C  C12  1  0.142400  0.251600  0.419300  1.0  0.1835
  C  C13  1  0.109200  0.857600  0.419300  1.0  0.1839
  C  C14  1  0.251600  0.109200  0.919300  1.0  0.1834
  C  C15  1  0.857600  0.748400  0.919300  1.0  0.1836
  C  C16  1  0.890800  0.142400  0.919300  1.0  0.1834
  N  N17  1  0.389700  0.169800  0.625400  1.0  -0.5545
  N  N18  1  0.780100  0.610300  0.625400  1.0  -0.556
  N  N19  1  0.830200  0.219900  0.625400  1.0  -0.555
  N  N20  1  0.610300  0.830200  0.125400  1.0  -0.5543
  N  N21  1  0.219900  0.389700  0.125400  1.0  -0.5578
  N  N22  1  0.169800  0.780100  0.125400  1.0  -0.5547
  N  N23  1  0.610300  0.830200  0.374600  1.0  -0.5554
  N  N24  1  0.219900  0.389700  0.374600  1.0  -0.5586
  N  N25  1  0.169800  0.780100  0.374600  1.0  -0.5565
  N  N26  1  0.389700  0.169800  0.874600  1.0  -0.5551
  N  N27  1  0.780100  0.610300  0.874600  1.0  -0.5575
  N  N28  1  0.830200  0.219900  0.874600  1.0  -0.5556
