# generated using pymatgen
data_MgH8(C7O2)2
_symmetry_space_group_name_H-M   'P 1'
_cell_length_a   11.39180000
_cell_length_b   11.42990000
_cell_length_c   26.99800000
_cell_angle_alpha   90.00000000
_cell_angle_beta   90.00000000
_cell_angle_gamma   94.28300000
_symmetry_Int_Tables_number   1
_chemical_formula_structural   MgH8(C7O2)2
_chemical_formula_sum   'Mg6 H48 C84 O24'
_cell_volume   3505.51508506
_cell_formula_units_Z   6
loop_
 _symmetry_equiv_pos_site_id
 _symmetry_equiv_pos_as_xyz
  1  'x, y, z'
loop_
 _atom_site_type_symbol
 _atom_site_label
 _atom_site_symmetry_multiplicity
 _atom_site_fract_x
 _atom_site_fract_y
 _atom_site_fract_z
 _atom_site_occupancy
 _atom_site_charge
  Mg  Mg1  1  0.860260  0.249970  0.461720  1.0  1.5817
  Mg  Mg2  1  0.639740  0.750030  0.961720  1.0  1.5843
  Mg  Mg3  1  0.139740  0.750030  0.538280  1.0  1.5863
  Mg  Mg4  1  0.360260  0.249970  0.038280  1.0  1.5822
  Mg  Mg5  1  0.000000  0.000000  0.500000  1.0  1.5466
  Mg  Mg6  1  0.500000  0.000000  0.000000  1.0  1.5457
  H  H7  1  0.176900  0.472000  0.460500  1.0  0.107
  H  H8  1  0.352100  0.588300  0.473300  1.0  0.1023
  H  H9  1  0.495300  0.313800  0.539100  1.0  0.1131
  H  H10  1  0.320000  0.197500  0.526300  1.0  0.1103
  H  H11  1  0.761500  0.308100  0.622000  1.0  0.106
  H  H12  1  0.712100  0.257700  0.703300  1.0  0.1121
  H  H13  1  0.776600  0.922300  0.674600  1.0  0.1118
  H  H14  1  0.826300  0.972400  0.593200  1.0  0.1073
  H  H15  1  0.794800  0.192100  0.787900  1.0  0.1237
  H  H16  1  0.708900  0.144400  0.865100  1.0  0.0994
  H  H17  1  0.541000  0.852500  0.807800  1.0  0.1201
  H  H18  1  0.617300  0.901400  0.729200  1.0  0.1048
  H  H19  1  0.323100  0.528000  0.960500  1.0  0.1075
  H  H20  1  0.147900  0.411700  0.973300  1.0  0.1023
  H  H21  1  0.004700  0.686200  0.039100  1.0  0.1128
  H  H22  1  0.180000  0.802500  0.026300  1.0  0.1102
  H  H23  1  0.738500  0.691900  0.122000  1.0  0.106
  H  H24  1  0.787900  0.742300  0.203300  1.0  0.1118
  H  H25  1  0.723400  0.077700  0.174600  1.0  0.1115
  H  H26  1  0.673700  0.027600  0.093200  1.0  0.1081
  H  H27  1  0.705200  0.807900  0.287900  1.0  0.1234
  H  H28  1  0.791100  0.855600  0.365100  1.0  0.0995
  H  H29  1  0.959000  0.147500  0.307800  1.0  0.1199
  H  H30  1  0.882700  0.098600  0.229200  1.0  0.1049
  H  H31  1  0.823100  0.528000  0.539500  1.0  0.1078
  H  H32  1  0.647900  0.411700  0.526700  1.0  0.1028
  H  H33  1  0.504700  0.686200  0.460900  1.0  0.1124
  H  H34  1  0.680000  0.802500  0.473700  1.0  0.1109
  H  H35  1  0.238500  0.691900  0.378000  1.0  0.1065
  H  H36  1  0.287900  0.742300  0.296700  1.0  0.1115
  H  H37  1  0.223400  0.077700  0.325400  1.0  0.1113
  H  H38  1  0.173700  0.027600  0.406800  1.0  0.1076
  H  H39  1  0.205200  0.807900  0.212100  1.0  0.1231
  H  H40  1  0.291100  0.855600  0.134900  1.0  0.0983
  H  H41  1  0.459000  0.147500  0.192200  1.0  0.12
  H  H42  1  0.382700  0.098600  0.270800  1.0  0.1049
  H  H43  1  0.676900  0.472000  0.039500  1.0  0.1071
  H  H44  1  0.852100  0.588300  0.026700  1.0  0.1025
  H  H45  1  0.995300  0.313800  0.960900  1.0  0.1122
  H  H46  1  0.820000  0.197500  0.973700  1.0  0.1108
  H  H47  1  0.261500  0.308100  0.878000  1.0  0.1063
  H  H48  1  0.212100  0.257700  0.796700  1.0  0.1124
  H  H49  1  0.276600  0.922300  0.825400  1.0  0.1116
  H  H50  1  0.326300  0.972400  0.906800  1.0  0.1075
  H  H51  1  0.294800  0.192100  0.712100  1.0  0.1238
  H  H52  1  0.208900  0.144400  0.634900  1.0  0.0987
  H  H53  1  0.041000  0.852500  0.692200  1.0  0.1198
  H  H54  1  0.117300  0.901400  0.770800  1.0  0.1051
  C  C55  1  0.115800  0.251500  0.480980  1.0  0.756
  C  C56  1  0.232000  0.323800  0.492200  1.0  -0.1369
  C  C57  1  0.241500  0.439900  0.476500  1.0  -0.0514
  C  C58  1  0.345600  0.509000  0.484000  1.0  -0.1691
  C  C59  1  0.440200  0.462000  0.507400  1.0  0.0182
  C  C60  1  0.430600  0.345900  0.523100  1.0  -0.1401
  C  C61  1  0.326500  0.276800  0.515600  1.0  -0.0483
  C  C62  1  0.828500  0.181400  0.547760  1.0  0.7266
  C  C63  1  0.799400  0.145300  0.599690  1.0  -0.1542
  C  C64  1  0.764800  0.229200  0.632650  1.0  -0.0379
  C  C65  1  0.735000  0.199100  0.681100  1.0  -0.1601
  C  C66  1  0.738200  0.084900  0.697320  1.0  0.0772
  C  C67  1  0.773200  0.001200  0.663940  1.0  -0.1596
  C  C68  1  0.803200  0.030800  0.615480  1.0  -0.0285
  C  C69  1  0.703100  0.052300  0.748700  1.0  0.0428
  C  C70  1  0.741000  0.125100  0.791600  1.0  -0.1472
  C  C71  1  0.695000  0.092500  0.837900  1.0  -0.0474
  C  C72  1  0.632000  0.990100  0.845250  1.0  -0.1382
  C  C73  1  0.594100  0.919900  0.803600  1.0  -0.0659
  C  C74  1  0.636300  0.951900  0.756500  1.0  -0.1494
  C  C75  1  0.593900  0.949400  0.896300  1.0  0.7474
  C  C76  1  0.384200  0.748500  0.980980  1.0  0.7561
  C  C77  1  0.268000  0.676200  0.992200  1.0  -0.1366
  C  C78  1  0.258500  0.560100  0.976500  1.0  -0.0513
  C  C79  1  0.154400  0.491000  0.984000  1.0  -0.1691
  C  C80  1  0.059800  0.538000  0.007400  1.0  0.0187
  C  C81  1  0.069400  0.654100  0.023100  1.0  -0.1408
  C  C82  1  0.173500  0.723200  0.015600  1.0  -0.0493
  C  C83  1  0.671500  0.818600  0.047760  1.0  0.7264
  C  C84  1  0.700600  0.854700  0.099690  1.0  -0.153
  C  C85  1  0.735200  0.770800  0.132650  1.0  -0.0384
  C  C86  1  0.765000  0.800900  0.181100  1.0  -0.1586
  C  C87  1  0.761800  0.915100  0.197320  1.0  0.0771
  C  C88  1  0.726800  0.998800  0.163940  1.0  -0.1596
  C  C89  1  0.696800  0.969200  0.115480  1.0  -0.0279
  C  C90  1  0.796900  0.947700  0.248700  1.0  0.0428
  C  C91  1  0.759000  0.874900  0.291600  1.0  -0.1468
  C  C92  1  0.805000  0.907500  0.337900  1.0  -0.0461
  C  C93  1  0.868000  0.009900  0.345250  1.0  -0.1374
  C  C94  1  0.905900  0.080100  0.303600  1.0  -0.0668
  C  C95  1  0.863700  0.048100  0.256500  1.0  -0.1491
  C  C96  1  0.906100  0.050600  0.396300  1.0  0.7459
  C  C97  1  0.884200  0.748500  0.519020  1.0  0.756
  C  C98  1  0.768000  0.676200  0.507800  1.0  -0.1368
  C  C99  1  0.758500  0.560100  0.523500  1.0  -0.0517
  C  C100  1  0.654400  0.491000  0.516000  1.0  -0.1673
  C  C101  1  0.559800  0.538000  0.492600  1.0  0.0188
  C  C102  1  0.569400  0.654100  0.476900  1.0  -0.1398
  C  C103  1  0.673500  0.723200  0.484400  1.0  -0.0491
  C  C104  1  0.171500  0.818600  0.452240  1.0  0.7265
  C  C105  1  0.200600  0.854700  0.400310  1.0  -0.1527
  C  C106  1  0.235200  0.770800  0.367350  1.0  -0.0383
  C  C107  1  0.265000  0.800900  0.318900  1.0  -0.1588
  C  C108  1  0.261800  0.915100  0.302680  1.0  0.0772
  C  C109  1  0.226800  0.998800  0.336060  1.0  -0.1596
  C  C110  1  0.196800  0.969200  0.384520  1.0  -0.028
  C  C111  1  0.296900  0.947700  0.251300  1.0  0.0428
  C  C112  1  0.259000  0.874900  0.208400  1.0  -0.1468
  C  C113  1  0.305000  0.907500  0.162100  1.0  -0.0465
  C  C114  1  0.368000  0.009900  0.154750  1.0  -0.1378
  C  C115  1  0.405900  0.080100  0.196400  1.0  -0.0669
  C  C116  1  0.363700  0.048100  0.243500  1.0  -0.15
  C  C117  1  0.406100  0.050600  0.103700  1.0  0.7464
  C  C118  1  0.615800  0.251500  0.019020  1.0  0.7557
  C  C119  1  0.732000  0.323800  0.007800  1.0  -0.1369
  C  C120  1  0.741500  0.439900  0.023500  1.0  -0.0518
  C  C121  1  0.845600  0.509000  0.016000  1.0  -0.1679
  C  C122  1  0.940200  0.462000  0.992600  1.0  0.0192
  C  C123  1  0.930600  0.345900  0.976900  1.0  -0.1397
  C  C124  1  0.826500  0.276800  0.984400  1.0  -0.0485
  C  C125  1  0.328500  0.181400  0.952240  1.0  0.7256
  C  C126  1  0.299400  0.145300  0.900310  1.0  -0.1532
  C  C127  1  0.264800  0.229200  0.867350  1.0  -0.0374
  C  C128  1  0.235000  0.199100  0.818900  1.0  -0.1603
  C  C129  1  0.238200  0.084900  0.802680  1.0  0.0773
  C  C130  1  0.273200  0.001200  0.836060  1.0  -0.1595
  C  C131  1  0.303200  0.030800  0.884520  1.0  -0.0283
  C  C132  1  0.203100  0.052300  0.751300  1.0  0.0427
  C  C133  1  0.241000  0.125100  0.708400  1.0  -0.1464
  C  C134  1  0.195000  0.092500  0.662100  1.0  -0.0476
  C  C135  1  0.132000  0.990100  0.654750  1.0  -0.1386
  C  C136  1  0.094100  0.919900  0.696400  1.0  -0.0654
  C  C137  1  0.136300  0.951900  0.743500  1.0  -0.1494
  C  C138  1  0.093900  0.949400  0.603700  1.0  0.7463
  O  O139  1  0.811700  0.283990  0.534530  1.0  -0.6992
  O  O140  1  0.866860  0.109670  0.517050  1.0  -0.8206
  O  O141  1  0.577000  0.841900  0.902600  1.0  -0.8015
  O  O142  1  0.026650  0.309040  0.475870  1.0  -0.7414
  O  O143  1  0.563120  0.021560  0.926940  1.0  -0.6638
  O  O144  1  0.117520  0.142690  0.483130  1.0  -0.6806
  O  O145  1  0.688300  0.716010  0.034530  1.0  -0.6964
  O  O146  1  0.633140  0.890330  0.017050  1.0  -0.8216
  O  O147  1  0.923000  0.158100  0.402600  1.0  -0.8028
  O  O148  1  0.473350  0.690960  0.975870  1.0  -0.7405
  O  O149  1  0.936880  0.978440  0.426940  1.0  -0.6652
  O  O150  1  0.382480  0.857310  0.983130  1.0  -0.6869
  O  O151  1  0.188300  0.716010  0.465470  1.0  -0.694
  O  O152  1  0.133140  0.890330  0.482950  1.0  -0.8227
  O  O153  1  0.423000  0.158100  0.097400  1.0  -0.8024
  O  O154  1  0.973350  0.690960  0.524130  1.0  -0.7422
  O  O155  1  0.436880  0.978440  0.073060  1.0  -0.6659
  O  O156  1  0.882480  0.857310  0.516870  1.0  -0.6865
  O  O157  1  0.311700  0.283990  0.965470  1.0  -0.698
  O  O158  1  0.366860  0.109670  0.982950  1.0  -0.8215
  O  O159  1  0.077000  0.841900  0.597400  1.0  -0.8008
  O  O160  1  0.526650  0.309040  0.024130  1.0  -0.7427
  O  O161  1  0.063120  0.021560  0.573060  1.0  -0.6643
  O  O162  1  0.617520  0.142690  0.016870  1.0  -0.6802
