# generated using pymatgen
data_Mn4H8C24N32ClO4
_symmetry_space_group_name_H-M   'P 1'
_cell_length_a   19.11580000
_cell_length_b   19.11580000
_cell_length_c   19.11580000
_cell_angle_alpha   90.00000000
_cell_angle_beta   90.00000000
_cell_angle_gamma   90.00000000
_symmetry_Int_Tables_number   1
_chemical_formula_structural   Mn4H8C24N32ClO4
_chemical_formula_sum   'Mn12 H24 C72 N96 Cl3 O12'
_cell_volume   6985.17730232
_cell_formula_units_Z   3
loop_
 _symmetry_equiv_pos_site_id
 _symmetry_equiv_pos_as_xyz
  1  'x, y, z'
loop_
 _atom_site_type_symbol
 _atom_site_label
 _atom_site_symmetry_multiplicity
 _atom_site_fract_x
 _atom_site_fract_y
 _atom_site_fract_z
 _atom_site_occupancy
 _atom_site_charge
  Mn  Mn1  1  0.856900  0.500000  0.000000  1.0  1.0006
  Mn  Mn2  1  0.143100  0.500000  0.000000  1.0  0.999
  Mn  Mn3  1  0.000000  0.856900  0.500000  1.0  0.9988
  Mn  Mn4  1  0.000000  0.143100  0.500000  1.0  0.9988
  Mn  Mn5  1  0.500000  0.000000  0.856900  1.0  0.9987
  Mn  Mn6  1  0.500000  0.000000  0.143100  1.0  0.9973
  Mn  Mn7  1  0.500000  0.856900  0.000000  1.0  0.9988
  Mn  Mn8  1  0.500000  0.143100  0.000000  1.0  0.9988
  Mn  Mn9  1  0.856900  0.000000  0.500000  1.0  1.0006
  Mn  Mn10  1  0.143100  0.000000  0.500000  1.0  0.999
  Mn  Mn11  1  0.000000  0.500000  0.143100  1.0  0.9973
  Mn  Mn12  1  0.000000  0.500000  0.856900  1.0  0.9987
  H  H13  1  0.740700  0.740700  0.110300  1.0  0.1114
  H  H14  1  0.259300  0.259300  0.110300  1.0  0.1114
  H  H15  1  0.259300  0.740700  0.889700  1.0  0.1121
  H  H16  1  0.740700  0.259300  0.889700  1.0  0.1117
  H  H17  1  0.110300  0.740700  0.740700  1.0  0.1109
  H  H18  1  0.110300  0.259300  0.259300  1.0  0.1112
  H  H19  1  0.889700  0.259300  0.740700  1.0  0.1108
  H  H20  1  0.889700  0.740700  0.259300  1.0  0.1114
  H  H21  1  0.740700  0.110300  0.740700  1.0  0.1108
  H  H22  1  0.259300  0.110300  0.259300  1.0  0.1118
  H  H23  1  0.740700  0.889700  0.259300  1.0  0.1113
  H  H24  1  0.259300  0.889700  0.740700  1.0  0.1105
  H  H25  1  0.740700  0.740700  0.889700  1.0  0.1121
  H  H26  1  0.259300  0.259300  0.889700  1.0  0.1117
  H  H27  1  0.740700  0.259300  0.110300  1.0  0.1112
  H  H28  1  0.259300  0.740700  0.110300  1.0  0.1116
  H  H29  1  0.740700  0.110300  0.259300  1.0  0.1115
  H  H30  1  0.259300  0.110300  0.740700  1.0  0.1111
  H  H31  1  0.259300  0.889700  0.259300  1.0  0.1112
  H  H32  1  0.740700  0.889700  0.740700  1.0  0.1107
  H  H33  1  0.110300  0.740700  0.259300  1.0  0.1116
  H  H34  1  0.110300  0.259300  0.740700  1.0  0.1108
  H  H35  1  0.889700  0.740700  0.740700  1.0  0.1108
  H  H36  1  0.889700  0.259300  0.259300  1.0  0.1113
  C  C37  1  0.850200  0.667100  0.149800  1.0  0.3389
  C  C38  1  0.819270  0.730300  0.180730  1.0  -0.0537
  C  C39  1  0.149800  0.332900  0.149800  1.0  0.3395
  C  C40  1  0.180730  0.269700  0.180730  1.0  -0.0536
  C  C41  1  0.149800  0.667100  0.850200  1.0  0.3399
  C  C42  1  0.180730  0.730300  0.819270  1.0  -0.0538
  C  C43  1  0.850200  0.332900  0.850200  1.0  0.3385
  C  C44  1  0.819270  0.269700  0.819270  1.0  -0.0536
  C  C45  1  0.149800  0.850200  0.667100  1.0  0.3403
  C  C46  1  0.180730  0.819270  0.730300  1.0  -0.055
  C  C47  1  0.149800  0.149800  0.332900  1.0  0.3405
  C  C48  1  0.180730  0.180730  0.269700  1.0  -0.0547
  C  C49  1  0.850200  0.149800  0.667100  1.0  0.3394
  C  C50  1  0.819270  0.180730  0.730300  1.0  -0.0549
  C  C51  1  0.850200  0.850200  0.332900  1.0  0.3393
  C  C52  1  0.819270  0.819270  0.269700  1.0  -0.0548
  C  C53  1  0.667100  0.149800  0.850200  1.0  0.3399
  C  C54  1  0.730300  0.180730  0.819270  1.0  -0.0538
  C  C55  1  0.332900  0.149800  0.149800  1.0  0.3395
  C  C56  1  0.269700  0.180730  0.180730  1.0  -0.0529
  C  C57  1  0.667100  0.850200  0.149800  1.0  0.3398
  C  C58  1  0.730300  0.819270  0.180730  1.0  -0.0539
  C  C59  1  0.332900  0.850200  0.850200  1.0  0.3395
  C  C60  1  0.269700  0.819270  0.819270  1.0  -0.0529
  C  C61  1  0.667100  0.850200  0.850200  1.0  0.3397
  C  C62  1  0.730300  0.819270  0.819270  1.0  -0.0538
  C  C63  1  0.332900  0.149800  0.850200  1.0  0.3394
  C  C64  1  0.269700  0.180730  0.819270  1.0  -0.0528
  C  C65  1  0.667100  0.149800  0.149800  1.0  0.34
  C  C66  1  0.730300  0.180730  0.180730  1.0  -0.054
  C  C67  1  0.332900  0.850200  0.149800  1.0  0.3396
  C  C68  1  0.269700  0.819270  0.180730  1.0  -0.053
  C  C69  1  0.850200  0.149800  0.332900  1.0  0.3394
  C  C70  1  0.819270  0.180730  0.269700  1.0  -0.0546
  C  C71  1  0.149800  0.149800  0.667100  1.0  0.3405
  C  C72  1  0.180730  0.180730  0.730300  1.0  -0.0551
  C  C73  1  0.149800  0.850200  0.332900  1.0  0.3403
  C  C74  1  0.180730  0.819270  0.269700  1.0  -0.0549
  C  C75  1  0.850200  0.850200  0.667100  1.0  0.3393
  C  C76  1  0.819270  0.819270  0.730300  1.0  -0.0548
  C  C77  1  0.149800  0.667100  0.149800  1.0  0.3399
  C  C78  1  0.180730  0.730300  0.180730  1.0  -0.0539
  C  C79  1  0.149800  0.332900  0.850200  1.0  0.3396
  C  C80  1  0.180730  0.269700  0.819270  1.0  -0.0536
  C  C81  1  0.850200  0.667100  0.850200  1.0  0.3388
  C  C82  1  0.819270  0.730300  0.819270  1.0  -0.0535
  C  C83  1  0.850200  0.332900  0.149800  1.0  0.3385
  C  C84  1  0.819270  0.269700  0.180730  1.0  -0.0535
  C  C85  1  0.760100  0.760100  0.150500  1.0  -0.0245
  C  C86  1  0.239900  0.239900  0.150500  1.0  -0.0249
  C  C87  1  0.239900  0.760100  0.849500  1.0  -0.0245
  C  C88  1  0.760100  0.239900  0.849500  1.0  -0.0252
  C  C89  1  0.150500  0.760100  0.760100  1.0  -0.0244
  C  C90  1  0.150500  0.239900  0.239900  1.0  -0.0241
  C  C91  1  0.849500  0.239900  0.760100  1.0  -0.0237
  C  C92  1  0.849500  0.760100  0.239900  1.0  -0.0238
  C  C93  1  0.760100  0.150500  0.760100  1.0  -0.024
  C  C94  1  0.239900  0.150500  0.239900  1.0  -0.0243
  C  C95  1  0.760100  0.849500  0.239900  1.0  -0.0243
  C  C96  1  0.239900  0.849500  0.760100  1.0  -0.0245
  C  C97  1  0.760100  0.760100  0.849500  1.0  -0.0249
  C  C98  1  0.239900  0.239900  0.849500  1.0  -0.0247
  C  C99  1  0.760100  0.239900  0.150500  1.0  -0.0245
  C  C100  1  0.239900  0.760100  0.150500  1.0  -0.025
  C  C101  1  0.760100  0.150500  0.239900  1.0  -0.024
  C  C102  1  0.239900  0.150500  0.760100  1.0  -0.0243
  C  C103  1  0.239900  0.849500  0.239900  1.0  -0.0248
  C  C104  1  0.760100  0.849500  0.760100  1.0  -0.024
  C  C105  1  0.150500  0.760100  0.239900  1.0  -0.024
  C  C106  1  0.150500  0.239900  0.760100  1.0  -0.0243
  C  C107  1  0.849500  0.760100  0.760100  1.0  -0.0239
  C  C108  1  0.849500  0.239900  0.239900  1.0  -0.0239
  N  N109  1  0.867760  0.580670  0.083360  1.0  -0.0145
  N  N110  1  0.824840  0.634910  0.092740  1.0  -0.3293
  N  N111  1  0.132240  0.419330  0.083360  1.0  -0.0153
  N  N112  1  0.175160  0.365090  0.092740  1.0  -0.3299
  N  N113  1  0.132240  0.580670  0.916640  1.0  -0.015
  N  N114  1  0.175160  0.634910  0.907260  1.0  -0.3286
  N  N115  1  0.867760  0.419330  0.916640  1.0  -0.0141
  N  N116  1  0.824840  0.365090  0.907260  1.0  -0.3282
  N  N117  1  0.083360  0.867760  0.580670  1.0  -0.0151
  N  N118  1  0.092740  0.824840  0.634910  1.0  -0.3287
  N  N119  1  0.083360  0.132240  0.419330  1.0  -0.0149
  N  N120  1  0.092740  0.175160  0.365090  1.0  -0.3277
  N  N121  1  0.916640  0.132240  0.580670  1.0  -0.0148
  N  N122  1  0.907260  0.175160  0.634910  1.0  -0.3283
  N  N123  1  0.916640  0.867760  0.419330  1.0  -0.0144
  N  N124  1  0.907260  0.824840  0.365090  1.0  -0.3277
  N  N125  1  0.580670  0.083360  0.867760  1.0  -0.0148
  N  N126  1  0.634910  0.092740  0.824840  1.0  -0.3291
  N  N127  1  0.419330  0.083360  0.132240  1.0  -0.0141
  N  N128  1  0.365090  0.092740  0.175160  1.0  -0.3271
  N  N129  1  0.580670  0.916640  0.132240  1.0  -0.0154
  N  N130  1  0.634910  0.907260  0.175160  1.0  -0.3272
  N  N131  1  0.419330  0.916640  0.867760  1.0  -0.0156
  N  N132  1  0.365090  0.907260  0.824840  1.0  -0.3289
  N  N133  1  0.580670  0.867760  0.916640  1.0  -0.0148
  N  N134  1  0.634910  0.824840  0.907260  1.0  -0.3281
  N  N135  1  0.419330  0.132240  0.916640  1.0  -0.0139
  N  N136  1  0.365090  0.175160  0.907260  1.0  -0.3276
  N  N137  1  0.580670  0.132240  0.083360  1.0  -0.014
  N  N138  1  0.634910  0.175160  0.092740  1.0  -0.329
  N  N139  1  0.419330  0.867760  0.083360  1.0  -0.0142
  N  N140  1  0.365090  0.824840  0.092740  1.0  -0.3291
  N  N141  1  0.867760  0.083360  0.419330  1.0  -0.0154
  N  N142  1  0.824840  0.092740  0.365090  1.0  -0.3292
  N  N143  1  0.132240  0.083360  0.580670  1.0  -0.0156
  N  N144  1  0.175160  0.092740  0.634910  1.0  -0.329
  N  N145  1  0.132240  0.916640  0.419330  1.0  -0.0166
  N  N146  1  0.175160  0.907260  0.365090  1.0  -0.3292
  N  N147  1  0.867760  0.916640  0.580670  1.0  -0.0165
  N  N148  1  0.824840  0.907260  0.634910  1.0  -0.3289
  N  N149  1  0.083360  0.580670  0.132240  1.0  -0.0141
  N  N150  1  0.092740  0.634910  0.175160  1.0  -0.3276
  N  N151  1  0.083360  0.419330  0.867760  1.0  -0.0144
  N  N152  1  0.092740  0.365090  0.824840  1.0  -0.329
  N  N153  1  0.916640  0.580670  0.867760  1.0  -0.0141
  N  N154  1  0.907260  0.634910  0.824840  1.0  -0.3295
  N  N155  1  0.916640  0.419330  0.132240  1.0  -0.014
  N  N156  1  0.907260  0.365090  0.175160  1.0  -0.3271
  N  N157  1  0.132240  0.419330  0.916640  1.0  -0.0147
  N  N158  1  0.175160  0.365090  0.907260  1.0  -0.3316
  N  N159  1  0.867760  0.580670  0.916640  1.0  -0.0145
  N  N160  1  0.824840  0.634910  0.907260  1.0  -0.3317
  N  N161  1  0.867760  0.419330  0.083360  1.0  -0.0147
  N  N162  1  0.824840  0.365090  0.092740  1.0  -0.3325
  N  N163  1  0.132240  0.580670  0.083360  1.0  -0.0149
  N  N164  1  0.175160  0.634910  0.092740  1.0  -0.333
  N  N165  1  0.916640  0.132240  0.419330  1.0  -0.0144
  N  N166  1  0.907260  0.175160  0.365090  1.0  -0.3315
  N  N167  1  0.916640  0.867760  0.580670  1.0  -0.0153
  N  N168  1  0.907260  0.824840  0.634910  1.0  -0.3312
  N  N169  1  0.083360  0.867760  0.419330  1.0  -0.015
  N  N170  1  0.092740  0.824840  0.365090  1.0  -0.332
  N  N171  1  0.083360  0.132240  0.580670  1.0  -0.0146
  N  N172  1  0.092740  0.175160  0.634910  1.0  -0.3312
  N  N173  1  0.419330  0.916640  0.132240  1.0  -0.0152
  N  N174  1  0.365090  0.907260  0.175160  1.0  -0.3307
  N  N175  1  0.580670  0.916640  0.867760  1.0  -0.0158
  N  N176  1  0.634910  0.907260  0.824840  1.0  -0.3325
  N  N177  1  0.419330  0.083360  0.867760  1.0  -0.0142
  N  N178  1  0.365090  0.092740  0.824840  1.0  -0.3324
  N  N179  1  0.580670  0.083360  0.132240  1.0  -0.0146
  N  N180  1  0.634910  0.092740  0.175160  1.0  -0.3303
  N  N181  1  0.419330  0.132240  0.083360  1.0  -0.014
  N  N182  1  0.365090  0.175160  0.092740  1.0  -0.3321
  N  N183  1  0.580670  0.867760  0.083360  1.0  -0.0142
  N  N184  1  0.634910  0.824840  0.092740  1.0  -0.3325
  N  N185  1  0.419330  0.867760  0.916640  1.0  -0.0139
  N  N186  1  0.365090  0.824840  0.907260  1.0  -0.3314
  N  N187  1  0.580670  0.132240  0.916640  1.0  -0.0147
  N  N188  1  0.634910  0.175160  0.907260  1.0  -0.331
  N  N189  1  0.132240  0.916640  0.580670  1.0  -0.0169
  N  N190  1  0.175160  0.907260  0.634910  1.0  -0.3327
  N  N191  1  0.867760  0.916640  0.419330  1.0  -0.0161
  N  N192  1  0.824840  0.907260  0.365090  1.0  -0.3321
  N  N193  1  0.867760  0.083360  0.580670  1.0  -0.0155
  N  N194  1  0.824840  0.092740  0.634910  1.0  -0.3321
  N  N195  1  0.132240  0.083360  0.419330  1.0  -0.0156
  N  N196  1  0.175160  0.092740  0.365090  1.0  -0.3322
  N  N197  1  0.916640  0.419330  0.867760  1.0  -0.0143
  N  N198  1  0.907260  0.365090  0.824840  1.0  -0.333
  N  N199  1  0.916640  0.580670  0.132240  1.0  -0.0138
  N  N200  1  0.907260  0.634910  0.175160  1.0  -0.3304
  N  N201  1  0.083360  0.419330  0.132240  1.0  -0.014
  N  N202  1  0.092740  0.365090  0.175160  1.0  -0.3303
  N  N203  1  0.083360  0.580670  0.867760  1.0  -0.0143
  N  N204  1  0.092740  0.634910  0.824840  1.0  -0.3321
  Cl  Cl205  1  0.000000  0.500000  0.000000  1.0  -0.2414
  Cl  Cl206  1  0.000000  0.000000  0.500000  1.0  -0.2414
  Cl  Cl207  1  0.500000  0.000000  0.000000  1.0  -0.2414
  O  O208  1  0.746000  0.500000  0.000000  1.0  -0.3021
  O  O209  1  0.254000  0.500000  0.000000  1.0  -0.3026
  O  O210  1  0.000000  0.746000  0.500000  1.0  -0.304
  O  O211  1  0.000000  0.254000  0.500000  1.0  -0.303
  O  O212  1  0.500000  0.000000  0.746000  1.0  -0.3062
  O  O213  1  0.500000  0.000000  0.254000  1.0  -0.305
  O  O214  1  0.500000  0.746000  0.000000  1.0  -0.304
  O  O215  1  0.500000  0.254000  0.000000  1.0  -0.303
  O  O216  1  0.746000  0.000000  0.500000  1.0  -0.3021
  O  O217  1  0.254000  0.000000  0.500000  1.0  -0.3026
  O  O218  1  0.000000  0.500000  0.254000  1.0  -0.305
  O  O219  1  0.000000  0.500000  0.746000  1.0  -0.3062
