# generated using pymatgen
data_Nd2HC4NO12
_symmetry_space_group_name_H-M   'P 1'
_cell_length_a   6.26720000
_cell_length_b   8.62040000
_cell_length_c   12.93600000
_cell_angle_alpha   105.31400000
_cell_angle_beta   90.43900000
_cell_angle_gamma   105.08100000
_symmetry_Int_Tables_number   1
_chemical_formula_structural   Nd2HC4NO12
_chemical_formula_sum   'Nd4 H2 C8 N2 O24'
_cell_volume   648.65420731
_cell_formula_units_Z   2
loop_
 _symmetry_equiv_pos_site_id
 _symmetry_equiv_pos_as_xyz
  1  'x, y, z'
loop_
 _atom_site_type_symbol
 _atom_site_label
 _atom_site_symmetry_multiplicity
 _atom_site_fract_x
 _atom_site_fract_y
 _atom_site_fract_z
 _atom_site_occupancy
 _atom_site_charge
  Nd  Nd1  1  0.809130  0.666460  0.074900  1.0  2.2544
  Nd  Nd2  1  0.557560  0.027800  0.257620  1.0  2.1965
  Nd  Nd3  1  0.190870  0.333540  0.925100  1.0  2.2544
  Nd  Nd4  1  0.442440  0.972200  0.742380  1.0  2.192
  H  H5  1  0.980300  0.969500  0.295300  1.0  0.4145
  H  H6  1  0.019700  0.030500  0.704700  1.0  0.4232
  C  C7  1  0.944700  0.051900  0.045600  1.0  0.6338
  C  C8  1  0.542600  0.302100  0.128400  1.0  0.5965
  C  C9  1  0.731200  0.394700  0.218300  1.0  0.5454
  C  C10  1  0.405400  0.918400  0.478700  1.0  0.571
  C  C11  1  0.055300  0.948100  0.954400  1.0  0.6333
  C  C12  1  0.457400  0.697900  0.871600  1.0  0.5991
  C  C13  1  0.268800  0.605300  0.781700  1.0  0.5456
  C  C14  1  0.594600  0.081600  0.521300  1.0  0.5706
  N  N15  1  0.284300  0.707500  0.131400  1.0  0.8358
  N  N16  1  0.715700  0.292500  0.868600  1.0  0.8355
  O  O17  1  0.827400  0.971200  0.103500  1.0  -0.7606
  O  O18  1  0.979100  0.203900  0.055400  1.0  -0.6122
  O  O19  1  0.441700  0.156300  0.125500  1.0  -0.6302
  O  O20  1  0.504600  0.384100  0.065800  1.0  -0.7816
  O  O21  1  0.765300  0.314200  0.282100  1.0  -0.6192
  O  O22  1  0.835900  0.540200  0.222100  1.0  -0.5911
  O  O23  1  0.358400  0.869700  0.379500  1.0  -0.6167
  O  O24  1  0.316300  0.849300  0.547800  1.0  -0.5997
  O  O25  1  0.200600  0.831800  0.162300  1.0  -0.58
  O  O26  1  0.160400  0.566900  0.075300  1.0  -0.705
  O  O27  1  0.490000  0.732200  0.160500  1.0  -0.613
  O  O28  1  0.858700  0.897900  0.294800  1.0  -0.9486
  O  O29  1  0.172600  0.028800  0.896500  1.0  -0.7617
  O  O30  1  0.020900  0.796100  0.944600  1.0  -0.6133
  O  O31  1  0.558300  0.843700  0.874500  1.0  -0.6314
  O  O32  1  0.495400  0.615900  0.934200  1.0  -0.7816
  O  O33  1  0.234700  0.685800  0.717900  1.0  -0.6187
  O  O34  1  0.164100  0.459800  0.777900  1.0  -0.5913
  O  O35  1  0.641600  0.130300  0.620500  1.0  -0.6159
  O  O36  1  0.683700  0.150700  0.452200  1.0  -0.6016
  O  O37  1  0.799400  0.168200  0.837700  1.0  -0.5799
  O  O38  1  0.839600  0.433100  0.924700  1.0  -0.688
  O  O39  1  0.510000  0.267800  0.839500  1.0  -0.6107
  O  O40  1  0.141300  0.102100  0.705200  1.0  -0.9496
