# generated using pymatgen
data_CoH3(CO2)3
_symmetry_space_group_name_H-M   'P 1'
_cell_length_a   7.30580000
_cell_length_b   7.30580000
_cell_length_c   8.18970000
_cell_angle_alpha   90.00000000
_cell_angle_beta   90.00000000
_cell_angle_gamma   120.00000000
_symmetry_Int_Tables_number   1
_chemical_formula_structural   CoH3(CO2)3
_chemical_formula_sum   'Co2 H6 C6 O12'
_cell_volume   378.55952931
_cell_formula_units_Z   2
loop_
 _symmetry_equiv_pos_site_id
 _symmetry_equiv_pos_as_xyz
  1  'x, y, z'
loop_
 _atom_site_type_symbol
 _atom_site_label
 _atom_site_symmetry_multiplicity
 _atom_site_fract_x
 _atom_site_fract_y
 _atom_site_fract_z
 _atom_site_occupancy
 _atom_site_charge
  Co  Co1  1  0.666667  0.333333  0.750000  1.0  0.9011
  Co  Co2  1  0.333333  0.666667  0.250000  1.0  0.9011
  H  H3  1  0.000000  0.592000  0.000000  1.0  0.1383
  H  H4  1  0.408000  0.408000  0.000000  1.0  0.1391
  H  H5  1  0.592000  0.000000  0.000000  1.0  0.1379
  H  H6  1  0.000000  0.408000  0.500000  1.0  0.1389
  H  H7  1  0.592000  0.592000  0.500000  1.0  0.1383
  H  H8  1  0.408000  0.000000  0.500000  1.0  0.1374
  C  C9  1  0.000000  0.439000  0.000000  1.0  0.6591
  C  C10  1  0.561000  0.561000  0.000000  1.0  0.6593
  C  C11  1  0.439000  0.000000  0.000000  1.0  0.6586
  C  C12  1  0.000000  0.561000  0.500000  1.0  0.6591
  C  C13  1  0.439000  0.439000  0.500000  1.0  0.6589
  C  C14  1  0.561000  0.000000  0.500000  1.0  0.6597
  O  O15  1  0.890450  0.307380  0.894440  1.0  -0.5493
  O  O16  1  0.692620  0.583070  0.894440  1.0  -0.5489
  O  O17  1  0.416930  0.109550  0.894440  1.0  -0.548
  O  O18  1  0.109550  0.692620  0.394440  1.0  -0.55
  O  O19  1  0.307380  0.416930  0.394440  1.0  -0.5492
  O  O20  1  0.583070  0.890450  0.394440  1.0  -0.5486
  O  O21  1  0.307380  0.890450  0.105560  1.0  -0.5477
  O  O22  1  0.583070  0.692620  0.105560  1.0  -0.549
  O  O23  1  0.109550  0.416930  0.105560  1.0  -0.5484
  O  O24  1  0.692620  0.109550  0.605560  1.0  -0.5487
  O  O25  1  0.416930  0.307380  0.605560  1.0  -0.5499
  O  O26  1  0.890450  0.583070  0.605560  1.0  -0.549
