# generated using pymatgen
data_CoH3(CO2)3
_symmetry_space_group_name_H-M   'P 1'
_cell_length_a   7.29700000
_cell_length_b   7.29700000
_cell_length_c   8.17900000
_cell_angle_alpha   90.00000000
_cell_angle_beta   90.00000000
_cell_angle_gamma   120.00000000
_symmetry_Int_Tables_number   1
_chemical_formula_structural   CoH3(CO2)3
_chemical_formula_sum   'Co2 H6 C6 O12'
_cell_volume   377.15470716
_cell_formula_units_Z   2
loop_
 _symmetry_equiv_pos_site_id
 _symmetry_equiv_pos_as_xyz
  1  'x, y, z'
loop_
 _atom_site_type_symbol
 _atom_site_label
 _atom_site_symmetry_multiplicity
 _atom_site_fract_x
 _atom_site_fract_y
 _atom_site_fract_z
 _atom_site_occupancy
 _atom_site_charge
  Co  Co1  1  0.666667  0.333333  0.750000  1.0  0.8988
  Co  Co2  1  0.333333  0.666667  0.250000  1.0  0.8988
  H  H3  1  0.000000  0.587000  0.000000  1.0  0.1305
  H  H4  1  0.413000  0.413000  0.000000  1.0  0.1313
  H  H5  1  0.587000  0.000000  0.000000  1.0  0.1298
  H  H6  1  0.000000  0.413000  0.500000  1.0  0.1313
  H  H7  1  0.587000  0.587000  0.500000  1.0  0.1306
  H  H8  1  0.413000  0.000000  0.500000  1.0  0.1294
  C  C9  1  0.000000  0.439300  0.000000  1.0  0.6611
  C  C10  1  0.560700  0.560700  0.000000  1.0  0.6609
  C  C11  1  0.439300  0.000000  0.000000  1.0  0.6611
  C  C12  1  0.000000  0.560700  0.500000  1.0  0.6592
  C  C13  1  0.439300  0.439300  0.500000  1.0  0.6593
  C  C14  1  0.560700  0.000000  0.500000  1.0  0.6626
  O  O15  1  0.890710  0.307450  0.894550  1.0  -0.5457
  O  O16  1  0.692550  0.583260  0.894550  1.0  -0.5454
  O  O17  1  0.416740  0.109290  0.894550  1.0  -0.5452
  O  O18  1  0.109290  0.692550  0.394550  1.0  -0.5465
  O  O19  1  0.307450  0.416740  0.394550  1.0  -0.5459
  O  O20  1  0.583260  0.890710  0.394550  1.0  -0.5448
  O  O21  1  0.307450  0.890710  0.105450  1.0  -0.5444
  O  O22  1  0.583260  0.692550  0.105450  1.0  -0.5451
  O  O23  1  0.109290  0.416740  0.105450  1.0  -0.5448
  O  O24  1  0.692550  0.109290  0.605450  1.0  -0.5448
  O  O25  1  0.416740  0.307450  0.605450  1.0  -0.5465
  O  O26  1  0.890710  0.583260  0.605450  1.0  -0.5455
