# generated using pymatgen
data_NiH3(CO2)3
_symmetry_space_group_name_H-M   'P 1'
_cell_length_a   7.28610000
_cell_length_b   7.28610000
_cell_length_c   8.02070000
_cell_angle_alpha   90.00000000
_cell_angle_beta   90.00000000
_cell_angle_gamma   120.00000000
_symmetry_Int_Tables_number   1
_chemical_formula_structural   NiH3(CO2)3
_chemical_formula_sum   'Ni2 H6 C6 O12'
_cell_volume   368.75095981
_cell_formula_units_Z   2
loop_
 _symmetry_equiv_pos_site_id
 _symmetry_equiv_pos_as_xyz
  1  'x, y, z'
loop_
 _atom_site_type_symbol
 _atom_site_label
 _atom_site_symmetry_multiplicity
 _atom_site_fract_x
 _atom_site_fract_y
 _atom_site_fract_z
 _atom_site_occupancy
 _atom_site_charge
  Ni  Ni1  1  0.666667  0.333333  0.750000  1.0  0.8742
  Ni  Ni2  1  0.333333  0.666667  0.250000  1.0  0.8742
  H  H3  1  0.000000  0.577000  0.000000  1.0  0.0971
  H  H4  1  0.423000  0.423000  0.000000  1.0  0.0975
  H  H5  1  0.577000  0.000000  0.000000  1.0  0.0972
  H  H6  1  0.000000  0.423000  0.500000  1.0  0.0974
  H  H7  1  0.577000  0.577000  0.500000  1.0  0.0972
  H  H8  1  0.423000  0.000000  0.500000  1.0  0.097
  C  C9  1  0.000000  0.442600  0.000000  1.0  0.7225
  C  C10  1  0.557400  0.557400  0.000000  1.0  0.7235
  C  C11  1  0.442600  0.000000  0.000000  1.0  0.725
  C  C12  1  0.000000  0.557400  0.500000  1.0  0.7236
  C  C13  1  0.442600  0.442600  0.500000  1.0  0.7224
  C  C14  1  0.557400  0.000000  0.500000  1.0  0.7246
  O  O15  1  0.888600  0.309600  0.894110  1.0  -0.5556
  O  O16  1  0.690400  0.579000  0.894110  1.0  -0.5569
  O  O17  1  0.421000  0.111400  0.894110  1.0  -0.5554
  O  O18  1  0.111400  0.690400  0.394110  1.0  -0.5571
  O  O19  1  0.309600  0.421000  0.394110  1.0  -0.5572
  O  O20  1  0.579000  0.888600  0.394110  1.0  -0.5556
  O  O21  1  0.309600  0.888600  0.105890  1.0  -0.5546
  O  O22  1  0.579000  0.690400  0.105890  1.0  -0.5564
  O  O23  1  0.111400  0.421000  0.105890  1.0  -0.5561
  O  O24  1  0.690400  0.111400  0.605890  1.0  -0.5562
  O  O25  1  0.421000  0.309600  0.605890  1.0  -0.5554
  O  O26  1  0.888600  0.579000  0.605890  1.0  -0.5567
