# generated using pymatgen
data_NiH3(CO2)3
_symmetry_space_group_name_H-M   'P 1'
_cell_length_a   7.26100000
_cell_length_b   7.26100000
_cell_length_c   8.08110000
_cell_angle_alpha   90.00000000
_cell_angle_beta   90.00000000
_cell_angle_gamma   120.00000000
_symmetry_Int_Tables_number   1
_chemical_formula_structural   NiH3(CO2)3
_chemical_formula_sum   'Ni2 H6 C6 O12'
_cell_volume   368.97248928
_cell_formula_units_Z   2
loop_
 _symmetry_equiv_pos_site_id
 _symmetry_equiv_pos_as_xyz
  1  'x, y, z'
loop_
 _atom_site_type_symbol
 _atom_site_label
 _atom_site_symmetry_multiplicity
 _atom_site_fract_x
 _atom_site_fract_y
 _atom_site_fract_z
 _atom_site_occupancy
 _atom_site_charge
  Ni  Ni1  1  0.666667  0.333333  0.250000  1.0  0.8836
  Ni  Ni2  1  0.333333  0.666667  0.750000  1.0  0.8836
  H  H3  1  0.428300  0.000000  0.000000  1.0  0.0836
  H  H4  1  0.000000  0.428300  0.000000  1.0  0.0834
  H  H5  1  0.571700  0.571700  0.000000  1.0  0.083
  H  H6  1  0.571700  0.000000  0.500000  1.0  0.0823
  H  H7  1  0.000000  0.571700  0.500000  1.0  0.0823
  H  H8  1  0.428300  0.428300  0.500000  1.0  0.0826
  C  C9  1  0.556400  0.000000  0.000000  1.0  0.739
  C  C10  1  0.000000  0.556400  0.000000  1.0  0.7376
  C  C11  1  0.443600  0.443600  0.000000  1.0  0.7363
  C  C12  1  0.443600  0.000000  0.500000  1.0  0.7389
  C  C13  1  0.000000  0.443600  0.500000  1.0  0.7365
  C  C14  1  0.556400  0.556400  0.500000  1.0  0.7375
  O  O15  1  0.691500  0.111400  0.106680  1.0  -0.5574
  O  O16  1  0.888600  0.580100  0.106680  1.0  -0.5587
  O  O17  1  0.419900  0.308500  0.106680  1.0  -0.5577
  O  O18  1  0.308500  0.888600  0.606680  1.0  -0.5561
  O  O19  1  0.111400  0.419900  0.606680  1.0  -0.5574
  O  O20  1  0.580100  0.691500  0.606680  1.0  -0.5579
  O  O21  1  0.111400  0.691500  0.893320  1.0  -0.5579
  O  O22  1  0.580100  0.888600  0.893320  1.0  -0.5565
  O  O23  1  0.308500  0.419900  0.893320  1.0  -0.5586
  O  O24  1  0.888600  0.308500  0.393320  1.0  -0.557
  O  O25  1  0.419900  0.111400  0.393320  1.0  -0.5568
  O  O26  1  0.691500  0.580100  0.393320  1.0  -0.5581
