# generated using pymatgen
data_NiH3(CO2)3
_symmetry_space_group_name_H-M   'P 1'
_cell_length_a   7.28640000
_cell_length_b   7.28640000
_cell_length_c   8.05250000
_cell_angle_alpha   90.00000000
_cell_angle_beta   90.00000000
_cell_angle_gamma   120.00000000
_symmetry_Int_Tables_number   1
_chemical_formula_structural   NiH3(CO2)3
_chemical_formula_sum   'Ni2 H6 C6 O12'
_cell_volume   370.24344909
_cell_formula_units_Z   2
loop_
 _symmetry_equiv_pos_site_id
 _symmetry_equiv_pos_as_xyz
  1  'x, y, z'
loop_
 _atom_site_type_symbol
 _atom_site_label
 _atom_site_symmetry_multiplicity
 _atom_site_fract_x
 _atom_site_fract_y
 _atom_site_fract_z
 _atom_site_occupancy
 _atom_site_charge
  Ni  Ni1  1  0.666667  0.333333  0.250000  1.0  0.8751
  Ni  Ni2  1  0.333333  0.666667  0.750000  1.0  0.8751
  H  H3  1  0.430300  0.000000  0.000000  1.0  0.067
  H  H4  1  0.000000  0.430300  0.000000  1.0  0.0669
  H  H5  1  0.569700  0.569700  0.000000  1.0  0.0667
  H  H6  1  0.569700  0.000000  0.500000  1.0  0.066
  H  H7  1  0.000000  0.569700  0.500000  1.0  0.0659
  H  H8  1  0.430300  0.430300  0.500000  1.0  0.0658
  C  C9  1  0.558000  0.000000  0.000000  1.0  0.7672
  C  C10  1  0.000000  0.558000  0.000000  1.0  0.7655
  C  C11  1  0.442000  0.442000  0.000000  1.0  0.7641
  C  C12  1  0.442000  0.000000  0.500000  1.0  0.7665
  C  C13  1  0.000000  0.442000  0.500000  1.0  0.7645
  C  C14  1  0.558000  0.558000  0.500000  1.0  0.7657
  O  O15  1  0.691100  0.111600  0.106130  1.0  -0.5625
  O  O16  1  0.888400  0.579500  0.106130  1.0  -0.562
  O  O17  1  0.420500  0.308900  0.106130  1.0  -0.5615
  O  O18  1  0.308900  0.888400  0.606130  1.0  -0.5607
  O  O19  1  0.111600  0.420500  0.606130  1.0  -0.5619
  O  O20  1  0.579500  0.691100  0.606130  1.0  -0.5625
  O  O21  1  0.111600  0.691100  0.893870  1.0  -0.5625
  O  O22  1  0.579500  0.888400  0.893870  1.0  -0.5617
  O  O23  1  0.308900  0.420500  0.893870  1.0  -0.5619
  O  O24  1  0.888400  0.308900  0.393870  1.0  -0.5613
  O  O25  1  0.420500  0.111600  0.393870  1.0  -0.5611
  O  O26  1  0.691100  0.579500  0.393870  1.0  -0.5624
