# generated using pymatgen
data_NiH3(CO2)3
_symmetry_space_group_name_H-M   'P 1'
_cell_length_a   7.28910000
_cell_length_b   7.28910000
_cell_length_c   8.04700000
_cell_angle_alpha   90.00000000
_cell_angle_beta   90.00000000
_cell_angle_gamma   120.00000000
_symmetry_Int_Tables_number   1
_chemical_formula_structural   NiH3(CO2)3
_chemical_formula_sum   'Ni2 H6 C6 O12'
_cell_volume   370.26481956
_cell_formula_units_Z   2
loop_
 _symmetry_equiv_pos_site_id
 _symmetry_equiv_pos_as_xyz
  1  'x, y, z'
loop_
 _atom_site_type_symbol
 _atom_site_label
 _atom_site_symmetry_multiplicity
 _atom_site_fract_x
 _atom_site_fract_y
 _atom_site_fract_z
 _atom_site_occupancy
 _atom_site_charge
  Ni  Ni1  1  0.666667  0.333333  0.250000  1.0  0.8614
  Ni  Ni2  1  0.333333  0.666667  0.750000  1.0  0.8614
  H  H3  1  0.431000  0.000000  0.000000  1.0  0.0769
  H  H4  1  0.000000  0.431000  0.000000  1.0  0.0767
  H  H5  1  0.569000  0.569000  0.000000  1.0  0.0766
  H  H6  1  0.569000  0.000000  0.500000  1.0  0.0763
  H  H7  1  0.000000  0.569000  0.500000  1.0  0.0758
  H  H8  1  0.431000  0.431000  0.500000  1.0  0.0757
  C  C9  1  0.558600  0.000000  0.000000  1.0  0.7339
  C  C10  1  0.000000  0.558600  0.000000  1.0  0.7329
  C  C11  1  0.441400  0.441400  0.000000  1.0  0.7312
  C  C12  1  0.441400  0.000000  0.500000  1.0  0.7343
  C  C13  1  0.000000  0.441400  0.500000  1.0  0.7311
  C  C14  1  0.558600  0.558600  0.500000  1.0  0.7326
  O  O15  1  0.690300  0.110700  0.106100  1.0  -0.5488
  O  O16  1  0.889300  0.579600  0.106100  1.0  -0.5479
  O  O17  1  0.420400  0.309700  0.106100  1.0  -0.5479
  O  O18  1  0.309700  0.889300  0.606100  1.0  -0.5468
  O  O19  1  0.110700  0.420400  0.606100  1.0  -0.5484
  O  O20  1  0.579600  0.690300  0.606100  1.0  -0.5487
  O  O21  1  0.110700  0.690300  0.893900  1.0  -0.549
  O  O22  1  0.579600  0.889300  0.893900  1.0  -0.548
  O  O23  1  0.309700  0.420400  0.893900  1.0  -0.5483
  O  O24  1  0.889300  0.309700  0.393900  1.0  -0.5474
  O  O25  1  0.420400  0.110700  0.393900  1.0  -0.5474
  O  O26  1  0.690300  0.579600  0.393900  1.0  -0.5483
