# generated using pymatgen
data_Fe2PH(CO3)3
_symmetry_space_group_name_H-M   'P 1'
_cell_length_a   7.68270000
_cell_length_b   7.72690000
_cell_length_c   18.09200000
_cell_angle_alpha   90.00000000
_cell_angle_beta   94.44300000
_cell_angle_gamma   90.00000000
_symmetry_Int_Tables_number   1
_chemical_formula_structural   Fe2PH(CO3)3
_chemical_formula_sum   'Fe8 P4 H4 C12 O36'
_cell_volume   1070.77612693
_cell_formula_units_Z   4
loop_
 _symmetry_equiv_pos_site_id
 _symmetry_equiv_pos_as_xyz
  1  'x, y, z'
loop_
 _atom_site_type_symbol
 _atom_site_label
 _atom_site_symmetry_multiplicity
 _atom_site_fract_x
 _atom_site_fract_y
 _atom_site_fract_z
 _atom_site_occupancy
 _atom_site_charge
  Fe  Fe1  1  0.113720  0.584910  0.361000  1.0  1.0913
  Fe  Fe2  1  0.776570  0.333460  0.311260  1.0  1.0487
  Fe  Fe3  1  0.886280  0.084910  0.139000  1.0  1.0923
  Fe  Fe4  1  0.223430  0.833460  0.188740  1.0  1.048
  Fe  Fe5  1  0.886280  0.415090  0.639000  1.0  1.0917
  Fe  Fe6  1  0.223430  0.666540  0.688740  1.0  1.0461
  Fe  Fe7  1  0.113720  0.915090  0.861000  1.0  1.0909
  Fe  Fe8  1  0.776570  0.166540  0.811260  1.0  1.0485
  P  P9  1  0.940770  0.947200  0.308100  1.0  1.5496
  P  P10  1  0.059230  0.447200  0.191900  1.0  1.5566
  P  P11  1  0.059230  0.052800  0.691900  1.0  1.5541
  P  P12  1  0.940770  0.552800  0.808100  1.0  1.5476
  H  H13  1  0.831200  0.883200  0.298500  1.0  0.1438
  H  H14  1  0.168800  0.383200  0.201500  1.0  0.1443
  H  H15  1  0.168800  0.116800  0.701500  1.0  0.1436
  H  H16  1  0.831200  0.616800  0.798500  1.0  0.1432
  C  C17  1  0.425400  0.383100  0.350930  1.0  0.6579
  C  C18  1  0.917000  0.454700  0.480000  1.0  0.6351
  C  C19  1  0.459900  0.540300  0.300990  1.0  0.5958
  C  C20  1  0.574600  0.883100  0.149070  1.0  0.6585
  C  C21  1  0.083000  0.954700  0.020000  1.0  0.6366
  C  C22  1  0.540100  0.040300  0.199010  1.0  0.5968
  C  C23  1  0.574600  0.616900  0.649070  1.0  0.6589
  C  C24  1  0.083000  0.545300  0.520000  1.0  0.6367
  C  C25  1  0.540100  0.459700  0.699010  1.0  0.5971
  C  C26  1  0.425400  0.116900  0.850930  1.0  0.6571
  C  C27  1  0.917000  0.045300  0.980000  1.0  0.6353
  C  C28  1  0.459900  0.959700  0.800990  1.0  0.5957
  O  O29  1  0.059900  0.837400  0.360210  1.0  -0.7678
  O  O30  1  0.278000  0.370400  0.375660  1.0  -0.547
  O  O31  1  0.902200  0.471400  0.410360  1.0  -0.5991
  O  O32  1  0.019700  0.970700  0.233570  1.0  -0.8569
  O  O33  1  0.816500  0.378500  0.518620  1.0  -0.538
  O  O34  1  0.339100  0.650400  0.292790  1.0  -0.6053
  O  O35  1  0.896800  0.116600  0.343580  1.0  -0.7441
  O  O36  1  0.547200  0.279200  0.362890  1.0  -0.5334
  O  O37  1  0.605700  0.542900  0.275040  1.0  -0.5344
  O  O38  1  0.940100  0.337400  0.139790  1.0  -0.7664
  O  O39  1  0.722000  0.870400  0.124340  1.0  -0.5468
  O  O40  1  0.097800  0.971400  0.089640  1.0  -0.5991
  O  O41  1  0.980300  0.470700  0.266430  1.0  -0.858
  O  O42  1  0.183500  0.878500  0.981380  1.0  -0.537
  O  O43  1  0.660900  0.150400  0.207210  1.0  -0.6065
  O  O44  1  0.103200  0.616600  0.156420  1.0  -0.7451
  O  O45  1  0.452800  0.779200  0.137110  1.0  -0.5326
  O  O46  1  0.394300  0.042900  0.224960  1.0  -0.5328
  O  O47  1  0.940100  0.162600  0.639790  1.0  -0.7654
  O  O48  1  0.722000  0.629600  0.624340  1.0  -0.5482
  O  O49  1  0.097800  0.528600  0.589640  1.0  -0.5988
  O  O50  1  0.980300  0.029300  0.766430  1.0  -0.8572
  O  O51  1  0.183500  0.621500  0.481380  1.0  -0.5372
  O  O52  1  0.660900  0.349600  0.707210  1.0  -0.6064
  O  O53  1  0.103200  0.883400  0.656420  1.0  -0.745
  O  O54  1  0.452800  0.720800  0.637110  1.0  -0.5337
  O  O55  1  0.394300  0.457100  0.724960  1.0  -0.5329
  O  O56  1  0.059900  0.662600  0.860210  1.0  -0.7674
  O  O57  1  0.278000  0.129600  0.875660  1.0  -0.5469
  O  O58  1  0.902200  0.028600  0.910360  1.0  -0.5991
  O  O59  1  0.019700  0.529300  0.733570  1.0  -0.8584
  O  O60  1  0.816500  0.121500  0.018620  1.0  -0.5382
  O  O61  1  0.339100  0.849600  0.792790  1.0  -0.6049
  O  O62  1  0.896800  0.383400  0.843580  1.0  -0.7451
  O  O63  1  0.547200  0.220800  0.862890  1.0  -0.5328
  O  O64  1  0.605700  0.957100  0.775040  1.0  -0.534
