# generated using pymatgen
data_AlPO4
_symmetry_space_group_name_H-M   'P 1'
_cell_length_a   18.90560000
_cell_length_b   18.90560000
_cell_length_c   18.90560000
_cell_angle_alpha   90.00000000
_cell_angle_beta   90.00000000
_cell_angle_gamma   90.00000000
_symmetry_Int_Tables_number   1
_chemical_formula_structural   AlPO4
_chemical_formula_sum   'Al48 P48 O192'
_cell_volume   6757.27190629
_cell_formula_units_Z   48
loop_
 _symmetry_equiv_pos_site_id
 _symmetry_equiv_pos_as_xyz
  1  'x, y, z'
loop_
 _atom_site_type_symbol
 _atom_site_label
 _atom_site_symmetry_multiplicity
 _atom_site_fract_x
 _atom_site_fract_y
 _atom_site_fract_z
 _atom_site_occupancy
 _atom_site_charge
  Al  Al1  1  0.954360  0.431720  0.665970  1.0  1.9666
  Al  Al2  1  0.545640  0.068280  0.665970  1.0  1.966
  Al  Al3  1  0.545640  0.431720  0.834030  1.0  1.9658
  Al  Al4  1  0.954360  0.068280  0.834030  1.0  1.9665
  Al  Al5  1  0.665970  0.954360  0.431720  1.0  1.9663
  Al  Al6  1  0.665970  0.545640  0.068280  1.0  1.9669
  Al  Al7  1  0.834030  0.545640  0.431720  1.0  1.9669
  Al  Al8  1  0.834030  0.954360  0.068280  1.0  1.9662
  Al  Al9  1  0.431720  0.665970  0.954360  1.0  1.9677
  Al  Al10  1  0.068280  0.665970  0.545640  1.0  1.9693
  Al  Al11  1  0.431720  0.834030  0.545640  1.0  1.9691
  Al  Al12  1  0.068280  0.834030  0.954360  1.0  1.9685
  Al  Al13  1  0.431720  0.954360  0.834030  1.0  1.9675
  Al  Al14  1  0.068280  0.545640  0.834030  1.0  1.9681
  Al  Al15  1  0.431720  0.545640  0.665970  1.0  1.9681
  Al  Al16  1  0.068280  0.954360  0.665970  1.0  1.9678
  Al  Al17  1  0.954360  0.665970  0.068280  1.0  1.9671
  Al  Al18  1  0.545640  0.665970  0.431720  1.0  1.9664
  Al  Al19  1  0.545640  0.834030  0.068280  1.0  1.9665
  Al  Al20  1  0.954360  0.834030  0.431720  1.0  1.9671
  Al  Al21  1  0.665970  0.431720  0.545640  1.0  1.9678
  Al  Al22  1  0.665970  0.068280  0.954360  1.0  1.9666
  Al  Al23  1  0.834030  0.431720  0.954360  1.0  1.9665
  Al  Al24  1  0.834030  0.068280  0.545640  1.0  1.9681
  Al  Al25  1  0.045640  0.568280  0.334030  1.0  1.9661
  Al  Al26  1  0.454360  0.931720  0.334030  1.0  1.9665
  Al  Al27  1  0.454360  0.568280  0.165970  1.0  1.967
  Al  Al28  1  0.045640  0.931720  0.165970  1.0  1.9661
  Al  Al29  1  0.334030  0.045640  0.568280  1.0  1.9669
  Al  Al30  1  0.334030  0.454360  0.931720  1.0  1.9665
  Al  Al31  1  0.165970  0.454360  0.568280  1.0  1.9664
  Al  Al32  1  0.165970  0.045640  0.931720  1.0  1.9672
  Al  Al33  1  0.568280  0.334030  0.045640  1.0  1.9694
  Al  Al34  1  0.931720  0.334030  0.454360  1.0  1.9682
  Al  Al35  1  0.568280  0.165970  0.454360  1.0  1.9681
  Al  Al36  1  0.931720  0.165970  0.045640  1.0  1.969
  Al  Al37  1  0.568280  0.045640  0.165970  1.0  1.9684
  Al  Al38  1  0.931720  0.454360  0.165970  1.0  1.9675
  Al  Al39  1  0.568280  0.454360  0.334030  1.0  1.9678
  Al  Al40  1  0.931720  0.045640  0.334030  1.0  1.9678
  Al  Al41  1  0.045640  0.334030  0.931720  1.0  1.9665
  Al  Al42  1  0.454360  0.334030  0.568280  1.0  1.967
  Al  Al43  1  0.454360  0.165970  0.931720  1.0  1.9672
  Al  Al44  1  0.045640  0.165970  0.568280  1.0  1.9663
  Al  Al45  1  0.334030  0.568280  0.454360  1.0  1.9666
  Al  Al46  1  0.334030  0.931720  0.045640  1.0  1.9679
  Al  Al47  1  0.165970  0.568280  0.045640  1.0  1.9679
  Al  Al48  1  0.165970  0.931720  0.454360  1.0  1.9666
  P  P49  1  0.070810  0.551660  0.667230  1.0  2.0875
  P  P50  1  0.429190  0.948340  0.667230  1.0  2.0853
  P  P51  1  0.429190  0.551660  0.832770  1.0  2.0852
  P  P52  1  0.070810  0.948340  0.832770  1.0  2.0875
  P  P53  1  0.667230  0.070810  0.551660  1.0  2.0864
  P  P54  1  0.667230  0.429190  0.948340  1.0  2.0867
  P  P55  1  0.832770  0.429190  0.551660  1.0  2.0843
  P  P56  1  0.832770  0.070810  0.948340  1.0  2.0842
  P  P57  1  0.551660  0.667230  0.070810  1.0  2.0876
  P  P58  1  0.948340  0.667230  0.429190  1.0  2.0793
  P  P59  1  0.551660  0.832770  0.429190  1.0  2.0877
  P  P60  1  0.948340  0.832770  0.070810  1.0  2.0789
  P  P61  1  0.551660  0.070810  0.832770  1.0  2.0876
  P  P62  1  0.948340  0.429190  0.832770  1.0  2.079
  P  P63  1  0.551660  0.429190  0.667230  1.0  2.0878
  P  P64  1  0.948340  0.070810  0.667230  1.0  2.0791
  P  P65  1  0.070810  0.667230  0.948340  1.0  2.0876
  P  P66  1  0.429190  0.667230  0.551660  1.0  2.0854
  P  P67  1  0.429190  0.832770  0.948340  1.0  2.0854
  P  P68  1  0.070810  0.832770  0.551660  1.0  2.0874
  P  P69  1  0.667230  0.551660  0.429190  1.0  2.087
  P  P70  1  0.667230  0.948340  0.070810  1.0  2.087
  P  P71  1  0.832770  0.551660  0.070810  1.0  2.0848
  P  P72  1  0.832770  0.948340  0.429190  1.0  2.0847
  P  P73  1  0.929190  0.448340  0.332770  1.0  2.0645
  P  P74  1  0.570810  0.051660  0.332770  1.0  2.0666
  P  P75  1  0.570810  0.448340  0.167230  1.0  2.0668
  P  P76  1  0.929190  0.051660  0.167230  1.0  2.0645
  P  P77  1  0.332770  0.929190  0.448340  1.0  2.0843
  P  P78  1  0.332770  0.570810  0.051660  1.0  2.0842
  P  P79  1  0.167230  0.570810  0.448340  1.0  2.0865
  P  P80  1  0.167230  0.929190  0.051660  1.0  2.0865
  P  P81  1  0.448340  0.332770  0.929190  1.0  2.0789
  P  P82  1  0.051660  0.332770  0.570810  1.0  2.0875
  P  P83  1  0.448340  0.167230  0.570810  1.0  2.0794
  P  P84  1  0.051660  0.167230  0.929190  1.0  2.0877
  P  P85  1  0.448340  0.929190  0.167230  1.0  2.0791
  P  P86  1  0.051660  0.570810  0.167230  1.0  2.0877
  P  P87  1  0.448340  0.570810  0.332770  1.0  2.079
  P  P88  1  0.051660  0.929190  0.332770  1.0  2.0877
  P  P89  1  0.929190  0.332770  0.051660  1.0  2.085
  P  P90  1  0.570810  0.332770  0.448340  1.0  2.0873
  P  P91  1  0.570810  0.167230  0.051660  1.0  2.0871
  P  P92  1  0.929190  0.167230  0.448340  1.0  2.085
  P  P93  1  0.332770  0.448340  0.570810  1.0  2.0845
  P  P94  1  0.332770  0.051660  0.929190  1.0  2.0844
  P  P95  1  0.167230  0.448340  0.929190  1.0  2.0868
  P  P96  1  0.167230  0.051660  0.570810  1.0  2.0867
  O  O97  1  0.999700  0.514300  0.660200  1.0  -1.0273
  O  O98  1  0.064400  0.621100  0.629500  1.0  -0.9695
  O  O99  1  0.086600  0.566500  0.744500  1.0  -1.0041
  O  O100  1  0.129400  0.507900  0.636700  1.0  -1.0488
  O  O101  1  0.500300  0.985700  0.660200  1.0  -1.0258
  O  O102  1  0.435600  0.878900  0.629500  1.0  -0.969
  O  O103  1  0.413400  0.933500  0.744500  1.0  -1.004
  O  O104  1  0.370600  0.992100  0.636700  1.0  -1.0494
  O  O105  1  0.500300  0.514300  0.839800  1.0  -1.0262
  O  O106  1  0.435600  0.621100  0.870500  1.0  -0.9698
  O  O107  1  0.413400  0.566500  0.755500  1.0  -1.0044
  O  O108  1  0.370600  0.507900  0.863300  1.0  -1.0486
  O  O109  1  0.999700  0.985700  0.839800  1.0  -1.0267
  O  O110  1  0.064400  0.878900  0.870500  1.0  -0.9686
  O  O111  1  0.086600  0.933500  0.755500  1.0  -1.0038
  O  O112  1  0.129400  0.992100  0.863300  1.0  -1.0487
  O  O113  1  0.660200  0.999700  0.514300  1.0  -1.0271
  O  O114  1  0.629500  0.064400  0.621100  1.0  -0.9696
  O  O115  1  0.744500  0.086600  0.566500  1.0  -1.0048
  O  O116  1  0.636700  0.129400  0.507900  1.0  -1.05
  O  O117  1  0.660200  0.500300  0.985700  1.0  -1.0278
  O  O118  1  0.629500  0.435600  0.878900  1.0  -0.9691
  O  O119  1  0.744500  0.413400  0.933500  1.0  -1.0042
  O  O120  1  0.636700  0.370600  0.992100  1.0  -1.0495
  O  O121  1  0.839800  0.500300  0.514300  1.0  -1.0297
  O  O122  1  0.870500  0.435600  0.621100  1.0  -0.9701
  O  O123  1  0.755500  0.413400  0.566500  1.0  -1.0037
  O  O124  1  0.863300  0.370600  0.507900  1.0  -1.0491
  O  O125  1  0.839800  0.999700  0.985700  1.0  -1.028
  O  O126  1  0.870500  0.064400  0.878900  1.0  -0.9688
  O  O127  1  0.755500  0.086600  0.933500  1.0  -1.004
  O  O128  1  0.863300  0.129400  0.992100  1.0  -1.051
  O  O129  1  0.514300  0.660200  0.999700  1.0  -1.0272
  O  O130  1  0.621100  0.629500  0.064400  1.0  -0.97
  O  O131  1  0.566500  0.744500  0.086600  1.0  -1.0046
  O  O132  1  0.507900  0.636700  0.129400  1.0  -1.0512
  O  O133  1  0.985700  0.660200  0.500300  1.0  -1.0274
  O  O134  1  0.878900  0.629500  0.435600  1.0  -0.9693
  O  O135  1  0.933500  0.744500  0.413400  1.0  -1.0034
  O  O136  1  0.992100  0.636700  0.370600  1.0  -1.0518
  O  O137  1  0.514300  0.839800  0.500300  1.0  -1.0261
  O  O138  1  0.621100  0.870500  0.435600  1.0  -0.9694
  O  O139  1  0.566500  0.755500  0.413400  1.0  -1.0038
  O  O140  1  0.507900  0.863300  0.370600  1.0  -1.0514
  O  O141  1  0.985700  0.839800  0.999700  1.0  -1.028
  O  O142  1  0.878900  0.870500  0.064400  1.0  -0.9679
  O  O143  1  0.933500  0.755500  0.086600  1.0  -1.0057
  O  O144  1  0.992100  0.863300  0.129400  1.0  -1.0513
  O  O145  1  0.514300  0.999700  0.839800  1.0  -1.0261
  O  O146  1  0.621100  0.064400  0.870500  1.0  -0.9683
  O  O147  1  0.566500  0.086600  0.755500  1.0  -1.0043
  O  O148  1  0.507900  0.129400  0.863300  1.0  -1.0518
  O  O149  1  0.985700  0.500300  0.839800  1.0  -1.0285
  O  O150  1  0.878900  0.435600  0.870500  1.0  -0.9683
  O  O151  1  0.933500  0.413400  0.755500  1.0  -1.0044
  O  O152  1  0.992100  0.370600  0.863300  1.0  -1.0506
  O  O153  1  0.514300  0.500300  0.660200  1.0  -1.0267
  O  O154  1  0.621100  0.435600  0.629500  1.0  -0.9691
  O  O155  1  0.566500  0.413400  0.744500  1.0  -1.0044
  O  O156  1  0.507900  0.370600  0.636700  1.0  -1.0503
  O  O157  1  0.985700  0.999700  0.660200  1.0  -1.0271
  O  O158  1  0.878900  0.064400  0.629500  1.0  -0.9675
  O  O159  1  0.933500  0.086600  0.744500  1.0  -1.0053
  O  O160  1  0.992100  0.129400  0.636700  1.0  -1.0513
  O  O161  1  0.999700  0.660200  0.985700  1.0  -1.0269
  O  O162  1  0.064400  0.629500  0.878900  1.0  -0.97
  O  O163  1  0.086600  0.744500  0.933500  1.0  -1.002
  O  O164  1  0.129400  0.636700  0.992100  1.0  -1.0497
  O  O165  1  0.500300  0.660200  0.514300  1.0  -1.0262
  O  O166  1  0.435600  0.629500  0.621100  1.0  -0.9714
  O  O167  1  0.413400  0.744500  0.566500  1.0  -1.0033
  O  O168  1  0.370600  0.636700  0.507900  1.0  -1.0492
  O  O169  1  0.500300  0.839800  0.985700  1.0  -1.0255
  O  O170  1  0.435600  0.870500  0.878900  1.0  -0.9689
  O  O171  1  0.413400  0.755500  0.933500  1.0  -1.0033
  O  O172  1  0.370600  0.863300  0.992100  1.0  -1.0495
  O  O173  1  0.999700  0.839800  0.514300  1.0  -1.0267
  O  O174  1  0.064400  0.870500  0.621100  1.0  -0.9699
  O  O175  1  0.086600  0.755500  0.566500  1.0  -1.0027
  O  O176  1  0.129400  0.863300  0.507900  1.0  -1.0486
  O  O177  1  0.660200  0.514300  0.500300  1.0  -1.0272
  O  O178  1  0.629500  0.621100  0.435600  1.0  -0.9701
  O  O179  1  0.744500  0.566500  0.413400  1.0  -1.0043
  O  O180  1  0.636700  0.507900  0.370600  1.0  -1.0486
  O  O181  1  0.660200  0.985700  0.999700  1.0  -1.0281
  O  O182  1  0.629500  0.878900  0.064400  1.0  -0.9692
  O  O183  1  0.744500  0.933500  0.086600  1.0  -1.0058
  O  O184  1  0.636700  0.992100  0.129400  1.0  -1.049
  O  O185  1  0.839800  0.514300  0.999700  1.0  -1.0293
  O  O186  1  0.870500  0.621100  0.064400  1.0  -0.9702
  O  O187  1  0.755500  0.566500  0.086600  1.0  -1.0065
  O  O188  1  0.863300  0.507900  0.129400  1.0  -1.0489
  O  O189  1  0.839800  0.985700  0.500300  1.0  -1.0282
  O  O190  1  0.870500  0.878900  0.435600  1.0  -0.9691
  O  O191  1  0.755500  0.933500  0.413400  1.0  -1.0044
  O  O192  1  0.863300  0.992100  0.370600  1.0  -1.0496
  O  O193  1  0.000300  0.485700  0.339800  1.0  -1.0255
  O  O194  1  0.935600  0.378900  0.370500  1.0  -0.9687
  O  O195  1  0.913400  0.433500  0.255500  1.0  -1.0042
  O  O196  1  0.870600  0.492100  0.363300  1.0  -1.0492
  O  O197  1  0.499700  0.014300  0.339800  1.0  -1.0277
  O  O198  1  0.564400  0.121100  0.370500  1.0  -0.9696
  O  O199  1  0.586600  0.066500  0.255500  1.0  -1.0038
  O  O200  1  0.629400  0.007900  0.363300  1.0  -1.0483
  O  O201  1  0.499700  0.485700  0.160200  1.0  -1.0266
  O  O202  1  0.564400  0.378900  0.129500  1.0  -0.9689
  O  O203  1  0.586600  0.433500  0.244500  1.0  -1.0036
  O  O204  1  0.629400  0.492100  0.136700  1.0  -1.0489
  O  O205  1  0.000300  0.014300  0.160200  1.0  -1.0261
  O  O206  1  0.935600  0.121100  0.129500  1.0  -0.9697
  O  O207  1  0.913400  0.066500  0.244500  1.0  -1.0046
  O  O208  1  0.870600  0.007900  0.136700  1.0  -1.0483
  O  O209  1  0.339800  0.000300  0.485700  1.0  -1.0294
  O  O210  1  0.370500  0.935600  0.378900  1.0  -0.9689
  O  O211  1  0.255500  0.913400  0.433500  1.0  -1.0038
  O  O212  1  0.363300  0.870600  0.492100  1.0  -1.0495
  O  O213  1  0.339800  0.499700  0.014300  1.0  -1.0282
  O  O214  1  0.370500  0.564400  0.121100  1.0  -0.9698
  O  O215  1  0.255500  0.586600  0.066500  1.0  -1.0043
  O  O216  1  0.363300  0.629400  0.007900  1.0  -1.0505
  O  O217  1  0.160200  0.499700  0.485700  1.0  -1.0271
  O  O218  1  0.129500  0.564400  0.378900  1.0  -0.9691
  O  O219  1  0.244500  0.586600  0.433500  1.0  -1.0042
  O  O220  1  0.136700  0.629400  0.492100  1.0  -1.0499
  O  O221  1  0.160200  0.000300  0.014300  1.0  -1.028
  O  O222  1  0.129500  0.935600  0.121100  1.0  -0.9698
  O  O223  1  0.244500  0.913400  0.066500  1.0  -1.0044
  O  O224  1  0.136700  0.870600  0.007900  1.0  -1.0483
  O  O225  1  0.485700  0.339800  0.000300  1.0  -1.0273
  O  O226  1  0.378900  0.370500  0.935600  1.0  -0.968
  O  O227  1  0.433500  0.255500  0.913400  1.0  -1.0046
  O  O228  1  0.492100  0.363300  0.870600  1.0  -1.051
  O  O229  1  0.014300  0.339800  0.499700  1.0  -1.0271
  O  O230  1  0.121100  0.370500  0.564400  1.0  -0.9694
  O  O231  1  0.066500  0.255500  0.586600  1.0  -1.005
  O  O232  1  0.007900  0.363300  0.629400  1.0  -1.0509
  O  O233  1  0.485700  0.160200  0.499700  1.0  -1.0281
  O  O234  1  0.378900  0.129500  0.564400  1.0  -0.9693
  O  O235  1  0.433500  0.244500  0.586600  1.0  -1.0054
  O  O236  1  0.492100  0.136700  0.629400  1.0  -1.0515
  O  O237  1  0.014300  0.160200  0.000300  1.0  -1.0263
  O  O238  1  0.121100  0.129500  0.935600  1.0  -0.9702
  O  O239  1  0.066500  0.244500  0.913400  1.0  -1.0029
  O  O240  1  0.007900  0.136700  0.870600  1.0  -1.0515
  O  O241  1  0.485700  0.000300  0.160200  1.0  -1.0281
  O  O242  1  0.378900  0.935600  0.129500  1.0  -0.9677
  O  O243  1  0.433500  0.913400  0.244500  1.0  -1.0046
  O  O244  1  0.492100  0.870600  0.136700  1.0  -1.0504
  O  O245  1  0.014300  0.499700  0.160200  1.0  -1.0261
  O  O246  1  0.121100  0.564400  0.129500  1.0  -0.969
  O  O247  1  0.066500  0.586600  0.244500  1.0  -1.0048
  O  O248  1  0.007900  0.629400  0.136700  1.0  -1.0514
  O  O249  1  0.485700  0.499700  0.339800  1.0  -1.0271
  O  O250  1  0.378900  0.564400  0.370500  1.0  -0.9681
  O  O251  1  0.433500  0.586600  0.255500  1.0  -1.0048
  O  O252  1  0.492100  0.629400  0.363300  1.0  -1.0518
  O  O253  1  0.014300  0.000300  0.339800  1.0  -1.0273
  O  O254  1  0.121100  0.935600  0.370500  1.0  -0.9683
  O  O255  1  0.066500  0.913400  0.255500  1.0  -1.0043
  O  O256  1  0.007900  0.870600  0.363300  1.0  -1.0508
  O  O257  1  0.000300  0.339800  0.014300  1.0  -1.0257
  O  O258  1  0.935600  0.370500  0.121100  1.0  -0.97
  O  O259  1  0.913400  0.255500  0.066500  1.0  -1.0035
  O  O260  1  0.870600  0.363300  0.007900  1.0  -1.0488
  O  O261  1  0.499700  0.339800  0.485700  1.0  -1.0266
  O  O262  1  0.564400  0.370500  0.378900  1.0  -0.9685
  O  O263  1  0.586600  0.255500  0.433500  1.0  -1.0029
  O  O264  1  0.629400  0.363300  0.492100  1.0  -1.0494
  O  O265  1  0.499700  0.160200  0.014300  1.0  -1.0268
  O  O266  1  0.564400  0.129500  0.121100  1.0  -0.9711
  O  O267  1  0.586600  0.244500  0.066500  1.0  -1.0022
  O  O268  1  0.629400  0.136700  0.007900  1.0  -1.049
  O  O269  1  0.000300  0.160200  0.485700  1.0  -1.0261
  O  O270  1  0.935600  0.129500  0.378900  1.0  -0.9707
  O  O271  1  0.913400  0.244500  0.433500  1.0  -1.0023
  O  O272  1  0.870600  0.136700  0.492100  1.0  -1.0497
  O  O273  1  0.339800  0.485700  0.499700  1.0  -1.0288
  O  O274  1  0.370500  0.378900  0.564400  1.0  -0.969
  O  O275  1  0.255500  0.433500  0.586600  1.0  -1.0053
  O  O276  1  0.363300  0.492100  0.629400  1.0  -1.0497
  O  O277  1  0.339800  0.014300  0.000300  1.0  -1.0288
  O  O278  1  0.370500  0.121100  0.935600  1.0  -0.9702
  O  O279  1  0.255500  0.066500  0.913400  1.0  -1.0046
  O  O280  1  0.363300  0.007900  0.870600  1.0  -1.049
  O  O281  1  0.160200  0.485700  0.000300  1.0  -1.0269
  O  O282  1  0.129500  0.378900  0.935600  1.0  -0.9693
  O  O283  1  0.244500  0.433500  0.913400  1.0  -1.0046
  O  O284  1  0.136700  0.492100  0.870600  1.0  -1.0489
  O  O285  1  0.160200  0.014300  0.499700  1.0  -1.0281
  O  O286  1  0.129500  0.121100  0.564400  1.0  -0.97
  O  O287  1  0.244500  0.066500  0.586600  1.0  -1.0066
  O  O288  1  0.136700  0.007900  0.629400  1.0  -1.0487
