# generated using pymatgen
data_AlPO4
_symmetry_space_group_name_H-M   'P 1'
_cell_length_a   18.65600000
_cell_length_b   18.65600000
_cell_length_c   9.37800000
_cell_angle_alpha   90.00000000
_cell_angle_beta   90.00000000
_cell_angle_gamma   90.00000000
_symmetry_Int_Tables_number   1
_chemical_formula_structural   AlPO4
_chemical_formula_sum   'Al24 P24 O96'
_cell_volume   3263.97853901
_cell_formula_units_Z   24
loop_
 _symmetry_equiv_pos_site_id
 _symmetry_equiv_pos_as_xyz
  1  'x, y, z'
loop_
 _atom_site_type_symbol
 _atom_site_label
 _atom_site_symmetry_multiplicity
 _atom_site_fract_x
 _atom_site_fract_y
 _atom_site_fract_z
 _atom_site_occupancy
 _atom_site_charge
  Al  Al1  1  0.954490  0.834220  0.841400  1.0  2.0206
  Al  Al2  1  0.166540  0.936120  0.914400  1.0  2.021
  Al  Al3  1  0.063860  0.948010  0.334500  1.0  2.0314
  Al  Al4  1  0.545510  0.665780  0.841400  1.0  2.0207
  Al  Al5  1  0.333460  0.563880  0.914400  1.0  2.0202
  Al  Al6  1  0.436140  0.551990  0.334500  1.0  2.0305
  Al  Al7  1  0.665780  0.954490  0.841400  1.0  2.0208
  Al  Al8  1  0.563880  0.166540  0.914400  1.0  2.0229
  Al  Al9  1  0.551990  0.063860  0.334500  1.0  2.0304
  Al  Al10  1  0.834220  0.545510  0.841400  1.0  2.0204
  Al  Al11  1  0.936120  0.333460  0.914400  1.0  2.0223
  Al  Al12  1  0.948010  0.436140  0.334500  1.0  2.0305
  Al  Al13  1  0.045510  0.165780  0.158600  1.0  2.0205
  Al  Al14  1  0.833460  0.063880  0.085600  1.0  2.0204
  Al  Al15  1  0.936140  0.051990  0.665500  1.0  2.0303
  Al  Al16  1  0.454490  0.334220  0.158600  1.0  2.0206
  Al  Al17  1  0.666540  0.436120  0.085600  1.0  2.021
  Al  Al18  1  0.563860  0.448010  0.665500  1.0  2.0314
  Al  Al19  1  0.334220  0.045510  0.158600  1.0  2.0202
  Al  Al20  1  0.436120  0.833460  0.085600  1.0  2.0225
  Al  Al21  1  0.448010  0.936140  0.665500  1.0  2.0303
  Al  Al22  1  0.165780  0.454490  0.158600  1.0  2.0207
  Al  Al23  1  0.063880  0.666540  0.085600  1.0  2.0229
  Al  Al24  1  0.051990  0.563860  0.665500  1.0  2.0303
  P  P25  1  0.067090  0.833810  0.090380  1.0  2.0299
  P  P26  1  0.834290  0.950850  0.839700  1.0  1.8753
  P  P27  1  0.056130  0.934380  0.663660  1.0  2.0204
  P  P28  1  0.432910  0.666190  0.090380  1.0  2.028
  P  P29  1  0.665710  0.549150  0.839700  1.0  1.8766
  P  P30  1  0.443870  0.565620  0.663660  1.0  2.0179
  P  P31  1  0.666190  0.067090  0.090380  1.0  2.0306
  P  P32  1  0.549150  0.834290  0.839700  1.0  1.8765
  P  P33  1  0.565620  0.056130  0.663660  1.0  2.0204
  P  P34  1  0.833810  0.432910  0.090380  1.0  2.0272
  P  P35  1  0.950850  0.665710  0.839700  1.0  1.8733
  P  P36  1  0.934380  0.443870  0.663660  1.0  2.0196
  P  P37  1  0.932910  0.166190  0.909620  1.0  2.0277
  P  P38  1  0.165710  0.049150  0.160300  1.0  1.8764
  P  P39  1  0.943870  0.065620  0.336340  1.0  2.0184
  P  P40  1  0.567090  0.333810  0.909620  1.0  2.0298
  P  P41  1  0.334290  0.450850  0.160300  1.0  1.8751
  P  P42  1  0.556130  0.434380  0.336340  1.0  2.021
  P  P43  1  0.333810  0.932910  0.909620  1.0  2.0268
  P  P44  1  0.450850  0.165710  0.160300  1.0  1.8732
  P  P45  1  0.434380  0.943870  0.336340  1.0  2.0202
  P  P46  1  0.166190  0.567090  0.909620  1.0  2.0305
  P  P47  1  0.049150  0.334290  0.160300  1.0  1.8763
  P  P48  1  0.065620  0.556130  0.336340  1.0  2.0209
  O  O49  1  0.997600  0.842500  0.003800  1.0  -1.0548
  O  O50  1  0.057000  0.870600  0.234400  1.0  -0.9769
  O  O51  1  0.130700  0.866200  0.010000  1.0  -1.0239
  O  O52  1  0.082800  0.755400  0.118600  1.0  -0.933
  O  O53  1  0.872500  0.877100  0.843800  1.0  -0.978
  O  O54  1  0.842200  0.985700  0.988500  1.0  -1.0131
  O  O55  1  0.754800  0.938500  0.803000  1.0  -0.9887
  O  O56  1  0.866400  0.999300  0.720900  1.0  -1.0099
  O  O57  1  0.125100  0.940000  0.751700  1.0  -0.9842
  O  O58  1  0.016200  0.005700  0.676900  1.0  -1.0588
  O  O59  1  0.009800  0.871400  0.711500  1.0  -1.0173
  O  O60  1  0.077800  0.921800  0.507700  1.0  -0.9588
  O  O61  1  0.502400  0.657500  0.003800  1.0  -1.0545
  O  O62  1  0.443000  0.629400  0.234400  1.0  -0.977
  O  O63  1  0.369300  0.633800  0.010000  1.0  -1.0239
  O  O64  1  0.417200  0.744600  0.118600  1.0  -0.9336
  O  O65  1  0.627500  0.622900  0.843800  1.0  -0.9777
  O  O66  1  0.657800  0.514300  0.988500  1.0  -1.0132
  O  O67  1  0.745200  0.561500  0.803000  1.0  -0.9892
  O  O68  1  0.633600  0.500700  0.720900  1.0  -1.0107
  O  O69  1  0.374900  0.560000  0.751700  1.0  -0.9846
  O  O70  1  0.483800  0.494300  0.676900  1.0  -1.0558
  O  O71  1  0.490200  0.628600  0.711500  1.0  -1.0175
  O  O72  1  0.422200  0.578200  0.507700  1.0  -0.959
  O  O73  1  0.657500  0.997600  0.003800  1.0  -1.0564
  O  O74  1  0.629400  0.057000  0.234400  1.0  -0.9773
  O  O75  1  0.633800  0.130700  0.010000  1.0  -1.025
  O  O76  1  0.744600  0.082800  0.118600  1.0  -0.9345
  O  O77  1  0.622900  0.872500  0.843800  1.0  -0.9761
  O  O78  1  0.514300  0.842200  0.988500  1.0  -1.0108
  O  O79  1  0.561500  0.754800  0.803000  1.0  -0.9858
  O  O80  1  0.500700  0.866400  0.720900  1.0  -1.0112
  O  O81  1  0.560000  0.125100  0.751700  1.0  -0.9879
  O  O82  1  0.494300  0.016200  0.676900  1.0  -1.0561
  O  O83  1  0.628600  0.009800  0.711500  1.0  -1.0169
  O  O84  1  0.578200  0.077800  0.507700  1.0  -0.9586
  O  O85  1  0.842500  0.502400  0.003800  1.0  -1.059
  O  O86  1  0.870600  0.443000  0.234400  1.0  -0.9773
  O  O87  1  0.866200  0.369300  0.010000  1.0  -1.0241
  O  O88  1  0.755400  0.417200  0.118600  1.0  -0.9349
  O  O89  1  0.877100  0.627500  0.843800  1.0  -0.9762
  O  O90  1  0.985700  0.657800  0.988500  1.0  -1.0117
  O  O91  1  0.938500  0.745200  0.803000  1.0  -0.9856
  O  O92  1  0.999300  0.633600  0.720900  1.0  -1.012
  O  O93  1  0.940000  0.374900  0.751700  1.0  -0.9868
  O  O94  1  0.005700  0.483800  0.676900  1.0  -1.0558
  O  O95  1  0.871400  0.490200  0.711500  1.0  -1.0157
  O  O96  1  0.921800  0.422200  0.507700  1.0  -0.9592
  O  O97  1  0.002400  0.157500  0.996200  1.0  -1.0539
  O  O98  1  0.943000  0.129400  0.765600  1.0  -0.9767
  O  O99  1  0.869300  0.133800  0.990000  1.0  -1.0238
  O  O100  1  0.917200  0.244600  0.881400  1.0  -0.9319
  O  O101  1  0.127500  0.122900  0.156200  1.0  -0.9778
  O  O102  1  0.157800  0.014300  0.011500  1.0  -1.0132
  O  O103  1  0.245200  0.061500  0.197000  1.0  -0.9898
  O  O104  1  0.133600  0.000700  0.279100  1.0  -1.011
  O  O105  1  0.874900  0.060000  0.248300  1.0  -0.9848
  O  O106  1  0.983800  0.994300  0.323100  1.0  -1.056
  O  O107  1  0.990200  0.128600  0.288500  1.0  -1.0178
  O  O108  1  0.922200  0.078200  0.492300  1.0  -0.9592
  O  O109  1  0.497600  0.342500  0.996200  1.0  -1.0546
  O  O110  1  0.557000  0.370600  0.765600  1.0  -0.9762
  O  O111  1  0.630700  0.366200  0.990000  1.0  -1.0238
  O  O112  1  0.582800  0.255400  0.881400  1.0  -0.9319
  O  O113  1  0.372500  0.377100  0.156200  1.0  -0.9781
  O  O114  1  0.342200  0.485700  0.011500  1.0  -1.013
  O  O115  1  0.254800  0.438500  0.197000  1.0  -0.9888
  O  O116  1  0.366400  0.499300  0.279100  1.0  -1.0103
  O  O117  1  0.625100  0.440000  0.248300  1.0  -0.9851
  O  O118  1  0.516200  0.505700  0.323100  1.0  -1.0586
  O  O119  1  0.509800  0.371400  0.288500  1.0  -1.0173
  O  O120  1  0.577800  0.421800  0.492300  1.0  -0.9592
  O  O121  1  0.342500  0.002400  0.996200  1.0  -1.0588
  O  O122  1  0.370600  0.943000  0.765600  1.0  -0.977
  O  O123  1  0.366200  0.869300  0.990000  1.0  -1.0241
  O  O124  1  0.255400  0.917200  0.881400  1.0  -0.9338
  O  O125  1  0.377100  0.127500  0.156200  1.0  -0.9763
  O  O126  1  0.485700  0.157800  0.011500  1.0  -1.0109
  O  O127  1  0.438500  0.245200  0.197000  1.0  -0.9863
  O  O128  1  0.499300  0.133600  0.279100  1.0  -1.0124
  O  O129  1  0.440000  0.874900  0.248300  1.0  -0.9866
  O  O130  1  0.505700  0.983800  0.323100  1.0  -1.056
  O  O131  1  0.371400  0.990200  0.288500  1.0  -1.0158
  O  O132  1  0.421800  0.922200  0.492300  1.0  -0.9593
  O  O133  1  0.157500  0.497600  0.996200  1.0  -1.0564
  O  O134  1  0.129400  0.557000  0.765600  1.0  -0.9765
  O  O135  1  0.133800  0.630700  0.990000  1.0  -1.025
  O  O136  1  0.244600  0.582800  0.881400  1.0  -0.9335
  O  O137  1  0.122900  0.372500  0.156200  1.0  -0.9759
  O  O138  1  0.014300  0.342200  0.011500  1.0  -1.0102
  O  O139  1  0.061500  0.254800  0.197000  1.0  -0.9859
  O  O140  1  0.000700  0.366400  0.279100  1.0  -1.0121
  O  O141  1  0.060000  0.625100  0.248300  1.0  -0.9881
  O  O142  1  0.994300  0.516200  0.323100  1.0  -1.056
  O  O143  1  0.128600  0.509800  0.288500  1.0  -1.017
  O  O144  1  0.078200  0.577800  0.492300  1.0  -0.9589
