# generated using pymatgen
data_Cu2H9C14N5O
_symmetry_space_group_name_H-M   'P 1'
_cell_length_a   7.35780000
_cell_length_b   21.99690000
_cell_length_c   20.34470000
_cell_angle_alpha   90.00000000
_cell_angle_beta   90.00000000
_cell_angle_gamma   90.00000000
_symmetry_Int_Tables_number   1
_chemical_formula_structural   Cu2H9C14N5O
_chemical_formula_sum   'Cu16 H72 C112 N40 O8'
_cell_volume   3292.76509460
_cell_formula_units_Z   8
loop_
 _symmetry_equiv_pos_site_id
 _symmetry_equiv_pos_as_xyz
  1  'x, y, z'
loop_
 _atom_site_type_symbol
 _atom_site_label
 _atom_site_symmetry_multiplicity
 _atom_site_fract_x
 _atom_site_fract_y
 _atom_site_fract_z
 _atom_site_occupancy
 _atom_site_charge
  Cu  Cu1  1  0.571120  0.587380  0.674190  1.0  0.4857
  Cu  Cu2  1  0.428880  0.912620  0.674190  1.0  0.4855
  Cu  Cu3  1  0.571120  0.412620  0.825810  1.0  0.4855
  Cu  Cu4  1  0.428880  0.087380  0.825810  1.0  0.4857
  Cu  Cu5  1  0.428880  0.412620  0.325810  1.0  0.4855
  Cu  Cu6  1  0.571120  0.087380  0.325810  1.0  0.4857
  Cu  Cu7  1  0.428880  0.587380  0.174190  1.0  0.4856
  Cu  Cu8  1  0.571120  0.912620  0.174190  1.0  0.4856
  Cu  Cu9  1  0.500000  0.500000  0.500000  1.0  0.6562
  Cu  Cu10  1  0.500000  0.000000  0.500000  1.0  0.6562
  Cu  Cu11  1  0.500000  0.500000  0.000000  1.0  0.6562
  Cu  Cu12  1  0.500000  0.000000  0.000000  1.0  0.6562
  Cu  Cu13  1  0.000000  0.750000  0.180000  1.0  0.1942
  Cu  Cu14  1  0.000000  0.250000  0.320000  1.0  0.194
  Cu  Cu15  1  0.000000  0.250000  0.820000  1.0  0.194
  Cu  Cu16  1  0.000000  0.750000  0.680000  1.0  0.1942
  H  H17  1  0.204900  0.531800  0.699100  1.0  0.0745
  H  H18  1  0.931800  0.515200  0.648100  1.0  0.1232
  H  H19  1  0.108200  0.616700  0.498300  1.0  0.1245
  H  H20  1  0.372900  0.631900  0.554400  1.0  0.0812
  H  H21  1  0.470900  0.569000  0.376000  1.0  0.099
  H  H22  1  0.465300  0.651500  0.298100  1.0  0.1276
  H  H23  1  0.613600  0.711800  0.225600  1.0  0.0717
  H  H24  1  0.080600  0.664300  0.294800  1.0  0.0785
  H  H25  1  0.946500  0.605200  0.375000  1.0  0.1236
  H  H26  1  0.795100  0.968200  0.699100  1.0  0.0748
  H  H27  1  0.068200  0.984800  0.648100  1.0  0.123
  H  H28  1  0.891800  0.883300  0.498300  1.0  0.1241
  H  H29  1  0.627100  0.868100  0.554400  1.0  0.0827
  H  H30  1  0.529100  0.931000  0.376000  1.0  0.0995
  H  H31  1  0.534700  0.848500  0.298100  1.0  0.128
  H  H32  1  0.386400  0.788200  0.225600  1.0  0.0716
  H  H33  1  0.919400  0.835700  0.294800  1.0  0.0782
  H  H34  1  0.053500  0.894800  0.375000  1.0  0.1238
  H  H35  1  0.204900  0.468200  0.800900  1.0  0.0749
  H  H36  1  0.931800  0.484800  0.851900  1.0  0.1232
  H  H37  1  0.108200  0.383300  0.001700  1.0  0.1248
  H  H38  1  0.372900  0.368100  0.945600  1.0  0.083
  H  H39  1  0.470900  0.431000  0.124000  1.0  0.099
  H  H40  1  0.465300  0.348500  0.201900  1.0  0.1273
  H  H41  1  0.613600  0.288200  0.274400  1.0  0.0716
  H  H42  1  0.080600  0.335700  0.205200  1.0  0.0785
  H  H43  1  0.946500  0.394800  0.125000  1.0  0.1235
  H  H44  1  0.795100  0.031800  0.800900  1.0  0.075
  H  H45  1  0.068200  0.015200  0.851900  1.0  0.1229
  H  H46  1  0.891800  0.116700  0.001700  1.0  0.1244
  H  H47  1  0.627100  0.131900  0.945600  1.0  0.0822
  H  H48  1  0.529100  0.069000  0.124000  1.0  0.0996
  H  H49  1  0.534700  0.151500  0.201900  1.0  0.1276
  H  H50  1  0.386400  0.211800  0.274400  1.0  0.0719
  H  H51  1  0.919400  0.164300  0.205200  1.0  0.0785
  H  H52  1  0.053500  0.105200  0.125000  1.0  0.1232
  H  H53  1  0.795100  0.468200  0.300900  1.0  0.0749
  H  H54  1  0.068200  0.484800  0.351900  1.0  0.123
  H  H55  1  0.891800  0.383300  0.501700  1.0  0.1246
  H  H56  1  0.627100  0.368100  0.445600  1.0  0.083
  H  H57  1  0.529100  0.431000  0.624000  1.0  0.1
  H  H58  1  0.534700  0.348500  0.701900  1.0  0.1277
  H  H59  1  0.386400  0.288200  0.774400  1.0  0.072
  H  H60  1  0.919400  0.335700  0.705200  1.0  0.0782
  H  H61  1  0.053500  0.394800  0.625000  1.0  0.1234
  H  H62  1  0.204900  0.031800  0.300900  1.0  0.0746
  H  H63  1  0.931800  0.015200  0.351900  1.0  0.123
  H  H64  1  0.108200  0.116700  0.501700  1.0  0.1246
  H  H65  1  0.372900  0.131900  0.445600  1.0  0.0817
  H  H66  1  0.470900  0.069000  0.624000  1.0  0.0993
  H  H67  1  0.465300  0.151500  0.701900  1.0  0.1276
  H  H68  1  0.613600  0.211800  0.774400  1.0  0.0715
  H  H69  1  0.080600  0.164300  0.705200  1.0  0.0785
  H  H70  1  0.946500  0.105200  0.625000  1.0  0.1231
  H  H71  1  0.795100  0.531800  0.199100  1.0  0.0749
  H  H72  1  0.068200  0.515200  0.148100  1.0  0.1233
  H  H73  1  0.891800  0.616700  0.998300  1.0  0.1242
  H  H74  1  0.627100  0.631900  0.054400  1.0  0.0818
  H  H75  1  0.529100  0.569000  0.876000  1.0  0.0999
  H  H76  1  0.534700  0.651500  0.798100  1.0  0.1278
  H  H77  1  0.386400  0.711800  0.725600  1.0  0.0719
  H  H78  1  0.919400  0.664300  0.794800  1.0  0.0785
  H  H79  1  0.053500  0.605200  0.875000  1.0  0.1237
  H  H80  1  0.204900  0.968200  0.199100  1.0  0.0749
  H  H81  1  0.931800  0.984800  0.148100  1.0  0.1231
  H  H82  1  0.108200  0.883300  0.998300  1.0  0.1244
  H  H83  1  0.372900  0.868100  0.054400  1.0  0.0827
  H  H84  1  0.470900  0.931000  0.876000  1.0  0.0993
  H  H85  1  0.465300  0.848500  0.798100  1.0  0.1275
  H  H86  1  0.613600  0.788200  0.725600  1.0  0.0715
  H  H87  1  0.080600  0.835700  0.794800  1.0  0.0786
  H  H88  1  0.946500  0.894800  0.875000  1.0  0.124
  C  C89  1  0.596100  0.520220  0.731850  1.0  -0.4185
  C  C90  1  0.184900  0.549190  0.658060  1.0  0.161
  C  C91  1  0.020500  0.538500  0.627550  1.0  -0.1405
  C  C92  1  0.989500  0.562820  0.566330  1.0  0.0145
  C  C93  1  0.124900  0.598750  0.539200  1.0  -0.134
  C  C94  1  0.283600  0.607590  0.573200  1.0  0.1182
  C  C95  1  0.815500  0.550330  0.530920  1.0  0.4766
  C  C96  1  0.584600  0.581160  0.391070  1.0  0.1252
  C  C97  1  0.687100  0.621690  0.346080  1.0  0.0851
  C  C98  1  0.591400  0.654010  0.299540  1.0  -0.1892
  C  C99  1  0.681600  0.689590  0.255660  1.0  0.1445
  C  C100  1  0.954400  0.662400  0.296600  1.0  0.1432
  C  C101  1  0.875400  0.626000  0.344700  1.0  -0.1757
  C  C102  1  0.187100  0.696350  0.152900  1.0  -0.0443
  C  C103  1  0.403900  0.979780  0.731850  1.0  -0.418
  C  C104  1  0.815100  0.950810  0.658060  1.0  0.1604
  C  C105  1  0.979500  0.961500  0.627550  1.0  -0.1412
  C  C106  1  0.010500  0.937180  0.566330  1.0  0.0139
  C  C107  1  0.875100  0.901250  0.539200  1.0  -0.134
  C  C108  1  0.716400  0.892410  0.573200  1.0  0.1169
  C  C109  1  0.184500  0.949670  0.530920  1.0  0.4753
  C  C110  1  0.415400  0.918840  0.391070  1.0  0.1258
  C  C111  1  0.312900  0.878310  0.346080  1.0  0.0833
  C  C112  1  0.408600  0.845990  0.299540  1.0  -0.1896
  C  C113  1  0.318400  0.810410  0.255660  1.0  0.1442
  C  C114  1  0.045600  0.837600  0.296600  1.0  0.1413
  C  C115  1  0.124600  0.874000  0.344700  1.0  -0.1756
  C  C116  1  0.812900  0.803650  0.152900  1.0  -0.0426
  C  C117  1  0.596100  0.479780  0.768150  1.0  -0.4193
  C  C118  1  0.184900  0.450810  0.841940  1.0  0.1618
  C  C119  1  0.020500  0.461500  0.872450  1.0  -0.141
  C  C120  1  0.989500  0.437180  0.933670  1.0  0.0137
  C  C121  1  0.124900  0.401250  0.960800  1.0  -0.1341
  C  C122  1  0.283600  0.392410  0.926800  1.0  0.1168
  C  C123  1  0.815500  0.449670  0.969080  1.0  0.4766
  C  C124  1  0.584600  0.418840  0.108930  1.0  0.1258
  C  C125  1  0.687100  0.378310  0.153920  1.0  0.0836
  C  C126  1  0.591400  0.345990  0.200460  1.0  -0.1898
  C  C127  1  0.681600  0.310410  0.244340  1.0  0.1459
  C  C128  1  0.954400  0.337600  0.203400  1.0  0.1429
  C  C129  1  0.875400  0.374000  0.155300  1.0  -0.1752
  C  C130  1  0.187100  0.303650  0.347100  1.0  -0.0461
  C  C131  1  0.403900  0.020220  0.768150  1.0  -0.4206
  C  C132  1  0.815100  0.049190  0.841940  1.0  0.1611
  C  C133  1  0.979500  0.038500  0.872450  1.0  -0.1422
  C  C134  1  0.010500  0.062820  0.933670  1.0  0.0132
  C  C135  1  0.875100  0.098750  0.960800  1.0  -0.1338
  C  C136  1  0.716400  0.107590  0.926800  1.0  0.1157
  C  C137  1  0.184500  0.050330  0.969080  1.0  0.4759
  C  C138  1  0.415400  0.081160  0.108930  1.0  0.1256
  C  C139  1  0.312900  0.121690  0.153920  1.0  0.0843
  C  C140  1  0.408600  0.154010  0.200460  1.0  -0.1893
  C  C141  1  0.318400  0.189590  0.244340  1.0  0.145
  C  C142  1  0.045600  0.162400  0.203400  1.0  0.1403
  C  C143  1  0.124600  0.126000  0.155300  1.0  -0.1765
  C  C144  1  0.812900  0.196350  0.347100  1.0  -0.0463
  C  C145  1  0.403900  0.479780  0.268150  1.0  -0.4196
  C  C146  1  0.815100  0.450810  0.341940  1.0  0.1611
  C  C147  1  0.979500  0.461500  0.372450  1.0  -0.1418
  C  C148  1  0.010500  0.437180  0.433670  1.0  0.0134
  C  C149  1  0.875100  0.401250  0.460800  1.0  -0.1338
  C  C150  1  0.716400  0.392410  0.426800  1.0  0.1172
  C  C151  1  0.184500  0.449670  0.469080  1.0  0.4755
  C  C152  1  0.415400  0.418840  0.608930  1.0  0.1257
  C  C153  1  0.312900  0.378310  0.653920  1.0  0.0836
  C  C154  1  0.408600  0.345990  0.700460  1.0  -0.1896
  C  C155  1  0.318400  0.310410  0.744340  1.0  0.1459
  C  C156  1  0.045600  0.337600  0.703400  1.0  0.1405
  C  C157  1  0.124600  0.374000  0.655300  1.0  -0.1757
  C  C158  1  0.812900  0.303650  0.847100  1.0  -0.0457
  C  C159  1  0.596100  0.020220  0.268150  1.0  -0.4199
  C  C160  1  0.184900  0.049190  0.341940  1.0  0.1617
  C  C161  1  0.020500  0.038500  0.372450  1.0  -0.1414
  C  C162  1  0.989500  0.062820  0.433670  1.0  0.0141
  C  C163  1  0.124900  0.098750  0.460800  1.0  -0.1338
  C  C164  1  0.283600  0.107590  0.426800  1.0  0.1175
  C  C165  1  0.815500  0.050330  0.469080  1.0  0.4768
  C  C166  1  0.584600  0.081160  0.608930  1.0  0.1253
  C  C167  1  0.687100  0.121690  0.653920  1.0  0.0844
  C  C168  1  0.591400  0.154010  0.700460  1.0  -0.1892
  C  C169  1  0.681600  0.189590  0.744340  1.0  0.1447
  C  C170  1  0.954400  0.162400  0.703400  1.0  0.1432
  C  C171  1  0.875400  0.126000  0.655300  1.0  -0.1756
  C  C172  1  0.187100  0.196350  0.847100  1.0  -0.0463
  C  C173  1  0.403900  0.520220  0.231850  1.0  -0.4192
  C  C174  1  0.815100  0.549190  0.158060  1.0  0.1599
  C  C175  1  0.979500  0.538500  0.127550  1.0  -0.1422
  C  C176  1  0.010500  0.562820  0.066330  1.0  0.0138
  C  C177  1  0.875100  0.598750  0.039200  1.0  -0.1341
  C  C178  1  0.716400  0.607590  0.073200  1.0  0.1164
  C  C179  1  0.184500  0.550330  0.030920  1.0  0.4757
  C  C180  1  0.415400  0.581160  0.891070  1.0  0.1256
  C  C181  1  0.312900  0.621690  0.846080  1.0  0.0841
  C  C182  1  0.408600  0.654010  0.799540  1.0  -0.1898
  C  C183  1  0.318400  0.689590  0.755660  1.0  0.1445
  C  C184  1  0.045600  0.662400  0.796600  1.0  0.1409
  C  C185  1  0.124600  0.626000  0.844700  1.0  -0.1764
  C  C186  1  0.812900  0.696350  0.652900  1.0  -0.0436
  C  C187  1  0.596100  0.979780  0.231850  1.0  -0.4176
  C  C188  1  0.184900  0.950810  0.158060  1.0  0.1615
  C  C189  1  0.020500  0.961500  0.127550  1.0  -0.1397
  C  C190  1  0.989500  0.937180  0.066330  1.0  0.0138
  C  C191  1  0.124900  0.901250  0.039200  1.0  -0.1342
  C  C192  1  0.283600  0.892410  0.073200  1.0  0.1165
  C  C193  1  0.815500  0.949670  0.030920  1.0  0.4764
  C  C194  1  0.584600  0.918840  0.891070  1.0  0.1258
  C  C195  1  0.687100  0.878310  0.846080  1.0  0.0842
  C  C196  1  0.591400  0.845990  0.799540  1.0  -0.1894
  C  C197  1  0.681600  0.810410  0.755660  1.0  0.1445
  C  C198  1  0.954400  0.837600  0.796600  1.0  0.1431
  C  C199  1  0.875400  0.874000  0.844700  1.0  -0.1752
  C  C200  1  0.187100  0.803650  0.652900  1.0  -0.0437
  N  N201  1  0.316300  0.583000  0.632110  1.0  -0.3001
  N  N202  1  0.794400  0.577890  0.474650  1.0  -0.3897
  N  N203  1  0.629500  0.560650  0.447040  1.0  -0.1157
  N  N204  1  0.861300  0.694320  0.253400  1.0  -0.2418
  N  N205  1  0.288500  0.656710  0.153190  1.0  -0.3855
  N  N206  1  0.683700  0.917000  0.632110  1.0  -0.3023
  N  N207  1  0.205600  0.922110  0.474650  1.0  -0.3931
  N  N208  1  0.370500  0.939350  0.447040  1.0  -0.1143
  N  N209  1  0.138700  0.805680  0.253400  1.0  -0.2481
  N  N210  1  0.711500  0.843290  0.153190  1.0  -0.3858
  N  N211  1  0.316300  0.417000  0.867890  1.0  -0.3009
  N  N212  1  0.794400  0.422110  0.025350  1.0  -0.3907
  N  N213  1  0.629500  0.439350  0.052960  1.0  -0.1148
  N  N214  1  0.861300  0.305680  0.246600  1.0  -0.2419
  N  N215  1  0.288500  0.343290  0.346810  1.0  -0.3849
  N  N216  1  0.683700  0.083000  0.867890  1.0  -0.3013
  N  N217  1  0.205600  0.077890  0.025350  1.0  -0.3917
  N  N218  1  0.370500  0.060650  0.052960  1.0  -0.1144
  N  N219  1  0.138700  0.194320  0.246600  1.0  -0.247
  N  N220  1  0.711500  0.156710  0.346810  1.0  -0.3853
  N  N221  1  0.683700  0.417000  0.367890  1.0  -0.3027
  N  N222  1  0.205600  0.422110  0.525350  1.0  -0.3933
  N  N223  1  0.370500  0.439350  0.552960  1.0  -0.1143
  N  N224  1  0.138700  0.305680  0.746600  1.0  -0.2471
  N  N225  1  0.711500  0.343290  0.846810  1.0  -0.3855
  N  N226  1  0.316300  0.083000  0.367890  1.0  -0.3005
  N  N227  1  0.794400  0.077890  0.525350  1.0  -0.3894
  N  N228  1  0.629500  0.060650  0.552960  1.0  -0.1154
  N  N229  1  0.861300  0.194320  0.746600  1.0  -0.2412
  N  N230  1  0.288500  0.156710  0.846810  1.0  -0.3845
  N  N231  1  0.683700  0.583000  0.132110  1.0  -0.3019
  N  N232  1  0.205600  0.577890  0.974650  1.0  -0.3918
  N  N233  1  0.370500  0.560650  0.947040  1.0  -0.1146
  N  N234  1  0.138700  0.694320  0.753400  1.0  -0.2465
  N  N235  1  0.711500  0.656710  0.653190  1.0  -0.3861
  N  N236  1  0.316300  0.917000  0.132110  1.0  -0.2999
  N  N237  1  0.794400  0.922110  0.974650  1.0  -0.3904
  N  N238  1  0.629500  0.939350  0.947040  1.0  -0.1154
  N  N239  1  0.861300  0.805680  0.753400  1.0  -0.2434
  N  N240  1  0.288500  0.843290  0.653190  1.0  -0.3851
  O  O241  1  0.704200  0.512550  0.556880  1.0  -0.5389
  O  O242  1  0.295800  0.987450  0.556880  1.0  -0.538
  O  O243  1  0.704200  0.487450  0.943120  1.0  -0.539
  O  O244  1  0.295800  0.012550  0.943120  1.0  -0.5386
  O  O245  1  0.295800  0.487450  0.443120  1.0  -0.5384
  O  O246  1  0.704200  0.012550  0.443120  1.0  -0.5402
  O  O247  1  0.295800  0.512550  0.056880  1.0  -0.5384
  O  O248  1  0.704200  0.987450  0.056880  1.0  -0.5392
