# generated using pymatgen
data_Yb2H6Ru3(C4N3)6
_symmetry_space_group_name_H-M   'P 1'
_cell_length_a   8.68000000
_cell_length_b   11.08630000
_cell_length_c   25.09030000
_cell_angle_alpha   90.00000000
_cell_angle_beta   90.00000000
_cell_angle_gamma   101.55000000
_symmetry_Int_Tables_number   1
_chemical_formula_structural   Yb2H6Ru3(C4N3)6
_chemical_formula_sum   'Yb4 H12 Ru6 C48 N36'
_cell_volume   2365.52549587
_cell_formula_units_Z   2
loop_
 _symmetry_equiv_pos_site_id
 _symmetry_equiv_pos_as_xyz
  1  'x, y, z'
loop_
 _atom_site_type_symbol
 _atom_site_label
 _atom_site_symmetry_multiplicity
 _atom_site_fract_x
 _atom_site_fract_y
 _atom_site_fract_z
 _atom_site_occupancy
 _atom_site_charge
  Yb  Yb1  1  0.808090  0.858780  0.594850  1.0  1.577
  Yb  Yb2  1  0.191910  0.141220  0.094850  1.0  1.5775
  Yb  Yb3  1  0.191910  0.141220  0.405150  1.0  1.5772
  Yb  Yb4  1  0.808090  0.858780  0.905150  1.0  1.5767
  H  H5  1  0.069200  0.514300  0.623900  1.0  0.1027
  H  H6  1  0.194200  0.381800  0.578000  1.0  0.1024
  H  H7  1  0.538100  0.019100  0.704200  1.0  0.1033
  H  H8  1  0.930800  0.485700  0.123900  1.0  0.1027
  H  H9  1  0.805800  0.618200  0.078000  1.0  0.1031
  H  H10  1  0.461900  0.980900  0.204200  1.0  0.1041
  H  H11  1  0.930800  0.485700  0.376100  1.0  0.1036
  H  H12  1  0.805800  0.618200  0.422000  1.0  0.1042
  H  H13  1  0.461900  0.980900  0.295800  1.0  0.1031
  H  H14  1  0.069200  0.514300  0.876100  1.0  0.1034
  H  H15  1  0.194200  0.381800  0.922000  1.0  0.1038
  H  H16  1  0.538100  0.019100  0.795800  1.0  0.1031
  Ru  Ru17  1  0.387860  0.164430  0.610990  1.0  -0.0753
  Ru  Ru18  1  0.612140  0.835570  0.110990  1.0  -0.0766
  Ru  Ru19  1  0.612140  0.835570  0.389010  1.0  -0.0769
  Ru  Ru20  1  0.387860  0.164430  0.889010  1.0  -0.075
  Ru  Ru21  1  0.011550  0.572900  0.750000  1.0  -0.1185
  Ru  Ru22  1  0.988450  0.427100  0.250000  1.0  -0.1179
  C  C23  1  0.263900  0.304300  0.693900  1.0  0.1281
  C  C24  1  0.189500  0.384900  0.721600  1.0  0.1239
  C  C25  1  0.118900  0.461400  0.643200  1.0  0.1222
  C  C26  1  0.194200  0.379600  0.615000  1.0  0.112
  C  C27  1  0.486300  0.072600  0.722100  1.0  0.1231
  C  C28  1  0.343200  0.222400  0.722300  1.0  0.1347
  C  C29  1  0.192300  0.032600  0.613200  1.0  0.204
  C  C30  1  0.513300  0.038600  0.596400  1.0  0.1286
  C  C31  1  0.657800  0.813900  0.465800  1.0  0.2324
  C  C32  1  0.589500  0.290600  0.600200  1.0  0.1117
  C  C33  1  0.926200  0.666900  0.693300  1.0  0.26
  C  C34  1  0.736100  0.695700  0.193900  1.0  0.1291
  C  C35  1  0.810500  0.615100  0.221600  1.0  0.1257
  C  C36  1  0.881100  0.538600  0.143200  1.0  0.1173
  C  C37  1  0.805800  0.620400  0.115000  1.0  0.1141
  C  C38  1  0.513700  0.927400  0.222100  1.0  0.1245
  C  C39  1  0.656800  0.777600  0.222300  1.0  0.1325
  C  C40  1  0.807700  0.967400  0.113200  1.0  0.2011
  C  C41  1  0.486700  0.961400  0.096400  1.0  0.1319
  C  C42  1  0.342200  0.186100  0.965800  1.0  0.2294
  C  C43  1  0.410500  0.709400  0.100200  1.0  0.1139
  C  C44  1  0.073800  0.333100  0.193300  1.0  0.2559
  C  C45  1  0.736100  0.695700  0.306100  1.0  0.1288
  C  C46  1  0.810500  0.615100  0.278400  1.0  0.1309
  C  C47  1  0.881100  0.538600  0.356800  1.0  0.1163
  C  C48  1  0.805800  0.620400  0.385000  1.0  0.1142
  C  C49  1  0.513700  0.927400  0.277900  1.0  0.1253
  C  C50  1  0.656800  0.777600  0.277700  1.0  0.1324
  C  C51  1  0.807700  0.967400  0.386800  1.0  0.2001
  C  C52  1  0.486700  0.961400  0.403600  1.0  0.1301
  C  C53  1  0.342200  0.186100  0.534200  1.0  0.2321
  C  C54  1  0.410500  0.709400  0.399800  1.0  0.1127
  C  C55  1  0.073800  0.333100  0.306700  1.0  0.2605
  C  C56  1  0.263900  0.304300  0.806100  1.0  0.1286
  C  C57  1  0.189500  0.384900  0.778400  1.0  0.1265
  C  C58  1  0.118900  0.461400  0.856800  1.0  0.1226
  C  C59  1  0.194200  0.379600  0.885000  1.0  0.1106
  C  C60  1  0.486300  0.072600  0.777900  1.0  0.1246
  C  C61  1  0.343200  0.222400  0.777700  1.0  0.1356
  C  C62  1  0.192300  0.032600  0.886800  1.0  0.2025
  C  C63  1  0.513300  0.038600  0.903600  1.0  0.1471
  C  C64  1  0.657800  0.813900  0.034200  1.0  0.2327
  C  C65  1  0.589500  0.290600  0.899800  1.0  0.1109
  C  C66  1  0.926200  0.666900  0.806700  1.0  0.2878
  C  C67  1  0.820100  0.438100  0.750000  1.0  0.1531
  C  C68  1  0.201600  0.708200  0.750000  1.0  0.1505
  C  C69  1  0.179900  0.561900  0.250000  1.0  0.1514
  C  C70  1  0.798400  0.291800  0.250000  1.0  0.15
  N  N71  1  0.265400  0.299000  0.639600  1.0  -0.2097
  N  N72  1  0.115800  0.466000  0.695500  1.0  -0.1721
  N  N73  1  0.414200  0.147200  0.693900  1.0  -0.2221
  N  N74  1  0.079500  0.953900  0.612000  1.0  -0.5336
  N  N75  1  0.592400  0.965700  0.591300  1.0  -0.526
  N  N76  1  0.686400  0.803800  0.510000  1.0  -0.4787
  N  N77  1  0.705700  0.357400  0.590100  1.0  -0.4623
  N  N78  1  0.881800  0.719900  0.659200  1.0  -0.5471
  N  N79  1  0.734600  0.701000  0.139600  1.0  -0.2095
  N  N80  1  0.884200  0.534000  0.195500  1.0  -0.1755
  N  N81  1  0.585800  0.852800  0.193900  1.0  -0.2215
  N  N82  1  0.920500  0.046100  0.112000  1.0  -0.541
  N  N83  1  0.407600  0.034300  0.091300  1.0  -0.5265
  N  N84  1  0.313600  0.196200  0.010000  1.0  -0.4794
  N  N85  1  0.294300  0.642600  0.090100  1.0  -0.4613
  N  N86  1  0.118200  0.280100  0.159200  1.0  -0.5484
  N  N87  1  0.734600  0.701000  0.360400  1.0  -0.2095
  N  N88  1  0.884200  0.534000  0.304500  1.0  -0.175
  N  N89  1  0.585800  0.852800  0.306100  1.0  -0.2226
  N  N90  1  0.920500  0.046100  0.388000  1.0  -0.5411
  N  N91  1  0.407600  0.034300  0.408700  1.0  -0.5278
  N  N92  1  0.313600  0.196200  0.490000  1.0  -0.4795
  N  N93  1  0.294300  0.642600  0.409900  1.0  -0.4613
  N  N94  1  0.118200  0.280100  0.340800  1.0  -0.5456
  N  N95  1  0.265400  0.299000  0.860400  1.0  -0.2088
  N  N96  1  0.115800  0.466000  0.804500  1.0  -0.1724
  N  N97  1  0.414200  0.147200  0.806100  1.0  -0.2206
  N  N98  1  0.079500  0.953900  0.888000  1.0  -0.5331
  N  N99  1  0.592400  0.965700  0.908700  1.0  -0.5266
  N  N100  1  0.686400  0.803800  0.990000  1.0  -0.4793
  N  N101  1  0.705700  0.357400  0.909900  1.0  -0.463
  N  N102  1  0.881800  0.719900  0.840800  1.0  -0.5454
  N  N103  1  0.712900  0.357900  0.750000  1.0  -0.4346
  N  N104  1  0.310000  0.791500  0.750000  1.0  -0.4434
  N  N105  1  0.287100  0.642100  0.250000  1.0  -0.4363
  N  N106  1  0.690000  0.208500  0.250000  1.0  -0.4412
