# generated using pymatgen
data_EuH9C18(NO2)3
_symmetry_space_group_name_H-M   'P 1'
_cell_length_a   12.39000000
_cell_length_b   13.79500000
_cell_length_c   13.83000000
_cell_angle_alpha   115.76900000
_cell_angle_beta   93.91400000
_cell_angle_gamma   106.91800000
_symmetry_Int_Tables_number   1
_chemical_formula_structural   EuH9C18(NO2)3
_chemical_formula_sum   'Eu2 H18 C36 N6 O12'
_cell_volume   1983.90165821
_cell_formula_units_Z   2
loop_
 _symmetry_equiv_pos_site_id
 _symmetry_equiv_pos_as_xyz
  1  'x, y, z'
loop_
 _atom_site_type_symbol
 _atom_site_label
 _atom_site_symmetry_multiplicity
 _atom_site_fract_x
 _atom_site_fract_y
 _atom_site_fract_z
 _atom_site_occupancy
 _atom_site_charge
  Eu  Eu1  1  0.673930  0.525360  0.532120  1.0  2.1312
  Eu  Eu2  1  0.326070  0.474640  0.467880  1.0  2.1301
  H  H3  1  0.569200  0.173000  0.505500  1.0  0.126
  H  H4  1  0.196400  0.921200  0.362000  1.0  0.0775
  H  H5  1  0.243900  0.094800  0.359800  1.0  0.1185
  H  H6  1  0.691500  0.594600  0.328000  1.0  0.1195
  H  H7  1  0.781800  0.647300  0.206600  1.0  0.0992
  H  H8  1  0.389100  0.440900  0.101500  1.0  0.1262
  H  H9  1  0.033000  0.900100  0.759600  1.0  0.1318
  H  H10  1  0.133500  0.079700  0.785000  1.0  0.096
  H  H11  1  0.893500  0.815700  0.450700  1.0  0.1197
  H  H12  1  0.430800  0.827000  0.494500  1.0  0.1264
  H  H13  1  0.803600  0.078800  0.638000  1.0  0.0786
  H  H14  1  0.756100  0.905200  0.640200  1.0  0.1187
  H  H15  1  0.308500  0.405400  0.672000  1.0  0.1191
  H  H16  1  0.218200  0.352700  0.793400  1.0  0.0994
  H  H17  1  0.610900  0.559100  0.898500  1.0  0.1262
  H  H18  1  0.967000  0.099900  0.240400  1.0  0.1324
  H  H19  1  0.866500  0.920300  0.215000  1.0  0.0947
  H  H20  1  0.106500  0.184300  0.549300  1.0  0.1202
  C  C21  1  0.445900  0.270600  0.439100  1.0  0.767
  C  C22  1  0.411500  0.153700  0.434700  1.0  -0.1361
  C  C23  1  0.492400  0.123300  0.476900  1.0  -0.0107
  C  C24  1  0.458000  0.017500  0.476200  1.0  0.1851
  C  C25  1  0.272500  0.972500  0.392000  1.0  0.2003
  C  C26  1  0.300000  0.077400  0.390300  1.0  -0.0969
  C  C27  1  0.466400  0.483000  0.306300  1.0  0.7569
  C  C28  1  0.529800  0.513400  0.228500  1.0  -0.1551
  C  C29  1  0.648800  0.574800  0.259900  1.0  -0.0973
  C  C30  1  0.702600  0.605900  0.185800  1.0  0.1523
  C  C31  1  0.529600  0.514800  0.055700  1.0  0.146
  C  C32  1  0.468300  0.482200  0.124300  1.0  0.014
  C  C33  1  0.872000  0.721300  0.582200  1.0  0.7176
  C  C34  1  0.949200  0.837200  0.601800  1.0  -0.1392
  C  C35  1  0.024000  0.918200  0.702800  1.0  -0.1599
  C  C36  1  0.084400  0.025600  0.716700  1.0  0.1714
  C  C37  1  0.005100  0.980500  0.542500  1.0  0.1419
  C  C38  1  0.941100  0.868700  0.520100  1.0  -0.0406
  C  C39  1  0.554100  0.729400  0.560900  1.0  0.7651
  C  C40  1  0.588500  0.846300  0.565300  1.0  -0.1355
  C  C41  1  0.507600  0.876700  0.523100  1.0  -0.0106
  C  C42  1  0.542000  0.982500  0.523800  1.0  0.1846
  C  C43  1  0.727500  0.027500  0.608000  1.0  0.2003
  C  C44  1  0.700000  0.922600  0.609700  1.0  -0.0995
  C  C45  1  0.533600  0.517000  0.693700  1.0  0.7573
  C  C46  1  0.470200  0.486600  0.771500  1.0  -0.1561
  C  C47  1  0.351200  0.425200  0.740100  1.0  -0.0984
  C  C48  1  0.297400  0.394100  0.814200  1.0  0.1494
  C  C49  1  0.470400  0.485200  0.944300  1.0  0.1474
  C  C50  1  0.531700  0.517800  0.875700  1.0  0.0137
  C  C51  1  0.128000  0.278700  0.417800  1.0  0.7198
  C  C52  1  0.050800  0.162800  0.398200  1.0  -0.1342
  C  C53  1  0.976000  0.081800  0.297200  1.0  -0.1593
  C  C54  1  0.915600  0.974400  0.283300  1.0  0.171
  C  C55  1  0.994900  0.019500  0.457500  1.0  0.1428
  C  C56  1  0.058900  0.131300  0.479900  1.0  -0.0417
  N  N57  1  0.347500  0.941700  0.433300  1.0  -0.4392
  N  N58  1  0.644100  0.578200  0.086100  1.0  -0.4357
  N  N59  1  0.077800  0.058200  0.639400  1.0  -0.3975
  N  N60  1  0.652500  0.058300  0.566700  1.0  -0.4418
  N  N61  1  0.355900  0.421800  0.913900  1.0  -0.4305
  N  N62  1  0.922200  0.941800  0.360600  1.0  -0.3987
  O  O63  1  0.552500  0.331600  0.476100  1.0  -0.7906
  O  O64  1  0.367400  0.297700  0.409400  1.0  -0.6983
  O  O65  1  0.526300  0.494900  0.391100  1.0  -0.8333
  O  O66  1  0.359500  0.450600  0.286300  1.0  -0.656
  O  O67  1  0.859300  0.700100  0.660200  1.0  -0.6557
  O  O68  1  0.817600  0.648500  0.484600  1.0  -0.6551
  O  O69  1  0.447500  0.668400  0.523900  1.0  -0.7938
  O  O70  1  0.632600  0.702300  0.590600  1.0  -0.6975
  O  O71  1  0.473700  0.505100  0.608900  1.0  -0.8319
  O  O72  1  0.640500  0.549400  0.713700  1.0  -0.6574
  O  O73  1  0.140700  0.299900  0.339800  1.0  -0.6548
  O  O74  1  0.182400  0.351500  0.515400  1.0  -0.6563
