# generated using pymatgen
data_Zn3H18C23SN3O10
_symmetry_space_group_name_H-M   'P 1'
_cell_length_a   23.14510000
_cell_length_b   27.39760000
_cell_length_c   10.54820000
_cell_angle_alpha   90.00000000
_cell_angle_beta   90.00000000
_cell_angle_gamma   90.00000000
_symmetry_Int_Tables_number   1
_chemical_formula_structural   Zn3H18C23SN3O10
_chemical_formula_sum   'Zn24 H144 C184 S8 N24 O80'
_cell_volume   6688.82660672
_cell_formula_units_Z   8
loop_
 _symmetry_equiv_pos_site_id
 _symmetry_equiv_pos_as_xyz
  1  'x, y, z'
loop_
 _atom_site_type_symbol
 _atom_site_label
 _atom_site_symmetry_multiplicity
 _atom_site_fract_x
 _atom_site_fract_y
 _atom_site_fract_z
 _atom_site_occupancy
 _atom_site_charge
  Zn  Zn1  1  0.804280  0.958550  0.586790  1.0  0.9642
  Zn  Zn2  1  0.730620  0.041520  0.437580  1.0  0.9733
  Zn  Zn3  1  0.770870  0.044110  0.757090  1.0  0.9384
  Zn  Zn4  1  0.695720  0.041450  0.086790  1.0  0.9627
  Zn  Zn5  1  0.769380  0.958480  0.937580  1.0  0.9728
  Zn  Zn6  1  0.729130  0.955890  0.257090  1.0  0.938
  Zn  Zn7  1  0.195720  0.458550  0.413210  1.0  0.9607
  Zn  Zn8  1  0.269380  0.541520  0.562420  1.0  0.973
  Zn  Zn9  1  0.229130  0.544110  0.242910  1.0  0.9376
  Zn  Zn10  1  0.304280  0.541450  0.913210  1.0  0.9619
  Zn  Zn11  1  0.230620  0.458480  0.062420  1.0  0.9732
  Zn  Zn12  1  0.270870  0.455890  0.742910  1.0  0.939
  Zn  Zn13  1  0.195720  0.041450  0.413210  1.0  0.9624
  Zn  Zn14  1  0.269380  0.958480  0.562420  1.0  0.9729
  Zn  Zn15  1  0.229130  0.955890  0.242910  1.0  0.937
  Zn  Zn16  1  0.304280  0.958550  0.913210  1.0  0.9627
  Zn  Zn17  1  0.230620  0.041520  0.062420  1.0  0.9733
  Zn  Zn18  1  0.270870  0.044110  0.742910  1.0  0.9392
  Zn  Zn19  1  0.804280  0.541450  0.586790  1.0  0.9655
  Zn  Zn20  1  0.730620  0.458480  0.437580  1.0  0.9732
  Zn  Zn21  1  0.770870  0.455890  0.757090  1.0  0.9379
  Zn  Zn22  1  0.695720  0.458550  0.086790  1.0  0.9629
  Zn  Zn23  1  0.769380  0.541520  0.937580  1.0  0.973
  Zn  Zn24  1  0.729130  0.544110  0.257090  1.0  0.9381
  H  H25  1  0.704000  0.951000  0.495000  1.0  0.3994
  H  H26  1  0.043800  0.083100  0.950700  1.0  0.11
  H  H27  1  0.982000  0.949000  0.720700  1.0  0.1047
  H  H28  1  0.812400  0.129900  0.439200  1.0  0.088
  H  H29  1  0.847100  0.129000  0.791700  1.0  0.0889
  H  H30  1  0.947300  0.074300  0.900500  1.0  0.1049
  H  H31  1  0.891300  0.872100  0.584200  1.0  0.0939
  H  H32  1  0.644600  0.127800  0.412000  1.0  0.0874
  H  H33  1  0.641300  0.212200  0.408200  1.0  0.1304
  H  H34  1  0.720800  0.787300  0.605600  1.0  0.133
  H  H35  1  0.814000  0.213300  0.442500  1.0  0.1295
  H  H36  1  0.680300  0.129000  0.745900  1.0  0.0899
  H  H37  1  0.894900  0.788500  0.579100  1.0  0.1326
  H  H38  1  0.722800  0.870400  0.607100  1.0  0.0814
  H  H39  1  0.848700  0.212300  0.799800  1.0  0.1266
  H  H40  1  0.677900  0.212600  0.747300  1.0  0.1266
  H  H41  1  0.786510  0.469090  0.253700  1.0  0.3044
  H  H42  1  0.835010  0.462070  0.568000  1.0  0.2982
  H  H43  1  0.796000  0.049000  0.995000  1.0  0.3972
  H  H44  1  0.456200  0.916900  0.450700  1.0  0.1098
  H  H45  1  0.518000  0.051000  0.220700  1.0  0.105
  H  H46  1  0.687600  0.870100  0.939200  1.0  0.0871
  H  H47  1  0.652900  0.871000  0.291700  1.0  0.0883
  H  H48  1  0.552700  0.925700  0.400500  1.0  0.1047
  H  H49  1  0.608700  0.127900  0.084200  1.0  0.0948
  H  H50  1  0.855400  0.872200  0.912000  1.0  0.0872
  H  H51  1  0.858700  0.787800  0.908200  1.0  0.1296
  H  H52  1  0.779200  0.212700  0.105600  1.0  0.1332
  H  H53  1  0.686000  0.786700  0.942500  1.0  0.1303
  H  H54  1  0.819700  0.871000  0.245900  1.0  0.0898
  H  H55  1  0.605100  0.211500  0.079100  1.0  0.1332
  H  H56  1  0.777200  0.129600  0.107100  1.0  0.0818
  H  H57  1  0.651300  0.787700  0.299800  1.0  0.1268
  H  H58  1  0.822100  0.787400  0.247300  1.0  0.126
  H  H59  1  0.713490  0.530910  0.753700  1.0  0.3058
  H  H60  1  0.664990  0.537930  0.068000  1.0  0.297
  H  H61  1  0.296000  0.451000  0.505000  1.0  0.3983
  H  H62  1  0.956200  0.583100  0.049300  1.0  0.1099
  H  H63  1  0.018000  0.449000  0.279300  1.0  0.1047
  H  H64  1  0.187600  0.629900  0.560800  1.0  0.0876
  H  H65  1  0.152900  0.629000  0.208300  1.0  0.0883
  H  H66  1  0.052700  0.574300  0.099500  1.0  0.1046
  H  H67  1  0.108700  0.372100  0.415800  1.0  0.0946
  H  H68  1  0.355400  0.627800  0.588000  1.0  0.0873
  H  H69  1  0.358700  0.712200  0.591800  1.0  0.13
  H  H70  1  0.279200  0.287300  0.394400  1.0  0.1337
  H  H71  1  0.186000  0.713300  0.557500  1.0  0.1306
  H  H72  1  0.319700  0.629000  0.254100  1.0  0.0896
  H  H73  1  0.105100  0.288500  0.420900  1.0  0.1335
  H  H74  1  0.277200  0.370400  0.392900  1.0  0.0819
  H  H75  1  0.151300  0.712300  0.200200  1.0  0.1268
  H  H76  1  0.322100  0.712600  0.252700  1.0  0.1255
  H  H77  1  0.213490  0.969090  0.746300  1.0  0.3055
  H  H78  1  0.164990  0.962070  0.432000  1.0  0.2972
  H  H79  1  0.204000  0.549000  0.005000  1.0  0.3986
  H  H80  1  0.543800  0.416900  0.549300  1.0  0.11
  H  H81  1  0.482000  0.551000  0.779300  1.0  0.1047
  H  H82  1  0.312400  0.370100  0.060800  1.0  0.0879
  H  H83  1  0.347100  0.371000  0.708300  1.0  0.0893
  H  H84  1  0.447300  0.425700  0.599500  1.0  0.1051
  H  H85  1  0.391300  0.627900  0.915800  1.0  0.0942
  H  H86  1  0.144600  0.372200  0.088000  1.0  0.0872
  H  H87  1  0.141300  0.287800  0.091800  1.0  0.1308
  H  H88  1  0.220800  0.712700  0.894400  1.0  0.1336
  H  H89  1  0.314000  0.286700  0.057500  1.0  0.1296
  H  H90  1  0.180300  0.371000  0.754100  1.0  0.0905
  H  H91  1  0.394900  0.711500  0.920900  1.0  0.1324
  H  H92  1  0.222800  0.629600  0.892900  1.0  0.0816
  H  H93  1  0.348700  0.287700  0.700200  1.0  0.1267
  H  H94  1  0.177900  0.287400  0.752700  1.0  0.1266
  H  H95  1  0.286510  0.030910  0.246300  1.0  0.3041
  H  H96  1  0.335010  0.037930  0.932000  1.0  0.2983
  H  H97  1  0.296000  0.049000  0.505000  1.0  0.397
  H  H98  1  0.956200  0.916900  0.049300  1.0  0.1099
  H  H99  1  0.018000  0.051000  0.279300  1.0  0.1045
  H  H100  1  0.187600  0.870100  0.560800  1.0  0.0873
  H  H101  1  0.152900  0.871000  0.208300  1.0  0.0883
  H  H102  1  0.052700  0.925700  0.099500  1.0  0.1045
  H  H103  1  0.108700  0.127900  0.415800  1.0  0.0951
  H  H104  1  0.355400  0.872200  0.588000  1.0  0.0869
  H  H105  1  0.358700  0.787800  0.591800  1.0  0.1301
  H  H106  1  0.279200  0.212700  0.394400  1.0  0.1337
  H  H107  1  0.186000  0.786700  0.557500  1.0  0.1304
  H  H108  1  0.319700  0.871000  0.254100  1.0  0.0898
  H  H109  1  0.105100  0.211500  0.420900  1.0  0.1333
  H  H110  1  0.277200  0.129600  0.392900  1.0  0.0819
  H  H111  1  0.151300  0.787700  0.200200  1.0  0.1266
  H  H112  1  0.322100  0.787400  0.252700  1.0  0.1258
  H  H113  1  0.213490  0.530910  0.746300  1.0  0.3056
  H  H114  1  0.164990  0.537930  0.432000  1.0  0.2971
  H  H115  1  0.204000  0.951000  0.005000  1.0  0.3992
  H  H116  1  0.543800  0.083100  0.549300  1.0  0.11
  H  H117  1  0.482000  0.949000  0.779300  1.0  0.1044
  H  H118  1  0.312400  0.129900  0.060800  1.0  0.0881
  H  H119  1  0.347100  0.129000  0.708300  1.0  0.089
  H  H120  1  0.447300  0.074300  0.599500  1.0  0.1052
  H  H121  1  0.391300  0.872100  0.915800  1.0  0.0941
  H  H122  1  0.144600  0.127800  0.088000  1.0  0.0874
  H  H123  1  0.141300  0.212200  0.091800  1.0  0.1307
  H  H124  1  0.220800  0.787300  0.894400  1.0  0.1333
  H  H125  1  0.314000  0.213300  0.057500  1.0  0.1297
  H  H126  1  0.180300  0.129000  0.754100  1.0  0.0898
  H  H127  1  0.394900  0.788500  0.920900  1.0  0.1324
  H  H128  1  0.222800  0.870400  0.892900  1.0  0.0815
  H  H129  1  0.348700  0.212300  0.700200  1.0  0.1269
  H  H130  1  0.177900  0.212600  0.752700  1.0  0.1263
  H  H131  1  0.286510  0.469090  0.246300  1.0  0.3041
  H  H132  1  0.335010  0.462070  0.932000  1.0  0.2985
  H  H133  1  0.704000  0.549000  0.495000  1.0  0.3986
  H  H134  1  0.043800  0.416900  0.950700  1.0  0.1099
  H  H135  1  0.982000  0.551000  0.720700  1.0  0.1054
  H  H136  1  0.812400  0.370100  0.439200  1.0  0.0877
  H  H137  1  0.847100  0.371000  0.791700  1.0  0.0891
  H  H138  1  0.947300  0.425700  0.900500  1.0  0.1052
  H  H139  1  0.891300  0.627900  0.584200  1.0  0.0939
  H  H140  1  0.644600  0.372200  0.412000  1.0  0.0872
  H  H141  1  0.641300  0.287800  0.408200  1.0  0.1304
  H  H142  1  0.720800  0.712700  0.605600  1.0  0.1331
  H  H143  1  0.814000  0.286700  0.442500  1.0  0.1293
  H  H144  1  0.680300  0.371000  0.745900  1.0  0.0902
  H  H145  1  0.894900  0.711500  0.579100  1.0  0.1325
  H  H146  1  0.722800  0.629600  0.607100  1.0  0.0815
  H  H147  1  0.848700  0.287700  0.799800  1.0  0.1269
  H  H148  1  0.677900  0.287400  0.747300  1.0  0.1267
  H  H149  1  0.786510  0.030910  0.253700  1.0  0.3044
  H  H150  1  0.835010  0.037930  0.568000  1.0  0.2985
  H  H151  1  0.796000  0.451000  0.995000  1.0  0.3986
  H  H152  1  0.456200  0.583100  0.450700  1.0  0.1097
  H  H153  1  0.518000  0.449000  0.220700  1.0  0.1048
  H  H154  1  0.687600  0.629900  0.939200  1.0  0.0876
  H  H155  1  0.652900  0.629000  0.291700  1.0  0.0884
  H  H156  1  0.552700  0.574300  0.400500  1.0  0.1044
  H  H157  1  0.608700  0.372100  0.084200  1.0  0.0945
  H  H158  1  0.855400  0.627800  0.912000  1.0  0.087
  H  H159  1  0.858700  0.712200  0.908200  1.0  0.1295
  H  H160  1  0.779200  0.287300  0.105600  1.0  0.1332
  H  H161  1  0.686000  0.713300  0.942500  1.0  0.1305
  H  H162  1  0.819700  0.629000  0.245900  1.0  0.0895
  H  H163  1  0.605100  0.288500  0.079100  1.0  0.1334
  H  H164  1  0.777200  0.370400  0.107100  1.0  0.0816
  H  H165  1  0.651300  0.712300  0.299800  1.0  0.1267
  H  H166  1  0.822100  0.712600  0.247300  1.0  0.1258
  H  H167  1  0.713490  0.969090  0.753700  1.0  0.3057
  H  H168  1  0.664990  0.962070  0.068000  1.0  0.2964
  C  C169  1  0.135300  0.033400  0.888100  1.0  0.6752
  C  C170  1  0.955400  0.011600  0.801000  1.0  -0.1489
  C  C171  1  0.052900  0.980700  0.796200  1.0  -0.2004
  C  C172  1  0.807900  0.776300  0.591700  1.0  0.0843
  C  C173  1  0.072700  0.022700  0.860600  1.0  -0.021
  C  C174  1  0.763400  0.223200  0.770500  1.0  0.0928
  C  C175  1  0.727300  0.223400  0.424600  1.0  0.0879
  C  C176  1  0.892700  0.007500  0.759000  1.0  0.6871
  C  C177  1  0.031900  0.056300  0.901800  1.0  -0.1007
  C  C178  1  0.994800  0.976500  0.766000  1.0  0.0074
  C  C179  1  0.777100  0.146700  0.434800  1.0  0.1818
  C  C180  1  0.812200  0.146000  0.781100  1.0  0.1897
  C  C181  1  0.974100  0.051000  0.872100  1.0  -0.0241
  C  C182  1  0.856400  0.854700  0.588000  1.0  0.1684
  C  C183  1  0.679500  0.145200  0.418200  1.0  0.1763
  C  C184  1  0.677100  0.196300  0.415800  1.0  -0.2066
  C  C185  1  0.756500  0.803500  0.600500  1.0  -0.1909
  C  C186  1  0.778500  0.196900  0.435100  1.0  -0.195
  C  C187  1  0.715300  0.146200  0.753800  1.0  0.1758
  C  C188  1  0.858900  0.804300  0.585300  1.0  -0.1972
  C  C189  1  0.758100  0.853600  0.601700  1.0  0.1839
  C  C190  1  0.813500  0.196200  0.785900  1.0  -0.2123
  C  C191  1  0.713500  0.196400  0.755900  1.0  -0.2046
  C  C192  1  0.364700  0.966600  0.388100  1.0  0.6736
  C  C193  1  0.544600  0.988400  0.301000  1.0  -0.1487
  C  C194  1  0.447100  0.019300  0.296200  1.0  -0.2019
  C  C195  1  0.692100  0.223700  0.091700  1.0  0.086
  C  C196  1  0.427300  0.977300  0.360600  1.0  -0.021
  C  C197  1  0.736600  0.776800  0.270500  1.0  0.0935
  C  C198  1  0.772700  0.776600  0.924600  1.0  0.0881
  C  C199  1  0.607300  0.992500  0.259000  1.0  0.6884
  C  C200  1  0.468100  0.943700  0.401800  1.0  -0.1019
  C  C201  1  0.505200  0.023500  0.266000  1.0  0.0066
  C  C202  1  0.722900  0.853300  0.934800  1.0  0.1828
  C  C203  1  0.687800  0.854000  0.281100  1.0  0.1901
  C  C204  1  0.525900  0.949000  0.372100  1.0  -0.0249
  C  C205  1  0.643600  0.145300  0.088000  1.0  0.1679
  C  C206  1  0.820500  0.854800  0.918200  1.0  0.1771
  C  C207  1  0.822900  0.803700  0.915800  1.0  -0.2058
  C  C208  1  0.743500  0.196500  0.100500  1.0  -0.1941
  C  C209  1  0.721500  0.803100  0.935100  1.0  -0.1958
  C  C210  1  0.784700  0.853800  0.253800  1.0  0.1762
  C  C211  1  0.641100  0.195700  0.085300  1.0  -0.1969
  C  C212  1  0.741900  0.146400  0.101700  1.0  0.1833
  C  C213  1  0.686500  0.803800  0.285900  1.0  -0.2113
  C  C214  1  0.786500  0.803600  0.255900  1.0  -0.2055
  C  C215  1  0.864700  0.533400  0.111900  1.0  0.6741
  C  C216  1  0.044600  0.511600  0.199000  1.0  -0.149
  C  C217  1  0.947100  0.480700  0.203800  1.0  -0.204
  C  C218  1  0.192100  0.276300  0.408300  1.0  0.0855
  C  C219  1  0.927300  0.522700  0.139400  1.0  -0.0193
  C  C220  1  0.236600  0.723200  0.229500  1.0  0.0936
  C  C221  1  0.272700  0.723400  0.575400  1.0  0.0885
  C  C222  1  0.107300  0.507500  0.241000  1.0  0.6883
  C  C223  1  0.968100  0.556300  0.098200  1.0  -0.1005
  C  C224  1  0.005200  0.476500  0.234000  1.0  0.0085
  C  C225  1  0.222900  0.646700  0.565200  1.0  0.1829
  C  C226  1  0.187800  0.646000  0.218900  1.0  0.19
  C  C227  1  0.025900  0.551000  0.127900  1.0  -0.0243
  C  C228  1  0.143600  0.354700  0.412000  1.0  0.168
  C  C229  1  0.320500  0.645200  0.581800  1.0  0.1769
  C  C230  1  0.322900  0.696300  0.584200  1.0  -0.2051
  C  C231  1  0.243500  0.303500  0.399500  1.0  -0.1943
  C  C232  1  0.221500  0.696900  0.564900  1.0  -0.1962
  C  C233  1  0.284700  0.646200  0.246200  1.0  0.1765
  C  C234  1  0.141100  0.304300  0.414700  1.0  -0.1968
  C  C235  1  0.241900  0.353600  0.398300  1.0  0.1834
  C  C236  1  0.186500  0.696200  0.214100  1.0  -0.2106
  C  C237  1  0.286500  0.696400  0.244100  1.0  -0.2056
  C  C238  1  0.635300  0.466600  0.611900  1.0  0.6751
  C  C239  1  0.455400  0.488400  0.699000  1.0  -0.1488
  C  C240  1  0.552900  0.519300  0.703800  1.0  -0.2018
  C  C241  1  0.307900  0.723700  0.908300  1.0  0.0845
  C  C242  1  0.572700  0.477300  0.639400  1.0  -0.0206
  C  C243  1  0.263400  0.276800  0.729500  1.0  0.0931
  C  C244  1  0.227300  0.276600  0.075400  1.0  0.0881
  C  C245  1  0.392700  0.492500  0.741000  1.0  0.6875
  C  C246  1  0.531900  0.443700  0.598200  1.0  -0.1009
  C  C247  1  0.494800  0.523500  0.734000  1.0  0.0077
  C  C248  1  0.277100  0.353300  0.065200  1.0  0.182
  C  C249  1  0.312200  0.354000  0.718900  1.0  0.19
  C  C250  1  0.474100  0.449000  0.627900  1.0  -0.0229
  C  C251  1  0.356400  0.645300  0.912000  1.0  0.168
  C  C252  1  0.179500  0.354800  0.081800  1.0  0.1766
  C  C253  1  0.177100  0.303700  0.084200  1.0  -0.2075
  C  C254  1  0.256500  0.696500  0.899500  1.0  -0.1908
  C  C255  1  0.278500  0.303100  0.064900  1.0  -0.1955
  C  C256  1  0.215300  0.353800  0.746200  1.0  0.1759
  C  C257  1  0.358900  0.695700  0.914700  1.0  -0.1974
  C  C258  1  0.258100  0.646400  0.898300  1.0  0.1833
  C  C259  1  0.313500  0.303800  0.714100  1.0  -0.2123
  C  C260  1  0.213500  0.303600  0.744100  1.0  -0.2048
  C  C261  1  0.864700  0.966600  0.111900  1.0  0.6736
  C  C262  1  0.044600  0.988400  0.199000  1.0  -0.149
  C  C263  1  0.947100  0.019300  0.203800  1.0  -0.2037
  C  C264  1  0.192100  0.223700  0.408300  1.0  0.0859
  C  C265  1  0.927300  0.977300  0.139400  1.0  -0.0202
  C  C266  1  0.236600  0.776800  0.229500  1.0  0.0937
  C  C267  1  0.272700  0.776600  0.575400  1.0  0.0884
  C  C268  1  0.107300  0.992500  0.241000  1.0  0.6781
  C  C269  1  0.968100  0.943700  0.098200  1.0  -0.1014
  C  C270  1  0.005200  0.023500  0.234000  1.0  0.0081
  C  C271  1  0.222900  0.853300  0.565200  1.0  0.1829
  C  C272  1  0.187800  0.854000  0.218900  1.0  0.1903
  C  C273  1  0.025900  0.949000  0.127900  1.0  -0.0241
  C  C274  1  0.143600  0.145300  0.412000  1.0  0.1682
  C  C275  1  0.320500  0.854800  0.581800  1.0  0.1774
  C  C276  1  0.322900  0.803700  0.584200  1.0  -0.2049
  C  C277  1  0.243500  0.196500  0.399500  1.0  -0.1928
  C  C278  1  0.221500  0.803100  0.564900  1.0  -0.1956
  C  C279  1  0.284700  0.853800  0.246200  1.0  0.1762
  C  C280  1  0.141100  0.195700  0.414700  1.0  -0.1971
  C  C281  1  0.241900  0.146400  0.398300  1.0  0.1832
  C  C282  1  0.186500  0.803800  0.214100  1.0  -0.2061
  C  C283  1  0.286500  0.803600  0.244100  1.0  -0.2008
  C  C284  1  0.635300  0.033400  0.611900  1.0  0.6754
  C  C285  1  0.455400  0.011600  0.699000  1.0  -0.1481
  C  C286  1  0.552900  0.980700  0.703800  1.0  -0.2019
  C  C287  1  0.307900  0.776300  0.908300  1.0  0.0843
  C  C288  1  0.572700  0.022700  0.639400  1.0  -0.0204
  C  C289  1  0.263400  0.223200  0.729500  1.0  0.093
  C  C290  1  0.227300  0.223400  0.075400  1.0  0.0882
  C  C291  1  0.392700  0.007500  0.741000  1.0  0.6778
  C  C292  1  0.531900  0.056300  0.598200  1.0  -0.0996
  C  C293  1  0.494800  0.976500  0.734000  1.0  0.0078
  C  C294  1  0.277100  0.146700  0.065200  1.0  0.1817
  C  C295  1  0.312200  0.146000  0.718900  1.0  0.1897
  C  C296  1  0.474100  0.051000  0.627900  1.0  -0.0239
  C  C297  1  0.356400  0.854700  0.912000  1.0  0.1682
  C  C298  1  0.179500  0.145200  0.081800  1.0  0.1765
  C  C299  1  0.177100  0.196300  0.084200  1.0  -0.2069
  C  C300  1  0.256500  0.803500  0.899500  1.0  -0.1897
  C  C301  1  0.278500  0.196900  0.064900  1.0  -0.1951
  C  C302  1  0.215300  0.146200  0.746200  1.0  0.1759
  C  C303  1  0.358900  0.804300  0.914700  1.0  -0.1977
  C  C304  1  0.258100  0.853600  0.898300  1.0  0.1838
  C  C305  1  0.313500  0.196200  0.714100  1.0  -0.2074
  C  C306  1  0.213500  0.196400  0.744100  1.0  -0.1996
  C  C307  1  0.135300  0.466600  0.888100  1.0  0.6749
  C  C308  1  0.955400  0.488400  0.801000  1.0  -0.1498
  C  C309  1  0.052900  0.519300  0.796200  1.0  -0.1998
  C  C310  1  0.807900  0.723700  0.591700  1.0  0.0847
  C  C311  1  0.072700  0.477300  0.860600  1.0  -0.0212
  C  C312  1  0.763400  0.276800  0.770500  1.0  0.0929
  C  C313  1  0.727300  0.276600  0.424600  1.0  0.0879
  C  C314  1  0.892700  0.492500  0.759000  1.0  0.6771
  C  C315  1  0.031900  0.443700  0.901800  1.0  -0.1015
  C  C316  1  0.994800  0.523500  0.766000  1.0  0.0062
  C  C317  1  0.777100  0.353300  0.434800  1.0  0.182
  C  C318  1  0.812200  0.354000  0.781100  1.0  0.19
  C  C319  1  0.974100  0.449000  0.872100  1.0  -0.0235
  C  C320  1  0.856400  0.645300  0.588000  1.0  0.168
  C  C321  1  0.679500  0.354800  0.418200  1.0  0.1765
  C  C322  1  0.677100  0.303700  0.415800  1.0  -0.2065
  C  C323  1  0.756500  0.696500  0.600500  1.0  -0.1894
  C  C324  1  0.778500  0.303100  0.435100  1.0  -0.195
  C  C325  1  0.715300  0.353800  0.753800  1.0  0.1759
  C  C326  1  0.858900  0.695700  0.585300  1.0  -0.1967
  C  C327  1  0.758100  0.646400  0.601700  1.0  0.1835
  C  C328  1  0.813500  0.303800  0.785900  1.0  -0.2085
  C  C329  1  0.713500  0.303600  0.755900  1.0  -0.1995
  C  C330  1  0.364700  0.533400  0.388100  1.0  0.674
  C  C331  1  0.544600  0.511600  0.301000  1.0  -0.1483
  C  C332  1  0.447100  0.480700  0.296200  1.0  -0.2028
  C  C333  1  0.692100  0.276300  0.091700  1.0  0.0855
  C  C334  1  0.427300  0.522700  0.360600  1.0  -0.0203
  C  C335  1  0.736600  0.723200  0.270500  1.0  0.0934
  C  C336  1  0.772700  0.723400  0.924600  1.0  0.0881
  C  C337  1  0.607300  0.507500  0.259000  1.0  0.6781
  C  C338  1  0.468100  0.556300  0.401800  1.0  -0.1014
  C  C339  1  0.505200  0.476500  0.266000  1.0  0.0084
  C  C340  1  0.722900  0.646700  0.934800  1.0  0.1828
  C  C341  1  0.687800  0.646000  0.281100  1.0  0.1896
  C  C342  1  0.525900  0.551000  0.372100  1.0  -0.0244
  C  C343  1  0.643600  0.354700  0.088000  1.0  0.1681
  C  C344  1  0.820500  0.645200  0.918200  1.0  0.1766
  C  C345  1  0.822900  0.696300  0.915800  1.0  -0.2046
  C  C346  1  0.743500  0.303500  0.100500  1.0  -0.1929
  C  C347  1  0.721500  0.696900  0.935100  1.0  -0.1957
  C  C348  1  0.784700  0.646200  0.253800  1.0  0.1765
  C  C349  1  0.641100  0.304300  0.085300  1.0  -0.1964
  C  C350  1  0.741900  0.353600  0.101700  1.0  0.1834
  C  C351  1  0.686500  0.696200  0.285900  1.0  -0.207
  C  C352  1  0.786500  0.696400  0.255900  1.0  -0.2006
  S  S353  1  0.099900  0.932320  0.752800  1.0  1.3629
  S  S354  1  0.400100  0.067680  0.252800  1.0  1.3639
  S  S355  1  0.900100  0.432320  0.247200  1.0  1.3659
  S  S356  1  0.599900  0.567680  0.747200  1.0  1.3634
  S  S357  1  0.900100  0.067680  0.247200  1.0  1.3644
  S  S358  1  0.599900  0.932320  0.747200  1.0  1.364
  S  S359  1  0.099900  0.567680  0.752800  1.0  1.3632
  S  S360  1  0.400100  0.432320  0.252800  1.0  1.3649
  N  N361  1  0.764600  0.120600  0.762500  1.0  -0.3038
  N  N362  1  0.806800  0.880400  0.595700  1.0  -0.3352
  N  N363  1  0.728100  0.120100  0.428500  1.0  -0.3198
  N  N364  1  0.735400  0.879400  0.262500  1.0  -0.3049
  N  N365  1  0.693200  0.119600  0.095700  1.0  -0.3354
  N  N366  1  0.771900  0.879900  0.928500  1.0  -0.3193
  N  N367  1  0.235400  0.620600  0.237500  1.0  -0.3044
  N  N368  1  0.193200  0.380400  0.404300  1.0  -0.3346
  N  N369  1  0.271900  0.620100  0.571500  1.0  -0.3198
  N  N370  1  0.264600  0.379400  0.737500  1.0  -0.3049
  N  N371  1  0.306800  0.619600  0.904300  1.0  -0.335
  N  N372  1  0.228100  0.379900  0.071500  1.0  -0.3194
  N  N373  1  0.235400  0.879400  0.237500  1.0  -0.305
  N  N374  1  0.193200  0.119600  0.404300  1.0  -0.3348
  N  N375  1  0.271900  0.879900  0.571500  1.0  -0.3194
  N  N376  1  0.264600  0.120600  0.737500  1.0  -0.3039
  N  N377  1  0.306800  0.880400  0.904300  1.0  -0.3348
  N  N378  1  0.228100  0.120100  0.071500  1.0  -0.32
  N  N379  1  0.764600  0.379400  0.762500  1.0  -0.3049
  N  N380  1  0.806800  0.619600  0.595700  1.0  -0.3352
  N  N381  1  0.728100  0.379900  0.428500  1.0  -0.3193
  N  N382  1  0.735400  0.620600  0.262500  1.0  -0.3043
  N  N383  1  0.693200  0.380400  0.095700  1.0  -0.3351
  N  N384  1  0.771900  0.620100  0.928500  1.0  -0.3197
  O  O385  1  0.791800  0.037930  0.568000  1.0  -0.8625
  O  O386  1  0.756700  0.969090  0.753700  1.0  -0.8503
  O  O387  1  0.860200  0.042530  0.790300  1.0  -0.5739
  O  O388  1  0.148600  0.037270  0.003100  1.0  -0.5769
  O  O389  1  0.168800  0.040660  0.797400  1.0  -0.6058
  O  O390  1  0.879100  0.970170  0.696100  1.0  -0.5919
  O  O391  1  0.738800  0.961600  0.452100  1.0  -0.927
  O  O392  1  0.064400  0.888500  0.754900  1.0  -0.6568
  O  O393  1  0.120500  0.942800  0.625100  1.0  -0.669
  O  O394  1  0.145700  0.931600  0.845600  1.0  -0.6029
  O  O395  1  0.708200  0.962070  0.068000  1.0  -0.8622
  O  O396  1  0.743300  0.030910  0.253700  1.0  -0.8503
  O  O397  1  0.639800  0.957470  0.290300  1.0  -0.5739
  O  O398  1  0.351400  0.962730  0.503100  1.0  -0.5766
  O  O399  1  0.331200  0.959340  0.297400  1.0  -0.6038
  O  O400  1  0.620900  0.029830  0.196100  1.0  -0.5916
  O  O401  1  0.761200  0.038400  0.952100  1.0  -0.9275
  O  O402  1  0.435600  0.111500  0.254900  1.0  -0.6585
  O  O403  1  0.379500  0.057200  0.125100  1.0  -0.6694
  O  O404  1  0.354300  0.068400  0.345600  1.0  -0.604
  O  O405  1  0.208200  0.537930  0.432000  1.0  -0.8615
  O  O406  1  0.243300  0.469090  0.246300  1.0  -0.8509
  O  O407  1  0.139800  0.542530  0.209700  1.0  -0.5749
  O  O408  1  0.851400  0.537270  0.996900  1.0  -0.5766
  O  O409  1  0.831200  0.540660  0.202600  1.0  -0.6038
  O  O410  1  0.120900  0.470170  0.303900  1.0  -0.5909
  O  O411  1  0.261200  0.461600  0.547900  1.0  -0.9275
  O  O412  1  0.935600  0.388500  0.245100  1.0  -0.6577
  O  O413  1  0.879500  0.442800  0.374900  1.0  -0.6734
  O  O414  1  0.854300  0.431600  0.154400  1.0  -0.6018
  O  O415  1  0.291800  0.462070  0.932000  1.0  -0.8623
  O  O416  1  0.256700  0.530910  0.746300  1.0  -0.8499
  O  O417  1  0.360200  0.457470  0.709700  1.0  -0.5731
  O  O418  1  0.648600  0.462730  0.496900  1.0  -0.5768
  O  O419  1  0.668800  0.459340  0.702600  1.0  -0.6038
  O  O420  1  0.379100  0.529830  0.803900  1.0  -0.5907
  O  O421  1  0.238800  0.538400  0.047900  1.0  -0.9269
  O  O422  1  0.564400  0.611500  0.745100  1.0  -0.6574
  O  O423  1  0.620500  0.557200  0.874900  1.0  -0.6712
  O  O424  1  0.645700  0.568400  0.654400  1.0  -0.6049
  O  O425  1  0.208200  0.962070  0.432000  1.0  -0.8619
  O  O426  1  0.243300  0.030910  0.246300  1.0  -0.8502
  O  O427  1  0.139800  0.957470  0.209700  1.0  -0.5748
  O  O428  1  0.851400  0.962730  0.996900  1.0  -0.5765
  O  O429  1  0.831200  0.959340  0.202600  1.0  -0.6024
  O  O430  1  0.120900  0.029830  0.303900  1.0  -0.5912
  O  O431  1  0.261200  0.038400  0.547900  1.0  -0.9274
  O  O432  1  0.935600  0.111500  0.245100  1.0  -0.6583
  O  O433  1  0.879500  0.057200  0.374900  1.0  -0.6725
  O  O434  1  0.854300  0.068400  0.154400  1.0  -0.6041
  O  O435  1  0.291800  0.037930  0.932000  1.0  -0.8618
  O  O436  1  0.256700  0.969090  0.746300  1.0  -0.8502
  O  O437  1  0.360200  0.042530  0.709700  1.0  -0.5738
  O  O438  1  0.648600  0.037270  0.496900  1.0  -0.5768
  O  O439  1  0.668800  0.040660  0.702600  1.0  -0.6057
  O  O440  1  0.379100  0.970170  0.803900  1.0  -0.591
  O  O441  1  0.238800  0.961600  0.047900  1.0  -0.9266
  O  O442  1  0.564400  0.888500  0.745100  1.0  -0.6563
  O  O443  1  0.620500  0.942800  0.874900  1.0  -0.6702
  O  O444  1  0.645700  0.931600  0.654400  1.0  -0.6026
  O  O445  1  0.791800  0.462070  0.568000  1.0  -0.8628
  O  O446  1  0.756700  0.530910  0.753700  1.0  -0.8501
  O  O447  1  0.860200  0.457470  0.790300  1.0  -0.5741
  O  O448  1  0.148600  0.462730  0.003100  1.0  -0.5768
  O  O449  1  0.168800  0.459340  0.797400  1.0  -0.6051
  O  O450  1  0.879100  0.529830  0.696100  1.0  -0.591
  O  O451  1  0.738800  0.538400  0.452100  1.0  -0.9272
  O  O452  1  0.064400  0.611500  0.754900  1.0  -0.6577
  O  O453  1  0.120500  0.557200  0.625100  1.0  -0.6688
  O  O454  1  0.145700  0.568400  0.845600  1.0  -0.6051
  O  O455  1  0.708200  0.537930  0.068000  1.0  -0.8622
  O  O456  1  0.743300  0.469090  0.253700  1.0  -0.851
  O  O457  1  0.639800  0.542530  0.290300  1.0  -0.575
  O  O458  1  0.351400  0.537270  0.503100  1.0  -0.5767
  O  O459  1  0.331200  0.540660  0.297400  1.0  -0.604
  O  O460  1  0.620900  0.470170  0.196100  1.0  -0.5916
  O  O461  1  0.761200  0.461600  0.952100  1.0  -0.9275
  O  O462  1  0.435600  0.388500  0.254900  1.0  -0.6582
  O  O463  1  0.379500  0.442800  0.125100  1.0  -0.669
  O  O464  1  0.354300  0.431600  0.345600  1.0  -0.6023
