# generated using pymatgen
data_CuH16(C6N)4
_symmetry_space_group_name_H-M   'P 1'
_cell_length_a   13.65200000
_cell_length_b   13.65200000
_cell_length_c   40.64800000
_cell_angle_alpha   90.00000000
_cell_angle_beta   90.00000000
_cell_angle_gamma   120.00000000
_symmetry_Int_Tables_number   1
_chemical_formula_structural   CuH16(C6N)4
_chemical_formula_sum   'Cu9 H144 C216 N36'
_cell_volume   6560.88420468
_cell_formula_units_Z   9
loop_
 _symmetry_equiv_pos_site_id
 _symmetry_equiv_pos_as_xyz
  1  'x, y, z'
loop_
 _atom_site_type_symbol
 _atom_site_label
 _atom_site_symmetry_multiplicity
 _atom_site_fract_x
 _atom_site_fract_y
 _atom_site_fract_z
 _atom_site_occupancy
 _atom_site_charge
  Cu  Cu1  1  0.709420  0.412370  0.429400  1.0  0.382
  Cu  Cu2  1  0.587630  0.297050  0.762730  1.0  0.3822
  Cu  Cu3  1  0.702950  0.290580  0.096070  1.0  0.3835
  Cu  Cu4  1  0.952510  0.952510  0.000000  1.0  0.5055
  Cu  Cu5  1  0.047490  0.000000  0.333333  1.0  0.5052
  Cu  Cu6  1  0.000000  0.047490  0.666667  1.0  0.5054
  Cu  Cu7  1  0.412370  0.709420  0.570600  1.0  0.3834
  Cu  Cu8  1  0.297050  0.587630  0.237270  1.0  0.3825
  Cu  Cu9  1  0.290580  0.702950  0.903930  1.0  0.3836
  H  H10  1  0.841300  0.310900  0.405000  1.0  0.0726
  H  H11  1  0.842300  0.143900  0.406500  1.0  0.0754
  H  H12  1  0.547000  0.003700  0.454500  1.0  0.1081
  H  H13  1  0.560500  0.177300  0.451900  1.0  0.0527
  H  H14  1  0.818600  0.628800  0.465300  1.0  0.0726
  H  H15  1  0.814100  0.792700  0.470000  1.0  0.1075
  H  H16  1  0.598600  0.690000  0.393100  1.0  0.1006
  H  H17  1  0.596900  0.521000  0.394600  1.0  0.0585
  H  H18  1  0.465200  0.337300  0.708700  1.0  0.0575
  H  H19  1  0.477800  0.367300  0.652500  1.0  0.1028
  H  H20  1  0.724600  0.296900  0.651200  1.0  0.0971
  H  H21  1  0.711900  0.276300  0.707200  1.0  0.0662
  H  H22  1  0.553800  0.427000  0.479200  1.0  0.0632
  H  H23  1  0.527400  0.420600  0.535400  1.0  0.0977
  H  H24  1  0.772100  0.345900  0.544900  1.0  0.0987
  H  H25  1  0.802000  0.367700  0.490400  1.0  0.0597
  H  H26  1  0.689100  0.530400  0.738330  1.0  0.0737
  H  H27  1  0.856100  0.698400  0.739830  1.0  0.0758
  H  H28  1  0.996300  0.543300  0.787830  1.0  0.1072
  H  H29  1  0.822700  0.383200  0.785230  1.0  0.054
  H  H30  1  0.371200  0.189800  0.798630  1.0  0.072
  H  H31  1  0.207300  0.021400  0.803330  1.0  0.1076
  H  H32  1  0.310000  0.908600  0.726430  1.0  0.1015
  H  H33  1  0.479000  0.075900  0.727930  1.0  0.0586
  H  H34  1  0.662700  0.127900  0.042030  1.0  0.0565
  H  H35  1  0.632700  0.110500  0.985830  1.0  0.1028
  H  H36  1  0.703100  0.427700  0.984530  1.0  0.0976
  H  H37  1  0.723700  0.435600  0.040530  1.0  0.0669
  H  H38  1  0.573000  0.126800  0.812530  1.0  0.0617
  H  H39  1  0.579400  0.106800  0.868730  1.0  0.0967
  H  H40  1  0.654100  0.426200  0.878230  1.0  0.0976
  H  H41  1  0.632300  0.434300  0.823730  1.0  0.0585
  H  H42  1  0.469600  0.158700  0.071670  1.0  0.0725
  H  H43  1  0.301600  0.157700  0.073170  1.0  0.0758
  H  H44  1  0.456700  0.453000  0.121170  1.0  0.1086
  H  H45  1  0.616800  0.439500  0.118570  1.0  0.0518
  H  H46  1  0.810200  0.181400  0.131970  1.0  0.0716
  H  H47  1  0.978600  0.185900  0.136670  1.0  0.1082
  H  H48  1  0.091400  0.401400  0.059770  1.0  0.1014
  H  H49  1  0.924100  0.403100  0.061270  1.0  0.0602
  H  H50  1  0.872100  0.534800  0.375370  1.0  0.0559
  H  H51  1  0.889500  0.522200  0.319170  1.0  0.1036
  H  H52  1  0.572300  0.275400  0.317870  1.0  0.0968
  H  H53  1  0.564400  0.288100  0.373870  1.0  0.0673
  H  H54  1  0.873200  0.446200  0.145870  1.0  0.0608
  H  H55  1  0.893200  0.472600  0.202070  1.0  0.0967
  H  H56  1  0.573800  0.227900  0.211570  1.0  0.0994
  H  H57  1  0.565700  0.198000  0.157070  1.0  0.0579
  H  H58  1  0.042700  0.193000  0.020900  1.0  0.0874
  H  H59  1  0.204200  0.363400  0.016800  1.0  0.0927
  H  H60  1  0.574100  0.662900  0.957900  1.0  0.1032
  H  H61  1  0.740300  0.837600  0.961500  1.0  0.0564
  H  H62  1  0.965100  0.106200  0.948000  1.0  0.0586
  H  H63  1  0.989400  0.131600  0.892400  1.0  0.1159
  H  H64  1  0.958100  0.823500  0.886100  1.0  0.1101
  H  H65  1  0.947300  0.815100  0.943300  1.0  0.0571
  H  H66  1  0.807000  0.849700  0.354230  1.0  0.0854
  H  H67  1  0.636600  0.840800  0.350130  1.0  0.0926
  H  H68  1  0.337100  0.911200  0.291230  1.0  0.104
  H  H69  1  0.162400  0.902700  0.294830  1.0  0.0576
  H  H70  1  0.893800  0.858900  0.281330  1.0  0.0583
  H  H71  1  0.868400  0.857800  0.225730  1.0  0.116
  H  H72  1  0.176500  0.134600  0.219430  1.0  0.1093
  H  H73  1  0.184900  0.132200  0.276630  1.0  0.0558
  H  H74  1  0.150300  0.957300  0.687570  1.0  0.0855
  H  H75  1  0.159200  0.795800  0.683470  1.0  0.0937
  H  H76  1  0.088800  0.425900  0.624570  1.0  0.1034
  H  H77  1  0.097300  0.259700  0.628170  1.0  0.0565
  H  H78  1  0.141100  0.034900  0.614670  1.0  0.0589
  H  H79  1  0.142200  0.010600  0.559070  1.0  0.1144
  H  H80  1  0.865400  0.041900  0.552770  1.0  0.1102
  H  H81  1  0.867800  0.052700  0.609970  1.0  0.0547
  H  H82  1  0.193000  0.042700  0.979100  1.0  0.0859
  H  H83  1  0.363400  0.204200  0.983200  1.0  0.0937
  H  H84  1  0.662900  0.574100  0.042100  1.0  0.1038
  H  H85  1  0.837600  0.740300  0.038500  1.0  0.0569
  H  H86  1  0.106200  0.965100  0.052000  1.0  0.0588
  H  H87  1  0.131600  0.989400  0.107600  1.0  0.1111
  H  H88  1  0.823500  0.958100  0.113900  1.0  0.1102
  H  H89  1  0.815100  0.947300  0.056700  1.0  0.0577
  H  H90  1  0.849700  0.807000  0.645770  1.0  0.0876
  H  H91  1  0.840800  0.636600  0.649870  1.0  0.0932
  H  H92  1  0.911200  0.337100  0.708770  1.0  0.1034
  H  H93  1  0.902700  0.162400  0.705170  1.0  0.0568
  H  H94  1  0.858900  0.893800  0.718670  1.0  0.058
  H  H95  1  0.857800  0.868400  0.774270  1.0  0.1146
  H  H96  1  0.134600  0.176500  0.780570  1.0  0.1106
  H  H97  1  0.132200  0.184900  0.723370  1.0  0.0581
  H  H98  1  0.957300  0.150300  0.312430  1.0  0.085
  H  H99  1  0.795800  0.159200  0.316530  1.0  0.0929
  H  H100  1  0.425900  0.088800  0.375430  1.0  0.104
  H  H101  1  0.259700  0.097300  0.371830  1.0  0.0572
  H  H102  1  0.034900  0.141100  0.385330  1.0  0.0577
  H  H103  1  0.010600  0.142200  0.440930  1.0  0.1107
  H  H104  1  0.041900  0.865400  0.447230  1.0  0.1088
  H  H105  1  0.052700  0.867800  0.390030  1.0  0.0583
  H  H106  1  0.310900  0.841300  0.595000  1.0  0.0716
  H  H107  1  0.143900  0.842300  0.593500  1.0  0.0756
  H  H108  1  0.003700  0.547000  0.545500  1.0  0.1081
  H  H109  1  0.177300  0.560500  0.548100  1.0  0.0518
  H  H110  1  0.628800  0.818600  0.534700  1.0  0.0723
  H  H111  1  0.792700  0.814100  0.530000  1.0  0.1077
  H  H112  1  0.690000  0.598600  0.606900  1.0  0.1016
  H  H113  1  0.521000  0.596900  0.605400  1.0  0.0596
  H  H114  1  0.337300  0.465200  0.291300  1.0  0.0588
  H  H115  1  0.367300  0.477800  0.347500  1.0  0.1023
  H  H116  1  0.296900  0.724600  0.348800  1.0  0.0967
  H  H117  1  0.276300  0.711900  0.292800  1.0  0.0679
  H  H118  1  0.427000  0.553800  0.520800  1.0  0.0616
  H  H119  1  0.420600  0.527400  0.464600  1.0  0.0984
  H  H120  1  0.345900  0.772100  0.455100  1.0  0.1009
  H  H121  1  0.367700  0.802000  0.509600  1.0  0.0588
  H  H122  1  0.530400  0.689100  0.261670  1.0  0.0725
  H  H123  1  0.698400  0.856100  0.260170  1.0  0.0746
  H  H124  1  0.543300  0.996300  0.212170  1.0  0.1079
  H  H125  1  0.383200  0.822700  0.214770  1.0  0.0552
  H  H126  1  0.189800  0.371200  0.201370  1.0  0.0724
  H  H127  1  0.021400  0.207300  0.196670  1.0  0.1074
  H  H128  1  0.908600  0.310000  0.273570  1.0  0.101
  H  H129  1  0.075900  0.479000  0.272070  1.0  0.0589
  H  H130  1  0.127900  0.662700  0.957970  1.0  0.0599
  H  H131  1  0.110500  0.632700  0.014170  1.0  0.1023
  H  H132  1  0.427700  0.703100  0.015470  1.0  0.0972
  H  H133  1  0.435600  0.723700  0.959470  1.0  0.0665
  H  H134  1  0.126800  0.573000  0.187470  1.0  0.0617
  H  H135  1  0.106800  0.579400  0.131270  1.0  0.0995
  H  H136  1  0.426200  0.654100  0.121770  1.0  0.1006
  H  H137  1  0.434300  0.632300  0.176270  1.0  0.0575
  H  H138  1  0.158700  0.469600  0.928330  1.0  0.0732
  H  H139  1  0.157700  0.301600  0.926830  1.0  0.076
  H  H140  1  0.453000  0.456700  0.878830  1.0  0.1074
  H  H141  1  0.439500  0.616800  0.881430  1.0  0.0536
  H  H142  1  0.181400  0.810200  0.868030  1.0  0.0712
  H  H143  1  0.185900  0.978600  0.863330  1.0  0.1072
  H  H144  1  0.401400  0.091400  0.940230  1.0  0.1016
  H  H145  1  0.403100  0.924100  0.938730  1.0  0.0594
  H  H146  1  0.534800  0.872100  0.624630  1.0  0.0577
  H  H147  1  0.522200  0.889500  0.680830  1.0  0.103
  H  H148  1  0.275400  0.572300  0.682130  1.0  0.0974
  H  H149  1  0.288100  0.564400  0.626130  1.0  0.0669
  H  H150  1  0.446200  0.873200  0.854130  1.0  0.0608
  H  H151  1  0.472600  0.893200  0.797930  1.0  0.0992
  H  H152  1  0.227900  0.573800  0.788430  1.0  0.099
  H  H153  1  0.198000  0.565700  0.842930  1.0  0.0564
  C  C154  1  0.782300  0.248600  0.415400  1.0  0.1021
  C  C155  1  0.782600  0.147800  0.416200  1.0  -0.1497
  C  C156  1  0.697100  0.053100  0.431000  1.0  -0.0215
  C  C157  1  0.609100  0.064400  0.444600  1.0  -0.2021
  C  C158  1  0.618600  0.169800  0.442500  1.0  0.1606
  C  C159  1  0.696000  0.946100  0.431700  1.0  0.0269
  C  C160  1  0.771700  0.640800  0.451300  1.0  0.146
  C  C161  1  0.770300  0.739100  0.454300  1.0  -0.2286
  C  C162  1  0.700100  0.756800  0.432600  1.0  -0.0163
  C  C163  1  0.640200  0.677200  0.408900  1.0  -0.2539
  C  C164  1  0.643400  0.577900  0.409200  1.0  0.1503
  C  C165  1  0.695700  0.858900  0.432500  1.0  0.016
  C  C166  1  0.519800  0.330200  0.697000  1.0  0.1444
  C  C167  1  0.525400  0.346700  0.663000  1.0  -0.1839
  C  C168  1  0.600900  0.332100  0.645800  1.0  0.0168
  C  C169  1  0.670700  0.306300  0.662500  1.0  -0.1382
  C  C170  1  0.662800  0.293700  0.696200  1.0  0.1012
  C  C171  1  0.625500  0.363600  0.581400  1.0  -0.0176
  C  C172  1  0.599500  0.411800  0.492800  1.0  0.1347
  C  C173  1  0.581500  0.405800  0.526500  1.0  -0.1811
  C  C174  1  0.644200  0.377700  0.546700  1.0  -0.0134
  C  C175  1  0.726800  0.363700  0.532000  1.0  -0.2148
  C  C176  1  0.743300  0.375200  0.499300  1.0  0.138
  C  C177  1  0.611500  0.348400  0.610900  1.0  -0.0443
  C  C178  1  0.751400  0.533700  0.748730  1.0  0.1024
  C  C179  1  0.852200  0.634800  0.749530  1.0  -0.1481
  C  C180  1  0.946900  0.644000  0.764330  1.0  -0.0261
  C  C181  1  0.935600  0.544700  0.777930  1.0  -0.2014
  C  C182  1  0.830200  0.448800  0.775830  1.0  0.164
  C  C183  1  0.053900  0.749900  0.765030  1.0  0.0285
  C  C184  1  0.359200  0.130900  0.784630  1.0  0.1429
  C  C185  1  0.260900  0.031200  0.787630  1.0  -0.2259
  C  C186  1  0.243200  0.943300  0.765930  1.0  -0.0159
  C  C187  1  0.322800  0.963000  0.742230  1.0  -0.2544
  C  C188  1  0.422100  0.065500  0.742530  1.0  0.152
  C  C189  1  0.141100  0.836800  0.765830  1.0  0.0149
  C  C190  1  0.669800  0.189600  0.030330  1.0  0.1415
  C  C191  1  0.653300  0.178700  0.996330  1.0  -0.1836
  C  C192  1  0.667900  0.268800  0.979130  1.0  0.0128
  C  C193  1  0.693700  0.364400  0.995830  1.0  -0.1471
  C  C194  1  0.706300  0.369100  0.029530  1.0  0.096
  C  C195  1  0.636400  0.261900  0.914730  1.0  -0.0171
  C  C196  1  0.588200  0.187700  0.826130  1.0  0.1321
  C  C197  1  0.594200  0.175700  0.859830  1.0  -0.1811
  C  C198  1  0.622300  0.266500  0.880030  1.0  -0.0178
  C  C199  1  0.636300  0.363100  0.865330  1.0  -0.2159
  C  C200  1  0.624800  0.368100  0.832630  1.0  0.1388
  C  C201  1  0.651600  0.263100  0.944230  1.0  -0.0406
  C  C202  1  0.466300  0.217700  0.082070  1.0  0.1019
  C  C203  1  0.365200  0.217400  0.082870  1.0  -0.1498
  C  C204  1  0.356000  0.302900  0.097670  1.0  -0.0197
  C  C205  1  0.455300  0.390900  0.111270  1.0  -0.2013
  C  C206  1  0.551200  0.381400  0.109170  1.0  0.1607
  C  C207  1  0.250100  0.304000  0.098370  1.0  0.0297
  C  C208  1  0.869100  0.228300  0.117970  1.0  0.1469
  C  C209  1  0.968800  0.229700  0.120970  1.0  -0.2264
  C  C210  1  0.056700  0.299900  0.099270  1.0  -0.018
  C  C211  1  0.037000  0.359800  0.075570  1.0  -0.2534
  C  C212  1  0.934500  0.356600  0.075870  1.0  0.149
  C  C213  1  0.163200  0.304300  0.099170  1.0  0.0142
  C  C214  1  0.810400  0.480200  0.363670  1.0  0.1412
  C  C215  1  0.821300  0.474600  0.329670  1.0  -0.1831
  C  C216  1  0.731200  0.399100  0.312470  1.0  0.0163
  C  C217  1  0.635600  0.329300  0.329170  1.0  -0.1384
  C  C218  1  0.630900  0.337200  0.362870  1.0  0.0986
  C  C219  1  0.738100  0.374500  0.248070  1.0  -0.0178
  C  C220  1  0.812300  0.400500  0.159470  1.0  0.1308
  C  C221  1  0.824300  0.418500  0.193170  1.0  -0.181
  C  C222  1  0.733500  0.355800  0.213370  1.0  -0.0162
  C  C223  1  0.636900  0.273200  0.198670  1.0  -0.2121
  C  C224  1  0.631900  0.256700  0.165970  1.0  0.139
  C  C225  1  0.736900  0.388500  0.277570  1.0  -0.0406
  C  C226  1  0.107200  0.197100  0.011800  1.0  0.1167
  C  C227  1  0.204400  0.298000  0.010600  1.0  -0.1044
  C  C228  1  0.624400  0.678700  0.975200  1.0  -0.2322
  C  C229  1  0.726800  0.782300  0.977100  1.0  0.1413
  C  C230  1  0.967000  0.050300  0.935500  1.0  0.1475
  C  C231  1  0.979100  0.065300  0.902000  1.0  -0.2484
  C  C232  1  0.975800  0.980200  0.882900  1.0  -0.0668
  C  C233  1  0.962200  0.883300  0.898200  1.0  -0.1812
  C  C234  1  0.954900  0.879000  0.932800  1.0  0.1487
  C  C235  1  0.985400  0.993500  0.847500  1.0  0.0039
  C  C236  1  0.802900  0.910100  0.345130  1.0  0.1156
  C  C237  1  0.702000  0.906400  0.343930  1.0  -0.11
  C  C238  1  0.321300  0.945700  0.308530  1.0  -0.2342
  C  C239  1  0.217700  0.944500  0.310430  1.0  0.1408
  C  C240  1  0.949700  0.916700  0.268830  1.0  0.1459
  C  C241  1  0.934700  0.913800  0.235330  1.0  -0.2465
  C  C242  1  0.019800  0.995600  0.216230  1.0  -0.0734
  C  C243  1  0.116700  0.078900  0.231530  1.0  -0.1783
  C  C244  1  0.121000  0.075900  0.266130  1.0  0.1486
  C  C245  1  0.006500  0.991900  0.180830  1.0  0.0027
  C  C246  1  0.089900  0.892800  0.678470  1.0  0.1178
  C  C247  1  0.093600  0.795600  0.677270  1.0  -0.1134
  C  C248  1  0.054300  0.375600  0.641870  1.0  -0.2328
  C  C249  1  0.055500  0.273200  0.643770  1.0  0.1374
  C  C250  1  0.083300  0.033000  0.602170  1.0  0.1443
  C  C251  1  0.086200  0.020900  0.568670  1.0  -0.2455
  C  C252  1  0.004400  0.024200  0.549570  1.0  -0.0684
  C  C253  1  0.921100  0.037800  0.564870  1.0  -0.1791
  C  C254  1  0.924100  0.045100  0.599470  1.0  0.1496
  C  C255  1  0.008100  0.014600  0.514170  1.0  0.0056
  C  C256  1  0.197100  0.107200  0.988200  1.0  0.1162
  C  C257  1  0.298000  0.204400  0.989400  1.0  -0.1075
  C  C258  1  0.678700  0.624400  0.024800  1.0  -0.2314
  C  C259  1  0.782300  0.726800  0.022900  1.0  0.1413
  C  C260  1  0.050300  0.967000  0.064500  1.0  0.1454
  C  C261  1  0.065300  0.979100  0.098000  1.0  -0.244
  C  C262  1  0.980200  0.975800  0.117100  1.0  -0.0704
  C  C263  1  0.883300  0.962200  0.101800  1.0  -0.178
  C  C264  1  0.879000  0.954900  0.067200  1.0  0.1501
  C  C265  1  0.993500  0.985400  0.152500  1.0  0.0068
  C  C266  1  0.910100  0.802900  0.654870  1.0  0.1178
  C  C267  1  0.906400  0.702000  0.656070  1.0  -0.1053
  C  C268  1  0.945700  0.321300  0.691470  1.0  -0.2332
  C  C269  1  0.944500  0.217700  0.689570  1.0  0.1413
  C  C270  1  0.916700  0.949700  0.731170  1.0  0.1471
  C  C271  1  0.913800  0.934700  0.764670  1.0  -0.2471
  C  C272  1  0.995600  0.019800  0.783770  1.0  -0.0681
  C  C273  1  0.078900  0.116700  0.768470  1.0  -0.1804
  C  C274  1  0.075900  0.121000  0.733870  1.0  0.1499
  C  C275  1  0.991900  0.006500  0.819170  1.0  0.0049
  C  C276  1  0.892800  0.089900  0.321530  1.0  0.1157
  C  C277  1  0.795600  0.093600  0.322730  1.0  -0.1102
  C  C278  1  0.375600  0.054300  0.358130  1.0  -0.233
  C  C279  1  0.273200  0.055500  0.356230  1.0  0.1367
  C  C280  1  0.033000  0.083300  0.397830  1.0  0.1428
  C  C281  1  0.020900  0.086200  0.431330  1.0  -0.247
  C  C282  1  0.024200  0.004400  0.450430  1.0  -0.0686
  C  C283  1  0.037800  0.921100  0.435130  1.0  -0.1798
  C  C284  1  0.045100  0.924100  0.400530  1.0  0.1493
  C  C285  1  0.014600  0.008100  0.485830  1.0  0.0023
  C  C286  1  0.304600  0.304600  0.000000  1.0  -0.0087
  C  C287  1  0.413100  0.413100  0.000000  1.0  0.1001
  C  C288  1  0.497100  0.497100  0.000000  1.0  0.2598
  C  C289  1  0.601600  0.601600  0.000000  1.0  -0.0763
  C  C290  1  0.695400  0.000000  0.333333  1.0  -0.0113
  C  C291  1  0.586900  0.000000  0.333333  1.0  0.1015
  C  C292  1  0.502900  0.000000  0.333333  1.0  0.2636
  C  C293  1  0.398400  0.000000  0.333333  1.0  -0.0917
  C  C294  1  0.000000  0.695400  0.666667  1.0  -0.0065
  C  C295  1  0.000000  0.586900  0.666667  1.0  0.1012
  C  C296  1  0.000000  0.502900  0.666667  1.0  0.2592
  C  C297  1  0.000000  0.398400  0.666667  1.0  -0.0899
  C  C298  1  0.248600  0.782300  0.584600  1.0  0.1013
  C  C299  1  0.147800  0.782600  0.583800  1.0  -0.1553
  C  C300  1  0.053100  0.697100  0.569000  1.0  -0.02
  C  C301  1  0.064400  0.609100  0.555400  1.0  -0.2002
  C  C302  1  0.169800  0.618600  0.557500  1.0  0.1595
  C  C303  1  0.946100  0.696000  0.568300  1.0  0.0303
  C  C304  1  0.640800  0.771700  0.548700  1.0  0.1451
  C  C305  1  0.739100  0.770300  0.545700  1.0  -0.2273
  C  C306  1  0.756800  0.700100  0.567400  1.0  -0.0181
  C  C307  1  0.677200  0.640200  0.591100  1.0  -0.2537
  C  C308  1  0.577900  0.643400  0.590800  1.0  0.1528
  C  C309  1  0.858900  0.695700  0.567500  1.0  0.0166
  C  C310  1  0.330200  0.519800  0.303000  1.0  0.1405
  C  C311  1  0.346700  0.525400  0.337000  1.0  -0.1846
  C  C312  1  0.332100  0.600900  0.354200  1.0  0.0177
  C  C313  1  0.306300  0.670700  0.337500  1.0  -0.1395
  C  C314  1  0.293700  0.662800  0.303800  1.0  0.0989
  C  C315  1  0.363600  0.625500  0.418600  1.0  -0.0209
  C  C316  1  0.411800  0.599500  0.507200  1.0  0.1298
  C  C317  1  0.405800  0.581500  0.473500  1.0  -0.1812
  C  C318  1  0.377700  0.644200  0.453300  1.0  -0.0156
  C  C319  1  0.363700  0.726800  0.468000  1.0  -0.2147
  C  C320  1  0.375200  0.743300  0.500700  1.0  0.1363
  C  C321  1  0.348400  0.611500  0.389100  1.0  -0.0435
  C  C322  1  0.533700  0.751400  0.251270  1.0  0.1041
  C  C323  1  0.634800  0.852200  0.250470  1.0  -0.1492
  C  C324  1  0.644000  0.946900  0.235670  1.0  -0.0259
  C  C325  1  0.544700  0.935600  0.222070  1.0  -0.2038
  C  C326  1  0.448800  0.830200  0.224170  1.0  0.1645
  C  C327  1  0.749900  0.053900  0.234970  1.0  0.032
  C  C328  1  0.130900  0.359200  0.215370  1.0  0.1462
  C  C329  1  0.031200  0.260900  0.212370  1.0  -0.2288
  C  C330  1  0.943300  0.243200  0.234070  1.0  -0.0173
  C  C331  1  0.963000  0.322800  0.257770  1.0  -0.2567
  C  C332  1  0.065500  0.422100  0.257470  1.0  0.1504
  C  C333  1  0.836800  0.141100  0.234170  1.0  0.0142
  C  C334  1  0.189600  0.669800  0.969670  1.0  0.1444
  C  C335  1  0.178700  0.653300  0.003670  1.0  -0.1843
  C  C336  1  0.268800  0.667900  0.020870  1.0  0.0184
  C  C337  1  0.364400  0.693700  0.004170  1.0  -0.1382
  C  C338  1  0.369100  0.706300  0.970470  1.0  0.1014
  C  C339  1  0.261900  0.636400  0.085270  1.0  -0.0174
  C  C340  1  0.187700  0.588200  0.173870  1.0  0.1346
  C  C341  1  0.175700  0.594200  0.140170  1.0  -0.1818
  C  C342  1  0.266500  0.622300  0.119970  1.0  -0.0112
  C  C343  1  0.363100  0.636300  0.134670  1.0  -0.2108
  C  C344  1  0.368100  0.624800  0.167370  1.0  0.1385
  C  C345  1  0.263100  0.651600  0.055770  1.0  -0.0451
  C  C346  1  0.217700  0.466300  0.917930  1.0  0.1027
  C  C347  1  0.217400  0.365200  0.917130  1.0  -0.1505
  C  C348  1  0.302900  0.356000  0.902330  1.0  -0.0223
  C  C349  1  0.390900  0.455300  0.888730  1.0  -0.2006
  C  C350  1  0.381400  0.551200  0.890830  1.0  0.1656
  C  C351  1  0.304000  0.250100  0.901630  1.0  0.0307
  C  C352  1  0.228300  0.869100  0.882030  1.0  0.1436
  C  C353  1  0.229700  0.968800  0.879030  1.0  -0.2256
  C  C354  1  0.299900  0.056700  0.900730  1.0  -0.0148
  C  C355  1  0.359800  0.037000  0.924430  1.0  -0.2544
  C  C356  1  0.356600  0.934500  0.924130  1.0  0.1501
  C  C357  1  0.304300  0.163200  0.900830  1.0  0.0104
  C  C358  1  0.480200  0.810400  0.636330  1.0  0.1426
  C  C359  1  0.474600  0.821300  0.670330  1.0  -0.1819
  C  C360  1  0.399100  0.731200  0.687530  1.0  0.0186
  C  C361  1  0.329300  0.635600  0.670830  1.0  -0.1411
  C  C362  1  0.337200  0.630900  0.637130  1.0  0.0955
  C  C363  1  0.374500  0.738100  0.751930  1.0  -0.0182
  C  C364  1  0.400500  0.812300  0.840530  1.0  0.1321
  C  C365  1  0.418500  0.824300  0.806830  1.0  -0.1816
  C  C366  1  0.355800  0.733500  0.786630  1.0  -0.016
  C  C367  1  0.273200  0.636900  0.801330  1.0  -0.2171
  C  C368  1  0.256700  0.631900  0.834030  1.0  0.1381
  C  C369  1  0.388500  0.736900  0.722430  1.0  -0.04
  N  N370  1  0.699100  0.258400  0.429000  1.0  -0.3077
  N  N371  1  0.708700  0.558800  0.429100  1.0  -0.337
  N  N372  1  0.587100  0.305600  0.713200  1.0  -0.3154
  N  N373  1  0.680300  0.396600  0.479000  1.0  -0.322
  N  N374  1  0.741600  0.440700  0.762330  1.0  -0.3073
  N  N375  1  0.441200  0.149900  0.762430  1.0  -0.3352
  N  N376  1  0.694400  0.281500  0.046530  1.0  -0.3131
  N  N377  1  0.603400  0.283700  0.812330  1.0  -0.3221
  N  N378  1  0.559300  0.300900  0.095670  1.0  -0.3046
  N  N379  1  0.850100  0.291300  0.095770  1.0  -0.3386
  N  N380  1  0.718500  0.412900  0.379870  1.0  -0.3144
  N  N381  1  0.716300  0.319700  0.145670  1.0  -0.3227
  N  N382  1  0.958000  0.959800  0.951000  1.0  -0.3184
  N  N383  1  0.040200  0.998200  0.284330  1.0  -0.3177
  N  N384  1  0.001800  0.042000  0.617670  1.0  -0.3172
  N  N385  1  0.959800  0.958000  0.049000  1.0  -0.3189
  N  N386  1  0.998200  0.040200  0.715670  1.0  -0.3203
  N  N387  1  0.042000  0.001800  0.382330  1.0  -0.3199
  N  N388  1  0.102600  0.102600  0.000000  1.0  -0.3083
  N  N389  1  0.805400  0.805400  0.000000  1.0  -0.3422
  N  N390  1  0.897400  0.000000  0.333333  1.0  -0.3074
  N  N391  1  0.194600  0.000000  0.333333  1.0  -0.3408
  N  N392  1  0.000000  0.897400  0.666667  1.0  -0.3079
  N  N393  1  0.000000  0.194600  0.666667  1.0  -0.3397
  N  N394  1  0.258400  0.699100  0.571000  1.0  -0.3051
  N  N395  1  0.558800  0.708700  0.570900  1.0  -0.3381
  N  N396  1  0.305600  0.587100  0.286800  1.0  -0.3144
  N  N397  1  0.396600  0.680300  0.521000  1.0  -0.3229
  N  N398  1  0.440700  0.741600  0.237670  1.0  -0.3084
  N  N399  1  0.149900  0.441200  0.237570  1.0  -0.3367
  N  N400  1  0.281500  0.694400  0.953470  1.0  -0.3147
  N  N401  1  0.283700  0.603400  0.187670  1.0  -0.3224
  N  N402  1  0.300900  0.559300  0.904330  1.0  -0.3078
  N  N403  1  0.291300  0.850100  0.904230  1.0  -0.3356
  N  N404  1  0.412900  0.718500  0.620130  1.0  -0.314
  N  N405  1  0.319700  0.716300  0.854330  1.0  -0.3217
