# generated using pymatgen
data_ZnP2H6(C3O4)2
_symmetry_space_group_name_H-M   'P 1'
_cell_length_a   9.15710000
_cell_length_b   10.45710000
_cell_length_c   10.45710000
_cell_angle_alpha   95.89930000
_cell_angle_beta   100.30500000
_cell_angle_gamma   79.69510000
_symmetry_Int_Tables_number   1
_chemical_formula_structural   ZnP2H6(C3O4)2
_chemical_formula_sum   'Zn2 P4 H12 C12 O16'
_cell_volume   966.69943169
_cell_formula_units_Z   2
loop_
 _symmetry_equiv_pos_site_id
 _symmetry_equiv_pos_as_xyz
  1  'x, y, z'
loop_
 _atom_site_type_symbol
 _atom_site_label
 _atom_site_symmetry_multiplicity
 _atom_site_fract_x
 _atom_site_fract_y
 _atom_site_fract_z
 _atom_site_occupancy
 _atom_site_charge
  Zn  Zn1  1  0.750000  0.024430  0.024430  1.0  1.1935
  Zn  Zn2  1  0.250000  0.975570  0.975570  1.0  1.1905
  P  P3  1  0.991530  0.206320  0.055260  1.0  1.5067
  P  P4  1  0.508470  0.055260  0.206320  1.0  1.507
  P  P5  1  0.008470  0.793680  0.944740  1.0  1.5084
  P  P6  1  0.491530  0.944740  0.793680  1.0  1.5077
  H  H7  1  0.013200  0.234900  0.247500  1.0  0.465
  H  H8  1  0.726400  0.345900  0.962500  1.0  0.4204
  H  H9  1  0.214400  0.363100  0.086300  1.0  0.1123
  H  H10  1  0.486800  0.247500  0.234900  1.0  0.4645
  H  H11  1  0.773600  0.962500  0.345900  1.0  0.419
  H  H12  1  0.285600  0.086300  0.363100  1.0  0.1125
  H  H13  1  0.986800  0.765100  0.752500  1.0  0.4649
  H  H14  1  0.273600  0.654100  0.037500  1.0  0.4193
  H  H15  1  0.785600  0.636900  0.913700  1.0  0.1126
  H  H16  1  0.513200  0.752500  0.765100  1.0  0.4635
  H  H17  1  0.226400  0.037500  0.654100  1.0  0.4156
  H  H18  1  0.714400  0.913700  0.636900  1.0  0.1125
  C  C19  1  0.861000  0.456680  0.973320  1.0  0.3627
  C  C20  1  0.990100  0.373090  0.025750  1.0  -0.4742
  C  C21  1  0.128200  0.418200  0.051600  1.0  -0.0726
  C  C22  1  0.639000  0.973320  0.456680  1.0  0.3618
  C  C23  1  0.509900  0.025750  0.373090  1.0  -0.4745
  C  C24  1  0.371800  0.051600  0.418200  1.0  -0.0721
  C  C25  1  0.139000  0.543320  0.026680  1.0  0.3616
  C  C26  1  0.009900  0.626910  0.974250  1.0  -0.4758
  C  C27  1  0.871800  0.581800  0.948400  1.0  -0.0723
  C  C28  1  0.361000  0.026680  0.543320  1.0  0.3622
  C  C29  1  0.490100  0.974250  0.626910  1.0  -0.4763
  C  C30  1  0.628200  0.948400  0.581800  1.0  -0.0728
  O  O31  1  0.062100  0.184810  0.199310  1.0  -0.6999
  O  O32  1  0.827000  0.187680  0.026980  1.0  -0.847
  O  O33  1  0.089300  0.120640  0.968920  1.0  -0.8245
  O  O34  1  0.721000  0.420880  0.943380  1.0  -0.5417
  O  O35  1  0.437900  0.199310  0.184810  1.0  -0.7008
  O  O36  1  0.673000  0.026980  0.187680  1.0  -0.8492
  O  O37  1  0.410700  0.968920  0.120640  1.0  -0.8247
  O  O38  1  0.779000  0.943380  0.420880  1.0  -0.5375
  O  O39  1  0.937900  0.815190  0.800690  1.0  -0.6997
  O  O40  1  0.173000  0.812320  0.973020  1.0  -0.8485
  O  O41  1  0.910700  0.879360  0.031080  1.0  -0.8234
  O  O42  1  0.279000  0.579120  0.056620  1.0  -0.544
  O  O43  1  0.562100  0.800690  0.815190  1.0  -0.7009
  O  O44  1  0.327000  0.973020  0.812320  1.0  -0.8475
  O  O45  1  0.589300  0.031080  0.879360  1.0  -0.8272
  O  O46  1  0.221000  0.056620  0.579120  1.0  -0.5374
