# generated using pymatgen
data_K3H45C33O7
_symmetry_space_group_name_H-M   'P 1'
_cell_length_a   13.86830000
_cell_length_b   16.22810000
_cell_length_c   20.49100000
_cell_angle_alpha   90.00000000
_cell_angle_beta   104.71500000
_cell_angle_gamma   90.00000000
_symmetry_Int_Tables_number   1
_chemical_formula_structural   K3H45C33O7
_chemical_formula_sum   'K12 H180 C132 O28'
_cell_volume   4460.37036423
_cell_formula_units_Z   4
loop_
 _symmetry_equiv_pos_site_id
 _symmetry_equiv_pos_as_xyz
  1  'x, y, z'
loop_
 _atom_site_type_symbol
 _atom_site_label
 _atom_site_symmetry_multiplicity
 _atom_site_fract_x
 _atom_site_fract_y
 _atom_site_fract_z
 _atom_site_occupancy
 _atom_site_charge
  K  K1  1  0.010020  0.397830  0.885170  1.0  0.9155
  K  K2  1  0.065040  0.371180  0.110150  1.0  0.9178
  K  K3  1  0.219010  0.481510  0.028230  1.0  0.9138
  K  K4  1  0.989980  0.897830  0.614830  1.0  0.9145
  K  K5  1  0.934960  0.871180  0.389850  1.0  0.9178
  K  K6  1  0.780990  0.981510  0.471770  1.0  0.913
  K  K7  1  0.989980  0.602170  0.114830  1.0  0.9145
  K  K8  1  0.934960  0.628820  0.889850  1.0  0.9175
  K  K9  1  0.780990  0.518490  0.971770  1.0  0.9132
  K  K10  1  0.010020  0.102170  0.385170  1.0  0.9155
  K  K11  1  0.065040  0.128820  0.610150  1.0  0.9176
  K  K12  1  0.219010  0.018490  0.528230  1.0  0.9139
  H  H13  1  0.201500  0.081600  0.969000  1.0  0.0934
  H  H14  1  0.317700  0.121200  0.910600  1.0  0.1001
  H  H15  1  0.341300  0.260900  0.893400  1.0  0.0927
  H  H16  1  0.251100  0.359000  0.934500  1.0  0.1031
  H  H17  1  0.074600  0.210500  0.057300  1.0  0.0206
  H  H18  1  0.969100  0.131900  0.935300  1.0  0.109
  H  H19  1  0.920600  0.161000  0.994500  1.0  0.0974
  H  H20  1  0.961700  0.228000  0.950900  1.0  0.0962
  H  H21  1  0.155000  0.083600  0.087400  1.0  0.1054
  H  H22  1  0.037200  0.075200  0.077500  1.0  0.1004
  H  H23  1  0.087500  0.042700  0.020200  1.0  0.1025
  H  H24  1  0.627800  0.389200  0.684100  1.0  0.0942
  H  H25  1  0.717400  0.443200  0.612300  1.0  0.1021
  H  H26  1  0.868200  0.511700  0.658500  1.0  0.086
  H  H27  1  0.926000  0.526700  0.775000  1.0  0.0809
  H  H28  1  0.663400  0.430300  0.854700  1.0  0.0297
  H  H29  1  0.525600  0.344900  0.821900  1.0  0.102
  H  H30  1  0.520100  0.413400  0.764800  1.0  0.1041
  H  H31  1  0.554600  0.321500  0.753500  1.0  0.1028
  H  H32  1  0.722100  0.270300  0.820800  1.0  0.1093
  H  H33  1  0.789800  0.329200  0.876700  1.0  0.0879
  H  H34  1  0.688300  0.292100  0.887800  1.0  0.101
  H  H35  1  0.340400  0.641100  0.817500  1.0  0.0946
  H  H36  1  0.358300  0.756700  0.887500  1.0  0.0999
  H  H37  1  0.262000  0.769400  0.964400  1.0  0.0967
  H  H38  1  0.148300  0.667900  0.971100  1.0  0.0857
  H  H39  1  0.176600  0.469300  0.824100  1.0  0.0263
  H  H40  1  0.297100  0.414200  0.779300  1.0  0.1011
  H  H41  1  0.345600  0.448400  0.853600  1.0  0.1007
  H  H42  1  0.356700  0.499600  0.789200  1.0  0.0973
  H  H43  1  0.096300  0.551100  0.735700  1.0  0.1004
  H  H44  1  0.152200  0.478000  0.707800  1.0  0.1032
  H  H45  1  0.198500  0.568900  0.715500  1.0  0.1048
  H  H46  1  0.882100  0.225000  0.713400  1.0  0.0458
  H  H47  1  0.855100  0.317800  0.729000  1.0  0.0599
  H  H48  1  0.087800  0.208600  0.850100  1.0  0.0544
  H  H49  1  0.022300  0.159800  0.786000  1.0  0.0547
  H  H50  1  0.142400  0.300500  0.778700  1.0  0.0541
  H  H51  1  0.169700  0.208000  0.762900  1.0  0.0764
  H  H52  1  0.936400  0.315500  0.640900  1.0  0.0716
  H  H53  1  0.001000  0.366100  0.704200  1.0  0.0444
  H  H54  1  0.456400  0.367200  0.019600  1.0  0.0804
  H  H55  1  0.522400  0.429100  0.073900  1.0  0.0535
  H  H56  1  0.483600  0.572900  0.066100  1.0  0.0588
  H  H57  1  0.392000  0.605000  0.007100  1.0  0.0662
  H  H58  1  0.798500  0.581600  0.531000  1.0  0.0913
  H  H59  1  0.682300  0.621200  0.589400  1.0  0.0995
  H  H60  1  0.658700  0.760900  0.606600  1.0  0.0926
  H  H61  1  0.748900  0.859000  0.565500  1.0  0.1034
  H  H62  1  0.925400  0.710500  0.442700  1.0  0.0225
  H  H63  1  0.030900  0.631900  0.564700  1.0  0.1099
  H  H64  1  0.079400  0.661000  0.505500  1.0  0.0987
  H  H65  1  0.038300  0.728000  0.549100  1.0  0.0961
  H  H66  1  0.845000  0.583600  0.412600  1.0  0.106
  H  H67  1  0.962800  0.575200  0.422500  1.0  0.1003
  H  H68  1  0.912500  0.542700  0.479800  1.0  0.1038
  H  H69  1  0.372200  0.889200  0.815900  1.0  0.0937
  H  H70  1  0.282600  0.943200  0.887700  1.0  0.1019
  H  H71  1  0.131800  0.011700  0.841500  1.0  0.0858
  H  H72  1  0.074000  0.026700  0.725000  1.0  0.0806
  H  H73  1  0.336600  0.930300  0.645300  1.0  0.0284
  H  H74  1  0.474400  0.844900  0.678100  1.0  0.1032
  H  H75  1  0.479900  0.913400  0.735200  1.0  0.1028
  H  H76  1  0.445400  0.821500  0.746500  1.0  0.1028
  H  H77  1  0.277900  0.770300  0.679200  1.0  0.1103
  H  H78  1  0.210200  0.829200  0.623300  1.0  0.0885
  H  H79  1  0.311700  0.792100  0.612200  1.0  0.1005
  H  H80  1  0.659600  0.141100  0.682500  1.0  0.0931
  H  H81  1  0.641700  0.256700  0.612500  1.0  0.0995
  H  H82  1  0.738000  0.269400  0.535600  1.0  0.0971
  H  H83  1  0.851700  0.167900  0.528900  1.0  0.0865
  H  H84  1  0.823400  0.969300  0.675900  1.0  0.0252
  H  H85  1  0.702900  0.914200  0.720700  1.0  0.0998
  H  H86  1  0.654400  0.948400  0.646400  1.0  0.1006
  H  H87  1  0.643300  0.999600  0.710800  1.0  0.0964
  H  H88  1  0.903700  0.051100  0.764300  1.0  0.1016
  H  H89  1  0.847800  0.978000  0.792200  1.0  0.1036
  H  H90  1  0.801500  0.068900  0.784500  1.0  0.1054
  H  H91  1  0.117900  0.725000  0.786600  1.0  0.0456
  H  H92  1  0.144900  0.817800  0.771000  1.0  0.0593
  H  H93  1  0.912200  0.708600  0.649900  1.0  0.0538
  H  H94  1  0.977700  0.659800  0.714000  1.0  0.0545
  H  H95  1  0.857600  0.800500  0.721300  1.0  0.0554
  H  H96  1  0.830300  0.708000  0.737100  1.0  0.0756
  H  H97  1  0.063600  0.815500  0.859100  1.0  0.0737
  H  H98  1  0.999000  0.866100  0.795800  1.0  0.0452
  H  H99  1  0.543600  0.867200  0.480400  1.0  0.0802
  H  H100  1  0.477600  0.929100  0.426100  1.0  0.0537
  H  H101  1  0.516400  0.072900  0.433900  1.0  0.0583
  H  H102  1  0.608000  0.105000  0.492900  1.0  0.0672
  H  H103  1  0.798500  0.918400  0.031000  1.0  0.0928
  H  H104  1  0.682300  0.878800  0.089400  1.0  0.0997
  H  H105  1  0.658700  0.739100  0.106600  1.0  0.0931
  H  H106  1  0.748900  0.641000  0.065500  1.0  0.1057
  H  H107  1  0.925400  0.789500  0.942700  1.0  0.0208
  H  H108  1  0.030900  0.868100  0.064700  1.0  0.1093
  H  H109  1  0.079400  0.839000  0.005500  1.0  0.0989
  H  H110  1  0.038300  0.772000  0.049100  1.0  0.0966
  H  H111  1  0.845000  0.916400  0.912600  1.0  0.1063
  H  H112  1  0.962800  0.924800  0.922500  1.0  0.1
  H  H113  1  0.912500  0.957300  0.979800  1.0  0.1029
  H  H114  1  0.372200  0.610800  0.315900  1.0  0.094
  H  H115  1  0.282600  0.556800  0.387700  1.0  0.1019
  H  H116  1  0.131800  0.488300  0.341500  1.0  0.0859
  H  H117  1  0.074000  0.473300  0.225000  1.0  0.0805
  H  H118  1  0.336600  0.569700  0.145300  1.0  0.029
  H  H119  1  0.474400  0.655100  0.178100  1.0  0.1026
  H  H120  1  0.479900  0.586600  0.235200  1.0  0.1037
  H  H121  1  0.445400  0.678500  0.246500  1.0  0.102
  H  H122  1  0.277900  0.729700  0.179200  1.0  0.1096
  H  H123  1  0.210200  0.670800  0.123300  1.0  0.0892
  H  H124  1  0.311700  0.707900  0.112200  1.0  0.1011
  H  H125  1  0.659600  0.358900  0.182500  1.0  0.0936
  H  H126  1  0.641700  0.243300  0.112500  1.0  0.0989
  H  H127  1  0.738000  0.230600  0.035600  1.0  0.0964
  H  H128  1  0.851700  0.332100  0.028900  1.0  0.0865
  H  H129  1  0.823400  0.530700  0.175900  1.0  0.0263
  H  H130  1  0.702900  0.585800  0.220700  1.0  0.0999
  H  H131  1  0.654400  0.551600  0.146400  1.0  0.1007
  H  H132  1  0.643300  0.500400  0.210800  1.0  0.0969
  H  H133  1  0.903700  0.448900  0.264300  1.0  0.1008
  H  H134  1  0.847800  0.522000  0.292200  1.0  0.1026
  H  H135  1  0.801500  0.431100  0.284500  1.0  0.1064
  H  H136  1  0.117900  0.775000  0.286600  1.0  0.0453
  H  H137  1  0.144900  0.682200  0.271000  1.0  0.0591
  H  H138  1  0.912200  0.791400  0.149900  1.0  0.0539
  H  H139  1  0.977700  0.840200  0.214000  1.0  0.0539
  H  H140  1  0.857600  0.699500  0.221300  1.0  0.0555
  H  H141  1  0.830300  0.792000  0.237100  1.0  0.0753
  H  H142  1  0.063600  0.684500  0.359100  1.0  0.074
  H  H143  1  0.999000  0.633900  0.295800  1.0  0.0456
  H  H144  1  0.543600  0.632800  0.980400  1.0  0.0832
  H  H145  1  0.477600  0.570900  0.926100  1.0  0.054
  H  H146  1  0.516400  0.427100  0.933900  1.0  0.0579
  H  H147  1  0.608000  0.395000  0.992900  1.0  0.0657
  H  H148  1  0.201500  0.418400  0.469000  1.0  0.0938
  H  H149  1  0.317700  0.378800  0.410600  1.0  0.1003
  H  H150  1  0.341300  0.239100  0.393400  1.0  0.0924
  H  H151  1  0.251100  0.141000  0.434500  1.0  0.1058
  H  H152  1  0.074600  0.289500  0.557300  1.0  0.0192
  H  H153  1  0.969100  0.368100  0.435300  1.0  0.1094
  H  H154  1  0.920600  0.339000  0.494500  1.0  0.097
  H  H155  1  0.961700  0.272000  0.450900  1.0  0.0959
  H  H156  1  0.155000  0.416400  0.587400  1.0  0.1053
  H  H157  1  0.037200  0.424800  0.577500  1.0  0.0998
  H  H158  1  0.087500  0.457300  0.520200  1.0  0.1026
  H  H159  1  0.627800  0.110800  0.184100  1.0  0.0942
  H  H160  1  0.717400  0.056800  0.112300  1.0  0.1018
  H  H161  1  0.868200  0.988300  0.158500  1.0  0.0859
  H  H162  1  0.926000  0.973300  0.275000  1.0  0.0819
  H  H163  1  0.663400  0.069700  0.354700  1.0  0.033
  H  H164  1  0.525600  0.155100  0.321900  1.0  0.1012
  H  H165  1  0.520100  0.086600  0.264800  1.0  0.1037
  H  H166  1  0.554600  0.178500  0.253500  1.0  0.1025
  H  H167  1  0.722100  0.229700  0.320800  1.0  0.1092
  H  H168  1  0.789800  0.170800  0.376700  1.0  0.088
  H  H169  1  0.688300  0.207900  0.387800  1.0  0.1014
  H  H170  1  0.340400  0.858900  0.317500  1.0  0.0943
  H  H171  1  0.358300  0.743300  0.387500  1.0  0.1
  H  H172  1  0.262000  0.730600  0.464400  1.0  0.0971
  H  H173  1  0.148300  0.832100  0.471100  1.0  0.0859
  H  H174  1  0.176600  0.030700  0.324100  1.0  0.0269
  H  H175  1  0.297100  0.085800  0.279300  1.0  0.1014
  H  H176  1  0.345600  0.051600  0.353600  1.0  0.1008
  H  H177  1  0.356700  0.000400  0.289200  1.0  0.0975
  H  H178  1  0.096300  0.948900  0.235700  1.0  0.1011
  H  H179  1  0.152200  0.022000  0.207800  1.0  0.1046
  H  H180  1  0.198500  0.931100  0.215500  1.0  0.1047
  H  H181  1  0.882100  0.275000  0.213400  1.0  0.0458
  H  H182  1  0.855100  0.182200  0.229000  1.0  0.0598
  H  H183  1  0.087800  0.291400  0.350100  1.0  0.0544
  H  H184  1  0.022300  0.340200  0.286000  1.0  0.0544
  H  H185  1  0.142400  0.199500  0.278700  1.0  0.0551
  H  H186  1  0.169700  0.292000  0.262900  1.0  0.0773
  H  H187  1  0.936400  0.184500  0.140900  1.0  0.072
  H  H188  1  0.001000  0.133900  0.204200  1.0  0.0453
  H  H189  1  0.456400  0.132800  0.519600  1.0  0.0823
  H  H190  1  0.522400  0.070900  0.573900  1.0  0.0532
  H  H191  1  0.483600  0.927100  0.566100  1.0  0.0591
  H  H192  1  0.392000  0.895000  0.507100  1.0  0.0653
  C  C193  1  0.170600  0.280900  0.978410  1.0  0.3621
  C  C194  1  0.155200  0.195100  0.987450  1.0  -0.1279
  C  C195  1  0.211100  0.138600  0.962200  1.0  -0.0869
  C  C196  1  0.280500  0.161600  0.927300  1.0  -0.1775
  C  C197  1  0.294400  0.244000  0.917400  1.0  -0.036
  C  C198  1  0.240600  0.302400  0.942190  1.0  -0.3421
  C  C199  1  0.074900  0.169200  0.021100  1.0  0.12
  C  C200  1  0.972400  0.172900  0.970900  1.0  -0.3511
  C  C201  1  0.090000  0.085300  0.054500  1.0  -0.3683
  C  C202  1  0.808900  0.470500  0.800400  1.0  0.3755
  C  C203  1  0.719800  0.426200  0.772200  1.0  -0.1298
  C  C204  1  0.688200  0.417700  0.702900  1.0  -0.093
  C  C205  1  0.741400  0.449400  0.659800  1.0  -0.1788
  C  C206  1  0.830300  0.490200  0.687300  1.0  -0.0454
  C  C207  1  0.864200  0.499800  0.756800  1.0  -0.3588
  C  C208  1  0.664200  0.388500  0.819000  1.0  0.1274
  C  C209  1  0.556600  0.365000  0.787000  1.0  -0.3645
  C  C210  1  0.721200  0.313200  0.854300  1.0  -0.3555
  C  C211  1  0.172700  0.591500  0.897640  1.0  0.3489
  C  C212  1  0.232100  0.584200  0.851200  1.0  -0.1266
  C  C213  1  0.300300  0.646000  0.848600  1.0  -0.0959
  C  C214  1  0.311400  0.715100  0.890500  1.0  -0.1612
  C  C215  1  0.254800  0.722700  0.935700  1.0  -0.0214
  C  C216  1  0.187100  0.662100  0.939200  1.0  -0.3559
  C  C217  1  0.219000  0.508600  0.805900  1.0  0.1388
  C  C218  1  0.312500  0.463900  0.807100  1.0  -0.3657
  C  C219  1  0.161500  0.528400  0.735100  1.0  -0.3556
  C  C220  1  0.910700  0.278900  0.731040  1.0  0.0618
  C  C221  1  0.048500  0.214800  0.802760  1.0  0.0637
  C  C222  1  0.113900  0.246800  0.760650  1.0  0.0631
  C  C223  1  0.975900  0.310600  0.688310  1.0  0.074
  C  C224  1  0.484700  0.423500  0.026100  1.0  0.0687
  C  C225  1  0.446600  0.564000  0.018500  1.0  0.0713
  C  C226  1  0.829400  0.780900  0.521590  1.0  0.3663
  C  C227  1  0.844800  0.695100  0.512550  1.0  -0.1381
  C  C228  1  0.788900  0.638600  0.537800  1.0  -0.0876
  C  C229  1  0.719500  0.661600  0.572700  1.0  -0.1748
  C  C230  1  0.705600  0.744000  0.582600  1.0  -0.0343
  C  C231  1  0.759400  0.802400  0.557810  1.0  -0.3414
  C  C232  1  0.925100  0.669200  0.478900  1.0  0.1223
  C  C233  1  0.027600  0.672900  0.529100  1.0  -0.3515
  C  C234  1  0.910000  0.585300  0.445500  1.0  -0.3686
  C  C235  1  0.191100  0.970500  0.699600  1.0  0.3789
  C  C236  1  0.280200  0.926200  0.727800  1.0  -0.1299
  C  C237  1  0.311800  0.917700  0.797100  1.0  -0.0931
  C  C238  1  0.258600  0.949400  0.840200  1.0  -0.1772
  C  C239  1  0.169700  0.990200  0.812700  1.0  -0.0366
  C  C240  1  0.135800  0.999800  0.743200  1.0  -0.3576
  C  C241  1  0.335800  0.888500  0.681000  1.0  0.1273
  C  C242  1  0.443400  0.865000  0.713000  1.0  -0.3645
  C  C243  1  0.278800  0.813200  0.645700  1.0  -0.3552
  C  C244  1  0.827300  0.091500  0.602360  1.0  0.3496
  C  C245  1  0.767900  0.084200  0.648800  1.0  -0.125
  C  C246  1  0.699700  0.146000  0.651400  1.0  -0.0937
  C  C247  1  0.688600  0.215100  0.609500  1.0  -0.1636
  C  C248  1  0.745200  0.222700  0.564300  1.0  -0.0226
  C  C249  1  0.812900  0.162100  0.560800  1.0  -0.353
  C  C250  1  0.781000  0.008600  0.694100  1.0  0.1407
  C  C251  1  0.687500  0.963900  0.692900  1.0  -0.3654
  C  C252  1  0.838500  0.028400  0.764900  1.0  -0.3563
  C  C253  1  0.089300  0.778900  0.768960  1.0  0.0639
  C  C254  1  0.951500  0.714800  0.697240  1.0  0.0625
  C  C255  1  0.886100  0.746800  0.739350  1.0  0.063
  C  C256  1  0.024100  0.810600  0.811690  1.0  0.0745
  C  C257  1  0.515300  0.923500  0.473900  1.0  0.0677
  C  C258  1  0.553400  0.064000  0.481500  1.0  0.0718
  C  C259  1  0.829400  0.719100  0.021590  1.0  0.3696
  C  C260  1  0.844800  0.804900  0.012550  1.0  -0.1381
  C  C261  1  0.788900  0.861400  0.037800  1.0  -0.0871
  C  C262  1  0.719500  0.838400  0.072700  1.0  -0.1714
  C  C263  1  0.705600  0.756000  0.082600  1.0  -0.0342
  C  C264  1  0.759400  0.697600  0.057810  1.0  -0.3398
  C  C265  1  0.925100  0.830800  0.978900  1.0  0.1209
  C  C266  1  0.027600  0.827100  0.029100  1.0  -0.3517
  C  C267  1  0.910000  0.914700  0.945500  1.0  -0.3692
  C  C268  1  0.191100  0.529500  0.199600  1.0  0.38
  C  C269  1  0.280200  0.573800  0.227800  1.0  -0.13
  C  C270  1  0.311800  0.582300  0.297100  1.0  -0.0933
  C  C271  1  0.258600  0.550600  0.340200  1.0  -0.1769
  C  C272  1  0.169700  0.509800  0.312700  1.0  -0.035
  C  C273  1  0.135800  0.500200  0.243200  1.0  -0.3583
  C  C274  1  0.335800  0.611500  0.181000  1.0  0.1273
  C  C275  1  0.443400  0.635000  0.213000  1.0  -0.3646
  C  C276  1  0.278800  0.686800  0.145700  1.0  -0.3547
  C  C277  1  0.827300  0.408500  0.102360  1.0  0.3503
  C  C278  1  0.767900  0.415800  0.148800  1.0  -0.125
  C  C279  1  0.699700  0.354000  0.151400  1.0  -0.0939
  C  C280  1  0.688600  0.284900  0.109500  1.0  -0.1619
  C  C281  1  0.745200  0.277300  0.064300  1.0  -0.0256
  C  C282  1  0.812900  0.337900  0.060800  1.0  -0.3527
  C  C283  1  0.781000  0.491400  0.194100  1.0  0.1398
  C  C284  1  0.687500  0.536100  0.192900  1.0  -0.3656
  C  C285  1  0.838500  0.471600  0.264900  1.0  -0.3562
  C  C286  1  0.089300  0.721100  0.268960  1.0  0.0638
  C  C287  1  0.951500  0.785200  0.197240  1.0  0.0623
  C  C288  1  0.886100  0.753200  0.239350  1.0  0.0626
  C  C289  1  0.024100  0.689400  0.311690  1.0  0.0742
  C  C290  1  0.515300  0.576500  0.973900  1.0  0.0674
  C  C291  1  0.553400  0.436000  0.981500  1.0  0.0714
  C  C292  1  0.170600  0.219100  0.478410  1.0  0.3656
  C  C293  1  0.155200  0.304900  0.487450  1.0  -0.1283
  C  C294  1  0.211100  0.361400  0.462200  1.0  -0.0864
  C  C295  1  0.280500  0.338400  0.427300  1.0  -0.1773
  C  C296  1  0.294400  0.256000  0.417400  1.0  -0.0359
  C  C297  1  0.240600  0.197600  0.442190  1.0  -0.3397
  C  C298  1  0.074900  0.330800  0.521100  1.0  0.1182
  C  C299  1  0.972400  0.327100  0.470900  1.0  -0.3515
  C  C300  1  0.090000  0.414700  0.554500  1.0  -0.3686
  C  C301  1  0.808900  0.029500  0.300400  1.0  0.3767
  C  C302  1  0.719800  0.073800  0.272200  1.0  -0.1311
  C  C303  1  0.688200  0.082300  0.202900  1.0  -0.0929
  C  C304  1  0.741400  0.050600  0.159800  1.0  -0.179
  C  C305  1  0.830300  0.009800  0.187300  1.0  -0.0442
  C  C306  1  0.864200  0.000200  0.256800  1.0  -0.3582
  C  C307  1  0.664200  0.111500  0.319000  1.0  0.1272
  C  C308  1  0.556600  0.135000  0.287000  1.0  -0.3641
  C  C309  1  0.721200  0.186800  0.354300  1.0  -0.3545
  C  C310  1  0.172700  0.908500  0.397640  1.0  0.349
  C  C311  1  0.232100  0.915800  0.351200  1.0  -0.1269
  C  C312  1  0.300300  0.854000  0.348600  1.0  -0.0963
  C  C313  1  0.311400  0.784900  0.390500  1.0  -0.1605
  C  C314  1  0.254800  0.777300  0.435700  1.0  -0.0238
  C  C315  1  0.187100  0.837900  0.439200  1.0  -0.3562
  C  C316  1  0.219000  0.991400  0.305900  1.0  0.1379
  C  C317  1  0.312500  0.036100  0.307100  1.0  -0.3656
  C  C318  1  0.161500  0.971600  0.235100  1.0  -0.355
  C  C319  1  0.910700  0.221100  0.231040  1.0  0.0618
  C  C320  1  0.048500  0.285200  0.302760  1.0  0.0635
  C  C321  1  0.113900  0.253200  0.260650  1.0  0.0629
  C  C322  1  0.975900  0.189400  0.188310  1.0  0.0743
  C  C323  1  0.484700  0.076500  0.526100  1.0  0.0686
  C  C324  1  0.446600  0.936000  0.518500  1.0  0.071
  O  O325  1  0.120300  0.337810  0.001870  1.0  -0.8927
  O  O326  1  0.840430  0.483070  0.866220  1.0  -0.9009
  O  O327  1  0.107500  0.534990  0.902280  1.0  -0.8678
  O  O328  1  0.967790  0.269770  0.799900  1.0  -0.408
  O  O329  1  0.058190  0.256560  0.691700  1.0  -0.426
  O  O330  1  0.405400  0.482830  0.011070  1.0  -0.4213
  O  O331  1  0.986500  0.480500  0.998900  1.0  0.0238
  O  O332  1  0.879700  0.837810  0.498130  1.0  -0.8976
  O  O333  1  0.159570  0.983070  0.633780  1.0  -0.9024
  O  O334  1  0.892500  0.034990  0.597720  1.0  -0.8658
  O  O335  1  0.032210  0.769770  0.700100  1.0  -0.4063
  O  O336  1  0.941810  0.756560  0.808300  1.0  -0.4255
  O  O337  1  0.594600  0.982830  0.488930  1.0  -0.4198
  O  O338  1  0.013500  0.980500  0.501100  1.0  0.0256
  O  O339  1  0.879700  0.662190  0.998130  1.0  -0.8989
  O  O340  1  0.159570  0.516930  0.133780  1.0  -0.9039
  O  O341  1  0.892500  0.465010  0.097720  1.0  -0.8647
  O  O342  1  0.032210  0.730230  0.200100  1.0  -0.4068
  O  O343  1  0.941810  0.743440  0.308300  1.0  -0.426
  O  O344  1  0.594600  0.517170  0.988930  1.0  -0.4199
  O  O345  1  0.013500  0.519500  0.001100  1.0  0.0272
  O  O346  1  0.120300  0.162190  0.501870  1.0  -0.8961
  O  O347  1  0.840430  0.016930  0.366220  1.0  -0.9011
  O  O348  1  0.107500  0.965010  0.402280  1.0  -0.8675
  O  O349  1  0.967790  0.230230  0.299900  1.0  -0.4074
  O  O350  1  0.058190  0.243440  0.191700  1.0  -0.4248
  O  O351  1  0.405400  0.017170  0.511070  1.0  -0.4222
  O  O352  1  0.986500  0.019500  0.498900  1.0  0.0258
