# generated using pymatgen
data_ZrP2HO8
_symmetry_space_group_name_H-M   'P 1'
_cell_length_a   24.08700000
_cell_length_b   5.38120000
_cell_length_c   6.66000000
_cell_angle_alpha   90.00000000
_cell_angle_beta   90.00000000
_cell_angle_gamma   90.00000000
_symmetry_Int_Tables_number   1
_chemical_formula_structural   ZrP2HO8
_chemical_formula_sum   'Zr4 P8 H4 O32'
_cell_volume   863.24898290
_cell_formula_units_Z   4
loop_
 _symmetry_equiv_pos_site_id
 _symmetry_equiv_pos_as_xyz
  1  'x, y, z'
loop_
 _atom_site_type_symbol
 _atom_site_label
 _atom_site_symmetry_multiplicity
 _atom_site_fract_x
 _atom_site_fract_y
 _atom_site_fract_z
 _atom_site_occupancy
 _atom_site_charge
  Zr  Zr1  1  0.684100  0.450000  0.500000  1.0  2.1041
  Zr  Zr2  1  0.315900  0.550000  0.500000  1.0  2.099
  Zr  Zr3  1  0.815900  0.950000  0.000000  1.0  2.0999
  Zr  Zr4  1  0.184100  0.050000  0.000000  1.0  2.1037
  P  P5  1  0.587200  0.957700  0.500000  1.0  1.8671
  P  P6  1  0.412800  0.042300  0.500000  1.0  1.8659
  P  P7  1  0.912800  0.457700  0.000000  1.0  1.8659
  P  P8  1  0.087200  0.542300  0.000000  1.0  1.8668
  P  P9  1  0.720700  0.443700  0.000000  1.0  1.8757
  P  P10  1  0.279300  0.556300  0.000000  1.0  1.8768
  P  P11  1  0.779300  0.943700  0.500000  1.0  1.8769
  P  P12  1  0.220700  0.056300  0.500000  1.0  1.8756
  H  H13  1  0.500000  0.000000  0.311400  1.0  0.2934
  H  H14  1  0.000000  0.500000  0.188600  1.0  0.2929
  H  H15  1  0.500000  0.000000  0.688600  1.0  0.2929
  H  H16  1  0.000000  0.500000  0.811400  1.0  0.2934
  O  O17  1  0.682700  0.457600  0.185500  1.0  -0.8253
  O  O18  1  0.550300  0.937600  0.688600  1.0  -0.4996
  O  O19  1  0.317300  0.542400  0.185500  1.0  -0.8245
  O  O20  1  0.449700  0.062400  0.688600  1.0  -0.4985
  O  O21  1  0.817300  0.957600  0.314500  1.0  -0.8247
  O  O22  1  0.949700  0.437600  0.811400  1.0  -0.4977
  O  O23  1  0.182700  0.042400  0.314500  1.0  -0.825
  O  O24  1  0.050300  0.562400  0.811400  1.0  -0.4983
  O  O25  1  0.317300  0.542400  0.814500  1.0  -0.8248
  O  O26  1  0.449700  0.062400  0.311400  1.0  -0.4962
  O  O27  1  0.682700  0.457600  0.814500  1.0  -0.825
  O  O28  1  0.550300  0.937600  0.311400  1.0  -0.4967
  O  O29  1  0.182700  0.042400  0.685500  1.0  -0.8253
  O  O30  1  0.050300  0.562400  0.188600  1.0  -0.498
  O  O31  1  0.817300  0.957600  0.685500  1.0  -0.8245
  O  O32  1  0.949700  0.437600  0.188600  1.0  -0.4974
  O  O33  1  0.628000  0.743000  0.500000  1.0  -0.8759
  O  O34  1  0.617600  0.205000  0.500000  1.0  -0.8622
  O  O35  1  0.372000  0.257000  0.500000  1.0  -0.8757
  O  O36  1  0.382400  0.795000  0.500000  1.0  -0.8615
  O  O37  1  0.872000  0.243000  0.000000  1.0  -0.8749
  O  O38  1  0.882400  0.705000  0.000000  1.0  -0.8619
  O  O39  1  0.128000  0.757000  0.000000  1.0  -0.8766
  O  O40  1  0.117600  0.295000  0.000000  1.0  -0.8615
  O  O41  1  0.761100  0.659500  0.000000  1.0  -0.8675
  O  O42  1  0.752600  0.197500  0.000000  1.0  -0.8866
  O  O43  1  0.238900  0.340500  0.000000  1.0  -0.8671
  O  O44  1  0.247400  0.802500  0.000000  1.0  -0.8877
  O  O45  1  0.738900  0.159500  0.500000  1.0  -0.8676
  O  O46  1  0.747400  0.697500  0.500000  1.0  -0.887
  O  O47  1  0.261100  0.840500  0.500000  1.0  -0.8673
  O  O48  1  0.252600  0.302500  0.500000  1.0  -0.8871
