# generated using pymatgen
data_Sm2CuH16C28(NO6)2
_symmetry_space_group_name_H-M   'P 1'
_cell_length_a   36.93600000
_cell_length_b   7.00810000
_cell_length_c   6.21270000
_cell_angle_alpha   90.00000000
_cell_angle_beta   97.24600000
_cell_angle_gamma   90.00000000
_symmetry_Int_Tables_number   1
_chemical_formula_structural   Sm2CuH16C28(NO6)2
_chemical_formula_sum   'Sm4 Cu2 H32 C56 N4 O24'
_cell_volume   1595.32154255
_cell_formula_units_Z   2
loop_
 _symmetry_equiv_pos_site_id
 _symmetry_equiv_pos_as_xyz
  1  'x, y, z'
loop_
 _atom_site_type_symbol
 _atom_site_label
 _atom_site_symmetry_multiplicity
 _atom_site_fract_x
 _atom_site_fract_y
 _atom_site_fract_z
 _atom_site_occupancy
 _atom_site_charge
  Sm  Sm1  1  0.219900  0.689390  0.522630  1.0  2.3176
  Sm  Sm2  1  0.719900  0.189390  0.522630  1.0  2.3176
  Sm  Sm3  1  0.780100  0.689390  0.477370  1.0  2.3175
  Sm  Sm4  1  0.280100  0.189390  0.477370  1.0  2.3175
  Cu  Cu5  1  0.000000  0.691600  0.000000  1.0  0.2898
  Cu  Cu6  1  0.500000  0.191600  0.000000  1.0  0.2898
  H  H7  1  0.131100  0.608800  0.070400  1.0  0.0966
  H  H8  1  0.074100  0.601300  0.179000  1.0  0.0761
  H  H9  1  0.030500  0.803400  0.619100  1.0  0.0867
  H  H10  1  0.087400  0.811700  0.494400  1.0  0.1121
  H  H11  1  0.361300  0.543800  0.810400  1.0  0.0871
  H  H12  1  0.413800  0.650400  0.017000  1.0  0.1074
  H  H13  1  0.410700  0.767900  0.360600  1.0  0.091
  H  H14  1  0.355400  0.793900  0.491700  1.0  0.0922
  H  H15  1  0.631100  0.108800  0.070400  1.0  0.0966
  H  H16  1  0.574100  0.101300  0.179000  1.0  0.0761
  H  H17  1  0.530500  0.303400  0.619100  1.0  0.0867
  H  H18  1  0.587400  0.311700  0.494400  1.0  0.1121
  H  H19  1  0.861300  0.043800  0.810400  1.0  0.0871
  H  H20  1  0.913800  0.150400  0.017000  1.0  0.1074
  H  H21  1  0.910700  0.267900  0.360600  1.0  0.091
  H  H22  1  0.855400  0.293900  0.491700  1.0  0.0922
  H  H23  1  0.868900  0.608800  0.929600  1.0  0.0966
  H  H24  1  0.925900  0.601300  0.821000  1.0  0.0764
  H  H25  1  0.969500  0.803400  0.380900  1.0  0.0863
  H  H26  1  0.912600  0.811700  0.505600  1.0  0.1114
  H  H27  1  0.638700  0.543800  0.189600  1.0  0.0863
  H  H28  1  0.586200  0.650400  0.983000  1.0  0.1083
  H  H29  1  0.589300  0.767900  0.639400  1.0  0.0913
  H  H30  1  0.644600  0.793900  0.508300  1.0  0.0925
  H  H31  1  0.368900  0.108800  0.929600  1.0  0.0966
  H  H32  1  0.425900  0.101300  0.821000  1.0  0.0764
  H  H33  1  0.469500  0.303400  0.380900  1.0  0.0863
  H  H34  1  0.412600  0.311700  0.505600  1.0  0.1114
  H  H35  1  0.138700  0.043800  0.189600  1.0  0.0863
  H  H36  1  0.086200  0.150400  0.983000  1.0  0.1083
  H  H37  1  0.089300  0.267900  0.639400  1.0  0.0913
  H  H38  1  0.144600  0.293900  0.508300  1.0  0.0925
  C  C39  1  0.151740  0.700000  0.683400  1.0  0.662
  C  C40  1  0.114950  0.695000  0.766500  1.0  -0.1297
  C  C41  1  0.110810  0.641900  0.973300  1.0  -0.1329
  C  C42  1  0.076500  0.638000  0.037700  1.0  0.1522
  C  C43  1  0.050800  0.756900  0.707000  1.0  0.135
  C  C44  1  0.084900  0.763200  0.631000  1.0  -0.1193
  C  C45  1  0.359900  0.594700  0.947400  1.0  -0.0631
  C  C46  1  0.391510  0.657000  0.071200  1.0  -0.1155
  C  C47  1  0.389470  0.728800  0.275000  1.0  -0.1165
  C  C48  1  0.356360  0.743600  0.353900  1.0  -0.0686
  C  C49  1  0.324640  0.685000  0.231500  1.0  -0.1057
  C  C50  1  0.326350  0.606200  0.022700  1.0  -0.115
  C  C51  1  0.289830  0.676000  0.332600  1.0  0.6549
  C  C52  1  0.293240  0.546900  0.870300  1.0  0.6755
  C  C53  1  0.651740  0.200000  0.683400  1.0  0.662
  C  C54  1  0.614950  0.195000  0.766500  1.0  -0.1297
  C  C55  1  0.610810  0.141900  0.973300  1.0  -0.1329
  C  C56  1  0.576500  0.138000  0.037700  1.0  0.1522
  C  C57  1  0.550800  0.256900  0.707000  1.0  0.135
  C  C58  1  0.584900  0.263200  0.631000  1.0  -0.1193
  C  C59  1  0.859900  0.094700  0.947400  1.0  -0.0631
  C  C60  1  0.891510  0.157000  0.071200  1.0  -0.1155
  C  C61  1  0.889470  0.228800  0.275000  1.0  -0.1165
  C  C62  1  0.856360  0.243600  0.353900  1.0  -0.0686
  C  C63  1  0.824640  0.185000  0.231500  1.0  -0.1057
  C  C64  1  0.826350  0.106200  0.022700  1.0  -0.115
  C  C65  1  0.789830  0.176000  0.332600  1.0  0.6549
  C  C66  1  0.793240  0.046900  0.870300  1.0  0.6755
  C  C67  1  0.848260  0.700000  0.316600  1.0  0.6608
  C  C68  1  0.885050  0.695000  0.233500  1.0  -0.1292
  C  C69  1  0.889190  0.641900  0.026700  1.0  -0.1315
  C  C70  1  0.923500  0.638000  0.962300  1.0  0.1529
  C  C71  1  0.949200  0.756900  0.293000  1.0  0.1365
  C  C72  1  0.915100  0.763200  0.369000  1.0  -0.1205
  C  C73  1  0.640100  0.594700  0.052600  1.0  -0.0627
  C  C74  1  0.608490  0.657000  0.928800  1.0  -0.1136
  C  C75  1  0.610530  0.728800  0.725000  1.0  -0.1172
  C  C76  1  0.643640  0.743600  0.646100  1.0  -0.0682
  C  C77  1  0.675360  0.685000  0.768500  1.0  -0.1038
  C  C78  1  0.673650  0.606200  0.977300  1.0  -0.1126
  C  C79  1  0.710170  0.676000  0.667400  1.0  0.6548
  C  C80  1  0.706760  0.546900  0.129700  1.0  0.6755
  C  C81  1  0.348260  0.200000  0.316600  1.0  0.6608
  C  C82  1  0.385050  0.195000  0.233500  1.0  -0.1292
  C  C83  1  0.389190  0.141900  0.026700  1.0  -0.1315
  C  C84  1  0.423500  0.138000  0.962300  1.0  0.1529
  C  C85  1  0.449200  0.256900  0.293000  1.0  0.1365
  C  C86  1  0.415100  0.263200  0.369000  1.0  -0.1205
  C  C87  1  0.140100  0.094700  0.052600  1.0  -0.0627
  C  C88  1  0.108490  0.157000  0.928800  1.0  -0.1136
  C  C89  1  0.110530  0.228800  0.725000  1.0  -0.1172
  C  C90  1  0.143640  0.243600  0.646100  1.0  -0.0682
  C  C91  1  0.175360  0.185000  0.768500  1.0  -0.1038
  C  C92  1  0.173650  0.106200  0.977300  1.0  -0.1126
  C  C93  1  0.210170  0.176000  0.667400  1.0  0.6548
  C  C94  1  0.206760  0.046900  0.129700  1.0  0.6755
  N  N95  1  0.046570  0.685000  0.904000  1.0  -0.2998
  N  N96  1  0.546570  0.185000  0.904000  1.0  -0.2998
  N  N97  1  0.953430  0.685000  0.096000  1.0  -0.2983
  N  N98  1  0.453430  0.185000  0.096000  1.0  -0.2983
  O  O99  1  0.153370  0.745300  0.489900  1.0  -0.6611
  O  O100  1  0.180380  0.668900  0.809700  1.0  -0.6371
  O  O101  1  0.272830  0.530300  0.348400  1.0  -0.691
  O  O102  1  0.279100  0.838300  0.410100  1.0  -0.84
  O  O103  1  0.266610  0.665800  0.837800  1.0  -0.6526
  O  O104  1  0.296100  0.391000  0.774900  1.0  -0.7483
  O  O105  1  0.653370  0.245300  0.489900  1.0  -0.6611
  O  O106  1  0.680380  0.168900  0.809700  1.0  -0.6371
  O  O107  1  0.772830  0.030300  0.348400  1.0  -0.691
  O  O108  1  0.779100  0.338300  0.410100  1.0  -0.84
  O  O109  1  0.766610  0.165800  0.837800  1.0  -0.6526
  O  O110  1  0.796100  0.891000  0.774900  1.0  -0.7483
  O  O111  1  0.846630  0.745300  0.510100  1.0  -0.6633
  O  O112  1  0.819620  0.668900  0.190300  1.0  -0.6372
  O  O113  1  0.727170  0.530300  0.651600  1.0  -0.6906
  O  O114  1  0.720900  0.838300  0.589900  1.0  -0.8375
  O  O115  1  0.733390  0.665800  0.162200  1.0  -0.6527
  O  O116  1  0.703900  0.391000  0.225100  1.0  -0.7485
  O  O117  1  0.346630  0.245300  0.510100  1.0  -0.6633
  O  O118  1  0.319620  0.168900  0.190300  1.0  -0.6372
  O  O119  1  0.227170  0.030300  0.651600  1.0  -0.6906
  O  O120  1  0.220900  0.338300  0.589900  1.0  -0.8375
  O  O121  1  0.233390  0.165800  0.162200  1.0  -0.6527
  O  O122  1  0.203900  0.891000  0.225100  1.0  -0.7485
