# generated using pymatgen
data_Na4Tb4H68C68N8O39
_symmetry_space_group_name_H-M   'P 1'
_cell_length_a   16.87500000
_cell_length_b   17.31030000
_cell_length_c   20.24410000
_cell_angle_alpha   99.18200000
_cell_angle_beta   97.80900000
_cell_angle_gamma   108.54300000
_symmetry_Int_Tables_number   1
_chemical_formula_structural   Na4Tb4H68C68N8O39
_chemical_formula_sum   'Na8 Tb8 H136 C136 N16 O78'
_cell_volume   5423.55504388
_cell_formula_units_Z   2
loop_
 _symmetry_equiv_pos_site_id
 _symmetry_equiv_pos_as_xyz
  1  'x, y, z'
loop_
 _atom_site_type_symbol
 _atom_site_label
 _atom_site_symmetry_multiplicity
 _atom_site_fract_x
 _atom_site_fract_y
 _atom_site_fract_z
 _atom_site_occupancy
 _atom_site_charge
  Na  Na1  1  0.357400  0.542940  0.545450  1.0  0.9529
  Na  Na2  1  0.044600  0.719600  0.147150  1.0  0.921
  Na  Na3  1  0.840500  0.372400  0.793900  1.0  0.9496
  Na  Na4  1  0.958100  0.427100  0.547200  1.0  0.9653
  Na  Na5  1  0.642600  0.457060  0.454550  1.0  0.9515
  Na  Na6  1  0.955400  0.280400  0.852850  1.0  0.9146
  Na  Na7  1  0.159500  0.627600  0.206100  1.0  0.9511
  Na  Na8  1  0.041900  0.572900  0.452800  1.0  0.9685
  Tb  Tb9  1  0.166390  0.621060  0.900660  1.0  2.2657
  Tb  Tb10  1  0.259020  0.578570  0.743290  1.0  2.2616
  Tb  Tb11  1  0.164130  0.986740  0.270380  1.0  2.2629
  Tb  Tb12  1  0.247730  0.207640  0.378590  1.0  2.2687
  Tb  Tb13  1  0.833610  0.378940  0.099340  1.0  2.2653
  Tb  Tb14  1  0.740980  0.421430  0.256710  1.0  2.2613
  Tb  Tb15  1  0.835870  0.013260  0.729620  1.0  2.2617
  Tb  Tb16  1  0.752270  0.792360  0.621410  1.0  2.27
  H  H17  1  0.118100  0.881600  0.790200  1.0  0.0951
  H  H18  1  0.360900  0.918500  0.776300  1.0  0.0945
  H  H19  1  0.249100  0.035500  0.809800  1.0  0.1257
  H  H20  1  0.309300  0.022900  0.757400  1.0  0.1207
  H  H21  1  0.208600  0.995900  0.730600  1.0  0.1189
  H  H22  1  0.045800  0.678300  0.770100  1.0  0.0904
  H  H23  1  0.027600  0.759400  0.803700  1.0  0.0718
  H  H24  1  0.135200  0.813700  0.931900  1.0  0.0996
  H  H25  1  0.034800  0.789600  0.930200  1.0  0.079
  H  H26  1  0.966100  0.632600  0.912600  1.0  0.1141
  H  H27  1  0.936100  0.660600  0.844600  1.0  0.0867
  H  H28  1  0.381300  0.754500  0.839400  1.0  0.1051
  H  H29  1  0.428400  0.827700  0.804000  1.0  0.0762
  H  H30  1  0.373300  0.802800  0.682100  1.0  0.0784
  H  H31  1  0.383700  0.721800  0.639200  1.0  0.1024
  H  H32  1  0.465600  0.679300  0.700000  1.0  0.1133
  H  H33  1  0.502700  0.757000  0.763900  1.0  0.0893
  H  H34  1  0.296800  0.313200  0.849300  1.0  0.1022
  H  H35  1  0.410400  0.500300  0.011700  1.0  0.0868
  H  H36  1  0.361400  0.301700  0.983700  1.0  0.1332
  H  H37  1  0.428500  0.319800  0.934300  1.0  0.1259
  H  H38  1  0.448000  0.380600  0.007500  1.0  0.1209
  H  H39  1  0.148400  0.383600  0.779000  1.0  0.106
  H  H40  1  0.196400  0.319300  0.760400  1.0  0.0828
  H  H41  1  0.355700  0.424500  0.746200  1.0  0.1033
  H  H42  1  0.301600  0.353300  0.679900  1.0  0.0741
  H  H43  1  0.190200  0.393100  0.617400  1.0  0.0883
  H  H44  1  0.144100  0.322000  0.655400  1.0  0.0725
  H  H45  1  0.399700  0.631700  0.014400  1.0  0.0717
  H  H46  1  0.365300  0.652800  0.944500  1.0  0.0991
  H  H47  1  0.285100  0.548000  0.064000  1.0  0.0884
  H  H48  1  0.216700  0.590900  0.079700  1.0  0.1209
  H  H49  1  0.265500  0.718200  0.079100  1.0  0.119
  H  H50  1  0.362400  0.727700  0.076100  1.0  0.089
  H  H51  1  0.917800  0.956400  0.428800  1.0  0.0944
  H  H52  1  0.905200  0.161700  0.367100  1.0  0.0969
  H  H53  1  0.783200  0.074500  0.400000  1.0  0.1054
  H  H54  1  0.782900  0.988300  0.419100  1.0  0.1207
  H  H55  1  0.828100  0.073900  0.474700  1.0  0.1174
  H  H56  1  0.126400  0.987700  0.421500  1.0  0.106
  H  H57  1  0.041200  0.920600  0.431800  1.0  0.0723
  H  H58  1  0.969700  0.793900  0.275800  1.0  0.1133
  H  H59  1  0.936700  0.851200  0.327200  1.0  0.0865
  H  H60  1  0.085000  0.820300  0.398500  1.0  0.0873
  H  H61  1  0.082500  0.783800  0.320200  1.0  0.1121
  H  H62  1  0.005500  0.235900  0.309800  1.0  0.0676
  H  H63  1  0.051600  0.182300  0.268600  1.0  0.0964
  H  H64  1  0.094500  0.355900  0.406300  1.0  0.0903
  H  H65  1  0.093500  0.279900  0.442700  1.0  0.1045
  H  H66  1  0.112900  0.338900  0.283600  1.0  0.074
  H  H67  1  0.205400  0.377100  0.332600  1.0  0.0932
  H  H68  1  0.505300  0.105400  0.481000  1.0  0.0986
  H  H69  1  0.506900  0.033900  0.282600  1.0  0.0977
  H  H70  1  0.603000  0.003300  0.374800  1.0  0.1186
  H  H71  1  0.651100  0.102200  0.394000  1.0  0.1141
  H  H72  1  0.616600  0.054000  0.451300  1.0  0.1173
  H  H73  1  0.387700  0.120400  0.518500  1.0  0.0818
  H  H74  1  0.298500  0.085500  0.465700  1.0  0.1137
  H  H75  1  0.324000  0.881700  0.174300  1.0  0.0809
  H  H76  1  0.329100  0.905200  0.255000  1.0  0.0782
  H  H77  1  0.351600  0.099600  0.216500  1.0  0.096
  H  H78  1  0.404300  0.040100  0.196800  1.0  0.0735
  H  H79  1  0.337600  0.199600  0.580100  1.0  0.0902
  H  H80  1  0.340200  0.288200  0.565200  1.0  0.1076
  H  H81  1  0.442900  0.326300  0.522300  1.0  0.101
  H  H82  1  0.482800  0.254400  0.507700  1.0  0.091
  H  H83  1  0.210200  0.911100  0.109800  1.0  0.0915
  H  H84  1  0.293500  0.985700  0.105800  1.0  0.0823
  H  H85  1  0.881900  0.118400  0.209800  1.0  0.0949
  H  H86  1  0.639100  0.081500  0.223700  1.0  0.0933
  H  H87  1  0.750900  0.964500  0.190200  1.0  0.1258
  H  H88  1  0.690700  0.977100  0.242600  1.0  0.1206
  H  H89  1  0.791400  0.004100  0.269400  1.0  0.1188
  H  H90  1  0.954200  0.321700  0.229900  1.0  0.0886
  H  H91  1  0.972400  0.240600  0.196300  1.0  0.0718
  H  H92  1  0.864800  0.186300  0.068100  1.0  0.0998
  H  H93  1  0.965200  0.210400  0.069800  1.0  0.0785
  H  H94  1  0.033900  0.367400  0.087400  1.0  0.1155
  H  H95  1  0.063900  0.339400  0.155400  1.0  0.0871
  H  H96  1  0.618700  0.245500  0.160600  1.0  0.1072
  H  H97  1  0.571600  0.172300  0.196000  1.0  0.0778
  H  H98  1  0.626700  0.197200  0.317900  1.0  0.0762
  H  H99  1  0.616300  0.278200  0.360800  1.0  0.1042
  H  H100  1  0.534400  0.320700  0.300000  1.0  0.114
  H  H101  1  0.497300  0.243000  0.236100  1.0  0.0892
  H  H102  1  0.703200  0.686800  0.150700  1.0  0.1022
  H  H103  1  0.589600  0.499700  0.988300  1.0  0.0872
  H  H104  1  0.638600  0.698300  0.016300  1.0  0.1331
  H  H105  1  0.571500  0.680200  0.065700  1.0  0.1263
  H  H106  1  0.552000  0.619400  0.992500  1.0  0.1215
  H  H107  1  0.851600  0.616400  0.221000  1.0  0.1057
  H  H108  1  0.803600  0.680700  0.239600  1.0  0.0869
  H  H109  1  0.644300  0.575500  0.253800  1.0  0.1036
  H  H110  1  0.698400  0.646700  0.320100  1.0  0.0758
  H  H111  1  0.809800  0.606900  0.382600  1.0  0.086
  H  H112  1  0.855900  0.678000  0.344600  1.0  0.0745
  H  H113  1  0.600300  0.368300  0.985600  1.0  0.0699
  H  H114  1  0.634700  0.347200  0.055500  1.0  0.1006
  H  H115  1  0.714900  0.452000  0.936000  1.0  0.0891
  H  H116  1  0.783300  0.409100  0.920300  1.0  0.121
  H  H117  1  0.734500  0.281800  0.920900  1.0  0.1181
  H  H118  1  0.637600  0.272300  0.923900  1.0  0.0899
  H  H119  1  0.082200  0.043600  0.571200  1.0  0.094
  H  H120  1  0.094800  0.838300  0.632900  1.0  0.0967
  H  H121  1  0.216800  0.925500  0.600000  1.0  0.1065
  H  H122  1  0.217100  0.011700  0.580900  1.0  0.1226
  H  H123  1  0.171900  0.926100  0.525300  1.0  0.1187
  H  H124  1  0.873600  0.012300  0.578500  1.0  0.1053
  H  H125  1  0.958800  0.079400  0.568200  1.0  0.0726
  H  H126  1  0.030300  0.206100  0.724200  1.0  0.114
  H  H127  1  0.063300  0.148800  0.672800  1.0  0.0848
  H  H128  1  0.915000  0.179700  0.601500  1.0  0.0879
  H  H129  1  0.917500  0.216200  0.679800  1.0  0.112
  H  H130  1  0.994500  0.764100  0.690200  1.0  0.0684
  H  H131  1  0.948400  0.817700  0.731400  1.0  0.0945
  H  H132  1  0.905500  0.644100  0.593700  1.0  0.0897
  H  H133  1  0.906500  0.720100  0.557300  1.0  0.1024
  H  H134  1  0.887100  0.661100  0.716400  1.0  0.076
  H  H135  1  0.794600  0.622900  0.667400  1.0  0.0894
  H  H136  1  0.494700  0.894600  0.519000  1.0  0.0995
  H  H137  1  0.493100  0.966100  0.717400  1.0  0.0963
  H  H138  1  0.397000  0.996700  0.625200  1.0  0.1197
  H  H139  1  0.348900  0.897800  0.606000  1.0  0.115
  H  H140  1  0.383400  0.946000  0.548700  1.0  0.1178
  H  H141  1  0.612300  0.879600  0.481500  1.0  0.0851
  H  H142  1  0.701500  0.914500  0.534300  1.0  0.1121
  H  H143  1  0.676000  0.118300  0.825700  1.0  0.0801
  H  H144  1  0.670900  0.094800  0.745000  1.0  0.0788
  H  H145  1  0.648400  0.900400  0.783500  1.0  0.0964
  H  H146  1  0.595700  0.959900  0.803200  1.0  0.0735
  H  H147  1  0.662400  0.800400  0.419900  1.0  0.0898
  H  H148  1  0.659800  0.711800  0.434800  1.0  0.1074
  H  H149  1  0.557100  0.673700  0.477700  1.0  0.0998
  H  H150  1  0.517200  0.745600  0.492300  1.0  0.0917
  H  H151  1  0.789800  0.088900  0.890200  1.0  0.0908
  H  H152  1  0.706500  0.014300  0.894200  1.0  0.0831
  C  C153  1  0.219900  0.751800  0.800000  1.0  0.2319
  C  C154  1  0.154700  0.782200  0.802400  1.0  0.0416
  C  C155  1  0.165200  0.862700  0.791100  1.0  -0.1703
  C  C156  1  0.241300  0.915200  0.781400  1.0  0.114
  C  C157  1  0.307400  0.883900  0.782600  1.0  -0.1948
  C  C158  1  0.299600  0.804500  0.792500  1.0  0.0463
  C  C159  1  0.253100  0.999500  0.768800  1.0  -0.4237
  C  C160  1  0.067000  0.727800  0.808300  1.0  -0.1162
  C  C161  1  0.082500  0.767800  0.932600  1.0  -0.1523
  C  C162  1  0.093100  0.736400  0.998100  1.0  0.7387
  C  C163  1  0.978000  0.638900  0.866800  1.0  -0.1375
  C  C164  1  0.967700  0.554700  0.824800  1.0  0.7414
  C  C165  1  0.376600  0.777900  0.798200  1.0  -0.1313
  C  C166  1  0.352900  0.741100  0.672900  1.0  -0.185
  C  C167  1  0.260100  0.708100  0.643000  1.0  0.7331
  C  C168  1  0.456700  0.702300  0.745300  1.0  -0.1741
  C  C169  1  0.462300  0.643900  0.792300  1.0  0.7296
  C  C170  1  0.277300  0.496100  0.876600  1.0  0.1842
  C  C171  1  0.264800  0.415200  0.842000  1.0  0.043
  C  C172  1  0.305600  0.368300  0.872800  1.0  -0.2147
  C  C173  1  0.358600  0.398800  0.936700  1.0  0.0988
  C  C174  1  0.372300  0.478200  0.968600  1.0  -0.1783
  C  C175  1  0.332700  0.529500  0.940900  1.0  0.0542
  C  C176  1  0.403100  0.345500  0.968400  1.0  -0.4341
  C  C177  1  0.204500  0.379300  0.774100  1.0  -0.0857
  C  C178  1  0.313500  0.411800  0.703300  1.0  -0.1518
  C  C179  1  0.349000  0.469500  0.658300  1.0  0.7002
  C  C180  1  0.166900  0.383100  0.658800  1.0  -0.1227
  C  C181  1  0.094300  0.418400  0.662200  1.0  0.6824
  C  C182  1  0.349800  0.615500  0.976600  1.0  -0.1109
  C  C183  1  0.239500  0.566000  0.042600  1.0  -0.18
  C  C184  1  0.168400  0.489800  0.997800  1.0  0.7437
  C  C185  1  0.305300  0.715100  0.047900  1.0  -0.1706
  C  C186  1  0.309600  0.778500  0.005600  1.0  0.7482
  C  C187  1  0.053000  0.078500  0.356000  1.0  0.1927
  C  C188  1  0.018600  0.011400  0.386800  1.0  0.024
  C  C189  1  0.941800  0.002200  0.408700  1.0  -0.2275
  C  C190  1  0.899500  0.058200  0.401700  1.0  0.0586
  C  C191  1  0.934200  0.123500  0.372500  1.0  -0.1943
  C  C192  1  0.011100  0.135600  0.350300  1.0  0.0223
  C  C193  1  0.816000  0.047800  0.426000  1.0  -0.387
  C  C194  1  0.066500  0.953900  0.399500  1.0  -0.1251
  C  C195  1  0.977100  0.852400  0.295900  1.0  -0.219
  C  C196  1  0.955100  0.894200  0.239100  1.0  0.7154
  C  C197  1  0.103700  0.835300  0.356500  1.0  -0.1558
  C  C198  1  0.199200  0.868700  0.369600  1.0  0.7444
  C  C199  1  0.046700  0.206400  0.315000  1.0  -0.1153
  C  C200  1  0.125500  0.317800  0.416000  1.0  -0.2242
  C  C201  1  0.215000  0.368400  0.457400  1.0  0.7081
  C  C202  1  0.161000  0.324800  0.305600  1.0  -0.1178
  C  C203  1  0.197300  0.284200  0.251300  1.0  0.7679
  C  C204  1  0.362500  0.089500  0.348300  1.0  0.1934
  C  C205  1  0.401200  0.104400  0.418700  1.0  0.0586
  C  C206  1  0.478900  0.094300  0.434300  1.0  -0.2272
  C  C207  1  0.520500  0.068700  0.385100  1.0  0.0748
  C  C208  1  0.480400  0.052800  0.317300  1.0  -0.2371
  C  C209  1  0.402400  0.063600  0.298200  1.0  0.0635
  C  C210  1  0.605400  0.055900  0.402900  1.0  -0.3921
  C  C211  1  0.221800  0.197700  0.531400  1.0  0.7431
  C  C212  1  0.357400  0.126200  0.475200  1.0  -0.0886
  C  C213  1  0.293700  0.897800  0.209700  1.0  -0.1817
  C  C214  1  0.363100  0.049000  0.225000  1.0  -0.0809
  C  C215  1  0.453500  0.297600  0.422900  1.0  0.7595
  C  C216  1  0.317800  0.227500  0.545500  1.0  -0.2014
  C  C217  1  0.208000  0.829000  0.202000  1.0  0.7058
  C  C218  1  0.437900  0.275300  0.489400  1.0  -0.2159
  C  C219  1  0.246200  0.969800  0.130700  1.0  -0.1426
  C  C220  1  0.194800  0.023600  0.122800  1.0  0.756
  C  C221  1  0.780100  0.248200  0.200000  1.0  0.231
  C  C222  1  0.845300  0.217800  0.197600  1.0  0.0416
  C  C223  1  0.834800  0.137300  0.208900  1.0  -0.1666
  C  C224  1  0.758700  0.084800  0.218600  1.0  0.1141
  C  C225  1  0.692600  0.116100  0.217400  1.0  -0.1947
  C  C226  1  0.700400  0.195500  0.207500  1.0  0.0454
  C  C227  1  0.746900  0.000500  0.231200  1.0  -0.4211
  C  C228  1  0.933000  0.272200  0.191700  1.0  -0.1174
  C  C229  1  0.917500  0.232200  0.067400  1.0  -0.1517
  C  C230  1  0.906900  0.263600  0.001900  1.0  0.7391
  C  C231  1  0.022000  0.361100  0.133200  1.0  -0.1364
  C  C232  1  0.032300  0.445300  0.175200  1.0  0.7415
  C  C233  1  0.623400  0.222100  0.201800  1.0  -0.1322
  C  C234  1  0.647100  0.258900  0.327100  1.0  -0.1857
  C  C235  1  0.739900  0.291900  0.357000  1.0  0.7358
  C  C236  1  0.543300  0.297700  0.254700  1.0  -0.1765
  C  C237  1  0.537700  0.356100  0.207700  1.0  0.7321
  C  C238  1  0.722700  0.503900  0.123400  1.0  0.1839
  C  C239  1  0.735200  0.584800  0.158000  1.0  0.043
  C  C240  1  0.694400  0.631700  0.127200  1.0  -0.2216
  C  C241  1  0.641400  0.601200  0.063300  1.0  0.0986
  C  C242  1  0.627700  0.521800  0.031400  1.0  -0.1778
  C  C243  1  0.667300  0.470500  0.059100  1.0  0.0548
  C  C244  1  0.596900  0.654500  0.031600  1.0  -0.4352
  C  C245  1  0.795500  0.620700  0.225900  1.0  -0.0842
  C  C246  1  0.686500  0.588200  0.296700  1.0  -0.1544
  C  C247  1  0.651000  0.530500  0.341700  1.0  0.7012
  C  C248  1  0.833100  0.616900  0.341200  1.0  -0.1209
  C  C249  1  0.905700  0.581600  0.337800  1.0  0.6854
  C  C250  1  0.650200  0.384500  0.023400  1.0  -0.1113
  C  C251  1  0.760500  0.434000  0.957400  1.0  -0.1786
  C  C252  1  0.831600  0.510200  0.002200  1.0  0.7435
  C  C253  1  0.694700  0.284900  0.952100  1.0  -0.1672
  C  C254  1  0.690400  0.221500  0.994400  1.0  0.7477
  C  C255  1  0.947000  0.921500  0.644000  1.0  0.1924
  C  C256  1  0.981400  0.988600  0.613200  1.0  0.0238
  C  C257  1  0.058200  0.997800  0.591300  1.0  -0.2299
  C  C258  1  0.100500  0.941800  0.598300  1.0  0.0598
  C  C259  1  0.065800  0.876500  0.627500  1.0  -0.1904
  C  C260  1  0.988900  0.864400  0.649700  1.0  0.0233
  C  C261  1  0.184000  0.952200  0.574000  1.0  -0.3893
  C  C262  1  0.933500  0.046100  0.600500  1.0  -0.1222
  C  C263  1  0.022900  0.147600  0.704100  1.0  -0.2191
  C  C264  1  0.044900  0.105800  0.760900  1.0  0.7144
  C  C265  1  0.896300  0.164700  0.643500  1.0  -0.1574
  C  C266  1  0.800800  0.131300  0.630400  1.0  0.7434
  C  C267  1  0.953300  0.793600  0.685000  1.0  -0.1194
  C  C268  1  0.874500  0.682200  0.584000  1.0  -0.2247
  C  C269  1  0.785000  0.631600  0.542600  1.0  0.7073
  C  C270  1  0.839000  0.675200  0.694400  1.0  -0.1182
  C  C271  1  0.802700  0.715800  0.748700  1.0  0.7733
  C  C272  1  0.637500  0.910500  0.651700  1.0  0.1929
  C  C273  1  0.598800  0.895600  0.581300  1.0  0.0583
  C  C274  1  0.521100  0.905700  0.565700  1.0  -0.2328
  C  C275  1  0.479500  0.931300  0.614900  1.0  0.0735
  C  C276  1  0.519600  0.947200  0.682700  1.0  -0.242
  C  C277  1  0.597600  0.936400  0.701800  1.0  0.0636
  C  C278  1  0.394600  0.944100  0.597100  1.0  -0.3909
  C  C279  1  0.778200  0.802300  0.468600  1.0  0.7442
  C  C280  1  0.642600  0.873800  0.524800  1.0  -0.0884
  C  C281  1  0.706300  0.102200  0.790300  1.0  -0.1844
  C  C282  1  0.636900  0.951000  0.775000  1.0  -0.0864
  C  C283  1  0.546500  0.702400  0.577100  1.0  0.7558
  C  C284  1  0.682200  0.772500  0.454500  1.0  -0.1996
  C  C285  1  0.792000  0.171000  0.798000  1.0  0.7063
  C  C286  1  0.562100  0.724700  0.510600  1.0  -0.2127
  C  C287  1  0.753800  0.030200  0.869300  1.0  -0.1438
  C  C288  1  0.805200  0.976400  0.877200  1.0  0.7481
  N  N289  1  0.353400  0.211300  0.484500  1.0  -0.1519
  N  N290  1  0.065000  0.699100  0.874200  1.0  -0.1859
  N  N291  1  0.373500  0.714200  0.737100  1.0  -0.1651
  N  N292  1  0.234800  0.421800  0.718900  1.0  -0.195
  N  N293  1  0.276300  0.629200  0.005300  1.0  -0.1436
  N  N294  1  0.065900  0.895200  0.335900  1.0  -0.1731
  N  N295  1  0.131100  0.268200  0.350800  1.0  -0.2022
  N  N296  1  0.282000  0.975900  0.202800  1.0  -0.1762
  N  N297  1  0.646600  0.788700  0.515500  1.0  -0.1543
  N  N298  1  0.935000  0.300900  0.125800  1.0  -0.1846
  N  N299  1  0.626500  0.285800  0.262900  1.0  -0.1654
  N  N300  1  0.765200  0.578200  0.281100  1.0  -0.1965
  N  N301  1  0.723700  0.370800  0.994700  1.0  -0.1432
  N  N302  1  0.934100  0.104800  0.664100  1.0  -0.1761
  N  N303  1  0.868900  0.731800  0.649200  1.0  -0.2036
  N  N304  1  0.718000  0.024100  0.797200  1.0  -0.1772
  O  O305  1  0.144500  0.849900  0.210600  1.0  -0.6666
  O  O306  1  0.183600  0.176900  0.469700  1.0  -0.6378
  O  O307  1  0.162800  0.044900  0.173300  1.0  -0.6545
  O  O308  1  0.389900  0.280700  0.374300  1.0  -0.654
  O  O309  1  0.210500  0.672700  0.807000  1.0  -0.7007
  O  O310  1  0.112700  0.672100  0.994400  1.0  -0.643
  O  O311  1  0.081700  0.776200  0.050400  1.0  -0.6329
  O  O312  1  0.033600  0.534600  0.829300  1.0  -0.6737
  O  O313  1  0.894900  0.511200  0.791300  1.0  -0.5868
  O  O314  1  0.214300  0.639800  0.656900  1.0  -0.6621
  O  O315  1  0.230900  0.746300  0.605300  1.0  -0.6147
  O  O316  1  0.394200  0.597000  0.804000  1.0  -0.651
  O  O317  1  0.533500  0.643600  0.816000  1.0  -0.5461
  O  O318  1  0.237800  0.543100  0.848600  1.0  -0.6989
  O  O319  1  0.323300  0.531200  0.655400  1.0  -0.6786
  O  O320  1  0.404200  0.456800  0.626000  1.0  -0.6732
  O  O321  1  0.116300  0.493400  0.694700  1.0  -0.6878
  O  O322  1  0.021900  0.373500  0.631500  1.0  -0.5892
  O  O323  1  0.124500  0.502600  0.947400  1.0  -0.6627
  O  O324  1  0.154300  0.420700  0.014200  1.0  -0.5898
  O  O325  1  0.268000  0.755400  0.945000  1.0  -0.6569
  O  O326  1  0.349900  0.853900  0.033400  1.0  -0.5737
  O  O327  1  0.126600  0.087800  0.332800  1.0  -0.7026
  O  O328  1  0.016900  0.941500  0.218500  1.0  -0.6947
  O  O329  1  0.880000  0.875600  0.213800  1.0  -0.5643
  O  O330  1  0.235200  0.934600  0.350900  1.0  -0.6451
  O  O331  1  0.237900  0.826900  0.395400  1.0  -0.5788
  O  O332  1  0.276300  0.344200  0.444000  1.0  -0.6429
  O  O333  1  0.224300  0.431700  0.502500  1.0  -0.6461
  O  O334  1  0.234800  0.236600  0.268000  1.0  -0.6402
  O  O335  1  0.188200  0.300800  0.192700  1.0  -0.5559
  O  O336  1  0.286500  0.098100  0.332100  1.0  -0.6834
  O  O337  1  0.185200  0.198500  0.581200  1.0  -0.5996
  O  O338  1  0.528100  0.337500  0.418900  1.0  -0.6732
  O  O339  1  0.205800  0.756400  0.189900  1.0  -0.6605
  O  O340  1  0.181600  0.041700  0.066400  1.0  -0.5088
  O  O341  1  0.895300  0.493300  0.468000  1.0  -0.5028
  O  O342  1  0.022600  0.634500  0.233900  1.0  -0.4628
  O  O343  1  0.056300  0.591800  0.094100  1.0  -0.5179
  O  O344  1  0.855500  0.150100  0.789400  1.0  -0.6647
  O  O345  1  0.816400  0.823100  0.530300  1.0  -0.6366
  O  O346  1  0.837200  0.955100  0.826700  1.0  -0.6557
  O  O347  1  0.610100  0.719300  0.625700  1.0  -0.6572
  O  O348  1  0.789500  0.327300  0.193000  1.0  -0.7005
  O  O349  1  0.887300  0.327900  0.005600  1.0  -0.6408
  O  O350  1  0.918300  0.223800  0.949600  1.0  -0.6305
  O  O351  1  0.966400  0.465400  0.170700  1.0  -0.6723
  O  O352  1  0.105100  0.488800  0.208700  1.0  -0.5878
  O  O353  1  0.785700  0.360200  0.343100  1.0  -0.6661
  O  O354  1  0.769100  0.253700  0.394700  1.0  -0.6144
  O  O355  1  0.605800  0.403000  0.196000  1.0  -0.6491
  O  O356  1  0.466500  0.356400  0.184000  1.0  -0.5433
  O  O357  1  0.762200  0.456900  0.151400  1.0  -0.6997
  O  O358  1  0.676700  0.468800  0.344600  1.0  -0.679
  O  O359  1  0.595800  0.543200  0.374000  1.0  -0.6722
  O  O360  1  0.883700  0.506600  0.305300  1.0  -0.6857
  O  O361  1  0.978100  0.626500  0.368500  1.0  -0.5893
  O  O362  1  0.875500  0.497400  0.052600  1.0  -0.6619
  O  O363  1  0.845700  0.579300  0.985800  1.0  -0.5905
  O  O364  1  0.732000  0.244600  0.055000  1.0  -0.6585
  O  O365  1  0.650100  0.146100  0.966600  1.0  -0.57
  O  O366  1  0.873400  0.912200  0.667200  1.0  -0.7039
  O  O367  1  0.983100  0.058500  0.781500  1.0  -0.6978
  O  O368  1  0.120000  0.124400  0.786200  1.0  -0.5617
  O  O369  1  0.764800  0.065400  0.649100  1.0  -0.6472
  O  O370  1  0.762100  0.173100  0.604600  1.0  -0.5771
  O  O371  1  0.723700  0.655800  0.556000  1.0  -0.6426
  O  O372  1  0.775700  0.568300  0.497500  1.0  -0.646
  O  O373  1  0.765200  0.763400  0.732000  1.0  -0.6417
  O  O374  1  0.811800  0.699200  0.807300  1.0  -0.5586
  O  O375  1  0.713500  0.901900  0.667900  1.0  -0.6835
  O  O376  1  0.814800  0.801500  0.418800  1.0  -0.6025
  O  O377  1  0.471900  0.662500  0.581100  1.0  -0.6739
  O  O378  1  0.794200  0.243600  0.810100  1.0  -0.6591
  O  O379  1  0.818400  0.958300  0.933600  1.0  -0.5088
  O  O380  1  0.104700  0.506700  0.532000  1.0  -0.5053
  O  O381  1  0.977400  0.365500  0.766100  1.0  -0.4621
  O  O382  1  0.943700  0.408200  0.905900  1.0  -0.5167
