# generated using pymatgen
data_MnH2(CO2)2
_symmetry_space_group_name_H-M   'P 1'
_cell_length_a   10.15100000
_cell_length_b   11.69540000
_cell_length_c   14.91620000
_cell_angle_alpha   91.64200000
_cell_angle_beta   90.00000000
_cell_angle_gamma   90.00000000
_symmetry_Int_Tables_number   1
_chemical_formula_structural   MnH2(CO2)2
_chemical_formula_sum   'Mn12 H24 C24 O48'
_cell_volume   1770.12419552
_cell_formula_units_Z   12
loop_
 _symmetry_equiv_pos_site_id
 _symmetry_equiv_pos_as_xyz
  1  'x, y, z'
loop_
 _atom_site_type_symbol
 _atom_site_label
 _atom_site_symmetry_multiplicity
 _atom_site_fract_x
 _atom_site_fract_y
 _atom_site_fract_z
 _atom_site_occupancy
 _atom_site_charge
  Mn  Mn1  1  0.102690  0.760390  0.185990  1.0  1.1446
  Mn  Mn2  1  0.917400  0.743210  0.369010  1.0  1.1581
  Mn  Mn3  1  0.602690  0.739610  0.314010  1.0  1.1448
  Mn  Mn4  1  0.417400  0.756790  0.130990  1.0  1.1552
  Mn  Mn5  1  0.897310  0.239610  0.814010  1.0  1.1443
  Mn  Mn6  1  0.082600  0.256790  0.630990  1.0  1.158
  Mn  Mn7  1  0.397310  0.260390  0.685990  1.0  1.1442
  Mn  Mn8  1  0.582600  0.243210  0.869010  1.0  1.1579
  Mn  Mn9  1  0.000000  0.500000  0.500000  1.0  1.1697
  Mn  Mn10  1  0.500000  0.000000  0.000000  1.0  1.1697
  Mn  Mn11  1  0.000000  0.000000  0.500000  1.0  1.1572
  Mn  Mn12  1  0.500000  0.500000  0.000000  1.0  1.1572
  H  H13  1  0.247300  0.855200  0.371400  1.0  0.0147
  H  H14  1  0.838900  0.191200  0.429300  1.0  0.0134
  H  H15  1  0.013000  0.016900  0.233200  1.0  0.0036
  H  H16  1  0.384600  0.051400  0.543800  1.0  0.0179
  H  H17  1  0.196600  0.523000  0.264100  1.0  0.0141
  H  H18  1  0.705900  0.498000  0.485000  1.0  0.0168
  H  H19  1  0.747300  0.644800  0.128600  1.0  0.0148
  H  H20  1  0.338900  0.308800  0.070700  1.0  0.0131
  H  H21  1  0.513000  0.483100  0.266800  1.0  0.0032
  H  H22  1  0.884600  0.448600  0.956200  1.0  0.0186
  H  H23  1  0.696600  0.977000  0.235900  1.0  0.0134
  H  H24  1  0.205900  0.002000  0.015000  1.0  0.0166
  H  H25  1  0.752700  0.144800  0.628600  1.0  0.0143
  H  H26  1  0.161100  0.808800  0.570700  1.0  0.0135
  H  H27  1  0.987000  0.983100  0.766800  1.0  0.0031
  H  H28  1  0.615400  0.948600  0.456200  1.0  0.0179
  H  H29  1  0.803400  0.477000  0.735900  1.0  0.0135
  H  H30  1  0.294100  0.502000  0.515000  1.0  0.0174
  H  H31  1  0.252700  0.355200  0.871400  1.0  0.0146
  H  H32  1  0.661100  0.691200  0.929300  1.0  0.0141
  H  H33  1  0.487000  0.516900  0.733200  1.0  0.0036
  H  H34  1  0.115400  0.551400  0.043800  1.0  0.0172
  H  H35  1  0.303400  0.023000  0.764100  1.0  0.0151
  H  H36  1  0.794100  0.998000  0.985000  1.0  0.0173
  C  C37  1  0.321500  0.829400  0.329440  1.0  0.668
  C  C38  1  0.131300  0.552400  0.314730  1.0  0.6455
  C  C39  1  0.013300  0.980080  0.289620  1.0  0.677
  C  C40  1  0.289500  0.073500  0.551500  1.0  0.661
  C  C41  1  0.720200  0.565700  0.445370  1.0  0.6701
  C  C42  1  0.899900  0.242160  0.467280  1.0  0.6801
  C  C43  1  0.821500  0.670600  0.170560  1.0  0.6678
  C  C44  1  0.631300  0.947600  0.185270  1.0  0.6452
  C  C45  1  0.513300  0.519920  0.210380  1.0  0.6765
  C  C46  1  0.789500  0.426500  0.948500  1.0  0.6599
  C  C47  1  0.220200  0.934300  0.054630  1.0  0.6699
  C  C48  1  0.399900  0.257840  0.032720  1.0  0.6791
  C  C49  1  0.678500  0.170600  0.670560  1.0  0.6668
  C  C50  1  0.868700  0.447600  0.685270  1.0  0.6459
  C  C51  1  0.986700  0.019920  0.710380  1.0  0.6763
  C  C52  1  0.710500  0.926500  0.448500  1.0  0.6595
  C  C53  1  0.279800  0.434300  0.554630  1.0  0.6697
  C  C54  1  0.100100  0.757840  0.532720  1.0  0.6788
  C  C55  1  0.178500  0.329400  0.829440  1.0  0.6672
  C  C56  1  0.368700  0.052400  0.814730  1.0  0.6465
  C  C57  1  0.486700  0.480080  0.789620  1.0  0.6764
  C  C58  1  0.210500  0.573500  0.051500  1.0  0.6599
  C  C59  1  0.779800  0.065700  0.945370  1.0  0.6703
  C  C60  1  0.600100  0.742160  0.967280  1.0  0.6786
  O  O61  1  0.295830  0.806600  0.248180  1.0  -0.6536
  O  O62  1  0.839090  0.598700  0.439060  1.0  -0.6597
  O  O63  1  0.971610  0.186240  0.521020  1.0  -0.6776
  O  O64  1  0.261080  0.153600  0.607170  1.0  -0.6664
  O  O65  1  0.078010  0.648740  0.303390  1.0  -0.6625
  O  O66  1  0.002840  0.872540  0.281660  1.0  -0.6746
  O  O67  1  0.000700  0.037140  0.359120  1.0  -0.5926
  O  O68  1  0.624070  0.607130  0.407340  1.0  -0.5948
  O  O69  1  0.428930  0.815040  0.367330  1.0  -0.6
  O  O70  1  0.895370  0.346370  0.462620  1.0  -0.5951
  O  O71  1  0.111300  0.488220  0.376750  1.0  -0.5849
  O  O72  1  0.211210  0.018330  0.504200  1.0  -0.5838
  O  O73  1  0.795830  0.693400  0.251820  1.0  -0.6529
  O  O74  1  0.339090  0.901300  0.060940  1.0  -0.6598
  O  O75  1  0.471610  0.313760  0.978980  1.0  -0.6784
  O  O76  1  0.761080  0.346400  0.892830  1.0  -0.6661
  O  O77  1  0.578010  0.851260  0.196610  1.0  -0.662
  O  O78  1  0.502840  0.627460  0.218340  1.0  -0.6747
  O  O79  1  0.500700  0.462860  0.140880  1.0  -0.5927
  O  O80  1  0.124070  0.892870  0.092660  1.0  -0.5947
  O  O81  1  0.928930  0.684960  0.132670  1.0  -0.5998
  O  O82  1  0.395370  0.153630  0.037380  1.0  -0.5942
  O  O83  1  0.611300  0.011780  0.123250  1.0  -0.5844
  O  O84  1  0.711210  0.481670  0.995800  1.0  -0.5828
  O  O85  1  0.704170  0.193400  0.751820  1.0  -0.6527
  O  O86  1  0.160910  0.401300  0.560940  1.0  -0.6602
  O  O87  1  0.028390  0.813760  0.478980  1.0  -0.678
  O  O88  1  0.738920  0.846400  0.392830  1.0  -0.6664
  O  O89  1  0.921990  0.351260  0.696610  1.0  -0.6614
  O  O90  1  0.997160  0.127460  0.718340  1.0  -0.6746
  O  O91  1  0.999300  0.962860  0.640880  1.0  -0.5924
  O  O92  1  0.375930  0.392870  0.592660  1.0  -0.5954
  O  O93  1  0.571070  0.184960  0.632670  1.0  -0.6011
  O  O94  1  0.104630  0.653630  0.537380  1.0  -0.5943
  O  O95  1  0.888700  0.511780  0.623250  1.0  -0.5842
  O  O96  1  0.788790  0.981670  0.495800  1.0  -0.5825
  O  O97  1  0.204170  0.306600  0.748180  1.0  -0.6537
  O  O98  1  0.660910  0.098700  0.939060  1.0  -0.6601
  O  O99  1  0.528390  0.686240  0.021020  1.0  -0.6779
  O  O100  1  0.238920  0.653600  0.107170  1.0  -0.6663
  O  O101  1  0.421990  0.148740  0.803390  1.0  -0.6618
  O  O102  1  0.497160  0.372540  0.781660  1.0  -0.6746
  O  O103  1  0.499300  0.537140  0.859120  1.0  -0.5926
  O  O104  1  0.875930  0.107130  0.907340  1.0  -0.5954
  O  O105  1  0.071070  0.315040  0.867330  1.0  -0.6015
  O  O106  1  0.604630  0.846370  0.962620  1.0  -0.5953
  O  O107  1  0.388700  0.988220  0.876750  1.0  -0.5847
  O  O108  1  0.288790  0.518330  0.004200  1.0  -0.5838
