# generated using pymatgen
data_MnH2(CO2)2
_symmetry_space_group_name_H-M   'P 1'
_cell_length_a   10.13090000
_cell_length_b   11.68290000
_cell_length_c   14.89520000
_cell_angle_alpha   91.62500000
_cell_angle_beta   90.00000000
_cell_angle_gamma   90.00000000
_symmetry_Int_Tables_number   1
_chemical_formula_structural   MnH2(CO2)2
_chemical_formula_sum   'Mn12 H24 C24 O48'
_cell_volume   1762.26142331
_cell_formula_units_Z   12
loop_
 _symmetry_equiv_pos_site_id
 _symmetry_equiv_pos_as_xyz
  1  'x, y, z'
loop_
 _atom_site_type_symbol
 _atom_site_label
 _atom_site_symmetry_multiplicity
 _atom_site_fract_x
 _atom_site_fract_y
 _atom_site_fract_z
 _atom_site_occupancy
 _atom_site_charge
  Mn  Mn1  1  0.101330  0.760500  0.185480  1.0  1.1414
  Mn  Mn2  1  0.583470  0.243230  0.869000  1.0  1.1589
  Mn  Mn3  1  0.601330  0.739500  0.314520  1.0  1.1414
  Mn  Mn4  1  0.083470  0.256770  0.631000  1.0  1.1587
  Mn  Mn5  1  0.898670  0.239500  0.814520  1.0  1.1411
  Mn  Mn6  1  0.416530  0.756770  0.131000  1.0  1.1561
  Mn  Mn7  1  0.398670  0.260500  0.685480  1.0  1.1411
  Mn  Mn8  1  0.916530  0.743230  0.369000  1.0  1.1562
  Mn  Mn9  1  0.500000  0.000000  0.000000  1.0  1.1657
  Mn  Mn10  1  0.000000  0.500000  0.500000  1.0  1.1657
  Mn  Mn11  1  0.500000  0.500000  0.000000  1.0  1.1583
  Mn  Mn12  1  0.000000  0.000000  0.500000  1.0  1.1583
  H  H13  1  0.248200  0.861900  0.370600  1.0  0.0102
  H  H14  1  0.885600  0.446700  0.957200  1.0  0.0109
  H  H15  1  0.340200  0.308500  0.076100  1.0  0.0291
  H  H16  1  0.203300  0.995000  0.010300  1.0  0.0137
  H  H17  1  0.309400  0.024100  0.767100  1.0  -0.0073
  H  H18  1  0.481300  0.519000  0.733200  1.0  0.0057
  H  H19  1  0.748200  0.638100  0.129400  1.0  0.0101
  H  H20  1  0.385600  0.053300  0.542800  1.0  0.0102
  H  H21  1  0.840200  0.191500  0.423900  1.0  0.0288
  H  H22  1  0.703300  0.505000  0.489700  1.0  0.0138
  H  H23  1  0.809400  0.475900  0.732900  1.0  -0.0068
  H  H24  1  0.981300  0.981000  0.766800  1.0  0.0055
  H  H25  1  0.751800  0.138100  0.629400  1.0  0.0086
  H  H26  1  0.114400  0.553300  0.042800  1.0  0.0125
  H  H27  1  0.659800  0.691500  0.923900  1.0  0.0287
  H  H28  1  0.796700  0.005000  0.989700  1.0  0.0144
  H  H29  1  0.690600  0.975900  0.232900  1.0  -0.0077
  H  H30  1  0.518700  0.481000  0.266800  1.0  0.0058
  H  H31  1  0.251800  0.361900  0.870600  1.0  0.0088
  H  H32  1  0.614400  0.946700  0.457200  1.0  0.0134
  H  H33  1  0.159800  0.808500  0.576100  1.0  0.0291
  H  H34  1  0.296700  0.495000  0.510300  1.0  0.0146
  H  H35  1  0.190600  0.524100  0.267100  1.0  -0.007
  H  H36  1  0.018700  0.019000  0.233200  1.0  0.0059
  C  C37  1  0.369300  0.052100  0.814130  1.0  0.6803
  C  C38  1  0.319800  0.829800  0.329650  1.0  0.6646
  C  C39  1  0.790400  0.426300  0.949360  1.0  0.6665
  C  C40  1  0.219600  0.934500  0.054050  1.0  0.6763
  C  C41  1  0.488600  0.480400  0.789160  1.0  0.6845
  C  C42  1  0.399300  0.257800  0.032800  1.0  0.6686
  C  C43  1  0.869300  0.447900  0.685870  1.0  0.6802
  C  C44  1  0.819800  0.670200  0.170350  1.0  0.6656
  C  C45  1  0.290400  0.073700  0.550640  1.0  0.667
  C  C46  1  0.719600  0.565500  0.445950  1.0  0.6766
  C  C47  1  0.988600  0.019600  0.710840  1.0  0.685
  C  C48  1  0.899300  0.242200  0.467200  1.0  0.6688
  C  C49  1  0.630700  0.947900  0.185870  1.0  0.6804
  C  C50  1  0.680200  0.170200  0.670350  1.0  0.6642
  C  C51  1  0.209600  0.573700  0.050640  1.0  0.6666
  C  C52  1  0.780400  0.065500  0.945950  1.0  0.676
  C  C53  1  0.511400  0.519600  0.210840  1.0  0.6848
  C  C54  1  0.600700  0.742200  0.967200  1.0  0.6681
  C  C55  1  0.130700  0.552100  0.314130  1.0  0.68
  C  C56  1  0.180200  0.329800  0.829650  1.0  0.6635
  C  C57  1  0.709600  0.926300  0.449360  1.0  0.666
  C  C58  1  0.280400  0.434500  0.554050  1.0  0.6758
  C  C59  1  0.011400  0.980400  0.289160  1.0  0.6845
  C  C60  1  0.100700  0.757800  0.532800  1.0  0.6687
  O  O61  1  0.471780  0.313870  0.978930  1.0  -0.674
  O  O62  1  0.294410  0.806850  0.247860  1.0  -0.6612
  O  O63  1  0.762070  0.346550  0.893200  1.0  -0.663
  O  O64  1  0.338450  0.901400  0.060710  1.0  -0.665
  O  O65  1  0.498990  0.372710  0.781230  1.0  -0.6713
  O  O66  1  0.500700  0.537660  0.858920  1.0  -0.5942
  O  O67  1  0.122760  0.893040  0.092010  1.0  -0.6007
  O  O68  1  0.389000  0.987800  0.876480  1.0  -0.5895
  O  O69  1  0.423140  0.148630  0.802940  1.0  -0.6692
  O  O70  1  0.426990  0.815160  0.367910  1.0  -0.5995
  O  O71  1  0.711520  0.481320  0.996660  1.0  -0.5813
  O  O72  1  0.394610  0.153700  0.037420  1.0  -0.5944
  O  O73  1  0.971780  0.186130  0.521070  1.0  -0.6731
  O  O74  1  0.794410  0.693150  0.252140  1.0  -0.6604
  O  O75  1  0.262070  0.153450  0.606800  1.0  -0.6633
  O  O76  1  0.838450  0.598600  0.439290  1.0  -0.665
  O  O77  1  0.998990  0.127290  0.718770  1.0  -0.6705
  O  O78  1  0.000700  0.962340  0.641080  1.0  -0.5935
  O  O79  1  0.622760  0.606960  0.407990  1.0  -0.5999
  O  O80  1  0.889000  0.512200  0.623520  1.0  -0.5897
  O  O81  1  0.923140  0.351370  0.697060  1.0  -0.6694
  O  O82  1  0.926990  0.684840  0.132090  1.0  -0.5994
  O  O83  1  0.211520  0.018680  0.503340  1.0  -0.5827
  O  O84  1  0.894610  0.346300  0.462580  1.0  -0.5948
  O  O85  1  0.528220  0.686130  0.021070  1.0  -0.6731
  O  O86  1  0.705590  0.193150  0.752140  1.0  -0.6605
  O  O87  1  0.237930  0.653450  0.106800  1.0  -0.6622
  O  O88  1  0.661550  0.098600  0.939290  1.0  -0.6657
  O  O89  1  0.501010  0.627290  0.218770  1.0  -0.6707
  O  O90  1  0.499300  0.462340  0.141080  1.0  -0.5945
  O  O91  1  0.877240  0.106960  0.907990  1.0  -0.6012
  O  O92  1  0.611000  0.012200  0.123520  1.0  -0.5898
  O  O93  1  0.576860  0.851370  0.197060  1.0  -0.6696
  O  O94  1  0.573010  0.184840  0.632090  1.0  -0.6002
  O  O95  1  0.288480  0.518680  0.003340  1.0  -0.5825
  O  O96  1  0.605390  0.846300  0.962580  1.0  -0.5952
  O  O97  1  0.028220  0.813870  0.478930  1.0  -0.6736
  O  O98  1  0.205590  0.306850  0.747860  1.0  -0.6613
  O  O99  1  0.737930  0.846550  0.393200  1.0  -0.6626
  O  O100  1  0.161550  0.401400  0.560710  1.0  -0.6655
  O  O101  1  0.001010  0.872710  0.281230  1.0  -0.6714
  O  O102  1  0.999300  0.037660  0.358920  1.0  -0.5951
  O  O103  1  0.377240  0.393040  0.592010  1.0  -0.6016
  O  O104  1  0.111000  0.487800  0.376480  1.0  -0.5897
  O  O105  1  0.076860  0.648630  0.302940  1.0  -0.6694
  O  O106  1  0.073010  0.315160  0.867910  1.0  -0.6008
  O  O107  1  0.788480  0.981320  0.496660  1.0  -0.5808
  O  O108  1  0.105390  0.653700  0.537420  1.0  -0.5945
