# generated using pymatgen
data_MnH2(CO2)2
_symmetry_space_group_name_H-M   'P 1'
_cell_length_a   11.65750000
_cell_length_b   10.10530000
_cell_length_c   14.87900000
_cell_angle_alpha   90.00000000
_cell_angle_beta   91.63300000
_cell_angle_gamma   90.00000000
_symmetry_Int_Tables_number   1
_chemical_formula_structural   MnH2(CO2)2
_chemical_formula_sum   'Mn12 H24 C24 O48'
_cell_volume   1752.07205209
_cell_formula_units_Z   12
loop_
 _symmetry_equiv_pos_site_id
 _symmetry_equiv_pos_as_xyz
  1  'x, y, z'
loop_
 _atom_site_type_symbol
 _atom_site_label
 _atom_site_symmetry_multiplicity
 _atom_site_fract_x
 _atom_site_fract_y
 _atom_site_fract_z
 _atom_site_occupancy
 _atom_site_charge
  Mn  Mn1  1  0.739470  0.599440  0.315090  1.0  1.1497
  Mn  Mn2  1  0.243170  0.584620  0.868830  1.0  1.1653
  Mn  Mn3  1  0.760530  0.099440  0.184910  1.0  1.1496
  Mn  Mn4  1  0.256830  0.084620  0.631170  1.0  1.1641
  Mn  Mn5  1  0.260530  0.400560  0.684910  1.0  1.1496
  Mn  Mn6  1  0.756830  0.415380  0.131170  1.0  1.1647
  Mn  Mn7  1  0.239470  0.900560  0.815090  1.0  1.1498
  Mn  Mn8  1  0.743170  0.915380  0.368830  1.0  1.1643
  Mn  Mn9  1  0.000000  0.500000  0.000000  1.0  1.2248
  Mn  Mn10  1  0.500000  0.000000  0.500000  1.0  1.2248
  Mn  Mn11  1  0.500000  0.500000  0.000000  1.0  1.1652
  Mn  Mn12  1  0.000000  0.000000  0.500000  1.0  1.1652
  H  H13  1  0.018800  0.782200  0.977700  1.0  0.2017
  H  H14  1  0.554000  0.113100  0.042100  1.0  0.0302
  H  H15  1  0.645700  0.749000  0.134400  1.0  0.0572
  H  H16  1  0.478100  0.513000  0.270400  1.0  0.0269
  H  H17  1  0.691900  0.664200  0.927300  1.0  0.0466
  H  H18  1  0.979400  0.681700  0.231900  1.0  0.0096
  H  H19  1  0.481200  0.282200  0.522300  1.0  0.2045
  H  H20  1  0.946000  0.613100  0.457900  1.0  0.031
  H  H21  1  0.854300  0.249000  0.365600  1.0  0.0562
  H  H22  1  0.021900  0.013000  0.229600  1.0  0.0259
  H  H23  1  0.808100  0.164200  0.572700  1.0  0.046
  H  H24  1  0.520600  0.181700  0.268100  1.0  0.0117
  H  H25  1  0.981200  0.217800  0.022300  1.0  0.2042
  H  H26  1  0.446000  0.886900  0.957900  1.0  0.0315
  H  H27  1  0.354300  0.251000  0.865600  1.0  0.0569
  H  H28  1  0.521900  0.487000  0.729600  1.0  0.0259
  H  H29  1  0.308100  0.335800  0.072700  1.0  0.0456
  H  H30  1  0.020600  0.318300  0.768100  1.0  0.011
  H  H31  1  0.518800  0.717800  0.477700  1.0  0.2021
  H  H32  1  0.054000  0.386900  0.542100  1.0  0.0308
  H  H33  1  0.145700  0.751000  0.634400  1.0  0.0582
  H  H34  1  0.978100  0.987000  0.770400  1.0  0.0272
  H  H35  1  0.191900  0.835800  0.427300  1.0  0.0451
  H  H36  1  0.479400  0.818300  0.731900  1.0  0.0106
  C  C37  1  0.947700  0.631000  0.186000  1.0  0.6836
  C  C38  1  0.669400  0.817200  0.170000  1.0  0.72
  C  C39  1  0.573500  0.208100  0.049500  1.0  0.6801
  C  C40  1  0.518600  0.509200  0.211700  1.0  0.6464
  C  C41  1  0.065400  0.782300  0.947300  1.0  0.3075
  C  C42  1  0.741200  0.602800  0.967800  1.0  0.648
  C  C43  1  0.552300  0.131000  0.314000  1.0  0.6841
  C  C44  1  0.830600  0.317200  0.330000  1.0  0.7203
  C  C45  1  0.926500  0.708100  0.450500  1.0  0.6798
  C  C46  1  0.981400  0.009200  0.288300  1.0  0.6484
  C  C47  1  0.434600  0.282300  0.552700  1.0  0.3052
  C  C48  1  0.758800  0.102800  0.532200  1.0  0.6468
  C  C49  1  0.052300  0.369000  0.814000  1.0  0.6845
  C  C50  1  0.330600  0.182800  0.830000  1.0  0.7198
  C  C51  1  0.426500  0.791900  0.950500  1.0  0.6792
  C  C52  1  0.481400  0.490800  0.788300  1.0  0.6491
  C  C53  1  0.934600  0.217700  0.052700  1.0  0.3043
  C  C54  1  0.258800  0.397200  0.032200  1.0  0.6476
  C  C55  1  0.447700  0.869000  0.686000  1.0  0.684
  C  C56  1  0.169400  0.682800  0.670000  1.0  0.7193
  C  C57  1  0.073500  0.291900  0.549500  1.0  0.6796
  C  C58  1  0.018600  0.990800  0.711700  1.0  0.6471
  C  C59  1  0.565400  0.717700  0.447300  1.0  0.3072
  C  C60  1  0.241200  0.897200  0.467800  1.0  0.6491
  O  O61  1  0.098580  0.662600  0.939790  1.0  -0.7461
  O  O62  1  0.686120  0.528800  0.021570  1.0  -0.6684
  O  O63  1  0.851650  0.576000  0.197500  1.0  -0.6608
  O  O64  1  0.627040  0.498100  0.219600  1.0  -0.6706
  O  O65  1  0.519000  0.287600  0.002030  1.0  -0.5667
  O  O66  1  0.691740  0.791900  0.252490  1.0  -0.651
  O  O67  1  0.106600  0.879600  0.909360  1.0  -0.6032
  O  O68  1  0.653470  0.236700  0.106850  1.0  -0.6561
  O  O69  1  0.461230  0.497700  0.141170  1.0  -0.5727
  O  O70  1  0.684200  0.924700  0.131670  1.0  -0.5983
  O  O71  1  0.012900  0.611600  0.123410  1.0  -0.5861
  O  O72  1  0.846200  0.607400  0.962240  1.0  -0.5864
  O  O73  1  0.401420  0.162600  0.560210  1.0  -0.7462
  O  O74  1  0.813880  0.028800  0.478430  1.0  -0.6687
  O  O75  1  0.648350  0.076000  0.302500  1.0  -0.6617
  O  O76  1  0.872960  0.998100  0.280400  1.0  -0.6697
  O  O77  1  0.981000  0.787600  0.497970  1.0  -0.5667
  O  O78  1  0.808260  0.291900  0.247510  1.0  -0.6494
  O  O79  1  0.393400  0.379600  0.590640  1.0  -0.6022
  O  O80  1  0.846530  0.736700  0.393150  1.0  -0.657
  O  O81  1  0.038770  0.997700  0.358830  1.0  -0.5761
  O  O82  1  0.815800  0.424700  0.368330  1.0  -0.5992
  O  O83  1  0.487100  0.111600  0.376590  1.0  -0.5859
  O  O84  1  0.653800  0.107400  0.537760  1.0  -0.5855
  O  O85  1  0.901420  0.337400  0.060210  1.0  -0.7462
  O  O86  1  0.313880  0.471200  0.978430  1.0  -0.6683
  O  O87  1  0.148350  0.424000  0.802500  1.0  -0.6617
  O  O88  1  0.372960  0.501900  0.780400  1.0  -0.6694
  O  O89  1  0.481000  0.712400  0.997970  1.0  -0.5671
  O  O90  1  0.308260  0.208100  0.747510  1.0  -0.6494
  O  O91  1  0.893400  0.120400  0.090640  1.0  -0.6042
  O  O92  1  0.346530  0.763300  0.893150  1.0  -0.6553
  O  O93  1  0.538770  0.502300  0.858830  1.0  -0.5762
  O  O94  1  0.315800  0.075300  0.868330  1.0  -0.6003
  O  O95  1  0.987100  0.388400  0.876590  1.0  -0.5856
  O  O96  1  0.153800  0.392600  0.037760  1.0  -0.5861
  O  O97  1  0.598580  0.837400  0.439790  1.0  -0.7465
  O  O98  1  0.186120  0.971200  0.521570  1.0  -0.6679
  O  O99  1  0.351650  0.924000  0.697500  1.0  -0.6608
  O  O100  1  0.127040  0.001900  0.719600  1.0  -0.6706
  O  O101  1  0.019000  0.212400  0.502030  1.0  -0.5664
  O  O102  1  0.191740  0.708100  0.752490  1.0  -0.6514
  O  O103  1  0.606600  0.620400  0.409360  1.0  -0.6046
  O  O104  1  0.153470  0.263300  0.606850  1.0  -0.6568
  O  O105  1  0.961230  0.002300  0.641170  1.0  -0.5729
  O  O106  1  0.184200  0.575300  0.631670  1.0  -0.5995
  O  O107  1  0.512900  0.888400  0.623410  1.0  -0.5857
  O  O108  1  0.346200  0.892600  0.462240  1.0  -0.5866
