# generated using pymatgen
data_Na13Fe4Sb2W18(C4O43)2
_symmetry_space_group_name_H-M   'P 1'
_cell_length_a   12.58980000
_cell_length_b   14.93390000
_cell_length_c   19.73900000
_cell_angle_alpha   111.35000000
_cell_angle_beta   101.66100000
_cell_angle_gamma   93.97700000
_symmetry_Int_Tables_number   1
_chemical_formula_structural   Na13Fe4Sb2W18(C4O43)2
_chemical_formula_sum   'Na13 Fe4 Sb2 W18 C8 O86'
_cell_volume   3343.37273709
_cell_formula_units_Z   1
loop_
 _symmetry_equiv_pos_site_id
 _symmetry_equiv_pos_as_xyz
  1  'x, y, z'
loop_
 _atom_site_type_symbol
 _atom_site_label
 _atom_site_symmetry_multiplicity
 _atom_site_fract_x
 _atom_site_fract_y
 _atom_site_fract_z
 _atom_site_occupancy
 _atom_site_charge
  Na  Na1  1  0.894300  0.410300  0.421400  1.0  0.9484
  Na  Na2  1  0.021900  0.026800  0.426400  1.0  0.9328
  Na  Na3  1  0.621300  0.108400  0.387200  1.0  0.9529
  Na  Na4  1  0.830500  0.425500  0.136400  1.0  0.9195
  Na  Na5  1  0.356900  0.461800  0.952800  1.0  0.9392
  Na  Na6  1  0.057100  0.145300  0.758200  1.0  0.9536
  Na  Na7  1  0.105700  0.589700  0.578600  1.0  0.951
  Na  Na8  1  0.978100  0.973200  0.573600  1.0  0.9323
  Na  Na9  1  0.378700  0.891600  0.612800  1.0  0.9518
  Na  Na10  1  0.169500  0.574500  0.863600  1.0  0.9253
  Na  Na11  1  0.643100  0.538200  0.047200  1.0  0.9404
  Na  Na12  1  0.942900  0.854700  0.241800  1.0  0.9589
  Na  Na13  1  0.500000  0.000000  0.500000  1.0  0.9206
  Fe  Fe14  1  0.346630  0.353350  0.481660  1.0  1.2105
  Fe  Fe15  1  0.794970  0.316410  0.563530  1.0  1.2695
  Fe  Fe16  1  0.653370  0.646650  0.518340  1.0  1.2077
  Fe  Fe17  1  0.205030  0.683590  0.436470  1.0  1.2699
  Sb  Sb18  1  0.400510  0.491580  0.355930  1.0  1.3688
  Sb  Sb19  1  0.599490  0.508420  0.644070  1.0  1.3676
  W  W20  1  0.605290  0.374710  0.419460  1.0  2.5954
  W  W21  1  0.457450  0.228250  0.246350  1.0  1.4478
  W  W22  1  0.646180  0.410710  0.267830  1.0  2.6946
  W  W23  1  0.596350  0.664720  0.341570  1.0  1.8289
  W  W24  1  0.450350  0.522700  0.170650  1.0  2.684
  W  W25  1  0.332860  0.680930  0.292610  1.0  1.5799
  W  W26  1  0.120200  0.477930  0.265670  1.0  2.547
  W  W27  1  0.239220  0.318840  0.145970  1.0  1.4508
  W  W28  1  0.194160  0.282430  0.293550  1.0  1.7831
  W  W29  1  0.394710  0.625290  0.580540  1.0  2.5904
  W  W30  1  0.542550  0.771750  0.753650  1.0  1.4456
  W  W31  1  0.353820  0.589290  0.732170  1.0  2.6959
  W  W32  1  0.403650  0.335280  0.658430  1.0  1.7844
  W  W33  1  0.549650  0.477300  0.829350  1.0  2.6829
  W  W34  1  0.667140  0.319070  0.707390  1.0  1.5757
  W  W35  1  0.879800  0.522070  0.734330  1.0  2.5455
  W  W36  1  0.760780  0.681160  0.854030  1.0  1.4519
  W  W37  1  0.805840  0.717570  0.706450  1.0  1.7957
  C  C38  1  0.153700  0.234300  0.477500  1.0  0.4516
  C  C39  1  0.230500  0.163800  0.442400  1.0  0.4786
  C  C40  1  0.917800  0.181400  0.602600  1.0  0.564
  C  C41  1  0.852200  0.125700  0.520700  1.0  0.5633
  C  C42  1  0.846300  0.765700  0.522500  1.0  0.4547
  C  C43  1  0.769500  0.836200  0.557600  1.0  0.4775
  C  C44  1  0.082200  0.818600  0.397400  1.0  0.5622
  C  C45  1  0.147800  0.874300  0.479300  1.0  0.563
  O  O46  1  0.700100  0.333000  0.476700  1.0  -0.8807
  O  O47  1  0.480900  0.359100  0.447400  1.0  -0.8499
  O  O48  1  0.638900  0.504200  0.466300  1.0  -0.8378
  O  O49  1  0.704400  0.384000  0.352200  1.0  -1.059
  O  O50  1  0.552600  0.239800  0.335400  1.0  -0.8331
  O  O51  1  0.502300  0.396400  0.322100  1.0  -0.9677
  O  O52  1  0.329000  0.229500  0.283600  1.0  -0.7012
  O  O53  1  0.577200  0.275800  0.215000  1.0  -0.7535
  O  O54  1  0.368900  0.272800  0.172700  1.0  -0.6665
  O  O55  1  0.756700  0.402100  0.228400  1.0  -0.8068
  O  O56  1  0.663900  0.546200  0.322900  1.0  -0.8594
  O  O57  1  0.537100  0.434200  0.193400  1.0  -0.9132
  O  O58  1  0.428200  0.343100  0.573600  1.0  -0.6867
  O  O59  1  0.484100  0.745400  0.330800  1.0  -0.7086
  O  O60  1  0.574700  0.622200  0.232100  1.0  -0.8281
  O  O61  1  0.433500  0.561700  0.291700  1.0  -0.8713
  O  O62  1  0.467000  0.513200  0.083400  1.0  -0.9125
  O  O63  1  0.322800  0.429200  0.141400  1.0  -0.8291
  O  O64  1  0.363800  0.626300  0.191900  1.0  -0.773
  O  O65  1  0.676700  0.303600  0.612100  1.0  -0.651
  O  O66  1  0.208300  0.579300  0.252700  1.0  -0.8036
  O  O67  1  0.989500  0.504700  0.243700  1.0  -0.7774
  O  O68  1  0.833100  0.452000  0.632100  1.0  -0.8237
  O  O69  1  0.122800  0.396300  0.162900  1.0  -0.7888
  O  O70  1  0.081200  0.360900  0.282300  1.0  -0.8105
  O  O71  1  0.274100  0.407700  0.272600  1.0  -0.8485
  O  O72  1  0.168600  0.236500  0.183600  1.0  -0.6831
  O  O73  1  0.259500  0.359700  0.389400  1.0  -0.6838
  O  O74  1  0.318400  0.204100  0.437000  1.0  -0.4736
  O  O75  1  0.196800  0.324600  0.504200  1.0  -0.4663
  O  O76  1  0.901800  0.269100  0.631100  1.0  -0.5233
  O  O77  1  0.781100  0.172300  0.496600  1.0  -0.5913
  O  O78  1  0.929200  0.337800  0.518200  1.0  -0.5039
  O  O79  1  0.868600  0.043700  0.485200  1.0  -0.5878
  O  O80  1  0.200700  0.075400  0.421400  1.0  -0.5185
  O  O81  1  0.061600  0.202500  0.478200  1.0  -0.475
  O  O82  1  0.977900  0.138800  0.633300  1.0  -0.6808
  O  O83  1  0.911800  0.541900  0.540200  1.0  -0.4324
  O  O84  1  0.624200  0.955600  0.416600  1.0  -0.5554
  O  O85  1  0.666667  0.377100  0.038300  1.0  -0.6573
  O  O86  1  0.758900  0.579100  0.169400  1.0  -0.4042
  O  O87  1  0.525900  0.152300  0.485900  1.0  -0.4916
  O  O88  1  0.965100  0.028200  0.303500  1.0  -0.6258
  O  O89  1  0.299900  0.667000  0.523300  1.0  -0.8816
  O  O90  1  0.519100  0.640900  0.552600  1.0  -0.8508
  O  O91  1  0.361100  0.495800  0.533700  1.0  -0.8384
  O  O92  1  0.295600  0.616000  0.647800  1.0  -1.0558
  O  O93  1  0.447400  0.760200  0.664600  1.0  -0.834
  O  O94  1  0.497700  0.603600  0.677900  1.0  -0.9695
  O  O95  1  0.671000  0.770500  0.716400  1.0  -0.7018
  O  O96  1  0.422800  0.724200  0.785000  1.0  -0.7506
  O  O97  1  0.631100  0.727200  0.827300  1.0  -0.6767
  O  O98  1  0.243300  0.597900  0.771600  1.0  -0.8048
  O  O99  1  0.336100  0.453800  0.677100  1.0  -0.854
  O  O100  1  0.462900  0.565800  0.806600  1.0  -0.9426
  O  O101  1  0.571800  0.656900  0.426400  1.0  -0.6855
  O  O102  1  0.515900  0.254600  0.669200  1.0  -0.7072
  O  O103  1  0.425300  0.377800  0.767900  1.0  -0.8264
  O  O104  1  0.566500  0.438300  0.708300  1.0  -0.8699
  O  O105  1  0.533000  0.486800  0.916600  1.0  -0.9118
  O  O106  1  0.677200  0.570800  0.858600  1.0  -0.8266
  O  O107  1  0.636200  0.373700  0.808100  1.0  -0.7724
  O  O108  1  0.323300  0.696400  0.387900  1.0  -0.6508
  O  O109  1  0.791700  0.420700  0.747300  1.0  -0.8027
  O  O110  1  0.010500  0.495300  0.756300  1.0  -0.7779
  O  O111  1  0.166900  0.548000  0.367900  1.0  -0.8242
  O  O112  1  0.877200  0.603700  0.837100  1.0  -0.7881
  O  O113  1  0.918800  0.639100  0.717700  1.0  -0.813
  O  O114  1  0.725900  0.592300  0.727400  1.0  -0.8487
  O  O115  1  0.831400  0.763500  0.816400  1.0  -0.6763
  O  O116  1  0.740500  0.640300  0.610600  1.0  -0.6921
  O  O117  1  0.681600  0.795900  0.563000  1.0  -0.4718
  O  O118  1  0.803200  0.675400  0.495800  1.0  -0.4675
  O  O119  1  0.098200  0.730900  0.368900  1.0  -0.5229
  O  O120  1  0.218900  0.827700  0.503400  1.0  -0.5946
  O  O121  1  0.070800  0.662200  0.481800  1.0  -0.5027
  O  O122  1  0.131400  0.956300  0.514800  1.0  -0.5893
  O  O123  1  0.799300  0.924600  0.578600  1.0  -0.5162
  O  O124  1  0.938400  0.797500  0.521800  1.0  -0.4758
  O  O125  1  0.022100  0.861200  0.366700  1.0  -0.6809
  O  O126  1  0.088200  0.458100  0.459800  1.0  -0.4334
  O  O127  1  0.375800  0.044400  0.583400  1.0  -0.5541
  O  O128  1  0.333333  0.622900  0.961700  1.0  -0.657
  O  O129  1  0.241100  0.420900  0.830600  1.0  -0.4067
  O  O130  1  0.474100  0.847700  0.514100  1.0  -0.4902
  O  O131  1  0.034900  0.971800  0.696500  1.0  -0.6219
