# generated using pymatgen
data_Co3H24C30(NO5)2
_symmetry_space_group_name_H-M   'P 1'
_cell_length_a   17.51910000
_cell_length_b   17.51910000
_cell_length_c   15.16300000
_cell_angle_alpha   90.00000000
_cell_angle_beta   90.00000000
_cell_angle_gamma   90.00000000
_symmetry_Int_Tables_number   1
_chemical_formula_structural   Co3H24C30(NO5)2
_chemical_formula_sum   'Co12 H96 C120 N8 O40'
_cell_volume   4653.81074711
_cell_formula_units_Z   4
loop_
 _symmetry_equiv_pos_site_id
 _symmetry_equiv_pos_as_xyz
  1  'x, y, z'
loop_
 _atom_site_type_symbol
 _atom_site_label
 _atom_site_symmetry_multiplicity
 _atom_site_fract_x
 _atom_site_fract_y
 _atom_site_fract_z
 _atom_site_occupancy
 _atom_site_charge
  Co  Co1  1  0.901120  0.141640  0.968510  1.0  0.9771
  Co  Co2  1  0.098880  0.858360  0.968510  1.0  0.9772
  Co  Co3  1  0.141640  0.098880  0.031490  1.0  0.9785
  Co  Co4  1  0.858360  0.901120  0.031490  1.0  0.9787
  Co  Co5  1  0.901120  0.858360  0.468510  1.0  0.9772
  Co  Co6  1  0.098880  0.141640  0.468510  1.0  0.9768
  Co  Co7  1  0.141640  0.901120  0.531490  1.0  0.9791
  Co  Co8  1  0.858360  0.098880  0.531490  1.0  0.9779
  Co  Co9  1  0.852900  0.147100  0.750000  1.0  0.9641
  Co  Co10  1  0.147100  0.852900  0.750000  1.0  0.9594
  Co  Co11  1  0.147100  0.147100  0.250000  1.0  0.9593
  Co  Co12  1  0.852900  0.852900  0.250000  1.0  0.9644
  H  H13  1  0.019900  0.110200  0.773000  1.0  0.0954
  H  H14  1  0.001800  0.241100  0.740400  1.0  0.1169
  H  H15  1  0.084300  0.229100  0.783400  1.0  0.1267
  H  H16  1  0.015900  0.262900  0.841500  1.0  0.1233
  H  H17  1  0.668900  0.126600  0.044700  1.0  0.1019
  H  H18  1  0.540500  0.106300  0.080400  1.0  0.1112
  H  H19  1  0.484800  0.120900  0.821600  1.0  0.1166
  H  H20  1  0.613500  0.135600  0.786000  1.0  0.0977
  H  H21  1  0.385100  0.043300  0.868600  1.0  0.1126
  H  H22  1  0.256800  0.036800  0.902500  1.0  0.0843
  H  H23  1  0.289200  0.151900  0.121700  1.0  0.0759
  H  H24  1  0.418500  0.160400  0.095100  1.0  0.1221
  H  H25  1  0.980100  0.889800  0.773000  1.0  0.0959
  H  H26  1  0.998200  0.758900  0.740400  1.0  0.1166
  H  H27  1  0.915700  0.770900  0.783400  1.0  0.1262
  H  H28  1  0.984100  0.737100  0.841500  1.0  0.1233
  H  H29  1  0.331100  0.873400  0.044700  1.0  0.1017
  H  H30  1  0.459500  0.893700  0.080400  1.0  0.1117
  H  H31  1  0.515200  0.879100  0.821600  1.0  0.1168
  H  H32  1  0.386500  0.864400  0.786000  1.0  0.098
  H  H33  1  0.614900  0.956700  0.868600  1.0  0.1121
  H  H34  1  0.743200  0.963200  0.902500  1.0  0.084
  H  H35  1  0.710800  0.848100  0.121700  1.0  0.0767
  H  H36  1  0.581500  0.839600  0.095100  1.0  0.1224
  H  H37  1  0.110200  0.980100  0.227000  1.0  0.0955
  H  H38  1  0.241100  0.998200  0.259600  1.0  0.1162
  H  H39  1  0.229100  0.915700  0.216600  1.0  0.1265
  H  H40  1  0.262900  0.984100  0.158500  1.0  0.1222
  H  H41  1  0.126600  0.331100  0.955300  1.0  0.1021
  H  H42  1  0.106300  0.459500  0.919600  1.0  0.1109
  H  H43  1  0.120900  0.515200  0.178400  1.0  0.1149
  H  H44  1  0.135600  0.386500  0.214000  1.0  0.0964
  H  H45  1  0.043300  0.614900  0.131400  1.0  0.1119
  H  H46  1  0.036800  0.743200  0.097500  1.0  0.0843
  H  H47  1  0.151900  0.710800  0.878300  1.0  0.0765
  H  H48  1  0.160400  0.581500  0.904900  1.0  0.1209
  H  H49  1  0.889800  0.019900  0.227000  1.0  0.0959
  H  H50  1  0.758900  0.001800  0.259600  1.0  0.1155
  H  H51  1  0.770900  0.084300  0.216600  1.0  0.1246
  H  H52  1  0.737100  0.015900  0.158500  1.0  0.1228
  H  H53  1  0.873400  0.668900  0.955300  1.0  0.1015
  H  H54  1  0.893700  0.540500  0.919600  1.0  0.1107
  H  H55  1  0.879100  0.484800  0.178400  1.0  0.1156
  H  H56  1  0.864400  0.613500  0.214000  1.0  0.0975
  H  H57  1  0.956700  0.385100  0.131400  1.0  0.1125
  H  H58  1  0.963200  0.256800  0.097500  1.0  0.0847
  H  H59  1  0.848100  0.289200  0.878300  1.0  0.0768
  H  H60  1  0.839600  0.418500  0.904900  1.0  0.121
  H  H61  1  0.019900  0.889800  0.273000  1.0  0.0959
  H  H62  1  0.001800  0.758900  0.240400  1.0  0.1165
  H  H63  1  0.084300  0.770900  0.283400  1.0  0.1261
  H  H64  1  0.015900  0.737100  0.341500  1.0  0.1237
  H  H65  1  0.668900  0.873400  0.544700  1.0  0.1019
  H  H66  1  0.540500  0.893700  0.580400  1.0  0.1114
  H  H67  1  0.484800  0.879100  0.321600  1.0  0.1167
  H  H68  1  0.613500  0.864400  0.286000  1.0  0.0977
  H  H69  1  0.385100  0.956700  0.368600  1.0  0.1123
  H  H70  1  0.256800  0.963200  0.402500  1.0  0.0839
  H  H71  1  0.289200  0.848100  0.621700  1.0  0.0764
  H  H72  1  0.418500  0.839600  0.595100  1.0  0.1225
  H  H73  1  0.980100  0.110200  0.273000  1.0  0.0953
  H  H74  1  0.998200  0.241100  0.240400  1.0  0.1172
  H  H75  1  0.915700  0.229100  0.283400  1.0  0.1262
  H  H76  1  0.984100  0.262900  0.341500  1.0  0.1233
  H  H77  1  0.331100  0.126600  0.544700  1.0  0.1022
  H  H78  1  0.459500  0.106300  0.580400  1.0  0.1112
  H  H79  1  0.515200  0.120900  0.321600  1.0  0.1167
  H  H80  1  0.386500  0.135600  0.286000  1.0  0.098
  H  H81  1  0.614900  0.043300  0.368600  1.0  0.1126
  H  H82  1  0.743200  0.036800  0.402500  1.0  0.0843
  H  H83  1  0.710800  0.151900  0.621700  1.0  0.0759
  H  H84  1  0.581500  0.160400  0.595100  1.0  0.1221
  H  H85  1  0.110200  0.019900  0.727000  1.0  0.0955
  H  H86  1  0.241100  0.001800  0.759600  1.0  0.1155
  H  H87  1  0.229100  0.084300  0.716600  1.0  0.1245
  H  H88  1  0.262900  0.015900  0.658500  1.0  0.1224
  H  H89  1  0.126600  0.668900  0.455300  1.0  0.1019
  H  H90  1  0.106300  0.540500  0.419600  1.0  0.1111
  H  H91  1  0.120900  0.484800  0.678400  1.0  0.1148
  H  H92  1  0.135600  0.613500  0.714000  1.0  0.0966
  H  H93  1  0.043300  0.385100  0.631400  1.0  0.112
  H  H94  1  0.036800  0.256800  0.597500  1.0  0.0842
  H  H95  1  0.151900  0.289200  0.378300  1.0  0.0768
  H  H96  1  0.160400  0.418500  0.404900  1.0  0.1212
  H  H97  1  0.889800  0.980100  0.727000  1.0  0.0957
  H  H98  1  0.758900  0.998200  0.759600  1.0  0.1162
  H  H99  1  0.770900  0.915700  0.716600  1.0  0.1254
  H  H100  1  0.737100  0.984100  0.658500  1.0  0.1225
  H  H101  1  0.873400  0.331100  0.455300  1.0  0.1014
  H  H102  1  0.893700  0.459500  0.419600  1.0  0.1106
  H  H103  1  0.879100  0.515200  0.678400  1.0  0.1154
  H  H104  1  0.864400  0.386500  0.714000  1.0  0.0973
  H  H105  1  0.956700  0.614900  0.631400  1.0  0.1126
  H  H106  1  0.963200  0.743200  0.597500  1.0  0.0848
  H  H107  1  0.848100  0.710800  0.378300  1.0  0.0763
  H  H108  1  0.839600  0.581500  0.404900  1.0  0.1206
  C  C109  1  0.052600  0.125100  0.903300  1.0  0.6573
  C  C110  1  0.006800  0.146300  0.821700  1.0  0.161
  C  C111  1  0.029200  0.227100  0.794300  1.0  -0.3563
  C  C112  1  0.736900  0.142200  0.889100  1.0  0.6668
  C  C113  1  0.653700  0.132500  0.911700  1.0  -0.1382
  C  C114  1  0.631600  0.124500  0.999300  1.0  -0.0373
  C  C115  1  0.555100  0.113300  0.020600  1.0  -0.1414
  C  C116  1  0.499700  0.112400  0.954300  1.0  0.044
  C  C117  1  0.522100  0.121200  0.867100  1.0  -0.1219
  C  C118  1  0.598700  0.130600  0.845900  1.0  -0.0406
  C  C119  1  0.417100  0.104300  0.976700  1.0  0.1002
  C  C120  1  0.366800  0.066500  0.921100  1.0  -0.2259
  C  C121  1  0.290100  0.062700  0.941800  1.0  0.1811
  C  C122  1  0.309100  0.129600  0.069500  1.0  0.1667
  C  C123  1  0.386300  0.135400  0.053800  1.0  -0.221
  C  C124  1  0.947400  0.874900  0.903300  1.0  0.6552
  C  C125  1  0.993200  0.853700  0.821700  1.0  0.161
  C  C126  1  0.970800  0.772900  0.794300  1.0  -0.3541
  C  C127  1  0.263100  0.857800  0.889100  1.0  0.6683
  C  C128  1  0.346300  0.867500  0.911700  1.0  -0.1382
  C  C129  1  0.368400  0.875500  0.999300  1.0  -0.0383
  C  C130  1  0.444900  0.886700  0.020600  1.0  -0.1413
  C  C131  1  0.500300  0.887600  0.954300  1.0  0.0447
  C  C132  1  0.477900  0.878800  0.867100  1.0  -0.1235
  C  C133  1  0.401300  0.869400  0.845900  1.0  -0.0417
  C  C134  1  0.582900  0.895700  0.976700  1.0  0.1007
  C  C135  1  0.633200  0.933500  0.921100  1.0  -0.2252
  C  C136  1  0.709900  0.937300  0.941800  1.0  0.1809
  C  C137  1  0.690900  0.870400  0.069500  1.0  0.1688
  C  C138  1  0.613700  0.864600  0.053800  1.0  -0.2199
  C  C139  1  0.125100  0.947400  0.096700  1.0  0.658
  C  C140  1  0.146300  0.993200  0.178300  1.0  0.1635
  C  C141  1  0.227100  0.970800  0.205700  1.0  -0.3544
  C  C142  1  0.142200  0.263100  0.110900  1.0  0.6703
  C  C143  1  0.132500  0.346300  0.088300  1.0  -0.1395
  C  C144  1  0.124500  0.368400  0.000700  1.0  -0.0341
  C  C145  1  0.113300  0.444900  0.979400  1.0  -0.1324
  C  C146  1  0.112400  0.500300  0.045700  1.0  0.0408
  C  C147  1  0.121200  0.477900  0.132900  1.0  -0.1176
  C  C148  1  0.130600  0.401300  0.154100  1.0  -0.0352
  C  C149  1  0.104300  0.582900  0.023300  1.0  0.0989
  C  C150  1  0.066500  0.633200  0.078900  1.0  -0.2239
  C  C151  1  0.062700  0.709900  0.058200  1.0  0.1813
  C  C152  1  0.129600  0.690900  0.930500  1.0  0.1705
  C  C153  1  0.135400  0.613700  0.946200  1.0  -0.2163
  C  C154  1  0.874900  0.052600  0.096700  1.0  0.6594
  C  C155  1  0.853700  0.006800  0.178300  1.0  0.1637
  C  C156  1  0.772900  0.029200  0.205700  1.0  -0.3542
  C  C157  1  0.857800  0.736900  0.110900  1.0  0.6728
  C  C158  1  0.867500  0.653700  0.088300  1.0  -0.1386
  C  C159  1  0.875500  0.631600  0.000700  1.0  -0.035
  C  C160  1  0.886700  0.555100  0.979400  1.0  -0.1318
  C  C161  1  0.887600  0.499700  0.045700  1.0  0.0417
  C  C162  1  0.878800  0.522100  0.132900  1.0  -0.1189
  C  C163  1  0.869400  0.598700  0.154100  1.0  -0.0345
  C  C164  1  0.895700  0.417100  0.023300  1.0  0.0989
  C  C165  1  0.933500  0.366800  0.078900  1.0  -0.2252
  C  C166  1  0.937300  0.290100  0.058200  1.0  0.18
  C  C167  1  0.870400  0.309100  0.930500  1.0  0.1696
  C  C168  1  0.864600  0.386300  0.946200  1.0  -0.2155
  C  C169  1  0.052600  0.874900  0.403300  1.0  0.6565
  C  C170  1  0.006800  0.853700  0.321700  1.0  0.1603
  C  C171  1  0.029200  0.772900  0.294300  1.0  -0.3555
  C  C172  1  0.736900  0.857800  0.389100  1.0  0.6671
  C  C173  1  0.653700  0.867500  0.411700  1.0  -0.138
  C  C174  1  0.631600  0.875500  0.499300  1.0  -0.039
  C  C175  1  0.555100  0.886700  0.520600  1.0  -0.1429
  C  C176  1  0.499700  0.887600  0.454300  1.0  0.0448
  C  C177  1  0.522100  0.878800  0.367100  1.0  -0.1221
  C  C178  1  0.598700  0.869400  0.345900  1.0  -0.0405
  C  C179  1  0.417100  0.895700  0.476700  1.0  0.1006
  C  C180  1  0.366800  0.933500  0.421100  1.0  -0.2254
  C  C181  1  0.290100  0.937300  0.441800  1.0  0.1809
  C  C182  1  0.309100  0.870400  0.569500  1.0  0.1673
  C  C183  1  0.386300  0.864600  0.553800  1.0  -0.221
  C  C184  1  0.947400  0.125100  0.403300  1.0  0.6558
  C  C185  1  0.993200  0.146300  0.321700  1.0  0.1614
  C  C186  1  0.970800  0.227100  0.294300  1.0  -0.3537
  C  C187  1  0.263100  0.142200  0.389100  1.0  0.6677
  C  C188  1  0.346300  0.132500  0.411700  1.0  -0.1375
  C  C189  1  0.368400  0.124500  0.499300  1.0  -0.0371
  C  C190  1  0.444900  0.113300  0.520600  1.0  -0.1401
  C  C191  1  0.500300  0.112400  0.454300  1.0  0.0437
  C  C192  1  0.477900  0.121200  0.367100  1.0  -0.1229
  C  C193  1  0.401300  0.130600  0.345900  1.0  -0.041
  C  C194  1  0.582900  0.104300  0.476700  1.0  0.1009
  C  C195  1  0.633200  0.066500  0.421100  1.0  -0.2257
  C  C196  1  0.709900  0.062700  0.441800  1.0  0.1811
  C  C197  1  0.690900  0.129600  0.569500  1.0  0.1681
  C  C198  1  0.613700  0.135400  0.553800  1.0  -0.2209
  C  C199  1  0.125100  0.052600  0.596700  1.0  0.6583
  C  C200  1  0.146300  0.006800  0.678300  1.0  0.1632
  C  C201  1  0.227100  0.029200  0.705700  1.0  -0.3554
  C  C202  1  0.142200  0.736900  0.610900  1.0  0.6704
  C  C203  1  0.132500  0.653700  0.588300  1.0  -0.1393
  C  C204  1  0.124500  0.631600  0.500700  1.0  -0.034
  C  C205  1  0.113300  0.555100  0.479400  1.0  -0.1323
  C  C206  1  0.112400  0.499700  0.545700  1.0  0.0407
  C  C207  1  0.121200  0.522100  0.632900  1.0  -0.1174
  C  C208  1  0.130600  0.598700  0.654100  1.0  -0.0353
  C  C209  1  0.104300  0.417100  0.523300  1.0  0.0984
  C  C210  1  0.066500  0.366800  0.578900  1.0  -0.2239
  C  C211  1  0.062700  0.290100  0.558200  1.0  0.1814
  C  C212  1  0.129600  0.309100  0.430500  1.0  0.1706
  C  C213  1  0.135400  0.386300  0.446200  1.0  -0.2158
  C  C214  1  0.874900  0.947400  0.596700  1.0  0.6592
  C  C215  1  0.853700  0.993200  0.678300  1.0  0.1643
  C  C216  1  0.772900  0.970800  0.705700  1.0  -0.3539
  C  C217  1  0.857800  0.263100  0.610900  1.0  0.6719
  C  C218  1  0.867500  0.346300  0.588300  1.0  -0.1394
  C  C219  1  0.875500  0.368400  0.500700  1.0  -0.0338
  C  C220  1  0.886700  0.444900  0.479400  1.0  -0.132
  C  C221  1  0.887600  0.500300  0.545700  1.0  0.0422
  C  C222  1  0.878800  0.477900  0.632900  1.0  -0.1199
  C  C223  1  0.869400  0.401300  0.654100  1.0  -0.0343
  C  C224  1  0.895700  0.582900  0.523300  1.0  0.0997
  C  C225  1  0.933500  0.633200  0.578900  1.0  -0.2252
  C  C226  1  0.937300  0.709900  0.558200  1.0  0.1803
  C  C227  1  0.870400  0.690900  0.430500  1.0  0.1697
  C  C228  1  0.864600  0.613700  0.446200  1.0  -0.2156
  N  N229  1  0.260570  0.093980  0.014920  1.0  -0.3241
  N  N230  1  0.739430  0.906020  0.014920  1.0  -0.3238
  N  N231  1  0.093980  0.739430  0.985080  1.0  -0.3268
  N  N232  1  0.906020  0.260570  0.985080  1.0  -0.3269
  N  N233  1  0.260570  0.906020  0.514920  1.0  -0.3246
  N  N234  1  0.739430  0.093980  0.514920  1.0  -0.3235
  N  N235  1  0.093980  0.260570  0.485080  1.0  -0.3269
  N  N236  1  0.906020  0.739430  0.485080  1.0  -0.3274
  O  O237  1  0.123630  0.113710  0.896670  1.0  -0.5822
  O  O238  1  0.019690  0.122070  0.976950  1.0  -0.6344
  O  O239  1  0.927940  0.139720  0.841330  1.0  -0.6839
  O  O240  1  0.752350  0.146100  0.807920  1.0  -0.6139
  O  O241  1  0.784010  0.144920  0.950700  1.0  -0.6141
  O  O242  1  0.876370  0.886290  0.896670  1.0  -0.5842
  O  O243  1  0.980310  0.877930  0.976950  1.0  -0.6351
  O  O244  1  0.072060  0.860280  0.841330  1.0  -0.6822
  O  O245  1  0.247650  0.853900  0.807920  1.0  -0.6139
  O  O246  1  0.215990  0.855080  0.950700  1.0  -0.6142
  O  O247  1  0.113710  0.876370  0.103330  1.0  -0.5843
  O  O248  1  0.122070  0.980310  0.023050  1.0  -0.6338
  O  O249  1  0.139720  0.072060  0.158670  1.0  -0.6799
  O  O250  1  0.146100  0.247650  0.192080  1.0  -0.6139
  O  O251  1  0.144920  0.215990  0.049300  1.0  -0.6154
  O  O252  1  0.886290  0.123630  0.103330  1.0  -0.585
  O  O253  1  0.877930  0.019690  0.023050  1.0  -0.6344
  O  O254  1  0.860280  0.927940  0.158670  1.0  -0.6798
  O  O255  1  0.853900  0.752350  0.192080  1.0  -0.6138
  O  O256  1  0.855080  0.784010  0.049300  1.0  -0.617
  O  O257  1  0.123630  0.886290  0.396670  1.0  -0.5827
  O  O258  1  0.019690  0.877930  0.476950  1.0  -0.6348
  O  O259  1  0.927940  0.860280  0.341330  1.0  -0.6833
  O  O260  1  0.752350  0.853900  0.307920  1.0  -0.6131
  O  O261  1  0.784010  0.855080  0.450700  1.0  -0.6145
  O  O262  1  0.876370  0.113710  0.396670  1.0  -0.5842
  O  O263  1  0.980310  0.122070  0.476950  1.0  -0.6347
  O  O264  1  0.072060  0.139720  0.341330  1.0  -0.6825
  O  O265  1  0.247650  0.146100  0.307920  1.0  -0.6139
  O  O266  1  0.215990  0.144920  0.450700  1.0  -0.6136
  O  O267  1  0.113710  0.123630  0.603330  1.0  -0.5847
  O  O268  1  0.122070  0.019690  0.523050  1.0  -0.6346
  O  O269  1  0.139720  0.927940  0.658670  1.0  -0.6809
  O  O270  1  0.146100  0.752350  0.692080  1.0  -0.6134
  O  O271  1  0.144920  0.784010  0.549300  1.0  -0.6156
  O  O272  1  0.886290  0.876370  0.603330  1.0  -0.584
  O  O273  1  0.877930  0.980310  0.523050  1.0  -0.6337
  O  O274  1  0.860280  0.072060  0.658670  1.0  -0.679
  O  O275  1  0.853900  0.247650  0.692080  1.0  -0.6138
  O  O276  1  0.855080  0.215990  0.549300  1.0  -0.6168
