# generated using pymatgen
data_Co3H24C30(NO5)2
_symmetry_space_group_name_H-M   'P 1'
_cell_length_a   15.08830000
_cell_length_b   17.53100000
_cell_length_c   17.53100000
_cell_angle_alpha   90.00000000
_cell_angle_beta   90.00000000
_cell_angle_gamma   90.00000000
_symmetry_Int_Tables_number   1
_chemical_formula_structural   Co3H24C30(NO5)2
_chemical_formula_sum   'Co12 H96 C120 N8 O40'
_cell_volume   4637.17718036
_cell_formula_units_Z   4
loop_
 _symmetry_equiv_pos_site_id
 _symmetry_equiv_pos_as_xyz
  1  'x, y, z'
loop_
 _atom_site_type_symbol
 _atom_site_label
 _atom_site_symmetry_multiplicity
 _atom_site_fract_x
 _atom_site_fract_y
 _atom_site_fract_z
 _atom_site_occupancy
 _atom_site_charge
  Co  Co1  1  0.529950  0.599500  0.640810  1.0  0.9956
  Co  Co2  1  0.970050  0.640810  0.599500  1.0  0.9935
  Co  Co3  1  0.470050  0.359190  0.599500  1.0  0.9943
  Co  Co4  1  0.750000  0.648790  0.648790  1.0  0.9589
  Co  Co5  1  0.250000  0.648790  0.351210  1.0  0.957
  Co  Co6  1  0.529950  0.400500  0.359190  1.0  0.9953
  Co  Co7  1  0.029950  0.400500  0.640810  1.0  0.9952
  Co  Co8  1  0.470050  0.640810  0.400500  1.0  0.9936
  Co  Co9  1  0.029950  0.599500  0.359190  1.0  0.9953
  Co  Co10  1  0.970050  0.359190  0.400500  1.0  0.9946
  Co  Co11  1  0.750000  0.351210  0.351210  1.0  0.9574
  Co  Co12  1  0.250000  0.351210  0.648790  1.0  0.959
  H  H13  1  0.593000  0.335500  0.083700  1.0  0.1222
  H  H14  1  0.582900  0.390500  0.960500  1.0  0.1123
  H  H15  1  0.677000  0.983100  0.377100  1.0  0.1086
  H  H16  1  0.953500  0.167100  0.628400  1.0  0.0956
  H  H17  1  0.842400  0.238400  0.515900  1.0  0.1227
  H  H18  1  0.258900  0.497400  0.742000  1.0  0.1129
  H  H19  1  0.220300  0.418700  0.272200  1.0  0.1205
  H  H20  1  0.714600  0.885900  0.636800  1.0  0.1113
  H  H21  1  0.342400  0.238400  0.484100  1.0  0.1219
  H  H22  1  0.417100  0.960500  0.609500  1.0  0.1126
  H  H23  1  0.741100  0.258000  0.497400  1.0  0.1125
  H  H24  1  0.285400  0.363200  0.885900  1.0  0.1117
  H  H25  1  0.720300  0.581300  0.272200  1.0  0.1209
  H  H26  1  0.785400  0.363200  0.114100  1.0  0.1121
  H  H27  1  0.157600  0.515900  0.761600  1.0  0.1198
  H  H28  1  0.907000  0.916300  0.664500  1.0  0.1228
  H  H29  1  0.157600  0.484100  0.238400  1.0  0.1201
  H  H30  1  0.177000  0.983100  0.622900  1.0  0.1083
  H  H31  1  0.593000  0.664500  0.916300  1.0  0.1226
  H  H32  1  0.714600  0.114100  0.363200  1.0  0.1113
  H  H33  1  0.046500  0.371600  0.167100  1.0  0.0947
  H  H34  1  0.779700  0.272200  0.581300  1.0  0.1216
  H  H35  1  0.770600  0.609800  0.484200  1.0  0.0931
  H  H36  1  0.401700  0.538300  0.756900  1.0  0.0819
  H  H37  1  0.901700  0.538300  0.243100  1.0  0.0817
  H  H38  1  0.622200  0.348900  0.211200  1.0  0.0751
  H  H39  1  0.657600  0.484100  0.761600  1.0  0.1202
  H  H40  1  0.401700  0.461700  0.243100  1.0  0.0816
  H  H41  1  0.823000  0.377100  0.983100  1.0  0.1083
  H  H42  1  0.598300  0.756900  0.461700  1.0  0.0815
  H  H43  1  0.842400  0.761600  0.484100  1.0  0.1221
  H  H44  1  0.270600  0.609800  0.515800  1.0  0.0931
  H  H45  1  0.098300  0.756900  0.538300  1.0  0.0817
  H  H46  1  0.177000  0.016900  0.377100  1.0  0.1089
  H  H47  1  0.546500  0.371600  0.832900  1.0  0.0947
  H  H48  1  0.131600  0.114700  0.455700  1.0  0.1136
  H  H49  1  0.877800  0.788800  0.651100  1.0  0.0755
  H  H50  1  0.823000  0.622900  0.016900  1.0  0.1091
  H  H51  1  0.270600  0.390200  0.484200  1.0  0.0937
  H  H52  1  0.368400  0.455700  0.114700  1.0  0.1141
  H  H53  1  0.453500  0.832900  0.628400  1.0  0.0956
  H  H54  1  0.917100  0.960500  0.390500  1.0  0.1127
  H  H55  1  0.631600  0.885300  0.455700  1.0  0.1136
  H  H56  1  0.323000  0.377100  0.016900  1.0  0.1088
  H  H57  1  0.214600  0.885900  0.363200  1.0  0.1114
  H  H58  1  0.323000  0.622900  0.983100  1.0  0.1084
  H  H59  1  0.093000  0.664500  0.083700  1.0  0.1226
  H  H60  1  0.720300  0.418700  0.727800  1.0  0.12
  H  H61  1  0.729400  0.515800  0.390200  1.0  0.0924
  H  H62  1  0.046500  0.628400  0.832900  1.0  0.0952
  H  H63  1  0.279700  0.272200  0.418700  1.0  0.1202
  H  H64  1  0.131600  0.885300  0.544300  1.0  0.1141
  H  H65  1  0.082900  0.390500  0.039500  1.0  0.1127
  H  H66  1  0.220300  0.581300  0.727800  1.0  0.1201
  H  H67  1  0.953500  0.832900  0.371600  1.0  0.0953
  H  H68  1  0.758900  0.497400  0.258000  1.0  0.1126
  H  H69  1  0.546500  0.628400  0.167100  1.0  0.0949
  H  H70  1  0.758900  0.502600  0.742000  1.0  0.1134
  H  H71  1  0.377800  0.788800  0.348900  1.0  0.0753
  H  H72  1  0.214600  0.114100  0.636800  1.0  0.1114
  H  H73  1  0.582900  0.609500  0.039500  1.0  0.1124
  H  H74  1  0.082900  0.609500  0.960500  1.0  0.112
  H  H75  1  0.622200  0.651100  0.788800  1.0  0.0749
  H  H76  1  0.407000  0.083700  0.664500  1.0  0.1226
  H  H77  1  0.279700  0.727800  0.581300  1.0  0.1215
  H  H78  1  0.598300  0.243100  0.538300  1.0  0.0816
  H  H79  1  0.901700  0.461700  0.756900  1.0  0.0815
  H  H80  1  0.877800  0.211200  0.348900  1.0  0.0751
  H  H81  1  0.285400  0.636800  0.114100  1.0  0.111
  H  H82  1  0.785400  0.636800  0.885900  1.0  0.1105
  H  H83  1  0.377800  0.211200  0.651100  1.0  0.0756
  H  H84  1  0.741100  0.742000  0.502600  1.0  0.1124
  H  H85  1  0.907000  0.083700  0.335500  1.0  0.1216
  H  H86  1  0.258900  0.502600  0.258000  1.0  0.1129
  H  H87  1  0.407000  0.916300  0.335500  1.0  0.1223
  H  H88  1  0.093000  0.335500  0.916300  1.0  0.1225
  H  H89  1  0.342400  0.761600  0.515900  1.0  0.1226
  H  H90  1  0.453500  0.167100  0.371600  1.0  0.0955
  H  H91  1  0.677000  0.016900  0.622900  1.0  0.108
  H  H92  1  0.241100  0.742000  0.497400  1.0  0.113
  H  H93  1  0.868400  0.544300  0.114700  1.0  0.1142
  H  H94  1  0.417100  0.039500  0.390500  1.0  0.1126
  H  H95  1  0.122200  0.651100  0.211200  1.0  0.0747
  H  H96  1  0.241100  0.258000  0.502600  1.0  0.1125
  H  H97  1  0.368400  0.544300  0.885300  1.0  0.1142
  H  H98  1  0.098300  0.243100  0.461700  1.0  0.0813
  H  H99  1  0.657600  0.515900  0.238400  1.0  0.1203
  H  H100  1  0.779700  0.727800  0.418700  1.0  0.1206
  H  H101  1  0.122200  0.348900  0.788800  1.0  0.0755
  H  H102  1  0.917100  0.039500  0.609500  1.0  0.1123
  H  H103  1  0.770600  0.390200  0.515800  1.0  0.0936
  H  H104  1  0.229400  0.484200  0.390200  1.0  0.0924
  H  H105  1  0.729400  0.484200  0.609800  1.0  0.0924
  H  H106  1  0.229400  0.515800  0.609800  1.0  0.093
  H  H107  1  0.868400  0.455700  0.885300  1.0  0.1143
  H  H108  1  0.631600  0.114700  0.544300  1.0  0.114
  C  C109  1  0.068700  0.369600  0.808400  1.0  0.1718
  C  C110  1  0.022600  0.615600  0.946100  1.0  -0.1389
  C  C111  1  0.999300  0.130000  0.626200  1.0  -0.0244
  C  C112  1  0.793400  0.726500  0.473300  1.0  -0.3527
  C  C113  1  0.131600  0.020700  0.622800  1.0  -0.0824
  C  C114  1  0.293400  0.726500  0.526700  1.0  -0.3534
  C  C115  1  0.956100  0.613780  0.001410  1.0  0.0159
  C  C116  1  0.793400  0.273500  0.526700  1.0  -0.3528
  C  C117  1  0.947600  0.115100  0.362400  1.0  -0.2192
  C  C118  1  0.820200  0.354200  0.503890  1.0  0.1592
  C  C119  1  0.631600  0.020700  0.377200  1.0  -0.0823
  C  C120  1  0.431300  0.808400  0.369600  1.0  0.1688
  C  C121  1  0.000700  0.626200  0.870000  1.0  -0.0253
  C  C122  1  0.977400  0.946100  0.384400  1.0  -0.136
  C  C123  1  0.052400  0.637600  0.115100  1.0  -0.2192
  C  C124  1  0.097710  0.551590  0.624150  1.0  0.6742
  C  C125  1  0.920900  0.567900  0.133220  1.0  -0.2293
  C  C126  1  0.052400  0.362400  0.884900  1.0  -0.2228
  C  C127  1  0.706600  0.473300  0.726500  1.0  -0.3528
  C  C128  1  0.420900  0.432100  0.133220  1.0  -0.2285
  C  C129  1  0.097710  0.448410  0.375850  1.0  0.673
  C  C130  1  0.456100  0.386220  0.001410  1.0  0.0164
  C  C131  1  0.586900  0.152940  0.366400  1.0  -0.1356
  C  C132  1  0.654400  0.900990  0.632000  1.0  -0.1053
  C  C133  1  0.890200  0.356610  0.235230  1.0  0.663
  C  C134  1  0.956100  0.386220  0.998590  1.0  0.0166
  C  C135  1  0.890200  0.643390  0.764770  1.0  0.6623
  C  C136  1  0.345600  0.368000  0.900990  1.0  -0.1035
  C  C137  1  0.977400  0.053900  0.615600  1.0  -0.1379
  C  C138  1  0.597710  0.551590  0.375850  1.0  0.6725
  C  C139  1  0.579100  0.866780  0.432100  1.0  -0.2289
  C  C140  1  0.022600  0.384400  0.053900  1.0  -0.1386
  C  C141  1  0.913100  0.633600  0.847060  1.0  -0.1387
  C  C142  1  0.522600  0.615600  0.053900  1.0  -0.1389
  C  C143  1  0.477400  0.053900  0.384400  1.0  -0.1362
  C  C144  1  0.368400  0.377200  0.979300  1.0  -0.084
  C  C145  1  0.402290  0.375850  0.448410  1.0  0.6725
  C  C146  1  0.068700  0.630400  0.191600  1.0  0.1715
  C  C147  1  0.413100  0.366400  0.847060  1.0  -0.1385
  C  C148  1  0.320200  0.354200  0.496110  1.0  0.1598
  C  C149  1  0.706600  0.526700  0.273500  1.0  -0.3537
  C  C150  1  0.631600  0.979300  0.622800  1.0  -0.0823
  C  C151  1  0.000700  0.373800  0.130000  1.0  -0.0275
  C  C152  1  0.523100  0.083420  0.605570  1.0  0.1111
  C  C153  1  0.456100  0.613780  0.998590  1.0  0.0162
  C  C154  1  0.206600  0.473300  0.273500  1.0  -0.353
  C  C155  1  0.447600  0.115100  0.637600  1.0  -0.2207
  C  C156  1  0.976900  0.394430  0.916580  1.0  0.1081
  C  C157  1  0.999300  0.870000  0.373800  1.0  -0.0303
  C  C158  1  0.441300  0.564470  0.789940  1.0  0.1776
  C  C159  1  0.558700  0.789940  0.435530  1.0  0.1774
  C  C160  1  0.131600  0.979300  0.377200  1.0  -0.0823
  C  C161  1  0.206600  0.526700  0.726500  1.0  -0.3534
  C  C162  1  0.079100  0.866780  0.567900  1.0  -0.2294
  C  C163  1  0.920900  0.432100  0.866780  1.0  -0.2288
  C  C164  1  0.043900  0.998590  0.613780  1.0  0.018
  C  C165  1  0.543900  0.998590  0.386220  1.0  0.014
  C  C166  1  0.552400  0.637600  0.884900  1.0  -0.2195
  C  C167  1  0.579100  0.133220  0.567900  1.0  -0.2294
  C  C168  1  0.043900  0.001410  0.386220  1.0  0.0146
  C  C169  1  0.597710  0.448410  0.624150  1.0  0.6743
  C  C170  1  0.499300  0.870000  0.626200  1.0  -0.0307
  C  C171  1  0.477400  0.946100  0.615600  1.0  -0.1378
  C  C172  1  0.154400  0.900990  0.368000  1.0  -0.1082
  C  C173  1  0.058700  0.789940  0.564470  1.0  0.1756
  C  C174  1  0.390200  0.643390  0.235230  1.0  0.6623
  C  C175  1  0.552400  0.362400  0.115100  1.0  -0.2221
  C  C176  1  0.941300  0.435530  0.789940  1.0  0.1756
  C  C177  1  0.413100  0.633600  0.152940  1.0  -0.1379
  C  C178  1  0.568700  0.630400  0.808400  1.0  0.172
  C  C179  1  0.543900  0.001410  0.613780  1.0  0.0171
  C  C180  1  0.902290  0.624150  0.448410  1.0  0.6732
  C  C181  1  0.293400  0.273500  0.473300  1.0  -0.3525
  C  C182  1  0.868400  0.377200  0.020700  1.0  -0.0845
  C  C183  1  0.079100  0.133220  0.432100  1.0  -0.2291
  C  C184  1  0.476900  0.394430  0.083420  1.0  0.1081
  C  C185  1  0.931300  0.808400  0.630400  1.0  0.1694
  C  C186  1  0.868400  0.622800  0.979300  1.0  -0.0843
  C  C187  1  0.154400  0.099010  0.632000  1.0  -0.1058
  C  C188  1  0.023100  0.083420  0.394430  1.0  0.1063
  C  C189  1  0.179800  0.496110  0.354200  1.0  0.1608
  C  C190  1  0.902290  0.375850  0.551590  1.0  0.6716
  C  C191  1  0.402290  0.624150  0.551590  1.0  0.6729
  C  C192  1  0.390200  0.356610  0.764770  1.0  0.6624
  C  C193  1  0.109800  0.764770  0.356610  1.0  0.6625
  C  C194  1  0.441300  0.435530  0.210060  1.0  0.1769
  C  C195  1  0.500700  0.373800  0.870000  1.0  -0.0236
  C  C196  1  0.058700  0.210060  0.435530  1.0  0.1765
  C  C197  1  0.609800  0.764770  0.643390  1.0  0.6624
  C  C198  1  0.086900  0.152940  0.633600  1.0  -0.1369
  C  C199  1  0.522600  0.384400  0.946100  1.0  -0.1391
  C  C200  1  0.941300  0.564470  0.210060  1.0  0.1762
  C  C201  1  0.431300  0.191600  0.630400  1.0  0.169
  C  C202  1  0.947600  0.884900  0.637600  1.0  -0.2206
  C  C203  1  0.586900  0.847060  0.633600  1.0  -0.1371
  C  C204  1  0.820200  0.645800  0.496110  1.0  0.1597
  C  C205  1  0.476900  0.605570  0.916580  1.0  0.1091
  C  C206  1  0.447600  0.884900  0.362400  1.0  -0.2205
  C  C207  1  0.320200  0.645800  0.503890  1.0  0.159
  C  C208  1  0.679800  0.496110  0.645800  1.0  0.1604
  C  C209  1  0.086900  0.847060  0.366400  1.0  -0.1377
  C  C210  1  0.523100  0.916580  0.394430  1.0  0.1071
  C  C211  1  0.609800  0.235230  0.356610  1.0  0.6632
  C  C212  1  0.109800  0.235230  0.643390  1.0  0.6626
  C  C213  1  0.568700  0.369600  0.191600  1.0  0.1718
  C  C214  1  0.023100  0.916580  0.605570  1.0  0.1093
  C  C215  1  0.654400  0.099010  0.368000  1.0  -0.1085
  C  C216  1  0.420900  0.567900  0.866780  1.0  -0.2291
  C  C217  1  0.368400  0.622800  0.020700  1.0  -0.0848
  C  C218  1  0.845600  0.368000  0.099010  1.0  -0.1036
  C  C219  1  0.913100  0.366400  0.152940  1.0  -0.138
  C  C220  1  0.345600  0.632000  0.099010  1.0  -0.1059
  C  C221  1  0.179800  0.503890  0.645800  1.0  0.1598
  C  C222  1  0.679800  0.503890  0.354200  1.0  0.1603
  C  C223  1  0.931300  0.191600  0.369600  1.0  0.1687
  C  C224  1  0.499300  0.130000  0.373800  1.0  -0.0285
  C  C225  1  0.976900  0.605570  0.083420  1.0  0.1095
  C  C226  1  0.500700  0.626200  0.130000  1.0  -0.0258
  C  C227  1  0.558700  0.210060  0.564470  1.0  0.1766
  C  C228  1  0.845600  0.632000  0.900990  1.0  -0.1054
  N  N229  1  0.513580  0.403990  0.240150  1.0  -0.3197
  N  N230  1  0.486420  0.240150  0.596010  1.0  -0.3229
  N  N231  1  0.486420  0.759850  0.403990  1.0  -0.3224
  N  N232  1  0.013580  0.596010  0.240150  1.0  -0.3189
  N  N233  1  0.986420  0.240150  0.403990  1.0  -0.3228
  N  N234  1  0.986420  0.759850  0.596010  1.0  -0.3215
  N  N235  1  0.513580  0.596010  0.759850  1.0  -0.3216
  N  N236  1  0.013580  0.403990  0.759850  1.0  -0.3215
  O  O237  1  0.023080  0.519290  0.622400  1.0  -0.6361
  O  O238  1  0.808280  0.649390  0.749000  1.0  -0.5993
  O  O239  1  0.658390  0.425800  0.359460  1.0  -0.6808
  O  O240  1  0.658390  0.574200  0.640540  1.0  -0.6803
  O  O241  1  0.394230  0.387370  0.377910  1.0  -0.5579
  O  O242  1  0.841610  0.359460  0.425800  1.0  -0.6816
  O  O243  1  0.105770  0.377910  0.387370  1.0  -0.5588
  O  O244  1  0.808280  0.350610  0.251000  1.0  -0.6016
  O  O245  1  0.158390  0.574200  0.359460  1.0  -0.6809
  O  O246  1  0.191720  0.749000  0.350610  1.0  -0.6008
  O  O247  1  0.841610  0.640540  0.574200  1.0  -0.6818
  O  O248  1  0.308280  0.350610  0.749000  1.0  -0.6001
  O  O249  1  0.523080  0.519290  0.377600  1.0  -0.6351
  O  O250  1  0.523080  0.480710  0.622400  1.0  -0.6351
  O  O251  1  0.341610  0.640540  0.425800  1.0  -0.6821
  O  O252  1  0.476920  0.622400  0.519290  1.0  -0.6349
  O  O253  1  0.546590  0.282760  0.356300  1.0  -0.6189
  O  O254  1  0.976920  0.377600  0.519290  1.0  -0.6334
  O  O255  1  0.158390  0.425800  0.640540  1.0  -0.6812
  O  O256  1  0.894230  0.387370  0.622090  1.0  -0.5566
  O  O257  1  0.546590  0.717240  0.643700  1.0  -0.6192
  O  O258  1  0.691720  0.251000  0.350610  1.0  -0.6005
  O  O259  1  0.476920  0.377600  0.480710  1.0  -0.6336
  O  O260  1  0.105770  0.622090  0.612630  1.0  -0.5593
  O  O261  1  0.976920  0.622400  0.480710  1.0  -0.6339
  O  O262  1  0.894230  0.612630  0.377910  1.0  -0.5575
  O  O263  1  0.191720  0.251000  0.649390  1.0  -0.6007
  O  O264  1  0.046590  0.717240  0.356300  1.0  -0.6185
  O  O265  1  0.046590  0.282760  0.643700  1.0  -0.6189
  O  O266  1  0.605770  0.377910  0.612630  1.0  -0.5583
  O  O267  1  0.953410  0.356300  0.282760  1.0  -0.62
  O  O268  1  0.453410  0.643700  0.282760  1.0  -0.6191
  O  O269  1  0.953410  0.643700  0.717240  1.0  -0.6183
  O  O270  1  0.341610  0.359460  0.574200  1.0  -0.6819
  O  O271  1  0.023080  0.480710  0.377600  1.0  -0.6355
  O  O272  1  0.308280  0.649390  0.251000  1.0  -0.5993
  O  O273  1  0.453410  0.356300  0.717240  1.0  -0.6192
  O  O274  1  0.691720  0.749000  0.649390  1.0  -0.6012
  O  O275  1  0.605770  0.622090  0.387370  1.0  -0.5589
  O  O276  1  0.394230  0.612630  0.622090  1.0  -0.5561
