# generated using pymatgen
data_Co3H24C30(NO5)2
_symmetry_space_group_name_H-M   'P 1'
_cell_length_a   15.19020000
_cell_length_b   17.50960000
_cell_length_c   17.50960000
_cell_angle_alpha   90.00000000
_cell_angle_beta   90.00000000
_cell_angle_gamma   90.00000000
_symmetry_Int_Tables_number   1
_chemical_formula_structural   Co3H24C30(NO5)2
_chemical_formula_sum   'Co12 H96 C120 N8 O40'
_cell_volume   4657.10405713
_cell_formula_units_Z   4
loop_
 _symmetry_equiv_pos_site_id
 _symmetry_equiv_pos_as_xyz
  1  'x, y, z'
loop_
 _atom_site_type_symbol
 _atom_site_label
 _atom_site_symmetry_multiplicity
 _atom_site_fract_x
 _atom_site_fract_y
 _atom_site_fract_z
 _atom_site_occupancy
 _atom_site_charge
  Co  Co1  1  0.967820  0.139650  0.102330  1.0  1.0188
  Co  Co2  1  0.032180  0.102330  0.860350  1.0  1.0216
  Co  Co3  1  0.250000  0.149430  0.850570  1.0  0.975
  Co  Co4  1  0.532180  0.897670  0.860350  1.0  1.0216
  Co  Co5  1  0.750000  0.850570  0.850570  1.0  0.9761
  Co  Co6  1  0.032180  0.897670  0.139650  1.0  1.0213
  Co  Co7  1  0.967820  0.860350  0.897670  1.0  1.0201
  Co  Co8  1  0.467820  0.139650  0.897670  1.0  1.0186
  Co  Co9  1  0.532180  0.102330  0.139650  1.0  1.0215
  Co  Co10  1  0.467820  0.860350  0.102330  1.0  1.0201
  Co  Co11  1  0.250000  0.850570  0.149430  1.0  0.9769
  Co  Co12  1  0.750000  0.149430  0.149430  1.0  0.9758
  H  H13  1  0.955000  0.663700  0.130300  1.0  0.0999
  H  H14  1  0.281400  0.767800  0.919800  1.0  0.1305
  H  H15  1  0.773700  0.109300  0.983100  1.0  0.1012
  H  H16  1  0.905900  0.964200  0.254500  1.0  0.0882
  H  H17  1  0.658300  0.013000  0.734800  1.0  0.1174
  H  H18  1  0.283500  0.861000  0.389600  1.0  0.1179
  H  H19  1  0.629300  0.616100  0.042400  1.0  0.1208
  H  H20  1  0.158300  0.987000  0.734800  1.0  0.1172
  H  H21  1  0.718600  0.919800  0.232200  1.0  0.129
  H  H22  1  0.455000  0.663700  0.869700  1.0  0.0993
  H  H23  1  0.281400  0.232200  0.080200  1.0  0.1313
  H  H24  1  0.078000  0.117400  0.464800  1.0  0.1167
  H  H25  1  0.882900  0.714200  0.839000  1.0  0.0713
  H  H26  1  0.759100  0.003200  0.244300  1.0  0.1295
  H  H27  1  0.240900  0.755700  0.003200  1.0  0.1264
  H  H28  1  0.773700  0.890700  0.016900  1.0  0.1014
  H  H29  1  0.117100  0.161000  0.714200  1.0  0.0715
  H  H30  1  0.716500  0.389600  0.139000  1.0  0.1167
  H  H31  1  0.629300  0.383900  0.957600  1.0  0.1208
  H  H32  1  0.740900  0.244300  0.003200  1.0  0.1269
  H  H33  1  0.726300  0.983100  0.109300  1.0  0.1005
  H  H34  1  0.129300  0.383900  0.042400  1.0  0.1209
  H  H35  1  0.905900  0.035800  0.745500  1.0  0.0888
  H  H36  1  0.341700  0.734800  0.987000  1.0  0.1197
  H  H37  1  0.870700  0.957600  0.383900  1.0  0.1213
  H  H38  1  0.922000  0.464800  0.882600  1.0  0.1163
  H  H39  1  0.913700  0.583400  0.827400  1.0  0.1278
  H  H40  1  0.216500  0.389600  0.861000  1.0  0.1168
  H  H41  1  0.882900  0.285800  0.161000  1.0  0.0716
  H  H42  1  0.322100  0.116300  0.482100  1.0  0.1001
  H  H43  1  0.455000  0.336300  0.130300  1.0  0.0998
  H  H44  1  0.922000  0.535200  0.117400  1.0  0.1161
  H  H45  1  0.129300  0.616100  0.957600  1.0  0.1208
  H  H46  1  0.218600  0.919800  0.767800  1.0  0.1295
  H  H47  1  0.226300  0.983100  0.890700  1.0  0.1011
  H  H48  1  0.726300  0.016900  0.890700  1.0  0.1006
  H  H49  1  0.094100  0.254500  0.035800  1.0  0.0887
  H  H50  1  0.370700  0.042400  0.383900  1.0  0.121
  H  H51  1  0.617100  0.839000  0.714200  1.0  0.0714
  H  H52  1  0.781400  0.232200  0.919800  1.0  0.1306
  H  H53  1  0.594100  0.254500  0.964200  1.0  0.0891
  H  H54  1  0.322100  0.883700  0.517900  1.0  0.1012
  H  H55  1  0.405900  0.964200  0.745500  1.0  0.0885
  H  H56  1  0.382900  0.285800  0.839000  1.0  0.0714
  H  H57  1  0.283500  0.139000  0.610400  1.0  0.1173
  H  H58  1  0.617100  0.161000  0.285800  1.0  0.0712
  H  H59  1  0.045000  0.869700  0.663700  1.0  0.0992
  H  H60  1  0.913700  0.416600  0.172600  1.0  0.1273
  H  H61  1  0.086300  0.172600  0.583400  1.0  0.1285
  H  H62  1  0.341700  0.265200  0.013000  1.0  0.12
  H  H63  1  0.226300  0.016900  0.109300  1.0  0.1012
  H  H64  1  0.677900  0.482100  0.883700  1.0  0.1014
  H  H65  1  0.841700  0.734800  0.013000  1.0  0.1203
  H  H66  1  0.841700  0.265200  0.987000  1.0  0.1194
  H  H67  1  0.422000  0.464800  0.117400  1.0  0.116
  H  H68  1  0.382900  0.714200  0.161000  1.0  0.0716
  H  H69  1  0.545000  0.130300  0.663700  1.0  0.0993
  H  H70  1  0.658300  0.987000  0.265200  1.0  0.117
  H  H71  1  0.078000  0.882600  0.535200  1.0  0.1171
  H  H72  1  0.273700  0.890700  0.983100  1.0  0.1017
  H  H73  1  0.545000  0.869700  0.336300  1.0  0.0989
  H  H74  1  0.218600  0.080200  0.232200  1.0  0.1288
  H  H75  1  0.677900  0.517900  0.116300  1.0  0.1018
  H  H76  1  0.413700  0.583400  0.172600  1.0  0.129
  H  H77  1  0.240900  0.244300  0.996800  1.0  0.1279
  H  H78  1  0.740900  0.755700  0.996800  1.0  0.1277
  H  H79  1  0.822100  0.883700  0.482100  1.0  0.1004
  H  H80  1  0.405900  0.035800  0.254500  1.0  0.0888
  H  H81  1  0.158300  0.013000  0.265200  1.0  0.1166
  H  H82  1  0.783500  0.139000  0.389600  1.0  0.1175
  H  H83  1  0.422000  0.535200  0.882600  1.0  0.1161
  H  H84  1  0.870700  0.042400  0.616100  1.0  0.121
  H  H85  1  0.578000  0.882600  0.464800  1.0  0.1168
  H  H86  1  0.783500  0.861000  0.610400  1.0  0.1177
  H  H87  1  0.086300  0.827400  0.416600  1.0  0.1268
  H  H88  1  0.716500  0.610400  0.861000  1.0  0.1167
  H  H89  1  0.259100  0.003200  0.755700  1.0  0.1288
  H  H90  1  0.578000  0.117400  0.535200  1.0  0.1168
  H  H91  1  0.117100  0.839000  0.285800  1.0  0.0714
  H  H92  1  0.177900  0.482100  0.116300  1.0  0.1018
  H  H93  1  0.259100  0.996800  0.244300  1.0  0.1288
  H  H94  1  0.781400  0.767800  0.080200  1.0  0.1319
  H  H95  1  0.045000  0.130300  0.336300  1.0  0.0995
  H  H96  1  0.955000  0.336300  0.869700  1.0  0.099
  H  H97  1  0.718600  0.080200  0.767800  1.0  0.1298
  H  H98  1  0.177900  0.517900  0.883700  1.0  0.1018
  H  H99  1  0.594100  0.745500  0.035800  1.0  0.0885
  H  H100  1  0.216500  0.610400  0.139000  1.0  0.1169
  H  H101  1  0.370700  0.957600  0.616100  1.0  0.121
  H  H102  1  0.413700  0.416600  0.827400  1.0  0.1268
  H  H103  1  0.586300  0.827400  0.583400  1.0  0.1282
  H  H104  1  0.759100  0.996800  0.755700  1.0  0.1281
  H  H105  1  0.094100  0.745500  0.964200  1.0  0.0891
  H  H106  1  0.273700  0.109300  0.016900  1.0  0.1015
  H  H107  1  0.822100  0.116300  0.517900  1.0  0.1007
  H  H108  1  0.586300  0.172600  0.416600  1.0  0.1267
  C  C109  1  0.632900  0.480500  0.120700  1.0  -0.1025
  C  C110  1  0.096100  0.049600  0.127800  1.0  0.6508
  C  C111  1  0.578600  0.365200  0.932000  1.0  -0.2084
  C  C112  1  0.411600  0.132300  0.652300  1.0  -0.1213
  C  C113  1  0.588400  0.652300  0.867700  1.0  -0.1202
  C  C114  1  0.088400  0.347700  0.867700  1.0  -0.1222
  C  C115  1  0.115800  0.265700  0.857900  1.0  0.651
  C  C116  1  0.557000  0.712400  0.064400  1.0  0.1764
  C  C117  1  0.048000  0.855800  0.384500  1.0  -0.2044
  C  C118  1  0.421400  0.068000  0.365200  1.0  -0.2119
  C  C119  1  0.411600  0.867700  0.347700  1.0  -0.122
  C  C120  1  0.501500  0.627400  0.872100  1.0  -0.0322
  C  C121  1  0.452900  0.115900  0.497100  1.0  0.0297
  C  C122  1  0.481800  0.449100  0.120000  1.0  -0.1377
  C  C123  1  0.156700  0.403800  0.868100  1.0  -0.0959
  C  C124  1  0.474200  0.108900  0.414300  1.0  0.0431
  C  C125  1  0.934400  0.694600  0.862700  1.0  0.1709
  C  C126  1  0.047100  0.502900  0.884100  1.0  0.0288
  C  C127  1  0.132900  0.519500  0.120700  1.0  -0.1029
  C  C128  1  0.943000  0.935600  0.287600  1.0  0.1749
  C  C129  1  0.065600  0.862700  0.305400  1.0  0.1722
  C  C130  1  0.403900  0.127800  0.049600  1.0  0.6517
  C  C131  1  0.981800  0.449100  0.880000  1.0  -0.1371
  C  C132  1  0.025800  0.585700  0.891100  1.0  0.0419
  C  C133  1  0.498500  0.127900  0.627400  1.0  -0.0315
  C  C134  1  0.452900  0.884100  0.502900  1.0  0.0284
  C  C135  1  0.678200  0.002900  0.854400  1.0  0.1079
  C  C136  1  0.615800  0.734300  0.857900  1.0  0.6516
  C  C137  1  0.501500  0.372600  0.127900  1.0  -0.0289
  C  C138  1  0.293800  0.229900  0.025400  1.0  -0.3346
  C  C139  1  0.981800  0.550900  0.120000  1.0  -0.1374
  C  C140  1  0.843300  0.868100  0.596200  1.0  -0.0925
  C  C141  1  0.443000  0.935600  0.712400  1.0  0.1787
  C  C142  1  0.615800  0.265700  0.142100  1.0  0.6508
  C  C143  1  0.001500  0.627400  0.127900  1.0  -0.0293
  C  C144  1  0.867100  0.120700  0.480500  1.0  -0.1052
  C  C145  1  0.343300  0.131900  0.596200  1.0  -0.0935
  C  C146  1  0.943000  0.064400  0.712400  1.0  0.1758
  C  C147  1  0.018200  0.120000  0.449100  1.0  -0.1374
  C  C148  1  0.481800  0.550900  0.880000  1.0  -0.1368
  C  C149  1  0.078600  0.634800  0.932000  1.0  -0.2086
  C  C150  1  0.132900  0.480500  0.879300  1.0  -0.1037
  C  C151  1  0.048000  0.144200  0.615500  1.0  -0.2038
  C  C152  1  0.884200  0.857900  0.734300  1.0  0.6524
  C  C153  1  0.998500  0.872100  0.627400  1.0  -0.0313
  C  C154  1  0.452000  0.615500  0.144200  1.0  -0.205
  C  C155  1  0.115800  0.734300  0.142100  1.0  0.6509
  C  C156  1  0.903900  0.127800  0.950400  1.0  0.6513
  C  C157  1  0.565600  0.862700  0.694600  1.0  0.1717
  C  C158  1  0.525800  0.585700  0.108900  1.0  0.0445
  C  C159  1  0.518200  0.120000  0.550900  1.0  -0.1382
  C  C160  1  0.047100  0.497100  0.115900  1.0  0.0299
  C  C161  1  0.525800  0.414300  0.891100  1.0  0.0423
  C  C162  1  0.548000  0.855800  0.615500  1.0  -0.2038
  C  C163  1  0.434400  0.694600  0.137300  1.0  0.1709
  C  C164  1  0.557000  0.287600  0.935600  1.0  0.1747
  C  C165  1  0.434400  0.305400  0.862700  1.0  0.171
  C  C166  1  0.952000  0.615500  0.855800  1.0  -0.2026
  C  C167  1  0.974200  0.891100  0.414300  1.0  0.0433
  C  C168  1  0.321800  0.145600  0.002900  1.0  0.1072
  C  C169  1  0.206200  0.974600  0.770100  1.0  -0.3379
  C  C170  1  0.178200  0.997100  0.854400  1.0  0.108
  C  C171  1  0.921400  0.068000  0.634800  1.0  -0.2119
  C  C172  1  0.206200  0.025400  0.229900  1.0  -0.3373
  C  C173  1  0.952000  0.384500  0.144200  1.0  -0.2049
  C  C174  1  0.548000  0.144200  0.384500  1.0  -0.2037
  C  C175  1  0.952900  0.115900  0.502900  1.0  0.0297
  C  C176  1  0.384200  0.857900  0.265700  1.0  0.651
  C  C177  1  0.547100  0.502900  0.115900  1.0  0.0289
  C  C178  1  0.821800  0.145600  0.997100  1.0  0.1075
  C  C179  1  0.656700  0.596200  0.868100  1.0  -0.0967
  C  C180  1  0.367100  0.879300  0.480500  1.0  -0.1057
  C  C181  1  0.596100  0.049600  0.872200  1.0  0.6512
  C  C182  1  0.934400  0.305400  0.137300  1.0  0.1712
  C  C183  1  0.867100  0.879300  0.519500  1.0  -0.1046
  C  C184  1  0.367100  0.120700  0.519500  1.0  -0.1042
  C  C185  1  0.057000  0.287600  0.064400  1.0  0.1731
  C  C186  1  0.952900  0.884100  0.497100  1.0  0.0283
  C  C187  1  0.057000  0.712400  0.935600  1.0  0.1752
  C  C188  1  0.321800  0.854400  0.997100  1.0  0.1075
  C  C189  1  0.793800  0.770100  0.025400  1.0  -0.3363
  C  C190  1  0.088400  0.652300  0.132300  1.0  -0.12
  C  C191  1  0.565600  0.137300  0.305400  1.0  0.1717
  C  C192  1  0.443000  0.064400  0.287600  1.0  0.175
  C  C193  1  0.911600  0.867700  0.652300  1.0  -0.1223
  C  C194  1  0.518200  0.880000  0.449100  1.0  -0.1361
  C  C195  1  0.403900  0.872200  0.950400  1.0  0.6517
  C  C196  1  0.632900  0.519500  0.879300  1.0  -0.1037
  C  C197  1  0.921400  0.932000  0.365200  1.0  -0.2108
  C  C198  1  0.578600  0.634800  0.068000  1.0  -0.2104
  C  C199  1  0.096100  0.950400  0.872200  1.0  0.6515
  C  C200  1  0.588400  0.347700  0.132300  1.0  -0.12
  C  C201  1  0.821800  0.854400  0.002900  1.0  0.1074
  C  C202  1  0.065600  0.137300  0.694600  1.0  0.1712
  C  C203  1  0.025800  0.414300  0.108900  1.0  0.0434
  C  C204  1  0.001500  0.372600  0.872100  1.0  -0.0341
  C  C205  1  0.706200  0.025400  0.770100  1.0  -0.3375
  C  C206  1  0.293800  0.770100  0.974600  1.0  -0.3356
  C  C207  1  0.706200  0.974600  0.229900  1.0  -0.3382
  C  C208  1  0.998500  0.127900  0.372600  1.0  -0.0327
  C  C209  1  0.596100  0.950400  0.127800  1.0  0.6509
  C  C210  1  0.178200  0.002900  0.145600  1.0  0.1077
  C  C211  1  0.156700  0.596200  0.131900  1.0  -0.095
  C  C212  1  0.903900  0.872200  0.049600  1.0  0.6513
  C  C213  1  0.793800  0.229900  0.974600  1.0  -0.3339
  C  C214  1  0.343300  0.868100  0.403800  1.0  -0.0914
  C  C215  1  0.974200  0.108900  0.585700  1.0  0.0431
  C  C216  1  0.843300  0.131900  0.403800  1.0  -0.0929
  C  C217  1  0.498500  0.872100  0.372600  1.0  -0.0321
  C  C218  1  0.018200  0.880000  0.550900  1.0  -0.1364
  C  C219  1  0.678200  0.997100  0.145600  1.0  0.1077
  C  C220  1  0.656700  0.403800  0.131900  1.0  -0.0946
  C  C221  1  0.078600  0.365200  0.068000  1.0  -0.2103
  C  C222  1  0.421400  0.932000  0.634800  1.0  -0.2105
  C  C223  1  0.384200  0.142100  0.734300  1.0  0.6496
  C  C224  1  0.452000  0.384500  0.855800  1.0  -0.2032
  C  C225  1  0.884200  0.142100  0.265700  1.0  0.6497
  C  C226  1  0.474200  0.891100  0.585700  1.0  0.043
  C  C227  1  0.911600  0.132300  0.347700  1.0  -0.1214
  C  C228  1  0.547100  0.497100  0.884100  1.0  0.028
  N  N229  1  0.014000  0.900400  0.257300  1.0  -0.3213
  N  N230  1  0.486000  0.742700  0.099600  1.0  -0.3206
  N  N231  1  0.014000  0.099600  0.742700  1.0  -0.3192
  N  N232  1  0.514000  0.900400  0.742700  1.0  -0.3194
  N  N233  1  0.486000  0.257300  0.900400  1.0  -0.3208
  N  N234  1  0.986000  0.742700  0.900400  1.0  -0.3207
  N  N235  1  0.986000  0.257300  0.099600  1.0  -0.3211
  N  N236  1  0.514000  0.099600  0.257300  1.0  -0.3206
  O  O237  1  0.841000  0.138600  0.074900  1.0  -0.6843
  O  O238  1  0.397900  0.880800  0.879500  1.0  -0.5722
  O  O239  1  0.693300  0.749800  0.851500  1.0  -0.5825
  O  O240  1  0.977100  0.877700  0.016700  1.0  -0.6244
  O  O241  1  0.022900  0.983300  0.877700  1.0  -0.625
  O  O242  1  0.050800  0.218700  0.859600  1.0  -0.6344
  O  O243  1  0.949200  0.140400  0.218700  1.0  -0.6343
  O  O244  1  0.897900  0.880800  0.120500  1.0  -0.5735
  O  O245  1  0.341000  0.138600  0.925100  1.0  -0.6841
  O  O246  1  0.897900  0.119200  0.879500  1.0  -0.5725
  O  O247  1  0.806700  0.851500  0.749800  1.0  -0.581
  O  O248  1  0.659000  0.074900  0.138600  1.0  -0.6821
  O  O249  1  0.841000  0.861400  0.925100  1.0  -0.6841
  O  O250  1  0.602100  0.879500  0.119200  1.0  -0.5744
  O  O251  1  0.477100  0.877700  0.983300  1.0  -0.6247
  O  O252  1  0.550800  0.781300  0.859600  1.0  -0.6349
  O  O253  1  0.522900  0.016700  0.877700  1.0  -0.6252
  O  O254  1  0.659000  0.925100  0.861400  1.0  -0.6825
  O  O255  1  0.522900  0.983300  0.122300  1.0  -0.626
  O  O256  1  0.102100  0.879500  0.880800  1.0  -0.5748
  O  O257  1  0.949200  0.859600  0.781300  1.0  -0.6353
  O  O258  1  0.102100  0.120500  0.119200  1.0  -0.5756
  O  O259  1  0.977100  0.122300  0.983300  1.0  -0.6243
  O  O260  1  0.022900  0.016700  0.122300  1.0  -0.6267
  O  O261  1  0.449200  0.140400  0.781300  1.0  -0.6341
  O  O262  1  0.449200  0.859600  0.218700  1.0  -0.6351
  O  O263  1  0.550800  0.218700  0.140400  1.0  -0.6352
  O  O264  1  0.602100  0.120500  0.880800  1.0  -0.5755
  O  O265  1  0.193300  0.749800  0.148500  1.0  -0.5826
  O  O266  1  0.306700  0.148500  0.749800  1.0  -0.5807
  O  O267  1  0.806700  0.148500  0.250200  1.0  -0.5799
  O  O268  1  0.397900  0.119200  0.120500  1.0  -0.5731
  O  O269  1  0.693300  0.250200  0.148500  1.0  -0.5822
  O  O270  1  0.050800  0.781300  0.140400  1.0  -0.6353
  O  O271  1  0.193300  0.250200  0.851500  1.0  -0.5821
  O  O272  1  0.341000  0.861400  0.074900  1.0  -0.6846
  O  O273  1  0.477100  0.122300  0.016700  1.0  -0.6241
  O  O274  1  0.159000  0.074900  0.861400  1.0  -0.683
  O  O275  1  0.306700  0.851500  0.250200  1.0  -0.5799
  O  O276  1  0.159000  0.925100  0.138600  1.0  -0.6827
