# generated using pymatgen
data_Co3H24C30(NO5)2
_symmetry_space_group_name_H-M   'P 1'
_cell_length_a   17.52070000
_cell_length_b   17.52070000
_cell_length_c   15.12610000
_cell_angle_alpha   90.00000000
_cell_angle_beta   90.00000000
_cell_angle_gamma   90.00000000
_symmetry_Int_Tables_number   1
_chemical_formula_structural   Co3H24C30(NO5)2
_chemical_formula_sum   'Co12 H96 C120 N8 O40'
_cell_volume   4643.33346583
_cell_formula_units_Z   4
loop_
 _symmetry_equiv_pos_site_id
 _symmetry_equiv_pos_as_xyz
  1  'x, y, z'
loop_
 _atom_site_type_symbol
 _atom_site_label
 _atom_site_symmetry_multiplicity
 _atom_site_fract_x
 _atom_site_fract_y
 _atom_site_fract_z
 _atom_site_occupancy
 _atom_site_charge
  Co  Co1  1  0.899330  0.140930  0.969330  1.0  1.0118
  Co  Co2  1  0.100670  0.859070  0.969330  1.0  1.0121
  Co  Co3  1  0.140930  0.100670  0.030670  1.0  1.0148
  Co  Co4  1  0.859070  0.899330  0.030670  1.0  1.0161
  Co  Co5  1  0.899330  0.859070  0.469330  1.0  1.0128
  Co  Co6  1  0.100670  0.140930  0.469330  1.0  1.0111
  Co  Co7  1  0.140930  0.899330  0.530670  1.0  1.0147
  Co  Co8  1  0.859070  0.100670  0.530670  1.0  1.0159
  Co  Co9  1  0.851640  0.148360  0.750000  1.0  0.954
  Co  Co10  1  0.148360  0.851640  0.750000  1.0  0.9495
  Co  Co11  1  0.148360  0.148360  0.250000  1.0  0.9489
  Co  Co12  1  0.851640  0.851640  0.250000  1.0  0.9545
  H  H13  1  0.017600  0.109800  0.773500  1.0  0.0871
  H  H14  1  0.999000  0.240200  0.740500  1.0  0.1108
  H  H15  1  0.081700  0.228600  0.783500  1.0  0.1153
  H  H16  1  0.013400  0.262300  0.841800  1.0  0.1196
  H  H17  1  0.668000  0.121500  0.042700  1.0  0.1063
  H  H18  1  0.540400  0.100600  0.077800  1.0  0.104
  H  H19  1  0.484000  0.125800  0.819700  1.0  0.1115
  H  H20  1  0.613000  0.140000  0.784400  1.0  0.1011
  H  H21  1  0.383600  0.046300  0.865400  1.0  0.1129
  H  H22  1  0.254400  0.045100  0.897800  1.0  0.0786
  H  H23  1  0.290100  0.151000  0.122200  1.0  0.0763
  H  H24  1  0.419500  0.158100  0.093900  1.0  0.1153
  H  H25  1  0.982400  0.890200  0.773500  1.0  0.0882
  H  H26  1  0.001000  0.759800  0.740500  1.0  0.1108
  H  H27  1  0.918300  0.771400  0.783500  1.0  0.1145
  H  H28  1  0.986600  0.737700  0.841800  1.0  0.12
  H  H29  1  0.332000  0.878500  0.042700  1.0  0.1055
  H  H30  1  0.459600  0.899400  0.077800  1.0  0.1042
  H  H31  1  0.516000  0.874200  0.819700  1.0  0.1112
  H  H32  1  0.387000  0.860000  0.784400  1.0  0.1016
  H  H33  1  0.616400  0.953700  0.865400  1.0  0.1122
  H  H34  1  0.745600  0.954900  0.897800  1.0  0.0781
  H  H35  1  0.709900  0.849000  0.122200  1.0  0.0775
  H  H36  1  0.580500  0.841900  0.093900  1.0  0.1156
  H  H37  1  0.109800  0.982400  0.226500  1.0  0.0874
  H  H38  1  0.240200  0.001000  0.259500  1.0  0.1111
  H  H39  1  0.228600  0.918300  0.216500  1.0  0.1144
  H  H40  1  0.262300  0.986600  0.158200  1.0  0.1182
  H  H41  1  0.121500  0.332000  0.957300  1.0  0.1057
  H  H42  1  0.100600  0.459600  0.922200  1.0  0.1043
  H  H43  1  0.125800  0.516000  0.180300  1.0  0.1091
  H  H44  1  0.140000  0.387000  0.215600  1.0  0.1001
  H  H45  1  0.046300  0.616400  0.134600  1.0  0.1122
  H  H46  1  0.045100  0.745600  0.102200  1.0  0.0783
  H  H47  1  0.151000  0.709900  0.877800  1.0  0.0772
  H  H48  1  0.158100  0.580500  0.906100  1.0  0.1142
  H  H49  1  0.890200  0.017600  0.226500  1.0  0.0875
  H  H50  1  0.759800  0.999000  0.259500  1.0  0.1104
  H  H51  1  0.771400  0.081700  0.216500  1.0  0.1135
  H  H52  1  0.737700  0.013400  0.158200  1.0  0.1178
  H  H53  1  0.878500  0.668000  0.957300  1.0  0.1058
  H  H54  1  0.899400  0.540400  0.922200  1.0  0.104
  H  H55  1  0.874200  0.484000  0.180300  1.0  0.1111
  H  H56  1  0.860000  0.613000  0.215600  1.0  0.101
  H  H57  1  0.953700  0.383600  0.134600  1.0  0.1127
  H  H58  1  0.954900  0.254400  0.102200  1.0  0.0785
  H  H59  1  0.849000  0.290100  0.877800  1.0  0.0774
  H  H60  1  0.841900  0.419500  0.906100  1.0  0.1144
  H  H61  1  0.017600  0.890200  0.273500  1.0  0.0879
  H  H62  1  0.999000  0.759800  0.240500  1.0  0.1109
  H  H63  1  0.081700  0.771400  0.283500  1.0  0.1146
  H  H64  1  0.013400  0.737700  0.341800  1.0  0.1203
  H  H65  1  0.668000  0.878500  0.542700  1.0  0.1059
  H  H66  1  0.540400  0.899400  0.577800  1.0  0.1042
  H  H67  1  0.484000  0.874200  0.319700  1.0  0.1109
  H  H68  1  0.613000  0.860000  0.284400  1.0  0.1018
  H  H69  1  0.383600  0.953700  0.365400  1.0  0.1126
  H  H70  1  0.254400  0.954900  0.397800  1.0  0.0782
  H  H71  1  0.290100  0.849000  0.622200  1.0  0.0769
  H  H72  1  0.419500  0.841900  0.593900  1.0  0.1157
  H  H73  1  0.982400  0.109800  0.273500  1.0  0.0872
  H  H74  1  0.001000  0.240200  0.240500  1.0  0.1116
  H  H75  1  0.918300  0.228600  0.283500  1.0  0.1148
  H  H76  1  0.986600  0.262300  0.341800  1.0  0.1195
  H  H77  1  0.332000  0.121500  0.542700  1.0  0.106
  H  H78  1  0.459600  0.100600  0.577800  1.0  0.1038
  H  H79  1  0.516000  0.125800  0.319700  1.0  0.1115
  H  H80  1  0.387000  0.140000  0.284400  1.0  0.1017
  H  H81  1  0.616400  0.046300  0.365400  1.0  0.1128
  H  H82  1  0.745600  0.045100  0.397800  1.0  0.0784
  H  H83  1  0.709900  0.151000  0.622200  1.0  0.0767
  H  H84  1  0.580500  0.158100  0.593900  1.0  0.1153
  H  H85  1  0.109800  0.017600  0.726500  1.0  0.0874
  H  H86  1  0.240200  0.999000  0.759500  1.0  0.111
  H  H87  1  0.228600  0.081700  0.716500  1.0  0.1132
  H  H88  1  0.262300  0.013400  0.658200  1.0  0.1186
  H  H89  1  0.121500  0.668000  0.457300  1.0  0.1058
  H  H90  1  0.100600  0.540400  0.422200  1.0  0.1044
  H  H91  1  0.125800  0.484000  0.680300  1.0  0.1095
  H  H92  1  0.140000  0.613000  0.715600  1.0  0.1006
  H  H93  1  0.046300  0.383600  0.634600  1.0  0.1121
  H  H94  1  0.045100  0.254400  0.602200  1.0  0.0784
  H  H95  1  0.151000  0.290100  0.377800  1.0  0.0772
  H  H96  1  0.158100  0.419500  0.406100  1.0  0.1144
  H  H97  1  0.890200  0.982400  0.726500  1.0  0.0875
  H  H98  1  0.759800  0.001000  0.759500  1.0  0.1115
  H  H99  1  0.771400  0.918300  0.716500  1.0  0.1135
  H  H100  1  0.737700  0.986600  0.658200  1.0  0.1173
  H  H101  1  0.878500  0.332000  0.457300  1.0  0.1055
  H  H102  1  0.899400  0.459600  0.422200  1.0  0.1041
  H  H103  1  0.874200  0.516000  0.680300  1.0  0.1104
  H  H104  1  0.860000  0.387000  0.715600  1.0  0.1011
  H  H105  1  0.953700  0.616400  0.634600  1.0  0.1128
  H  H106  1  0.954900  0.745600  0.602200  1.0  0.0784
  H  H107  1  0.849000  0.709900  0.377800  1.0  0.0771
  H  H108  1  0.841900  0.580500  0.406100  1.0  0.1142
  C  C109  1  0.050700  0.125500  0.902600  1.0  0.6978
  C  C110  1  0.004500  0.145900  0.822400  1.0  0.16
  C  C111  1  0.026600  0.226400  0.794600  1.0  -0.3629
  C  C112  1  0.735400  0.141000  0.888800  1.0  0.6601
  C  C113  1  0.652500  0.131000  0.910900  1.0  -0.1354
  C  C114  1  0.630700  0.121000  0.997200  1.0  -0.0311
  C  C115  1  0.554600  0.110100  0.018200  1.0  -0.1526
  C  C116  1  0.498100  0.113000  0.952100  1.0  0.0615
  C  C117  1  0.521200  0.124100  0.865300  1.0  -0.1241
  C  C118  1  0.597900  0.132800  0.844200  1.0  -0.0556
  C  C119  1  0.416000  0.105500  0.974800  1.0  0.1019
  C  C120  1  0.365600  0.069700  0.918100  1.0  -0.234
  C  C121  1  0.288500  0.068100  0.938700  1.0  0.1723
  C  C122  1  0.309200  0.130000  0.068700  1.0  0.1557
  C  C123  1  0.386600  0.134700  0.052000  1.0  -0.2102
  C  C124  1  0.949300  0.874500  0.902600  1.0  0.6958
  C  C125  1  0.995500  0.854100  0.822400  1.0  0.1608
  C  C126  1  0.973400  0.773600  0.794600  1.0  -0.3611
  C  C127  1  0.264600  0.859000  0.888800  1.0  0.6611
  C  C128  1  0.347500  0.869000  0.910900  1.0  -0.1333
  C  C129  1  0.369300  0.879000  0.997200  1.0  -0.0293
  C  C130  1  0.445400  0.889900  0.018200  1.0  -0.1519
  C  C131  1  0.501900  0.887000  0.952100  1.0  0.0617
  C  C132  1  0.478800  0.875900  0.865300  1.0  -0.126
  C  C133  1  0.402100  0.867200  0.844200  1.0  -0.0553
  C  C134  1  0.584000  0.894500  0.974800  1.0  0.1028
  C  C135  1  0.634400  0.930300  0.918100  1.0  -0.2331
  C  C136  1  0.711500  0.931900  0.938700  1.0  0.1714
  C  C137  1  0.690800  0.870000  0.068700  1.0  0.1572
  C  C138  1  0.613400  0.865300  0.052000  1.0  -0.2092
  C  C139  1  0.125500  0.949300  0.097400  1.0  0.6984
  C  C140  1  0.145900  0.995500  0.177600  1.0  0.163
  C  C141  1  0.226400  0.973400  0.205400  1.0  -0.361
  C  C142  1  0.141000  0.264600  0.111200  1.0  0.6631
  C  C143  1  0.131000  0.347500  0.089100  1.0  -0.1362
  C  C144  1  0.121000  0.369300  0.002800  1.0  -0.026
  C  C145  1  0.110100  0.445400  0.981800  1.0  -0.1434
  C  C146  1  0.113000  0.501900  0.047900  1.0  0.0576
  C  C147  1  0.124100  0.478800  0.134700  1.0  -0.1193
  C  C148  1  0.132800  0.402100  0.155800  1.0  -0.05
  C  C149  1  0.105500  0.584000  0.025200  1.0  0.1002
  C  C150  1  0.069700  0.634400  0.081900  1.0  -0.2332
  C  C151  1  0.068100  0.711500  0.061300  1.0  0.1713
  C  C152  1  0.130000  0.690800  0.931300  1.0  0.1591
  C  C153  1  0.134700  0.613400  0.948000  1.0  -0.2034
  C  C154  1  0.874500  0.050700  0.097400  1.0  0.6994
  C  C155  1  0.854100  0.004500  0.177600  1.0  0.1634
  C  C156  1  0.773600  0.026600  0.205400  1.0  -0.3616
  C  C157  1  0.859000  0.735400  0.111200  1.0  0.6659
  C  C158  1  0.869000  0.652500  0.089100  1.0  -0.136
  C  C159  1  0.879000  0.630700  0.002800  1.0  -0.0272
  C  C160  1  0.889900  0.554600  0.981800  1.0  -0.1424
  C  C161  1  0.887000  0.498100  0.047900  1.0  0.0599
  C  C162  1  0.875900  0.521200  0.134700  1.0  -0.1204
  C  C163  1  0.867200  0.597900  0.155800  1.0  -0.05
  C  C164  1  0.894500  0.416000  0.025200  1.0  0.1011
  C  C165  1  0.930300  0.365600  0.081900  1.0  -0.2337
  C  C166  1  0.931900  0.288500  0.061300  1.0  0.1699
  C  C167  1  0.870000  0.309200  0.931300  1.0  0.1584
  C  C168  1  0.865300  0.386600  0.948000  1.0  -0.2034
  C  C169  1  0.050700  0.874500  0.402600  1.0  0.6968
  C  C170  1  0.004500  0.854100  0.322400  1.0  0.16
  C  C171  1  0.026600  0.773600  0.294600  1.0  -0.3619
  C  C172  1  0.735400  0.859000  0.388800  1.0  0.6603
  C  C173  1  0.652500  0.869000  0.410900  1.0  -0.1335
  C  C174  1  0.630700  0.879000  0.497200  1.0  -0.0306
  C  C175  1  0.554600  0.889900  0.518200  1.0  -0.1532
  C  C176  1  0.498100  0.887000  0.452100  1.0  0.0611
  C  C177  1  0.521200  0.875900  0.365300  1.0  -0.1241
  C  C178  1  0.597900  0.867200  0.344200  1.0  -0.0545
  C  C179  1  0.416000  0.894500  0.474800  1.0  0.1024
  C  C180  1  0.365600  0.930300  0.418100  1.0  -0.2333
  C  C181  1  0.288500  0.931900  0.438700  1.0  0.1719
  C  C182  1  0.309200  0.870000  0.568700  1.0  0.1561
  C  C183  1  0.386600  0.865300  0.552000  1.0  -0.2099
  C  C184  1  0.949300  0.125500  0.402600  1.0  0.6962
  C  C185  1  0.995500  0.145900  0.322400  1.0  0.1606
  C  C186  1  0.973400  0.226400  0.294600  1.0  -0.3608
  C  C187  1  0.264600  0.141000  0.388800  1.0  0.6611
  C  C188  1  0.347500  0.131000  0.410900  1.0  -0.1352
  C  C189  1  0.369300  0.121000  0.497200  1.0  -0.0305
  C  C190  1  0.445400  0.110100  0.518200  1.0  -0.151
  C  C191  1  0.501900  0.113000  0.452100  1.0  0.0617
  C  C192  1  0.478800  0.124100  0.365300  1.0  -0.1254
  C  C193  1  0.402100  0.132800  0.344200  1.0  -0.0555
  C  C194  1  0.584000  0.105500  0.474800  1.0  0.1024
  C  C195  1  0.634400  0.069700  0.418100  1.0  -0.2338
  C  C196  1  0.711500  0.068100  0.438700  1.0  0.1719
  C  C197  1  0.690800  0.130000  0.568700  1.0  0.1568
  C  C198  1  0.613400  0.134700  0.552000  1.0  -0.2102
  C  C199  1  0.125500  0.050700  0.597400  1.0  0.6987
  C  C200  1  0.145900  0.004500  0.677600  1.0  0.1628
  C  C201  1  0.226400  0.026600  0.705400  1.0  -0.3624
  C  C202  1  0.141000  0.735400  0.611200  1.0  0.6638
  C  C203  1  0.131000  0.652500  0.589100  1.0  -0.1361
  C  C204  1  0.121000  0.630700  0.502800  1.0  -0.0254
  C  C205  1  0.110100  0.554600  0.481800  1.0  -0.1428
  C  C206  1  0.113000  0.498100  0.547900  1.0  0.0579
  C  C207  1  0.124100  0.521200  0.634700  1.0  -0.1191
  C  C208  1  0.132800  0.597900  0.655800  1.0  -0.05
  C  C209  1  0.105500  0.416000  0.525200  1.0  0.0998
  C  C210  1  0.069700  0.365600  0.581900  1.0  -0.2328
  C  C211  1  0.068100  0.288500  0.561300  1.0  0.1715
  C  C212  1  0.130000  0.309200  0.431300  1.0  0.1584
  C  C213  1  0.134700  0.386600  0.448000  1.0  -0.2027
  C  C214  1  0.874500  0.949300  0.597400  1.0  0.6994
  C  C215  1  0.854100  0.995500  0.677600  1.0  0.1641
  C  C216  1  0.773600  0.973400  0.705400  1.0  -0.361
  C  C217  1  0.859000  0.264600  0.611200  1.0  0.6647
  C  C218  1  0.869000  0.347500  0.589100  1.0  -0.1364
  C  C219  1  0.879000  0.369300  0.502800  1.0  -0.0263
  C  C220  1  0.889900  0.445400  0.481800  1.0  -0.1428
  C  C221  1  0.887000  0.501900  0.547900  1.0  0.0595
  C  C222  1  0.875900  0.478800  0.634700  1.0  -0.1216
  C  C223  1  0.867200  0.402100  0.655800  1.0  -0.0495
  C  C224  1  0.894500  0.584000  0.525200  1.0  0.1014
  C  C225  1  0.930300  0.634400  0.581900  1.0  -0.2342
  C  C226  1  0.931900  0.711500  0.561300  1.0  0.17
  C  C227  1  0.870000  0.690800  0.431300  1.0  0.1589
  C  C228  1  0.865300  0.613400  0.448000  1.0  -0.2036
  N  N229  1  0.260000  0.097100  0.012800  1.0  -0.3244
  N  N230  1  0.740000  0.902900  0.012800  1.0  -0.3245
  N  N231  1  0.097100  0.740000  0.987200  1.0  -0.3258
  N  N232  1  0.902900  0.260000  0.987200  1.0  -0.3247
  N  N233  1  0.260000  0.902900  0.512800  1.0  -0.3252
  N  N234  1  0.740000  0.097100  0.512800  1.0  -0.324
  N  N235  1  0.097100  0.260000  0.487200  1.0  -0.3248
  N  N236  1  0.902900  0.740000  0.487200  1.0  -0.3254
  O  O237  1  0.121630  0.113500  0.896400  1.0  -0.5832
  O  O238  1  0.017820  0.122230  0.977200  1.0  -0.6267
  O  O239  1  0.925850  0.139490  0.841500  1.0  -0.6874
  O  O240  1  0.750990  0.148100  0.807000  1.0  -0.6181
  O  O241  1  0.782750  0.141880  0.951100  1.0  -0.6117
  O  O242  1  0.878370  0.886500  0.896400  1.0  -0.5849
  O  O243  1  0.982180  0.877770  0.977200  1.0  -0.6278
  O  O244  1  0.074150  0.860510  0.841500  1.0  -0.6853
  O  O245  1  0.249010  0.851900  0.807000  1.0  -0.6181
  O  O246  1  0.217250  0.858120  0.951100  1.0  -0.6119
  O  O247  1  0.113500  0.878370  0.103600  1.0  -0.5849
  O  O248  1  0.122230  0.982180  0.022800  1.0  -0.6266
  O  O249  1  0.139490  0.074150  0.158500  1.0  -0.6832
  O  O250  1  0.148100  0.249010  0.193000  1.0  -0.6172
  O  O251  1  0.141880  0.217250  0.048900  1.0  -0.6101
  O  O252  1  0.886500  0.121630  0.103600  1.0  -0.5858
  O  O253  1  0.877770  0.017820  0.022800  1.0  -0.6285
  O  O254  1  0.860510  0.925850  0.158500  1.0  -0.6829
  O  O255  1  0.851900  0.750990  0.193000  1.0  -0.6176
  O  O256  1  0.858120  0.782750  0.048900  1.0  -0.6114
  O  O257  1  0.121630  0.886500  0.396400  1.0  -0.5831
  O  O258  1  0.017820  0.877770  0.477200  1.0  -0.6278
  O  O259  1  0.925850  0.860510  0.341500  1.0  -0.6865
  O  O260  1  0.750990  0.851900  0.307000  1.0  -0.618
  O  O261  1  0.782750  0.858120  0.451100  1.0  -0.6119
  O  O262  1  0.878370  0.113500  0.396400  1.0  -0.5854
  O  O263  1  0.982180  0.122230  0.477200  1.0  -0.627
  O  O264  1  0.074150  0.139490  0.341500  1.0  -0.6858
  O  O265  1  0.249010  0.148100  0.307000  1.0  -0.6178
  O  O266  1  0.217250  0.141880  0.451100  1.0  -0.6114
  O  O267  1  0.113500  0.121630  0.603600  1.0  -0.5853
  O  O268  1  0.122230  0.017820  0.522800  1.0  -0.6273
  O  O269  1  0.139490  0.925850  0.658500  1.0  -0.684
  O  O270  1  0.148100  0.750990  0.693000  1.0  -0.617
  O  O271  1  0.141880  0.782750  0.548900  1.0  -0.6096
  O  O272  1  0.886500  0.878370  0.603600  1.0  -0.5849
  O  O273  1  0.877770  0.982180  0.522800  1.0  -0.6279
  O  O274  1  0.860510  0.074150  0.658500  1.0  -0.6824
  O  O275  1  0.851900  0.249010  0.693000  1.0  -0.6178
  O  O276  1  0.858120  0.217250  0.548900  1.0  -0.6118
