# generated using pymatgen
data_AlC8O5
_symmetry_space_group_name_H-M   'P 1'
_cell_length_a   6.61030000
_cell_length_b   17.89840000
_cell_length_c   11.09890000
_cell_angle_alpha   90.00000000
_cell_angle_beta   91.24610000
_cell_angle_gamma   90.00000000
_symmetry_Int_Tables_number   1
_chemical_formula_structural   AlC8O5
_chemical_formula_sum   'Al4 C32 O20'
_cell_volume   1312.84241490
_cell_formula_units_Z   4
loop_
 _symmetry_equiv_pos_site_id
 _symmetry_equiv_pos_as_xyz
  1  'x, y, z'
loop_
 _atom_site_type_symbol
 _atom_site_label
 _atom_site_symmetry_multiplicity
 _atom_site_fract_x
 _atom_site_fract_y
 _atom_site_fract_z
 _atom_site_occupancy
 _atom_site_charge
  Al  Al1  1  0.229700  0.223890  0.254300  1.0  1.7771
  Al  Al2  1  0.245700  0.723220  0.754300  1.0  1.8365
  Al  Al3  1  0.770300  0.723890  0.745700  1.0  1.7752
  Al  Al4  1  0.754300  0.223220  0.245700  1.0  1.8369
  C  C5  1  0.321030  0.943580  0.956440  1.0  -0.0273
  C  C6  1  0.332830  0.004990  0.050820  1.0  -0.0341
  C  C7  1  0.703380  0.016740  0.019760  1.0  -0.0323
  C  C8  1  0.688860  0.956370  0.924280  1.0  -0.0064
  C  C9  1  0.520120  0.901300  0.950410  1.0  0.0297
  C  C10  1  0.505450  0.058970  0.027020  1.0  0.0156
  C  C11  1  0.516010  0.840250  0.857510  1.0  0.5337
  C  C12  1  0.511910  0.122830  0.115260  1.0  0.6917
  C  C13  1  0.845980  0.510300  0.567570  1.0  -0.0236
  C  C14  1  0.821680  0.441300  0.489000  1.0  -0.0095
  C  C15  1  0.167990  0.458240  0.416210  1.0  -0.0004
  C  C16  1  0.195680  0.528750  0.492190  1.0  -0.0263
  C  C17  1  0.994780  0.566490  0.516940  1.0  0.0463
  C  C18  1  0.024890  0.403700  0.475700  1.0  0.0925
  C  C19  1  0.009090  0.633770  0.598670  1.0  0.6601
  C  C20  1  0.016240  0.329250  0.412610  1.0  0.5227
  C  C21  1  0.678970  0.443580  0.043560  1.0  -0.0301
  C  C22  1  0.667170  0.504990  0.949180  1.0  -0.0331
  C  C23  1  0.296620  0.516740  0.980240  1.0  -0.0287
  C  C24  1  0.311140  0.456370  0.075720  1.0  -0.0089
  C  C25  1  0.479880  0.401300  0.049590  1.0  0.0302
  C  C26  1  0.494550  0.558970  0.972980  1.0  0.0154
  C  C27  1  0.483990  0.340250  0.142490  1.0  0.5338
  C  C28  1  0.488090  0.622830  0.884740  1.0  0.6917
  C  C29  1  0.154020  0.010300  0.432430  1.0  -0.0198
  C  C30  1  0.178320  0.941300  0.511000  1.0  -0.0108
  C  C31  1  0.832010  0.958240  0.583790  1.0  -0.0068
  C  C32  1  0.804320  0.028750  0.507810  1.0  -0.0239
  C  C33  1  0.005220  0.066490  0.483060  1.0  0.0477
  C  C34  1  0.975110  0.903700  0.524300  1.0  0.0908
  C  C35  1  0.990910  0.133770  0.401330  1.0  0.6609
  C  C36  1  0.983760  0.829250  0.587390  1.0  0.5213
  O  O37  1  0.987400  0.221000  0.155100  1.0  -0.6949
  O  O38  1  0.824000  0.649200  0.620700  1.0  -0.5496
  O  O39  1  0.364500  0.145200  0.168300  1.0  -0.6134
  O  O40  1  0.166000  0.308300  0.355700  1.0  -0.5746
  O  O41  1  0.671400  0.796500  0.858500  1.0  -0.5919
  O  O42  1  0.497100  0.732400  0.679300  1.0  -0.7214
  O  O43  1  0.363700  0.795730  0.860500  1.0  -0.6029
  O  O44  1  0.884800  0.298500  0.344000  1.0  -0.6155
  O  O45  1  0.681500  0.139700  0.157500  1.0  -0.5485
  O  O46  1  0.181800  0.650500  0.636800  1.0  -0.5355
  O  O47  1  0.012600  0.721000  0.844900  1.0  -0.6926
  O  O48  1  0.176000  0.149200  0.379300  1.0  -0.5481
  O  O49  1  0.635500  0.645200  0.831700  1.0  -0.6149
  O  O50  1  0.834000  0.808300  0.644300  1.0  -0.5743
  O  O51  1  0.328600  0.296500  0.141500  1.0  -0.592
  O  O52  1  0.502900  0.232400  0.320700  1.0  -0.7149
  O  O53  1  0.636300  0.295730  0.139500  1.0  -0.6033
  O  O54  1  0.115200  0.798500  0.656000  1.0  -0.6147
  O  O55  1  0.318500  0.639700  0.842500  1.0  -0.5479
  O  O56  1  0.818200  0.150500  0.363200  1.0  -0.5365
