# generated using pymatgen
data_AlC8O5
_symmetry_space_group_name_H-M   'P 1'
_cell_length_a   13.22460000
_cell_length_b   17.89230000
_cell_length_c   11.08360000
_cell_angle_alpha   90.00000000
_cell_angle_beta   89.80100000
_cell_angle_gamma   90.00000000
_symmetry_Int_Tables_number   1
_chemical_formula_structural   AlC8O5
_chemical_formula_sum   'Al8 C64 O40'
_cell_volume   2622.56910556
_cell_formula_units_Z   8
loop_
 _symmetry_equiv_pos_site_id
 _symmetry_equiv_pos_as_xyz
  1  'x, y, z'
loop_
 _atom_site_type_symbol
 _atom_site_label
 _atom_site_symmetry_multiplicity
 _atom_site_fract_x
 _atom_site_fract_y
 _atom_site_fract_z
 _atom_site_occupancy
 _atom_site_charge
  Al  Al1  1  0.116200  0.237200  0.241600  1.0  1.7708
  Al  Al2  1  0.131000  0.733800  0.754400  1.0  1.8026
  Al  Al3  1  0.374600  0.727300  0.760900  1.0  1.8431
  Al  Al4  1  0.372200  0.234000  0.264900  1.0  1.7175
  Al  Al5  1  0.883800  0.737200  0.758400  1.0  1.771
  Al  Al6  1  0.869000  0.233800  0.245600  1.0  1.8027
  Al  Al7  1  0.625400  0.227300  0.239100  1.0  1.8486
  Al  Al8  1  0.627800  0.734000  0.735100  1.0  1.7179
  C  C9  1  0.151900  0.932290  0.024210  1.0  -0.0067
  C  C10  1  0.164010  0.998730  0.109000  1.0  -0.0266
  C  C11  1  0.344200  0.014900  0.048150  1.0  -0.0092
  C  C12  1  0.332960  0.948650  0.963080  1.0  -0.0063
  C  C13  1  0.253830  0.892760  0.007310  1.0  0.0177
  C  C14  1  0.241670  0.053690  0.060780  1.0  0.0261
  C  C15  1  0.245750  0.827620  0.921990  1.0  0.7137
  C  C16  1  0.246780  0.124580  0.133190  1.0  0.6321
  C  C17  1  0.924160  0.515030  0.541130  1.0  0.0031
  C  C18  1  0.916880  0.451080  0.451210  1.0  -0.0135
  C  C19  1  0.100640  0.466840  0.405210  1.0  -0.0396
  C  C20  1  0.108230  0.531970  0.493500  1.0  -0.0239
  C  C21  1  0.005530  0.571670  0.506060  1.0  0.0139
  C  C22  1  0.019320  0.411350  0.443690  1.0  0.0468
  C  C23  1  0.010410  0.634390  0.596620  1.0  0.6066
  C  C24  1  0.015670  0.342850  0.364940  1.0  0.6901
  C  C25  1  0.336330  0.429830  0.007550  1.0  -0.0205
  C  C26  1  0.324640  0.493640  0.917550  1.0  -0.0407
  C  C27  1  0.144730  0.512550  0.977510  1.0  -0.0128
  C  C28  1  0.155570  0.448960  0.067780  1.0  -0.0058
  C  C29  1  0.234080  0.391380  0.027890  1.0  0.0586
  C  C30  1  0.247590  0.550400  0.961500  1.0  0.0125
  C  C31  1  0.241770  0.328910  0.118320  1.0  0.5228
  C  C32  1  0.242970  0.618990  0.883480  1.0  0.6655
  C  C33  1  0.569050  0.018410  0.464340  1.0  -0.0139
  C  C34  1  0.575810  0.954750  0.554860  1.0  -0.0108
  C  C35  1  0.390420  0.967380  0.593360  1.0  -0.0133
  C  C36  1  0.383270  0.032200  0.504450  1.0  -0.01
  C  C37  1  0.484960  0.073670  0.495810  1.0  0.0385
  C  C38  1  0.474520  0.913260  0.558470  1.0  0.0357
  C  C39  1  0.480660  0.136140  0.404750  1.0  0.7123
  C  C40  1  0.478100  0.844970  0.637710  1.0  0.6063
  C  C41  1  0.848100  0.432290  0.975790  1.0  -0.0099
  C  C42  1  0.835990  0.498730  0.891000  1.0  -0.0239
  C  C43  1  0.655800  0.514900  0.951850  1.0  -0.0096
  C  C44  1  0.667040  0.448650  0.036920  1.0  -0.008
  C  C45  1  0.746170  0.392760  0.992690  1.0  0.0162
  C  C46  1  0.758330  0.553690  0.939220  1.0  0.0259
  C  C47  1  0.754250  0.327620  0.078010  1.0  0.7107
  C  C48  1  0.753220  0.624580  0.866810  1.0  0.6315
  C  C49  1  0.075840  0.015030  0.458870  1.0  0.0071
  C  C50  1  0.083120  0.951080  0.548790  1.0  -0.0134
  C  C51  1  0.899360  0.966840  0.594790  1.0  -0.0413
  C  C52  1  0.891770  0.031970  0.506500  1.0  -0.0211
  C  C53  1  0.994470  0.071670  0.493940  1.0  0.0147
  C  C54  1  0.980680  0.911350  0.556310  1.0  0.0448
  C  C55  1  0.989590  0.134390  0.403380  1.0  0.6064
  C  C56  1  0.984330  0.842850  0.635060  1.0  0.6957
  C  C57  1  0.663670  0.929830  0.992450  1.0  -0.0193
  C  C58  1  0.675360  0.993640  0.082450  1.0  -0.0442
  C  C59  1  0.855270  0.012550  0.022490  1.0  -0.0151
  C  C60  1  0.844430  0.948960  0.932220  1.0  -0.0022
  C  C61  1  0.765920  0.891380  0.972110  1.0  0.0594
  C  C62  1  0.752410  0.050400  0.038500  1.0  0.0146
  C  C63  1  0.758230  0.828910  0.881680  1.0  0.5232
  C  C64  1  0.757030  0.118990  0.116520  1.0  0.6653
  C  C65  1  0.430950  0.518410  0.535660  1.0  -0.0165
  C  C66  1  0.424190  0.454750  0.445140  1.0  -0.0088
  C  C67  1  0.609580  0.467380  0.406640  1.0  -0.0096
  C  C68  1  0.616730  0.532200  0.495550  1.0  -0.0109
  C  C69  1  0.515040  0.573670  0.504190  1.0  0.0398
  C  C70  1  0.525480  0.413260  0.441530  1.0  0.038
  C  C71  1  0.519340  0.636140  0.595250  1.0  0.7112
  C  C72  1  0.521900  0.344970  0.362290  1.0  0.607
  O  O73  1  0.942700  0.683500  0.618800  1.0  -0.6066
  O  O74  1  0.163900  0.161800  0.136500  1.0  -0.6167
  O  O75  1  0.100000  0.333100  0.326200  1.0  -0.523
  O  O76  1  0.327300  0.794600  0.887600  1.0  -0.579
  O  O77  1  0.006700  0.722000  0.833400  1.0  -0.7417
  O  O78  1  0.255900  0.739000  0.681200  1.0  -0.7612
  O  O79  1  0.164000  0.810800  0.866600  1.0  -0.5626
  O  O80  1  0.944100  0.296300  0.350500  1.0  -0.6285
  O  O81  1  0.096000  0.660900  0.627700  1.0  -0.5587
  O  O82  1  0.330400  0.161900  0.143200  1.0  -0.5614
  O  O83  1  0.176000  0.277200  0.097000  1.0  -0.5742
  O  O84  1  0.560600  0.163000  0.358400  1.0  -0.5992
  O  O85  1  0.329500  0.648600  0.859700  1.0  -0.557
  O  O86  1  0.406100  0.797900  0.647000  1.0  -0.5562
  O  O87  1  0.157200  0.647400  0.861600  1.0  -0.5485
  O  O88  1  0.493100  0.232500  0.189400  1.0  -0.8205
  O  O89  1  0.241800  0.254700  0.311500  1.0  -0.7916
  O  O90  1  0.330700  0.305200  0.140900  1.0  -0.5683
  O  O91  1  0.568400  0.817500  0.639500  1.0  -0.5894
  O  O92  1  0.393500  0.162000  0.380900  1.0  -0.5448
  O  O93  1  0.057300  0.183500  0.381200  1.0  -0.6067
  O  O94  1  0.836100  0.661800  0.863500  1.0  -0.6168
  O  O95  1  0.900000  0.833100  0.673800  1.0  -0.5228
  O  O96  1  0.672700  0.294600  0.112400  1.0  -0.5807
  O  O97  1  0.993300  0.222000  0.166600  1.0  -0.7411
  O  O98  1  0.744100  0.239000  0.318800  1.0  -0.7626
  O  O99  1  0.836000  0.310800  0.133400  1.0  -0.5605
  O  O100  1  0.055900  0.796300  0.649500  1.0  -0.6279
  O  O101  1  0.904000  0.160900  0.372300  1.0  -0.5602
  O  O102  1  0.669600  0.661900  0.856800  1.0  -0.5627
  O  O103  1  0.824000  0.777200  0.903000  1.0  -0.573
  O  O104  1  0.439400  0.663000  0.641600  1.0  -0.5975
  O  O105  1  0.670500  0.148600  0.140300  1.0  -0.5572
  O  O106  1  0.593900  0.297900  0.353000  1.0  -0.5584
  O  O107  1  0.842800  0.147400  0.138400  1.0  -0.549
  O  O108  1  0.506900  0.732500  0.810600  1.0  -0.8228
  O  O109  1  0.758200  0.754700  0.688500  1.0  -0.7897
  O  O110  1  0.669300  0.805200  0.859100  1.0  -0.5691
  O  O111  1  0.431600  0.317500  0.360500  1.0  -0.5897
  O  O112  1  0.606500  0.662000  0.619100  1.0  -0.5433
