# generated using pymatgen
data_AlC8O5
_symmetry_space_group_name_H-M   'P 1'
_cell_length_a   6.60310000
_cell_length_b   18.05990000
_cell_length_c   10.85790000
_cell_angle_alpha   90.00000000
_cell_angle_beta   90.37360000
_cell_angle_gamma   90.00000000
_symmetry_Int_Tables_number   1
_chemical_formula_structural   AlC8O5
_chemical_formula_sum   'Al4 C32 O20'
_cell_volume   1294.79144303
_cell_formula_units_Z   4
loop_
 _symmetry_equiv_pos_site_id
 _symmetry_equiv_pos_as_xyz
  1  'x, y, z'
loop_
 _atom_site_type_symbol
 _atom_site_label
 _atom_site_symmetry_multiplicity
 _atom_site_fract_x
 _atom_site_fract_y
 _atom_site_fract_z
 _atom_site_occupancy
 _atom_site_charge
  Al  Al1  1  0.236600  0.234600  0.244000  1.0  1.7911
  Al  Al2  1  0.254600  0.736500  0.755100  1.0  1.7733
  Al  Al3  1  0.763400  0.734600  0.756000  1.0  1.7911
  Al  Al4  1  0.745400  0.236500  0.244900  1.0  1.7735
  C  C5  1  0.816050  0.510820  0.534720  1.0  -0.0367
  C  C6  1  0.830510  0.439970  0.459690  1.0  -0.0272
  C  C7  1  0.204230  0.438760  0.479070  1.0  -0.032
  C  C8  1  0.199480  0.512120  0.550770  1.0  -0.0284
  C  C9  1  0.005810  0.556520  0.531370  1.0  0.0334
  C  C10  1  0.013230  0.392600  0.491390  1.0  0.062
  C  C11  1  0.992970  0.626400  0.606480  1.0  0.7099
  C  C12  1  0.018340  0.324840  0.410530  1.0  0.6646
  C  C13  1  0.322100  0.955360  0.946920  1.0  -0.0402
  C  C14  1  0.314360  0.026390  0.024740  1.0  -0.0354
  C  C15  1  0.682660  0.017810  0.066290  1.0  -0.032
  C  C16  1  0.700910  0.949210  0.986000  1.0  -0.046
  C  C17  1  0.506070  0.906970  0.973620  1.0  0.039
  C  C18  1  0.511980  0.069350  0.028330  1.0  -0.0362
  C  C19  1  0.522850  0.839360  0.893220  1.0  0.6792
  C  C20  1  0.501680  0.134510  0.114690  1.0  0.6718
  C  C21  1  0.183950  0.010820  0.465280  1.0  -0.0358
  C  C22  1  0.169490  0.939970  0.540310  1.0  -0.0316
  C  C23  1  0.795770  0.938760  0.520930  1.0  -0.0306
  C  C24  1  0.800520  0.012120  0.449230  1.0  -0.0262
  C  C25  1  0.994190  0.056520  0.468630  1.0  0.0344
  C  C26  1  0.986770  0.892600  0.508610  1.0  0.0585
  C  C27  1  0.007030  0.126400  0.393520  1.0  0.7122
  C  C28  1  0.981660  0.824840  0.589470  1.0  0.6643
  C  C29  1  0.677900  0.455360  0.053080  1.0  -0.0418
  C  C30  1  0.685640  0.526390  0.975260  1.0  -0.0357
  C  C31  1  0.317340  0.517810  0.933710  1.0  -0.0272
  C  C32  1  0.299090  0.449210  0.014000  1.0  -0.0479
  C  C33  1  0.493930  0.406970  0.026380  1.0  0.0387
  C  C34  1  0.488020  0.569350  0.971670  1.0  -0.038
  C  C35  1  0.477150  0.339360  0.106780  1.0  0.6783
  C  C36  1  0.498320  0.634510  0.885310  1.0  0.671
  O  O37  1  0.989100  0.232100  0.159800  1.0  -0.6677
  O  O38  1  0.835400  0.661100  0.635900  1.0  -0.58
  O  O39  1  0.323500  0.158400  0.133500  1.0  -0.5547
  O  O40  1  0.161800  0.307900  0.354800  1.0  -0.5711
  O  O41  1  0.681200  0.804800  0.880300  1.0  -0.5666
  O  O42  1  0.507500  0.730500  0.683000  1.0  -0.7469
  O  O43  1  0.365100  0.802200  0.873000  1.0  -0.5965
  O  O44  1  0.850200  0.299900  0.365700  1.0  -0.6077
  O  O45  1  0.675400  0.144500  0.166200  1.0  -0.605
  O  O46  1  0.159400  0.650100  0.657000  1.0  -0.6151
  O  O47  1  0.010900  0.732100  0.840200  1.0  -0.6694
  O  O48  1  0.164600  0.161100  0.364100  1.0  -0.5807
  O  O49  1  0.676500  0.658400  0.866500  1.0  -0.5553
  O  O50  1  0.838200  0.807900  0.645200  1.0  -0.5684
  O  O51  1  0.318800  0.304800  0.119700  1.0  -0.5637
  O  O52  1  0.492500  0.230500  0.317000  1.0  -0.7471
  O  O53  1  0.634900  0.302200  0.127000  1.0  -0.5942
  O  O54  1  0.149800  0.799900  0.634300  1.0  -0.6045
  O  O55  1  0.324600  0.644500  0.833800  1.0  -0.6057
  O  O56  1  0.840600  0.150100  0.343000  1.0  -0.6171
