# generated using pymatgen
data_FeH5C9N7
_symmetry_space_group_name_H-M   'P 1'
_cell_length_a   22.69600000
_cell_length_b   12.69600000
_cell_length_c   16.12600000
_cell_angle_alpha   90.00000000
_cell_angle_beta   90.00000000
_cell_angle_gamma   90.00000000
_symmetry_Int_Tables_number   1
_chemical_formula_structural   FeH5C9N7
_chemical_formula_sum   'Fe16 H80 C144 N112'
_cell_volume   4646.68135642
_cell_formula_units_Z   16
loop_
 _symmetry_equiv_pos_site_id
 _symmetry_equiv_pos_as_xyz
  1  'x, y, z'
loop_
 _atom_site_type_symbol
 _atom_site_label
 _atom_site_symmetry_multiplicity
 _atom_site_fract_x
 _atom_site_fract_y
 _atom_site_fract_z
 _atom_site_occupancy
 _atom_site_charge
  Fe  Fe1  1  0.519500  0.288100  0.118680  1.0  0.8621
  Fe  Fe2  1  0.262610  0.398860  0.000640  1.0  0.9067
  Fe  Fe3  1  0.980500  0.211900  0.618680  1.0  0.858
  Fe  Fe4  1  0.237390  0.101140  0.500640  1.0  0.9066
  Fe  Fe5  1  0.480500  0.288100  0.381320  1.0  0.8633
  Fe  Fe6  1  0.737390  0.398860  0.499360  1.0  0.906
  Fe  Fe7  1  0.019500  0.211900  0.881320  1.0  0.8583
  Fe  Fe8  1  0.762610  0.101140  0.999360  1.0  0.9061
  Fe  Fe9  1  0.480500  0.711900  0.881320  1.0  0.8586
  Fe  Fe10  1  0.737390  0.601140  0.999360  1.0  0.9057
  Fe  Fe11  1  0.019500  0.788100  0.381320  1.0  0.8626
  Fe  Fe12  1  0.762610  0.898860  0.499360  1.0  0.9065
  Fe  Fe13  1  0.519500  0.711900  0.618680  1.0  0.858
  Fe  Fe14  1  0.262610  0.601140  0.500640  1.0  0.907
  Fe  Fe15  1  0.980500  0.788100  0.118680  1.0  0.8627
  Fe  Fe16  1  0.237390  0.898860  0.000640  1.0  0.9064
  H  H17  1  0.411600  0.133000  0.185700  1.0  0.0571
  H  H18  1  0.384800  0.960100  0.188400  1.0  0.1183
  H  H19  1  0.448500  0.834300  0.136300  1.0  0.1062
  H  H20  1  0.541000  0.887800  0.087600  1.0  0.1084
  H  H21  1  0.803700  0.375900  0.986300  1.0  0.0765
  H  H22  1  0.219900  0.410100  0.806100  1.0  0.0658
  H  H23  1  0.254800  0.376600  0.674700  1.0  0.103
  H  H24  1  0.353200  0.324700  0.659500  1.0  0.0944
  H  H25  1  0.412200  0.307600  0.776200  1.0  0.1145
  H  H26  1  0.348900  0.369000  0.324500  1.0  0.0621
  H  H27  1  0.088400  0.367000  0.685700  1.0  0.0571
  H  H28  1  0.115200  0.539900  0.688400  1.0  0.1195
  H  H29  1  0.051500  0.665700  0.636300  1.0  0.1063
  H  H30  1  0.959000  0.612200  0.587600  1.0  0.1082
  H  H31  1  0.696300  0.124100  0.486300  1.0  0.0774
  H  H32  1  0.280100  0.089900  0.306100  1.0  0.0661
  H  H33  1  0.245200  0.123400  0.174700  1.0  0.1034
  H  H34  1  0.146800  0.175300  0.159500  1.0  0.094
  H  H35  1  0.087800  0.192400  0.276200  1.0  0.1145
  H  H36  1  0.151100  0.131000  0.824500  1.0  0.0629
  H  H37  1  0.588400  0.133000  0.314300  1.0  0.0566
  H  H38  1  0.615200  0.960100  0.311600  1.0  0.1181
  H  H39  1  0.551500  0.834300  0.363700  1.0  0.1065
  H  H40  1  0.459000  0.887800  0.412400  1.0  0.108
  H  H41  1  0.196300  0.375900  0.513700  1.0  0.0774
  H  H42  1  0.780100  0.410100  0.693900  1.0  0.0658
  H  H43  1  0.745200  0.376600  0.825300  1.0  0.1035
  H  H44  1  0.646800  0.324700  0.840500  1.0  0.0931
  H  H45  1  0.587800  0.307600  0.723800  1.0  0.1147
  H  H46  1  0.651100  0.369000  0.175500  1.0  0.0618
  H  H47  1  0.911600  0.367000  0.814300  1.0  0.0575
  H  H48  1  0.884800  0.539900  0.811600  1.0  0.1198
  H  H49  1  0.948500  0.665700  0.863700  1.0  0.106
  H  H50  1  0.041000  0.612200  0.912400  1.0  0.1083
  H  H51  1  0.303700  0.124100  0.013700  1.0  0.0763
  H  H52  1  0.719900  0.089900  0.193900  1.0  0.0655
  H  H53  1  0.754800  0.123400  0.325300  1.0  0.1033
  H  H54  1  0.853200  0.175300  0.340500  1.0  0.0932
  H  H55  1  0.912200  0.192400  0.223800  1.0  0.1142
  H  H56  1  0.848900  0.131000  0.675500  1.0  0.0612
  H  H57  1  0.588400  0.867000  0.814300  1.0  0.0573
  H  H58  1  0.615200  0.039900  0.811600  1.0  0.1182
  H  H59  1  0.551500  0.165700  0.863700  1.0  0.1065
  H  H60  1  0.459000  0.112200  0.912400  1.0  0.1092
  H  H61  1  0.196300  0.624100  0.013700  1.0  0.0773
  H  H62  1  0.780100  0.589900  0.193900  1.0  0.0662
  H  H63  1  0.745200  0.623400  0.325300  1.0  0.104
  H  H64  1  0.646800  0.675300  0.340500  1.0  0.0929
  H  H65  1  0.587800  0.692400  0.223800  1.0  0.1145
  H  H66  1  0.651100  0.631000  0.675500  1.0  0.0622
  H  H67  1  0.911600  0.633000  0.314300  1.0  0.0569
  H  H68  1  0.884800  0.460100  0.311600  1.0  0.1198
  H  H69  1  0.948500  0.334300  0.363700  1.0  0.1065
  H  H70  1  0.041000  0.387800  0.412400  1.0  0.1094
  H  H71  1  0.303700  0.875900  0.513700  1.0  0.0763
  H  H72  1  0.719900  0.910100  0.693900  1.0  0.0657
  H  H73  1  0.754800  0.876600  0.825300  1.0  0.1033
  H  H74  1  0.853200  0.824700  0.840500  1.0  0.0933
  H  H75  1  0.912200  0.807600  0.723800  1.0  0.1144
  H  H76  1  0.848900  0.869000  0.175500  1.0  0.0618
  H  H77  1  0.411600  0.867000  0.685700  1.0  0.0574
  H  H78  1  0.384800  0.039900  0.688400  1.0  0.1177
  H  H79  1  0.448500  0.165700  0.636300  1.0  0.1061
  H  H80  1  0.541000  0.112200  0.587600  1.0  0.1095
  H  H81  1  0.803700  0.624100  0.486300  1.0  0.0764
  H  H82  1  0.219900  0.589900  0.306100  1.0  0.0653
  H  H83  1  0.254800  0.623400  0.174700  1.0  0.1026
  H  H84  1  0.353200  0.675300  0.159500  1.0  0.0943
  H  H85  1  0.412200  0.692400  0.276200  1.0  0.1145
  H  H86  1  0.348900  0.631000  0.824500  1.0  0.0619
  H  H87  1  0.088400  0.633000  0.185700  1.0  0.0565
  H  H88  1  0.115200  0.460100  0.188400  1.0  0.1199
  H  H89  1  0.051500  0.334300  0.136300  1.0  0.1067
  H  H90  1  0.959000  0.387800  0.087600  1.0  0.1092
  H  H91  1  0.696300  0.875900  0.986300  1.0  0.0776
  H  H92  1  0.280100  0.910100  0.806100  1.0  0.066
  H  H93  1  0.245200  0.876600  0.674700  1.0  0.1032
  H  H94  1  0.146800  0.824700  0.659500  1.0  0.0942
  H  H95  1  0.087800  0.807600  0.776200  1.0  0.1146
  H  H96  1  0.151100  0.869000  0.324500  1.0  0.0624
  C  C97  1  0.438000  0.083300  0.165500  1.0  0.1686
  C  C98  1  0.421300  0.979500  0.167100  1.0  -0.1775
  C  C99  1  0.459200  0.905000  0.136900  1.0  -0.0651
  C  C100  1  0.513800  0.936600  0.107100  1.0  -0.0589
  C  C101  1  0.526400  0.044300  0.107400  1.0  0.1536
  C  C102  1  0.582300  0.087000  0.076000  1.0  0.2949
  C  C103  1  0.645800  0.196300  0.040400  1.0  0.2595
  C  C104  1  0.683600  0.286700  0.022000  1.0  0.2558
  C  C105  1  0.764100  0.362900  0.996900  1.0  0.2472
  C  C106  1  0.258800  0.388400  0.799600  1.0  0.1509
  C  C107  1  0.279200  0.369100  0.720600  1.0  -0.1319
  C  C108  1  0.337800  0.338100  0.711900  1.0  -0.0921
  C  C109  1  0.372900  0.327100  0.781200  1.0  -0.1221
  C  C110  1  0.348200  0.346000  0.858400  1.0  0.1523
  C  C111  1  0.381400  0.336800  0.936600  1.0  0.3134
  C  C112  1  0.396400  0.339500  0.064300  1.0  0.279
  C  C113  1  0.394300  0.350300  0.154000  1.0  0.3779
  C  C114  1  0.370900  0.359500  0.276500  1.0  0.2951
  C  C115  1  0.062000  0.416700  0.665500  1.0  0.1689
  C  C116  1  0.078700  0.520500  0.667100  1.0  -0.1766
  C  C117  1  0.040800  0.595000  0.636900  1.0  -0.0619
  C  C118  1  0.986200  0.563400  0.607100  1.0  -0.0594
  C  C119  1  0.973600  0.455700  0.607400  1.0  0.1531
  C  C120  1  0.917700  0.413000  0.576000  1.0  0.2953
  C  C121  1  0.854200  0.303700  0.540400  1.0  0.26
  C  C122  1  0.816400  0.213300  0.522000  1.0  0.2572
  C  C123  1  0.735900  0.137100  0.496900  1.0  0.2462
  C  C124  1  0.241200  0.111600  0.299600  1.0  0.1534
  C  C125  1  0.220800  0.130900  0.220600  1.0  -0.1321
  C  C126  1  0.162200  0.161900  0.211900  1.0  -0.0913
  C  C127  1  0.127100  0.172900  0.281200  1.0  -0.1217
  C  C128  1  0.151800  0.154000  0.358400  1.0  0.1523
  C  C129  1  0.118600  0.163200  0.436600  1.0  0.3124
  C  C130  1  0.103600  0.160500  0.564300  1.0  0.278
  C  C131  1  0.105700  0.149700  0.654000  1.0  0.3766
  C  C132  1  0.129100  0.140500  0.776500  1.0  0.2942
  C  C133  1  0.562000  0.083300  0.334500  1.0  0.1694
  C  C134  1  0.578700  0.979500  0.332900  1.0  -0.1764
  C  C135  1  0.540800  0.905000  0.363100  1.0  -0.0642
  C  C136  1  0.486200  0.936600  0.392900  1.0  -0.0602
  C  C137  1  0.473600  0.044300  0.392600  1.0  0.1534
  C  C138  1  0.417700  0.087000  0.424000  1.0  0.2953
  C  C139  1  0.354200  0.196300  0.459600  1.0  0.2597
  C  C140  1  0.316400  0.286700  0.478000  1.0  0.2573
  C  C141  1  0.235900  0.362900  0.503100  1.0  0.2464
  C  C142  1  0.741200  0.388400  0.700400  1.0  0.1529
  C  C143  1  0.720800  0.369100  0.779400  1.0  -0.1314
  C  C144  1  0.662200  0.338100  0.788100  1.0  -0.0906
  C  C145  1  0.627100  0.327100  0.718800  1.0  -0.1213
  C  C146  1  0.651800  0.346000  0.641600  1.0  0.1524
  C  C147  1  0.618600  0.336800  0.563400  1.0  0.3104
  C  C148  1  0.603600  0.339500  0.435700  1.0  0.2776
  C  C149  1  0.605700  0.350300  0.346000  1.0  0.3761
  C  C150  1  0.629100  0.359500  0.223500  1.0  0.2932
  C  C151  1  0.938000  0.416700  0.834500  1.0  0.1687
  C  C152  1  0.921300  0.520500  0.832900  1.0  -0.1777
  C  C153  1  0.959200  0.595000  0.863100  1.0  -0.0632
  C  C154  1  0.013800  0.563400  0.892900  1.0  -0.0591
  C  C155  1  0.026400  0.455700  0.892600  1.0  0.1535
  C  C156  1  0.082300  0.413000  0.924000  1.0  0.2951
  C  C157  1  0.145800  0.303700  0.959600  1.0  0.2602
  C  C158  1  0.183600  0.213300  0.978000  1.0  0.255
  C  C159  1  0.264100  0.137100  0.003100  1.0  0.2467
  C  C160  1  0.758800  0.111600  0.200400  1.0  0.1513
  C  C161  1  0.779200  0.130900  0.279400  1.0  -0.1315
  C  C162  1  0.837800  0.161900  0.288100  1.0  -0.0914
  C  C163  1  0.872900  0.172900  0.218800  1.0  -0.122
  C  C164  1  0.848200  0.154000  0.141600  1.0  0.1522
  C  C165  1  0.881400  0.163200  0.063400  1.0  0.3116
  C  C166  1  0.896400  0.160500  0.935700  1.0  0.2787
  C  C167  1  0.894300  0.149700  0.846000  1.0  0.3771
  C  C168  1  0.870900  0.140500  0.723500  1.0  0.294
  C  C169  1  0.562000  0.916700  0.834500  1.0  0.169
  C  C170  1  0.578700  0.020500  0.832900  1.0  -0.1765
  C  C171  1  0.540800  0.095000  0.863100  1.0  -0.0623
  C  C172  1  0.486200  0.063400  0.892900  1.0  -0.06
  C  C173  1  0.473600  0.955700  0.892600  1.0  0.1533
  C  C174  1  0.417700  0.913000  0.924000  1.0  0.2953
  C  C175  1  0.354200  0.803700  0.959600  1.0  0.2602
  C  C176  1  0.316400  0.713300  0.978000  1.0  0.2569
  C  C177  1  0.235900  0.637100  0.003100  1.0  0.2462
  C  C178  1  0.741200  0.611600  0.200400  1.0  0.1529
  C  C179  1  0.720800  0.630900  0.279400  1.0  -0.1315
  C  C180  1  0.662200  0.661900  0.288100  1.0  -0.0909
  C  C181  1  0.627100  0.672900  0.218800  1.0  -0.1212
  C  C182  1  0.651800  0.654000  0.141600  1.0  0.1523
  C  C183  1  0.618600  0.663200  0.063400  1.0  0.3106
  C  C184  1  0.603600  0.660500  0.935700  1.0  0.2779
  C  C185  1  0.605700  0.649700  0.846000  1.0  0.3761
  C  C186  1  0.629100  0.640500  0.723500  1.0  0.2931
  C  C187  1  0.938000  0.583300  0.334500  1.0  0.1687
  C  C188  1  0.921300  0.479500  0.332900  1.0  -0.1775
  C  C189  1  0.959200  0.405000  0.363100  1.0  -0.0652
  C  C190  1  0.013800  0.436600  0.392900  1.0  -0.0596
  C  C191  1  0.026400  0.544300  0.392600  1.0  0.1538
  C  C192  1  0.082300  0.587000  0.424000  1.0  0.2952
  C  C193  1  0.145800  0.696300  0.459600  1.0  0.2597
  C  C194  1  0.183600  0.786700  0.478000  1.0  0.2557
  C  C195  1  0.264100  0.862900  0.503100  1.0  0.247
  C  C196  1  0.758800  0.888400  0.700400  1.0  0.151
  C  C197  1  0.779200  0.869100  0.779400  1.0  -0.1314
  C  C198  1  0.837800  0.838100  0.788100  1.0  -0.0911
  C  C199  1  0.872900  0.827100  0.718800  1.0  -0.1219
  C  C200  1  0.848200  0.846000  0.641600  1.0  0.1522
  C  C201  1  0.881400  0.836800  0.563400  1.0  0.3113
  C  C202  1  0.896400  0.839500  0.435700  1.0  0.2787
  C  C203  1  0.894300  0.850300  0.346000  1.0  0.3771
  C  C204  1  0.870900  0.859500  0.223500  1.0  0.2943
  C  C205  1  0.438000  0.916700  0.665500  1.0  0.1689
  C  C206  1  0.421300  0.020500  0.667100  1.0  -0.1779
  C  C207  1  0.459200  0.095000  0.636900  1.0  -0.0629
  C  C208  1  0.513800  0.063400  0.607100  1.0  -0.0585
  C  C209  1  0.526400  0.955700  0.607400  1.0  0.1533
  C  C210  1  0.582300  0.913000  0.576000  1.0  0.2949
  C  C211  1  0.645800  0.803700  0.540400  1.0  0.26
  C  C212  1  0.683600  0.713300  0.522000  1.0  0.2552
  C  C213  1  0.764100  0.637100  0.496900  1.0  0.2466
  C  C214  1  0.258800  0.611600  0.299600  1.0  0.1515
  C  C215  1  0.279200  0.630900  0.220600  1.0  -0.1321
  C  C216  1  0.337800  0.661900  0.211900  1.0  -0.0921
  C  C217  1  0.372900  0.672900  0.281200  1.0  -0.1222
  C  C218  1  0.348200  0.654000  0.358400  1.0  0.1521
  C  C219  1  0.381400  0.663200  0.436600  1.0  0.3136
  C  C220  1  0.396400  0.660500  0.564300  1.0  0.2789
  C  C221  1  0.394300  0.649700  0.654000  1.0  0.3773
  C  C222  1  0.370900  0.640500  0.776500  1.0  0.295
  C  C223  1  0.062000  0.583300  0.165500  1.0  0.1692
  C  C224  1  0.078700  0.479500  0.167100  1.0  -0.1763
  C  C225  1  0.040800  0.405000  0.136900  1.0  -0.064
  C  C226  1  0.986200  0.436600  0.107100  1.0  -0.0596
  C  C227  1  0.973600  0.544300  0.107400  1.0  0.1532
  C  C228  1  0.917700  0.587000  0.076000  1.0  0.2952
  C  C229  1  0.854200  0.696300  0.040400  1.0  0.2595
  C  C230  1  0.816400  0.786700  0.022000  1.0  0.2576
  C  C231  1  0.735900  0.862900  0.996900  1.0  0.2466
  C  C232  1  0.241200  0.888400  0.799600  1.0  0.1533
  C  C233  1  0.220800  0.869100  0.720600  1.0  -0.1319
  C  C234  1  0.162200  0.838100  0.711900  1.0  -0.0914
  C  C235  1  0.127100  0.827100  0.781200  1.0  -0.1219
  C  C236  1  0.151800  0.846000  0.858400  1.0  0.1525
  C  C237  1  0.118600  0.836800  0.936600  1.0  0.3124
  C  C238  1  0.103600  0.839500  0.064300  1.0  0.2778
  C  C239  1  0.105700  0.850300  0.154000  1.0  0.3771
  C  C240  1  0.129100  0.859500  0.276500  1.0  0.2941
  N  N241  1  0.489500  0.117300  0.137100  1.0  -0.339
  N  N242  1  0.589750  0.192300  0.066300  1.0  -0.5205
  N  N243  1  0.629100  0.029500  0.057300  1.0  -0.3496
  N  N244  1  0.670600  0.101100  0.032900  1.0  -0.2571
  N  N245  1  0.740800  0.266400  0.003200  1.0  -0.4843
  N  N246  1  0.671670  0.388600  0.025000  1.0  -0.3491
  N  N247  1  0.724200  0.437900  0.007700  1.0  -0.2329
  N  N248  1  0.291900  0.377700  0.867200  1.0  -0.2981
  N  N249  1  0.353100  0.358800  0.008500  1.0  -0.472
  N  N250  1  0.436500  0.307200  0.945000  1.0  -0.3366
  N  N251  1  0.446520  0.309100  0.028200  1.0  -0.2769
  N  N252  1  0.347200  0.367500  0.200600  1.0  -0.4453
  N  N253  1  0.443250  0.331700  0.195900  1.0  -0.3173
  N  N254  1  0.427400  0.337100  0.278100  1.0  -0.3026
  N  N255  1  0.010500  0.382700  0.637100  1.0  -0.3389
  N  N256  1  0.910250  0.307700  0.566300  1.0  -0.5219
  N  N257  1  0.870900  0.470500  0.557300  1.0  -0.3505
  N  N258  1  0.829400  0.398900  0.532900  1.0  -0.2571
  N  N259  1  0.759200  0.233600  0.503200  1.0  -0.4842
  N  N260  1  0.828330  0.111400  0.525000  1.0  -0.3473
  N  N261  1  0.775800  0.062100  0.507700  1.0  -0.232
  N  N262  1  0.208100  0.122300  0.367200  1.0  -0.2982
  N  N263  1  0.146900  0.141200  0.508500  1.0  -0.4726
  N  N264  1  0.063500  0.192800  0.445000  1.0  -0.3352
  N  N265  1  0.053480  0.190900  0.528200  1.0  -0.2727
  N  N266  1  0.152800  0.132500  0.700600  1.0  -0.4453
  N  N267  1  0.056750  0.168300  0.695900  1.0  -0.3143
  N  N268  1  0.072600  0.162900  0.778100  1.0  -0.3029
  N  N269  1  0.510500  0.117300  0.362900  1.0  -0.3396
  N  N270  1  0.410250  0.192300  0.433700  1.0  -0.5211
  N  N271  1  0.370900  0.029500  0.442700  1.0  -0.3507
  N  N272  1  0.329400  0.101100  0.467100  1.0  -0.2574
  N  N273  1  0.259200  0.266400  0.496800  1.0  -0.4835
  N  N274  1  0.328330  0.388600  0.475000  1.0  -0.3492
  N  N275  1  0.275800  0.437900  0.492300  1.0  -0.2329
  N  N276  1  0.708100  0.377700  0.632800  1.0  -0.2986
  N  N277  1  0.646900  0.358800  0.491500  1.0  -0.4725
  N  N278  1  0.563500  0.307200  0.555000  1.0  -0.3348
  N  N279  1  0.553480  0.309100  0.471800  1.0  -0.2718
  N  N280  1  0.652800  0.367500  0.299400  1.0  -0.4447
  N  N281  1  0.556750  0.331700  0.304100  1.0  -0.3152
  N  N282  1  0.572600  0.337100  0.221900  1.0  -0.2995
  N  N283  1  0.989500  0.382700  0.862900  1.0  -0.3383
  N  N284  1  0.089750  0.307700  0.933700  1.0  -0.5225
  N  N285  1  0.129100  0.470500  0.942700  1.0  -0.3495
  N  N286  1  0.170600  0.398900  0.967100  1.0  -0.2577
  N  N287  1  0.240800  0.233600  0.996800  1.0  -0.4837
  N  N288  1  0.171670  0.111400  0.975000  1.0  -0.3477
  N  N289  1  0.224200  0.062100  0.992300  1.0  -0.2326
  N  N290  1  0.791900  0.122300  0.132800  1.0  -0.2984
  N  N291  1  0.853100  0.141200  0.991500  1.0  -0.472
  N  N292  1  0.936500  0.192800  0.055000  1.0  -0.3354
  N  N293  1  0.946520  0.190900  0.971800  1.0  -0.2762
  N  N294  1  0.847200  0.132500  0.799400  1.0  -0.4443
  N  N295  1  0.943250  0.168300  0.804100  1.0  -0.317
  N  N296  1  0.927400  0.162900  0.721900  1.0  -0.3003
  N  N297  1  0.510500  0.882700  0.862900  1.0  -0.339
  N  N298  1  0.410250  0.807700  0.933700  1.0  -0.5218
  N  N299  1  0.370900  0.970500  0.942700  1.0  -0.3502
  N  N300  1  0.329400  0.898900  0.967100  1.0  -0.2579
  N  N301  1  0.259200  0.733600  0.996800  1.0  -0.4837
  N  N302  1  0.328330  0.611400  0.975000  1.0  -0.3471
  N  N303  1  0.275800  0.562100  0.992300  1.0  -0.2321
  N  N304  1  0.708100  0.622300  0.132800  1.0  -0.2983
  N  N305  1  0.646900  0.641200  0.991500  1.0  -0.4728
  N  N306  1  0.563500  0.692800  0.055000  1.0  -0.3346
  N  N307  1  0.553480  0.690900  0.971800  1.0  -0.2713
  N  N308  1  0.652800  0.632500  0.799400  1.0  -0.4443
  N  N309  1  0.556750  0.668300  0.804100  1.0  -0.3149
  N  N310  1  0.572600  0.662900  0.721900  1.0  -0.3012
  N  N311  1  0.989500  0.617300  0.362900  1.0  -0.339
  N  N312  1  0.089750  0.692300  0.433700  1.0  -0.5206
  N  N313  1  0.129100  0.529500  0.442700  1.0  -0.3494
  N  N314  1  0.170600  0.601100  0.467100  1.0  -0.2561
  N  N315  1  0.240800  0.766400  0.496800  1.0  -0.483
  N  N316  1  0.171670  0.888600  0.475000  1.0  -0.3489
  N  N317  1  0.224200  0.937900  0.492300  1.0  -0.233
  N  N318  1  0.791900  0.877700  0.632800  1.0  -0.2986
  N  N319  1  0.853100  0.858800  0.491500  1.0  -0.4722
  N  N320  1  0.936500  0.807200  0.555000  1.0  -0.335
  N  N321  1  0.946520  0.809100  0.471800  1.0  -0.2766
  N  N322  1  0.847200  0.867500  0.299400  1.0  -0.4448
  N  N323  1  0.943250  0.831700  0.304100  1.0  -0.3175
  N  N324  1  0.927400  0.837100  0.221900  1.0  -0.302
  N  N325  1  0.489500  0.882700  0.637100  1.0  -0.3383
  N  N326  1  0.589750  0.807700  0.566300  1.0  -0.5226
  N  N327  1  0.629100  0.970500  0.557300  1.0  -0.3496
  N  N328  1  0.670600  0.898900  0.532900  1.0  -0.2573
  N  N329  1  0.740800  0.733600  0.503200  1.0  -0.4842
  N  N330  1  0.671670  0.611400  0.525000  1.0  -0.3478
  N  N331  1  0.724200  0.562100  0.507700  1.0  -0.2325
  N  N332  1  0.291900  0.622300  0.367200  1.0  -0.298
  N  N333  1  0.353100  0.641200  0.508500  1.0  -0.4713
  N  N334  1  0.436500  0.692800  0.445000  1.0  -0.3361
  N  N335  1  0.446520  0.690900  0.528200  1.0  -0.2769
  N  N336  1  0.347200  0.632500  0.700600  1.0  -0.4453
  N  N337  1  0.443250  0.668300  0.695900  1.0  -0.3166
  N  N338  1  0.427400  0.662900  0.778100  1.0  -0.3008
  N  N339  1  0.010500  0.617300  0.137100  1.0  -0.3396
  N  N340  1  0.910250  0.692300  0.066300  1.0  -0.521
  N  N341  1  0.870900  0.529500  0.057300  1.0  -0.3506
  N  N342  1  0.829400  0.601100  0.032900  1.0  -0.258
  N  N343  1  0.759200  0.766400  0.003200  1.0  -0.4848
  N  N344  1  0.828330  0.888600  0.025000  1.0  -0.3495
  N  N345  1  0.775800  0.937900  0.007700  1.0  -0.2328
  N  N346  1  0.208100  0.877700  0.867200  1.0  -0.2985
  N  N347  1  0.146900  0.858800  0.008500  1.0  -0.473
  N  N348  1  0.063500  0.807200  0.945000  1.0  -0.3348
  N  N349  1  0.053480  0.809100  0.028200  1.0  -0.273
  N  N350  1  0.152800  0.867500  0.200600  1.0  -0.4454
  N  N351  1  0.056750  0.831700  0.195900  1.0  -0.3148
  N  N352  1  0.072600  0.837100  0.278100  1.0  -0.3011
