# generated using pymatgen
data_CoH16(C5N)4
_symmetry_space_group_name_H-M   'P 1'
_cell_length_a   15.64500000
_cell_length_b   15.64500000
_cell_length_c   19.75000000
_cell_angle_alpha   90.00000000
_cell_angle_beta   90.00000000
_cell_angle_gamma   90.00000000
_symmetry_Int_Tables_number   1
_chemical_formula_structural   CoH16(C5N)4
_chemical_formula_sum   'Co8 H128 C160 N32'
_cell_volume   4834.12899375
_cell_formula_units_Z   8
loop_
 _symmetry_equiv_pos_site_id
 _symmetry_equiv_pos_as_xyz
  1  'x, y, z'
loop_
 _atom_site_type_symbol
 _atom_site_label
 _atom_site_symmetry_multiplicity
 _atom_site_fract_x
 _atom_site_fract_y
 _atom_site_fract_z
 _atom_site_occupancy
 _atom_site_charge
  Co  Co1  1  0.000000  0.250000  0.125000  1.0  0.6128
  Co  Co2  1  0.500000  0.750000  0.625000  1.0  0.6128
  Co  Co3  1  0.000000  0.750000  0.375000  1.0  0.6128
  Co  Co4  1  0.500000  0.250000  0.875000  1.0  0.6128
  Co  Co5  1  0.000000  0.750000  0.875000  1.0  0.6128
  Co  Co6  1  0.500000  0.250000  0.375000  1.0  0.6128
  Co  Co7  1  0.000000  0.250000  0.625000  1.0  0.6128
  Co  Co8  1  0.500000  0.750000  0.125000  1.0  0.6128
  H  H9  1  0.968900  0.150300  0.989200  1.0  0.043
  H  H10  1  0.042000  0.088000  0.901700  1.0  0.0758
  H  H11  1  0.190300  0.082200  0.904900  1.0  0.0767
  H  H12  1  0.181500  0.195700  0.086100  1.0  0.0348
  H  H13  1  0.468900  0.650300  0.489200  1.0  0.043
  H  H14  1  0.542000  0.588000  0.401700  1.0  0.0758
  H  H15  1  0.690300  0.582200  0.404900  1.0  0.0767
  H  H16  1  0.681500  0.695700  0.586100  1.0  0.0348
  H  H17  1  0.531100  0.849700  0.489200  1.0  0.0417
  H  H18  1  0.458000  0.912000  0.401700  1.0  0.0755
  H  H19  1  0.309700  0.917800  0.404900  1.0  0.0763
  H  H20  1  0.318500  0.804300  0.586100  1.0  0.035
  H  H21  1  0.031100  0.349700  0.989200  1.0  0.0417
  H  H22  1  0.958000  0.412000  0.901700  1.0  0.0755
  H  H23  1  0.809700  0.417800  0.904900  1.0  0.0763
  H  H24  1  0.818500  0.304300  0.086100  1.0  0.035
  H  H25  1  0.099700  0.718900  0.239200  1.0  0.0415
  H  H26  1  0.162000  0.792000  0.151700  1.0  0.0755
  H  H27  1  0.167800  0.940300  0.154900  1.0  0.0762
  H  H28  1  0.054300  0.931500  0.336100  1.0  0.0347
  H  H29  1  0.599700  0.218900  0.739200  1.0  0.0415
  H  H30  1  0.662000  0.292000  0.651700  1.0  0.0755
  H  H31  1  0.667800  0.440300  0.654900  1.0  0.0762
  H  H32  1  0.554300  0.431500  0.836100  1.0  0.0347
  H  H33  1  0.400300  0.281100  0.739200  1.0  0.0417
  H  H34  1  0.338000  0.208000  0.651700  1.0  0.0756
  H  H35  1  0.332200  0.059700  0.654900  1.0  0.0763
  H  H36  1  0.445700  0.068500  0.836100  1.0  0.0346
  H  H37  1  0.900300  0.781100  0.239200  1.0  0.0417
  H  H38  1  0.838000  0.708000  0.151700  1.0  0.0756
  H  H39  1  0.832200  0.559700  0.154900  1.0  0.0763
  H  H40  1  0.945700  0.568500  0.336100  1.0  0.0346
  H  H41  1  0.531100  0.150300  0.010800  1.0  0.0425
  H  H42  1  0.458000  0.088000  0.098300  1.0  0.0765
  H  H43  1  0.309700  0.082200  0.095100  1.0  0.0769
  H  H44  1  0.318500  0.195700  0.913900  1.0  0.0358
  H  H45  1  0.031100  0.650300  0.510800  1.0  0.0425
  H  H46  1  0.958000  0.588000  0.598300  1.0  0.0765
  H  H47  1  0.809700  0.582200  0.595100  1.0  0.0769
  H  H48  1  0.818500  0.695700  0.413900  1.0  0.0358
  H  H49  1  0.968900  0.849700  0.510800  1.0  0.0431
  H  H50  1  0.042000  0.912000  0.598300  1.0  0.0765
  H  H51  1  0.190300  0.917800  0.595100  1.0  0.0764
  H  H52  1  0.181500  0.804300  0.413900  1.0  0.0353
  H  H53  1  0.468900  0.349700  0.010800  1.0  0.0431
  H  H54  1  0.542000  0.412000  0.098300  1.0  0.0765
  H  H55  1  0.690300  0.417800  0.095100  1.0  0.0764
  H  H56  1  0.681500  0.304300  0.913900  1.0  0.0353
  H  H57  1  0.400300  0.718900  0.760800  1.0  0.0416
  H  H58  1  0.338000  0.792000  0.848300  1.0  0.0765
  H  H59  1  0.332200  0.940300  0.845100  1.0  0.0764
  H  H60  1  0.445700  0.931500  0.663900  1.0  0.0354
  H  H61  1  0.900300  0.218900  0.260800  1.0  0.0416
  H  H62  1  0.838000  0.292000  0.348300  1.0  0.0765
  H  H63  1  0.832200  0.440300  0.345100  1.0  0.0764
  H  H64  1  0.945700  0.431500  0.163900  1.0  0.0354
  H  H65  1  0.099700  0.281100  0.260800  1.0  0.0417
  H  H66  1  0.162000  0.208000  0.348300  1.0  0.0761
  H  H67  1  0.167800  0.059700  0.345100  1.0  0.0766
  H  H68  1  0.054300  0.068500  0.163900  1.0  0.035
  H  H69  1  0.599700  0.781100  0.760800  1.0  0.0417
  H  H70  1  0.662000  0.708000  0.848300  1.0  0.0761
  H  H71  1  0.667800  0.559700  0.845100  1.0  0.0766
  H  H72  1  0.554300  0.568500  0.663900  1.0  0.035
  H  H73  1  0.031100  0.849700  0.010800  1.0  0.0419
  H  H74  1  0.958000  0.912000  0.098300  1.0  0.0761
  H  H75  1  0.809700  0.917800  0.095100  1.0  0.0765
  H  H76  1  0.818500  0.804300  0.913900  1.0  0.0352
  H  H77  1  0.531100  0.349700  0.510800  1.0  0.0419
  H  H78  1  0.458000  0.412000  0.598300  1.0  0.0761
  H  H79  1  0.309700  0.417800  0.595100  1.0  0.0765
  H  H80  1  0.318500  0.304300  0.413900  1.0  0.0352
  H  H81  1  0.468900  0.150300  0.510800  1.0  0.0431
  H  H82  1  0.542000  0.088000  0.598300  1.0  0.0767
  H  H83  1  0.690300  0.082200  0.595100  1.0  0.0769
  H  H84  1  0.681500  0.195700  0.413900  1.0  0.0355
  H  H85  1  0.968900  0.650300  0.010800  1.0  0.0431
  H  H86  1  0.042000  0.588000  0.098300  1.0  0.0767
  H  H87  1  0.190300  0.582200  0.095100  1.0  0.0769
  H  H88  1  0.181500  0.695700  0.913900  1.0  0.0355
  H  H89  1  0.900300  0.281100  0.760800  1.0  0.0419
  H  H90  1  0.838000  0.208000  0.848300  1.0  0.0763
  H  H91  1  0.832200  0.059700  0.845100  1.0  0.0766
  H  H92  1  0.945700  0.068500  0.663900  1.0  0.035
  H  H93  1  0.400300  0.781100  0.260800  1.0  0.0419
  H  H94  1  0.338000  0.708000  0.348300  1.0  0.0763
  H  H95  1  0.332200  0.559700  0.345100  1.0  0.0766
  H  H96  1  0.445700  0.568500  0.163900  1.0  0.035
  H  H97  1  0.599700  0.718900  0.260800  1.0  0.0415
  H  H98  1  0.662000  0.792000  0.348300  1.0  0.0762
  H  H99  1  0.667800  0.940300  0.345100  1.0  0.0763
  H  H100  1  0.554300  0.931500  0.163900  1.0  0.0354
  H  H101  1  0.099700  0.218900  0.760800  1.0  0.0415
  H  H102  1  0.162000  0.292000  0.848300  1.0  0.0762
  H  H103  1  0.167800  0.440300  0.845100  1.0  0.0763
  H  H104  1  0.054300  0.431500  0.663900  1.0  0.0354
  H  H105  1  0.468900  0.849700  0.989200  1.0  0.043
  H  H106  1  0.542000  0.912000  0.901700  1.0  0.0758
  H  H107  1  0.690300  0.917800  0.904900  1.0  0.0762
  H  H108  1  0.681500  0.804300  0.086100  1.0  0.0352
  H  H109  1  0.968900  0.349700  0.489200  1.0  0.043
  H  H110  1  0.042000  0.412000  0.401700  1.0  0.0758
  H  H111  1  0.190300  0.417800  0.404900  1.0  0.0762
  H  H112  1  0.181500  0.304300  0.586100  1.0  0.0352
  H  H113  1  0.031100  0.150300  0.489200  1.0  0.0424
  H  H114  1  0.958000  0.088000  0.401700  1.0  0.0756
  H  H115  1  0.809700  0.082200  0.404900  1.0  0.0765
  H  H116  1  0.818500  0.195700  0.586100  1.0  0.0352
  H  H117  1  0.531100  0.650300  0.989200  1.0  0.0424
  H  H118  1  0.458000  0.588000  0.901700  1.0  0.0756
  H  H119  1  0.309700  0.582200  0.904900  1.0  0.0765
  H  H120  1  0.318500  0.695700  0.086100  1.0  0.0352
  H  H121  1  0.599700  0.281100  0.239200  1.0  0.0414
  H  H122  1  0.662000  0.208000  0.151700  1.0  0.0751
  H  H123  1  0.667800  0.059700  0.154900  1.0  0.0765
  H  H124  1  0.554300  0.068500  0.336100  1.0  0.035
  H  H125  1  0.099700  0.781100  0.739200  1.0  0.0414
  H  H126  1  0.162000  0.708000  0.651700  1.0  0.0751
  H  H127  1  0.167800  0.559700  0.654900  1.0  0.0765
  H  H128  1  0.054300  0.568500  0.836100  1.0  0.035
  H  H129  1  0.900300  0.718900  0.739200  1.0  0.0415
  H  H130  1  0.838000  0.792000  0.651700  1.0  0.0756
  H  H131  1  0.832200  0.940300  0.654900  1.0  0.0762
  H  H132  1  0.945700  0.931500  0.836100  1.0  0.0347
  H  H133  1  0.400300  0.218900  0.239200  1.0  0.0415
  H  H134  1  0.338000  0.292000  0.151700  1.0  0.0756
  H  H135  1  0.332200  0.440300  0.154900  1.0  0.0762
  H  H136  1  0.445700  0.431500  0.336100  1.0  0.0347
  C  C137  1  0.028230  0.147560  0.991360  1.0  0.1294
  C  C138  1  0.071650  0.110200  0.938490  1.0  -0.1557
  C  C139  1  0.159910  0.106130  0.940660  1.0  -0.1374
  C  C140  1  0.202610  0.138210  0.997020  1.0  0.0156
  C  C141  1  0.153430  0.174330  0.048160  1.0  0.1406
  C  C142  1  0.528230  0.647560  0.491360  1.0  0.1294
  C  C143  1  0.571650  0.610200  0.438490  1.0  -0.1557
  C  C144  1  0.659910  0.606130  0.440660  1.0  -0.1374
  C  C145  1  0.702610  0.638210  0.497020  1.0  0.0156
  C  C146  1  0.653430  0.674330  0.548160  1.0  0.1406
  C  C147  1  0.471770  0.852440  0.491360  1.0  0.1297
  C  C148  1  0.428350  0.889800  0.438490  1.0  -0.1544
  C  C149  1  0.340090  0.893870  0.440660  1.0  -0.1364
  C  C150  1  0.297390  0.861790  0.497020  1.0  0.0155
  C  C151  1  0.346570  0.825670  0.548160  1.0  0.1413
  C  C152  1  0.971770  0.352440  0.991360  1.0  0.1297
  C  C153  1  0.928350  0.389800  0.938490  1.0  -0.1544
  C  C154  1  0.840090  0.393870  0.940660  1.0  -0.1364
  C  C155  1  0.797390  0.361790  0.997020  1.0  0.0155
  C  C156  1  0.846570  0.325670  0.048160  1.0  0.1413
  C  C157  1  0.102440  0.778230  0.241360  1.0  0.1308
  C  C158  1  0.139800  0.821650  0.188490  1.0  -0.1561
  C  C159  1  0.143870  0.909910  0.190660  1.0  -0.1361
  C  C160  1  0.111790  0.952610  0.247020  1.0  0.0152
  C  C161  1  0.075670  0.903430  0.298160  1.0  0.1401
  C  C162  1  0.602440  0.278230  0.741360  1.0  0.1308
  C  C163  1  0.639800  0.321650  0.688490  1.0  -0.1561
  C  C164  1  0.643870  0.409910  0.690660  1.0  -0.1361
  C  C165  1  0.611790  0.452610  0.747020  1.0  0.0152
  C  C166  1  0.575670  0.403430  0.798160  1.0  0.1401
  C  C167  1  0.397560  0.221770  0.741360  1.0  0.1302
  C  C168  1  0.360200  0.178350  0.688490  1.0  -0.1566
  C  C169  1  0.356130  0.090090  0.690660  1.0  -0.1367
  C  C170  1  0.388210  0.047390  0.747020  1.0  0.0137
  C  C171  1  0.424330  0.096570  0.798160  1.0  0.1405
  C  C172  1  0.897560  0.721770  0.241360  1.0  0.1302
  C  C173  1  0.860200  0.678350  0.188490  1.0  -0.1566
  C  C174  1  0.856130  0.590090  0.190660  1.0  -0.1367
  C  C175  1  0.888210  0.547390  0.247020  1.0  0.0137
  C  C176  1  0.924330  0.596570  0.298160  1.0  0.1405
  C  C177  1  0.471770  0.147560  0.008640  1.0  0.1305
  C  C178  1  0.428350  0.110200  0.061510  1.0  -0.1533
  C  C179  1  0.340090  0.106130  0.059340  1.0  -0.1361
  C  C180  1  0.297390  0.138210  0.002980  1.0  0.0154
  C  C181  1  0.346570  0.174330  0.951840  1.0  0.1445
  C  C182  1  0.971770  0.647560  0.508640  1.0  0.1305
  C  C183  1  0.928350  0.610200  0.561510  1.0  -0.1533
  C  C184  1  0.840090  0.606130  0.559340  1.0  -0.1361
  C  C185  1  0.797390  0.638210  0.502980  1.0  0.0154
  C  C186  1  0.846570  0.674330  0.451840  1.0  0.1445
  C  C187  1  0.028230  0.852440  0.508640  1.0  0.1292
  C  C188  1  0.071650  0.889800  0.561510  1.0  -0.1538
  C  C189  1  0.159910  0.893870  0.559340  1.0  -0.1361
  C  C190  1  0.202610  0.861790  0.502980  1.0  0.0155
  C  C191  1  0.153430  0.825670  0.451840  1.0  0.1447
  C  C192  1  0.528230  0.352440  0.008640  1.0  0.1292
  C  C193  1  0.571650  0.389800  0.061510  1.0  -0.1538
  C  C194  1  0.659910  0.393870  0.059340  1.0  -0.1361
  C  C195  1  0.702610  0.361790  0.002980  1.0  0.0155
  C  C196  1  0.653430  0.325670  0.951840  1.0  0.1447
  C  C197  1  0.397560  0.778230  0.758640  1.0  0.1312
  C  C198  1  0.360200  0.821650  0.811510  1.0  -0.1553
  C  C199  1  0.356130  0.909910  0.809340  1.0  -0.1361
  C  C200  1  0.388210  0.952610  0.752980  1.0  0.014
  C  C201  1  0.424330  0.903430  0.701840  1.0  0.144
  C  C202  1  0.897560  0.278230  0.258640  1.0  0.1312
  C  C203  1  0.860200  0.321650  0.311510  1.0  -0.1553
  C  C204  1  0.856130  0.409910  0.309340  1.0  -0.1361
  C  C205  1  0.888210  0.452610  0.252980  1.0  0.014
  C  C206  1  0.924330  0.403430  0.201840  1.0  0.144
  C  C207  1  0.102440  0.221770  0.258640  1.0  0.1305
  C  C208  1  0.139800  0.178350  0.311510  1.0  -0.1547
  C  C209  1  0.143870  0.090090  0.309340  1.0  -0.1352
  C  C210  1  0.111790  0.047390  0.252980  1.0  0.015
  C  C211  1  0.075670  0.096570  0.201840  1.0  0.1438
  C  C212  1  0.602440  0.721770  0.758640  1.0  0.1305
  C  C213  1  0.639800  0.678350  0.811510  1.0  -0.1547
  C  C214  1  0.643870  0.590090  0.809340  1.0  -0.1352
  C  C215  1  0.611790  0.547390  0.752980  1.0  0.015
  C  C216  1  0.575670  0.596570  0.701840  1.0  0.1438
  C  C217  1  0.971770  0.852440  0.008640  1.0  0.1301
  C  C218  1  0.928350  0.889800  0.061510  1.0  -0.1531
  C  C219  1  0.840090  0.893870  0.059340  1.0  -0.1373
  C  C220  1  0.797390  0.861790  0.002980  1.0  0.0153
  C  C221  1  0.846570  0.825670  0.951840  1.0  0.1413
  C  C222  1  0.471770  0.352440  0.508640  1.0  0.1301
  C  C223  1  0.428350  0.389800  0.561510  1.0  -0.1531
  C  C224  1  0.340090  0.393870  0.559340  1.0  -0.1373
  C  C225  1  0.297390  0.361790  0.502980  1.0  0.0153
  C  C226  1  0.346570  0.325670  0.451840  1.0  0.1413
  C  C227  1  0.528230  0.147560  0.508640  1.0  0.1297
  C  C228  1  0.571650  0.110200  0.561510  1.0  -0.154
  C  C229  1  0.659910  0.106130  0.559340  1.0  -0.1357
  C  C230  1  0.702610  0.138210  0.502980  1.0  0.0156
  C  C231  1  0.653430  0.174330  0.451840  1.0  0.1412
  C  C232  1  0.028230  0.647560  0.008640  1.0  0.1297
  C  C233  1  0.071650  0.610200  0.061510  1.0  -0.154
  C  C234  1  0.159910  0.606130  0.059340  1.0  -0.1357
  C  C235  1  0.202610  0.638210  0.002980  1.0  0.0156
  C  C236  1  0.153430  0.674330  0.951840  1.0  0.1412
  C  C237  1  0.897560  0.221770  0.758640  1.0  0.1305
  C  C238  1  0.860200  0.178350  0.811510  1.0  -0.1549
  C  C239  1  0.856130  0.090090  0.809340  1.0  -0.1365
  C  C240  1  0.888210  0.047390  0.752980  1.0  0.0136
  C  C241  1  0.924330  0.096570  0.701840  1.0  0.1406
  C  C242  1  0.397560  0.721770  0.258640  1.0  0.1305
  C  C243  1  0.360200  0.678350  0.311510  1.0  -0.1549
  C  C244  1  0.356130  0.590090  0.309340  1.0  -0.1365
  C  C245  1  0.388210  0.547390  0.252980  1.0  0.0136
  C  C246  1  0.424330  0.596570  0.201840  1.0  0.1406
  C  C247  1  0.602440  0.778230  0.258640  1.0  0.1312
  C  C248  1  0.639800  0.821650  0.311510  1.0  -0.1548
  C  C249  1  0.643870  0.909910  0.309340  1.0  -0.1351
  C  C250  1  0.611790  0.952610  0.252980  1.0  0.0152
  C  C251  1  0.575670  0.903430  0.201840  1.0  0.1404
  C  C252  1  0.102440  0.278230  0.758640  1.0  0.1312
  C  C253  1  0.139800  0.321650  0.811510  1.0  -0.1548
  C  C254  1  0.143870  0.409910  0.809340  1.0  -0.1351
  C  C255  1  0.111790  0.452610  0.752980  1.0  0.0152
  C  C256  1  0.075670  0.403430  0.701840  1.0  0.1404
  C  C257  1  0.528230  0.852440  0.991360  1.0  0.129
  C  C258  1  0.571650  0.889800  0.938490  1.0  -0.1549
  C  C259  1  0.659910  0.893870  0.940660  1.0  -0.1363
  C  C260  1  0.702610  0.861790  0.997020  1.0  0.0156
  C  C261  1  0.653430  0.825670  0.048160  1.0  0.1449
  C  C262  1  0.028230  0.352440  0.491360  1.0  0.129
  C  C263  1  0.071650  0.389800  0.438490  1.0  -0.1549
  C  C264  1  0.159910  0.393870  0.440660  1.0  -0.1363
  C  C265  1  0.202610  0.361790  0.497020  1.0  0.0156
  C  C266  1  0.153430  0.325670  0.548160  1.0  0.1449
  C  C267  1  0.971770  0.147560  0.491360  1.0  0.1301
  C  C268  1  0.928350  0.110200  0.438490  1.0  -0.1549
  C  C269  1  0.840090  0.106130  0.440660  1.0  -0.1369
  C  C270  1  0.797390  0.138210  0.497020  1.0  0.0155
  C  C271  1  0.846570  0.174330  0.548160  1.0  0.1438
  C  C272  1  0.471770  0.647560  0.991360  1.0  0.1301
  C  C273  1  0.428350  0.610200  0.938490  1.0  -0.1549
  C  C274  1  0.340090  0.606130  0.940660  1.0  -0.1369
  C  C275  1  0.297390  0.638210  0.997020  1.0  0.0155
  C  C276  1  0.346570  0.674330  0.048160  1.0  0.1438
  C  C277  1  0.602440  0.221770  0.241360  1.0  0.13
  C  C278  1  0.639800  0.178350  0.188490  1.0  -0.1565
  C  C279  1  0.643870  0.090090  0.190660  1.0  -0.1363
  C  C280  1  0.611790  0.047390  0.247020  1.0  0.015
  C  C281  1  0.575670  0.096570  0.298160  1.0  0.1438
  C  C282  1  0.102440  0.721770  0.741360  1.0  0.13
  C  C283  1  0.139800  0.678350  0.688490  1.0  -0.1565
  C  C284  1  0.143870  0.590090  0.690660  1.0  -0.1363
  C  C285  1  0.111790  0.547390  0.747020  1.0  0.015
  C  C286  1  0.075670  0.596570  0.798160  1.0  0.1438
  C  C287  1  0.897560  0.778230  0.741360  1.0  0.1308
  C  C288  1  0.860200  0.821650  0.688490  1.0  -0.1566
  C  C289  1  0.856130  0.909910  0.690660  1.0  -0.1366
  C  C290  1  0.888210  0.952610  0.747020  1.0  0.0141
  C  C291  1  0.924330  0.903430  0.798160  1.0  0.1437
  C  C292  1  0.397560  0.278230  0.241360  1.0  0.1308
  C  C293  1  0.360200  0.321650  0.188490  1.0  -0.1566
  C  C294  1  0.356130  0.409910  0.190660  1.0  -0.1366
  C  C295  1  0.388210  0.452610  0.247020  1.0  0.0141
  C  C296  1  0.424330  0.403430  0.298160  1.0  0.1437
  N  N297  1  0.067770  0.180310  0.046190  1.0  -0.379
  N  N298  1  0.567770  0.680310  0.546190  1.0  -0.379
  N  N299  1  0.432230  0.819690  0.546190  1.0  -0.3769
  N  N300  1  0.932230  0.319690  0.046190  1.0  -0.3769
  N  N301  1  0.069690  0.817770  0.296190  1.0  -0.3788
  N  N302  1  0.569690  0.317770  0.796190  1.0  -0.3788
  N  N303  1  0.430310  0.182230  0.796190  1.0  -0.3794
  N  N304  1  0.930310  0.682230  0.296190  1.0  -0.3794
  N  N305  1  0.432230  0.180310  0.953810  1.0  -0.3781
  N  N306  1  0.932230  0.680310  0.453810  1.0  -0.3781
  N  N307  1  0.067770  0.819690  0.453810  1.0  -0.3806
  N  N308  1  0.567770  0.319690  0.953810  1.0  -0.3806
  N  N309  1  0.430310  0.817770  0.703810  1.0  -0.3803
  N  N310  1  0.930310  0.317770  0.203810  1.0  -0.3803
  N  N311  1  0.069690  0.182230  0.203810  1.0  -0.3805
  N  N312  1  0.569690  0.682230  0.703810  1.0  -0.3805
  N  N313  1  0.932230  0.819690  0.953810  1.0  -0.3791
  N  N314  1  0.432230  0.319690  0.453810  1.0  -0.3791
  N  N315  1  0.567770  0.180310  0.453810  1.0  -0.3794
  N  N316  1  0.067770  0.680310  0.953810  1.0  -0.3794
  N  N317  1  0.930310  0.182230  0.703810  1.0  -0.3799
  N  N318  1  0.430310  0.682230  0.203810  1.0  -0.3799
  N  N319  1  0.569690  0.817770  0.203810  1.0  -0.3809
  N  N320  1  0.069690  0.317770  0.703810  1.0  -0.3809
  N  N321  1  0.567770  0.819690  0.046190  1.0  -0.3788
  N  N322  1  0.067770  0.319690  0.546190  1.0  -0.3788
  N  N323  1  0.932230  0.180310  0.546190  1.0  -0.3771
  N  N324  1  0.432230  0.680310  0.046190  1.0  -0.3771
  N  N325  1  0.569690  0.182230  0.296190  1.0  -0.3802
  N  N326  1  0.069690  0.682230  0.796190  1.0  -0.3802
  N  N327  1  0.930310  0.817770  0.796190  1.0  -0.378
  N  N328  1  0.430310  0.317770  0.296190  1.0  -0.378
