# generated using pymatgen
data_CuH4C8N4(OF)2
_symmetry_space_group_name_H-M   'P 1'
_cell_length_a   10.00100000
_cell_length_b   15.55080000
_cell_length_c   15.55080000
_cell_angle_alpha   84.06500000
_cell_angle_beta   71.24280000
_cell_angle_gamma   71.24270000
_symmetry_Int_Tables_number   1
_chemical_formula_structural   CuH4C8N4(OF)2
_chemical_formula_sum   'Cu8 H32 C64 N32 O16 F16'
_cell_volume   2168.44021510
_cell_formula_units_Z   8
loop_
 _symmetry_equiv_pos_site_id
 _symmetry_equiv_pos_as_xyz
  1  'x, y, z'
loop_
 _atom_site_type_symbol
 _atom_site_label
 _atom_site_symmetry_multiplicity
 _atom_site_fract_x
 _atom_site_fract_y
 _atom_site_fract_z
 _atom_site_occupancy
 _atom_site_charge
  Cu  Cu1  1  0.128740  0.261130  0.998590  1.0  0.8047
  Cu  Cu2  1  0.388460  0.738870  0.001410  1.0  0.8047
  Cu  Cu3  1  0.377330  0.501410  0.761130  1.0  0.8039
  Cu  Cu4  1  0.639870  0.498590  0.238870  1.0  0.8047
  Cu  Cu5  1  0.388460  0.001410  0.738870  1.0  0.8045
  Cu  Cu6  1  0.128740  0.998590  0.261130  1.0  0.8044
  Cu  Cu7  1  0.639870  0.238870  0.498590  1.0  0.8052
  Cu  Cu8  1  0.377330  0.761130  0.501410  1.0  0.8041
  H  H9  1  0.850100  0.205500  0.015500  1.0  0.0906
  H  H10  1  0.947100  0.331300  0.859500  1.0  0.1077
  H  H11  1  0.897800  0.481600  0.307600  1.0  0.1182
  H  H12  1  0.248600  0.313400  0.141000  1.0  0.0899
  H  H13  1  0.071100  0.794500  0.984500  1.0  0.0905
  H  H14  1  0.137900  0.668700  0.140500  1.0  0.1087
  H  H15  1  0.687000  0.518400  0.692400  1.0  0.1141
  H  H16  1  0.703000  0.686600  0.859000  1.0  0.092
  H  H17  1  0.115600  0.484500  0.705500  1.0  0.0909
  H  H18  1  0.056600  0.640500  0.831300  1.0  0.1088
  H  H19  1  0.455400  0.192400  0.981600  1.0  0.1155
  H  H20  1  0.639600  0.359000  0.813400  1.0  0.092
  H  H21  1  0.305600  0.515500  0.294500  1.0  0.0914
  H  H22  1  0.528400  0.359500  0.168700  1.0  0.1079
  H  H23  1  0.629400  0.807600  0.018400  1.0  0.1154
  H  H24  1  0.812000  0.641000  0.186600  1.0  0.0902
  H  H25  1  0.071100  0.984500  0.794500  1.0  0.0905
  H  H26  1  0.137900  0.140500  0.668700  1.0  0.1079
  H  H27  1  0.687000  0.692400  0.518400  1.0  0.1166
  H  H28  1  0.703000  0.859000  0.686600  1.0  0.0909
  H  H29  1  0.850100  0.015500  0.205500  1.0  0.0889
  H  H30  1  0.947100  0.859500  0.331300  1.0  0.1084
  H  H31  1  0.897800  0.307600  0.481600  1.0  0.1165
  H  H32  1  0.248600  0.141000  0.313400  1.0  0.0913
  H  H33  1  0.305600  0.294500  0.515500  1.0  0.0907
  H  H34  1  0.528400  0.168700  0.359500  1.0  0.1086
  H  H35  1  0.629400  0.018400  0.807600  1.0  0.1171
  H  H36  1  0.812000  0.186600  0.641000  1.0  0.0898
  H  H37  1  0.115600  0.705500  0.484500  1.0  0.0902
  H  H38  1  0.056600  0.831300  0.640500  1.0  0.1075
  H  H39  1  0.455400  0.981600  0.192400  1.0  0.117
  H  H40  1  0.639600  0.813400  0.359000  1.0  0.0905
  C  C41  1  0.894320  0.168930  0.056230  1.0  0.1324
  C  C42  1  0.018040  0.276640  0.836680  1.0  0.1297
  C  C43  1  0.919490  0.389220  0.128200  1.0  0.7056
  C  C44  1  0.940860  0.446680  0.255000  1.0  0.1135
  C  C45  1  0.087700  0.402200  0.228800  1.0  0.0855
  C  C46  1  0.148500  0.346700  0.156300  1.0  0.1418
  C  C47  1  0.119480  0.831070  0.943770  1.0  0.1317
  C  C48  1  0.131360  0.723360  0.163320  1.0  0.1302
  C  C49  1  0.436910  0.610780  0.871800  1.0  0.6886
  C  C50  1  0.642540  0.553320  0.745000  1.0  0.1183
  C  C51  1  0.718700  0.597800  0.771200  1.0  0.1055
  C  C52  1  0.651500  0.653300  0.843700  1.0  0.1419
  C  C53  1  0.200550  0.443770  0.668930  1.0  0.1347
  C  C54  1  0.104720  0.663320  0.776640  1.0  0.1344
  C  C55  1  0.297690  0.371800  0.889220  1.0  0.6917
  C  C56  1  0.445860  0.245000  0.946680  1.0  0.1182
  C  C57  1  0.566500  0.271200  0.902200  1.0  0.0819
  C  C58  1  0.554800  0.343700  0.846700  1.0  0.1442
  C  C59  1  0.313250  0.556230  0.331070  1.0  0.1338
  C  C60  1  0.544680  0.336680  0.223360  1.0  0.1332
  C  C61  1  0.558710  0.628200  0.110780  1.0  0.6919
  C  C62  1  0.637540  0.755000  0.053320  1.0  0.1158
  C  C63  1  0.739900  0.728800  0.097800  1.0  0.083
  C  C64  1  0.745200  0.656300  0.153300  1.0  0.144
  C  C65  1  0.119480  0.943770  0.831070  1.0  0.1313
  C  C66  1  0.131360  0.163320  0.723360  1.0  0.1334
  C  C67  1  0.436910  0.871800  0.610780  1.0  0.7046
  C  C68  1  0.642540  0.745000  0.553320  1.0  0.1142
  C  C69  1  0.718700  0.771200  0.597800  1.0  0.0962
  C  C70  1  0.651500  0.843700  0.653300  1.0  0.1435
  C  C71  1  0.894320  0.056230  0.168930  1.0  0.1331
  C  C72  1  0.018040  0.836680  0.276640  1.0  0.1308
  C  C73  1  0.919490  0.128200  0.389220  1.0  0.6935
  C  C74  1  0.940860  0.255000  0.446680  1.0  0.116
  C  C75  1  0.087700  0.228800  0.402200  1.0  0.0791
  C  C76  1  0.148500  0.156300  0.346700  1.0  0.1438
  C  C77  1  0.313250  0.331070  0.556230  1.0  0.1297
  C  C78  1  0.544680  0.223360  0.336680  1.0  0.1346
  C  C79  1  0.558710  0.110780  0.628200  1.0  0.7052
  C  C80  1  0.637540  0.053320  0.755000  1.0  0.1146
  C  C81  1  0.739900  0.097800  0.728800  1.0  0.0851
  C  C82  1  0.745200  0.153300  0.656300  1.0  0.1449
  C  C83  1  0.200550  0.668930  0.443770  1.0  0.1309
  C  C84  1  0.104720  0.776640  0.663320  1.0  0.1335
  C  C85  1  0.297690  0.889220  0.371800  1.0  0.7054
  C  C86  1  0.445860  0.946680  0.245000  1.0  0.1164
  C  C87  1  0.566500  0.902200  0.271200  1.0  0.0884
  C  C88  1  0.554800  0.846700  0.343700  1.0  0.1404
  C  C89  1  0.083400  0.124000  0.124000  1.0  0.6832
  C  C90  1  0.833600  0.105700  0.105700  1.0  0.0783
  C  C91  1  0.331400  0.876000  0.876000  1.0  0.6878
  C  C92  1  0.045000  0.894300  0.894300  1.0  0.0798
  C  C93  1  0.457400  0.376000  0.624000  1.0  0.6885
  C  C94  1  0.189300  0.394300  0.605700  1.0  0.0797
  C  C95  1  0.457400  0.624000  0.376000  1.0  0.679
  C  C96  1  0.189300  0.605700  0.394300  1.0  0.0807
  C  C97  1  0.216500  0.152300  0.847700  1.0  0.6626
  C  C98  1  0.022500  0.242500  0.757500  1.0  0.0669
  C  C99  1  0.216500  0.847700  0.152300  1.0  0.663
  C  C100  1  0.022500  0.757500  0.242500  1.0  0.0647
  C  C101  1  0.314200  0.652300  0.652300  1.0  0.6615
  C  C102  1  0.030000  0.742500  0.742500  1.0  0.0655
  C  C103  1  0.618800  0.347700  0.347700  1.0  0.6581
  C  C104  1  0.515000  0.257500  0.257500  1.0  0.066
  N  N105  1  0.016260  0.179050  0.065430  1.0  -0.4425
  N  N106  1  0.112530  0.233170  0.880770  1.0  -0.4285
  N  N107  1  0.067580  0.338500  0.106140  1.0  -0.4481
  N  N108  1  0.856730  0.440440  0.204900  1.0  -0.4572
  N  N109  1  0.260740  0.820950  0.934570  1.0  -0.4415
  N  N110  1  0.226470  0.766830  0.119230  1.0  -0.4253
  N  N111  1  0.512220  0.661500  0.893860  1.0  -0.4494
  N  N112  1  0.502070  0.559560  0.795100  1.0  -0.4517
  N  N113  1  0.331690  0.434570  0.679050  1.0  -0.4375
  N  N114  1  0.243300  0.619230  0.733170  1.0  -0.4426
  N  N115  1  0.423720  0.393860  0.838500  1.0  -0.4377
  N  N116  1  0.311630  0.295100  0.940440  1.0  -0.4528
  N  N117  1  0.445310  0.565430  0.320950  1.0  -0.4373
  N  N118  1  0.595700  0.380770  0.266830  1.0  -0.4431
  N  N119  1  0.656080  0.606140  0.161500  1.0  -0.4498
  N  N120  1  0.547170  0.704900  0.059560  1.0  -0.4428
  N  N121  1  0.260740  0.934570  0.820950  1.0  -0.4383
  N  N122  1  0.226470  0.119230  0.766830  1.0  -0.4438
  N  N123  1  0.512220  0.893860  0.661500  1.0  -0.4507
  N  N124  1  0.502070  0.795100  0.559560  1.0  -0.4574
  N  N125  1  0.016260  0.065430  0.179050  1.0  -0.4355
  N  N126  1  0.112530  0.880770  0.233170  1.0  -0.4456
  N  N127  1  0.067580  0.106140  0.338500  1.0  -0.45
  N  N128  1  0.856730  0.204900  0.440440  1.0  -0.4435
  N  N129  1  0.445310  0.320950  0.565430  1.0  -0.4393
  N  N130  1  0.595700  0.266830  0.380770  1.0  -0.4374
  N  N131  1  0.656080  0.161500  0.606140  1.0  -0.4323
  N  N132  1  0.547170  0.059560  0.704900  1.0  -0.459
  N  N133  1  0.331690  0.679050  0.434570  1.0  -0.4387
  N  N134  1  0.243300  0.733170  0.619230  1.0  -0.4253
  N  N135  1  0.423720  0.838500  0.393860  1.0  -0.4459
  N  N136  1  0.311630  0.940440  0.295100  1.0  -0.4594
  O  O137  1  0.846460  0.384700  0.078980  1.0  -0.609
  O  O138  1  0.310140  0.615300  0.921020  1.0  -0.6094
  O  O139  1  0.175440  0.421020  0.884700  1.0  -0.6045
  O  O140  1  0.481160  0.578980  0.115300  1.0  -0.6074
  O  O141  1  0.310140  0.921020  0.615300  1.0  -0.6048
  O  O142  1  0.846460  0.078980  0.384700  1.0  -0.6063
  O  O143  1  0.481160  0.115300  0.578980  1.0  -0.6093
  O  O144  1  0.175440  0.884700  0.421020  1.0  -0.6101
  O  O145  1  0.202490  0.128910  0.128910  1.0  -0.6057
  O  O146  1  0.460310  0.871090  0.871090  1.0  -0.6054
  O  O147  1  0.581400  0.371090  0.628910  1.0  -0.6043
  O  O148  1  0.581400  0.628910  0.371090  1.0  -0.6052
  O  O149  1  0.300900  0.108900  0.891100  1.0  -0.5782
  O  O150  1  0.300900  0.891100  0.108900  1.0  -0.5853
  O  O151  1  0.442000  0.608900  0.608900  1.0  -0.5783
  O  O152  1  0.659800  0.391100  0.391100  1.0  -0.5833
  F  F153  1  0.172000  0.411660  0.277540  1.0  -0.1507
  F  F154  1  0.861200  0.588340  0.722460  1.0  -0.1498
  F  F155  1  0.699540  0.222460  0.911660  1.0  -0.151
  F  F156  1  0.833660  0.777540  0.088340  1.0  -0.1465
  F  F157  1  0.861200  0.722460  0.588340  1.0  -0.1523
  F  F158  1  0.172000  0.277540  0.411660  1.0  -0.1479
  F  F159  1  0.833660  0.088340  0.777540  1.0  -0.1499
  F  F160  1  0.699540  0.911660  0.222460  1.0  -0.1493
  F  F161  1  0.711400  0.095200  0.095200  1.0  -0.149
  F  F162  1  0.901800  0.904800  0.904800  1.0  -0.1491
  F  F163  1  0.056600  0.404800  0.595200  1.0  -0.1468
  F  F164  1  0.056600  0.595200  0.404800  1.0  -0.1479
  F  F165  1  0.923500  0.286020  0.713980  1.0  -0.1362
  F  F166  1  0.923500  0.713980  0.286020  1.0  -0.1341
  F  F167  1  0.887480  0.786020  0.786020  1.0  -0.1341
  F  F168  1  0.459520  0.213980  0.213980  1.0  -0.1368
