# generated using pymatgen
data_Cu3H13C12N9O7
_symmetry_space_group_name_H-M   'P 1'
_cell_length_a   21.13730000
_cell_length_b   21.13730000
_cell_length_c   21.13730000
_cell_angle_alpha   90.00000000
_cell_angle_beta   90.00000000
_cell_angle_gamma   90.00000000
_symmetry_Int_Tables_number   1
_chemical_formula_structural   Cu3H13C12N9O7
_chemical_formula_sum   'Cu24 H104 C96 N72 O56'
_cell_volume   9443.83811955
_cell_formula_units_Z   8
loop_
 _symmetry_equiv_pos_site_id
 _symmetry_equiv_pos_as_xyz
  1  'x, y, z'
loop_
 _atom_site_type_symbol
 _atom_site_label
 _atom_site_symmetry_multiplicity
 _atom_site_fract_x
 _atom_site_fract_y
 _atom_site_fract_z
 _atom_site_occupancy
 _atom_site_charge
  Cu  Cu1  1  0.193300  0.306880  0.193300  1.0  0.7976
  Cu  Cu2  1  0.693300  0.806880  0.693300  1.0  0.7948
  Cu  Cu3  1  0.806700  0.693120  0.193300  1.0  0.7993
  Cu  Cu4  1  0.306700  0.193120  0.693300  1.0  0.7974
  Cu  Cu5  1  0.806700  0.306880  0.806700  1.0  0.7982
  Cu  Cu6  1  0.306700  0.806880  0.306700  1.0  0.7955
  Cu  Cu7  1  0.193300  0.693120  0.806700  1.0  0.7972
  Cu  Cu8  1  0.693300  0.193120  0.306700  1.0  0.7941
  Cu  Cu9  1  0.193300  0.193300  0.306880  1.0  0.798
  Cu  Cu10  1  0.693300  0.693300  0.806880  1.0  0.7953
  Cu  Cu11  1  0.193300  0.806700  0.693120  1.0  0.7969
  Cu  Cu12  1  0.693300  0.306700  0.193120  1.0  0.7939
  Cu  Cu13  1  0.806700  0.806700  0.306880  1.0  0.7998
  Cu  Cu14  1  0.306700  0.306700  0.806880  1.0  0.7979
  Cu  Cu15  1  0.806700  0.193300  0.693120  1.0  0.798
  Cu  Cu16  1  0.306700  0.693300  0.193120  1.0  0.7954
  Cu  Cu17  1  0.306880  0.193300  0.193300  1.0  0.7975
  Cu  Cu18  1  0.806880  0.693300  0.693300  1.0  0.7947
  Cu  Cu19  1  0.693120  0.193300  0.806700  1.0  0.7979
  Cu  Cu20  1  0.193120  0.693300  0.306700  1.0  0.7953
  Cu  Cu21  1  0.306880  0.806700  0.806700  1.0  0.7972
  Cu  Cu22  1  0.806880  0.306700  0.306700  1.0  0.7942
  Cu  Cu23  1  0.693120  0.806700  0.193300  1.0  0.7994
  Cu  Cu24  1  0.193120  0.306700  0.693300  1.0  0.7974
  H  H25  1  0.069800  0.379500  0.248600  1.0  0.0772
  H  H26  1  0.992100  0.396300  0.343800  1.0  0.0933
  H  H27  1  0.569800  0.879500  0.748600  1.0  0.0772
  H  H28  1  0.492100  0.896300  0.843800  1.0  0.0933
  H  H29  1  0.930200  0.620500  0.248600  1.0  0.0766
  H  H30  1  0.007900  0.603700  0.343800  1.0  0.0946
  H  H31  1  0.430200  0.120500  0.748600  1.0  0.0766
  H  H32  1  0.507900  0.103700  0.843800  1.0  0.0946
  H  H33  1  0.930200  0.379500  0.751400  1.0  0.0778
  H  H34  1  0.007900  0.396300  0.656200  1.0  0.0934
  H  H35  1  0.430200  0.879500  0.251400  1.0  0.0778
  H  H36  1  0.507900  0.896300  0.156200  1.0  0.0934
  H  H37  1  0.069800  0.620500  0.751400  1.0  0.0774
  H  H38  1  0.992100  0.603700  0.656200  1.0  0.0947
  H  H39  1  0.569800  0.120500  0.251400  1.0  0.0774
  H  H40  1  0.492100  0.103700  0.156200  1.0  0.0947
  H  H41  1  0.248600  0.069800  0.379500  1.0  0.0776
  H  H42  1  0.343800  0.992100  0.396300  1.0  0.0941
  H  H43  1  0.748600  0.569800  0.879500  1.0  0.0776
  H  H44  1  0.843800  0.492100  0.896300  1.0  0.0941
  H  H45  1  0.248600  0.930200  0.620500  1.0  0.0781
  H  H46  1  0.343800  0.007900  0.603700  1.0  0.0964
  H  H47  1  0.748600  0.430200  0.120500  1.0  0.0781
  H  H48  1  0.843800  0.507900  0.103700  1.0  0.0964
  H  H49  1  0.751400  0.930200  0.379500  1.0  0.0776
  H  H50  1  0.656200  0.007900  0.396300  1.0  0.0941
  H  H51  1  0.251400  0.430200  0.879500  1.0  0.0776
  H  H52  1  0.156200  0.507900  0.896300  1.0  0.0941
  H  H53  1  0.751400  0.069800  0.620500  1.0  0.0777
  H  H54  1  0.656200  0.992100  0.603700  1.0  0.0931
  H  H55  1  0.251400  0.569800  0.120500  1.0  0.0777
  H  H56  1  0.156200  0.492100  0.103700  1.0  0.0931
  H  H57  1  0.379500  0.248600  0.069800  1.0  0.0764
  H  H58  1  0.396300  0.343800  0.992100  1.0  0.0915
  H  H59  1  0.879500  0.748600  0.569800  1.0  0.0764
  H  H60  1  0.896300  0.843800  0.492100  1.0  0.0915
  H  H61  1  0.620500  0.248600  0.930200  1.0  0.0759
  H  H62  1  0.603700  0.343800  0.007900  1.0  0.0913
  H  H63  1  0.120500  0.748600  0.430200  1.0  0.0759
  H  H64  1  0.103700  0.843800  0.507900  1.0  0.0913
  H  H65  1  0.379500  0.751400  0.930200  1.0  0.0767
  H  H66  1  0.396300  0.656200  0.007900  1.0  0.0912
  H  H67  1  0.879500  0.251400  0.430200  1.0  0.0767
  H  H68  1  0.896300  0.156200  0.507900  1.0  0.0912
  H  H69  1  0.620500  0.751400  0.069800  1.0  0.0768
  H  H70  1  0.603700  0.656200  0.992100  1.0  0.0925
  H  H71  1  0.120500  0.251400  0.569800  1.0  0.0768
  H  H72  1  0.103700  0.156200  0.492100  1.0  0.0925
  H  H73  1  0.379500  0.069800  0.248600  1.0  0.0763
  H  H74  1  0.396300  0.992100  0.343800  1.0  0.0916
  H  H75  1  0.879500  0.569800  0.748600  1.0  0.0763
  H  H76  1  0.896300  0.492100  0.843800  1.0  0.0916
  H  H77  1  0.620500  0.930200  0.248600  1.0  0.0764
  H  H78  1  0.603700  0.007900  0.343800  1.0  0.0923
  H  H79  1  0.120500  0.430200  0.748600  1.0  0.0764
  H  H80  1  0.103700  0.507900  0.843800  1.0  0.0923
  H  H81  1  0.379500  0.930200  0.751400  1.0  0.0775
  H  H82  1  0.396300  0.007900  0.656200  1.0  0.0923
  H  H83  1  0.879500  0.430200  0.251400  1.0  0.0775
  H  H84  1  0.896300  0.507900  0.156200  1.0  0.0923
  H  H85  1  0.620500  0.069800  0.751400  1.0  0.0766
  H  H86  1  0.603700  0.992100  0.656200  1.0  0.0923
  H  H87  1  0.120500  0.569800  0.251400  1.0  0.0766
  H  H88  1  0.103700  0.492100  0.156200  1.0  0.0923
  H  H89  1  0.069800  0.248600  0.379500  1.0  0.0781
  H  H90  1  0.992100  0.343800  0.396300  1.0  0.0932
  H  H91  1  0.569800  0.748600  0.879500  1.0  0.0781
  H  H92  1  0.492100  0.843800  0.896300  1.0  0.0932
  H  H93  1  0.930200  0.248600  0.620500  1.0  0.0782
  H  H94  1  0.007900  0.343800  0.603700  1.0  0.0939
  H  H95  1  0.430200  0.748600  0.120500  1.0  0.0782
  H  H96  1  0.507900  0.843800  0.103700  1.0  0.0939
  H  H97  1  0.930200  0.751400  0.379500  1.0  0.0779
  H  H98  1  0.007900  0.656200  0.396300  1.0  0.0944
  H  H99  1  0.430200  0.251400  0.879500  1.0  0.0779
  H  H100  1  0.507900  0.156200  0.896300  1.0  0.0944
  H  H101  1  0.069800  0.751400  0.620500  1.0  0.0787
  H  H102  1  0.992100  0.656200  0.603700  1.0  0.0943
  H  H103  1  0.569800  0.251400  0.120500  1.0  0.0787
  H  H104  1  0.492100  0.156200  0.103700  1.0  0.0943
  H  H105  1  0.248600  0.379500  0.069800  1.0  0.0772
  H  H106  1  0.343800  0.396300  0.992100  1.0  0.0925
  H  H107  1  0.748600  0.879500  0.569800  1.0  0.0772
  H  H108  1  0.843800  0.896300  0.492100  1.0  0.0925
  H  H109  1  0.248600  0.620500  0.930200  1.0  0.076
  H  H110  1  0.343800  0.603700  0.007900  1.0  0.0943
  H  H111  1  0.748600  0.120500  0.430200  1.0  0.076
  H  H112  1  0.843800  0.103700  0.507900  1.0  0.0943
  H  H113  1  0.751400  0.379500  0.930200  1.0  0.0765
  H  H114  1  0.656200  0.396300  0.007900  1.0  0.0916
  H  H115  1  0.251400  0.879500  0.430200  1.0  0.0765
  H  H116  1  0.156200  0.896300  0.507900  1.0  0.0916
  H  H117  1  0.751400  0.620500  0.069800  1.0  0.0763
  H  H118  1  0.656200  0.603700  0.992100  1.0  0.0937
  H  H119  1  0.251400  0.120500  0.569800  1.0  0.0763
  H  H120  1  0.156200  0.103700  0.492100  1.0  0.0937
  H  H121  1  0.267000  0.267000  0.267000  1.0  0.3785
  H  H122  1  0.767000  0.767000  0.767000  1.0  0.3785
  H  H123  1  0.733000  0.733000  0.267000  1.0  0.3786
  H  H124  1  0.233000  0.233000  0.767000  1.0  0.3786
  H  H125  1  0.733000  0.267000  0.733000  1.0  0.3789
  H  H126  1  0.233000  0.767000  0.233000  1.0  0.3789
  H  H127  1  0.267000  0.733000  0.733000  1.0  0.3792
  H  H128  1  0.767000  0.233000  0.233000  1.0  0.3792
  C  C129  1  0.082200  0.345400  0.273500  1.0  0.0447
  C  C130  1  0.582200  0.845400  0.773500  1.0  0.0447
  C  C131  1  0.917800  0.654600  0.273500  1.0  0.0454
  C  C132  1  0.417800  0.154600  0.773500  1.0  0.0454
  C  C133  1  0.917800  0.345400  0.726500  1.0  0.0434
  C  C134  1  0.417800  0.845400  0.226500  1.0  0.0434
  C  C135  1  0.082200  0.654600  0.726500  1.0  0.0452
  C  C136  1  0.582200  0.154600  0.226500  1.0  0.0452
  C  C137  1  0.273500  0.082200  0.345400  1.0  0.0445
  C  C138  1  0.773500  0.582200  0.845400  1.0  0.0445
  C  C139  1  0.273500  0.917800  0.654600  1.0  0.0458
  C  C140  1  0.773500  0.417800  0.154600  1.0  0.0458
  C  C141  1  0.726500  0.917800  0.345400  1.0  0.0459
  C  C142  1  0.226500  0.417800  0.845400  1.0  0.0459
  C  C143  1  0.726500  0.082200  0.654600  1.0  0.0468
  C  C144  1  0.226500  0.582200  0.154600  1.0  0.0468
  C  C145  1  0.345400  0.273500  0.082200  1.0  0.0466
  C  C146  1  0.845400  0.773500  0.582200  1.0  0.0466
  C  C147  1  0.654600  0.273500  0.917800  1.0  0.0462
  C  C148  1  0.154600  0.773500  0.417800  1.0  0.0462
  C  C149  1  0.345400  0.726500  0.917800  1.0  0.0453
  C  C150  1  0.845400  0.226500  0.417800  1.0  0.0453
  C  C151  1  0.654600  0.726500  0.082200  1.0  0.0459
  C  C152  1  0.154600  0.226500  0.582200  1.0  0.0459
  C  C153  1  0.345400  0.082200  0.273500  1.0  0.0454
  C  C154  1  0.845400  0.582200  0.773500  1.0  0.0454
  C  C155  1  0.654600  0.917800  0.273500  1.0  0.0458
  C  C156  1  0.154600  0.417800  0.773500  1.0  0.0458
  C  C157  1  0.345400  0.917800  0.726500  1.0  0.0449
  C  C158  1  0.845400  0.417800  0.226500  1.0  0.0449
  C  C159  1  0.654600  0.082200  0.726500  1.0  0.0447
  C  C160  1  0.154600  0.582200  0.226500  1.0  0.0447
  C  C161  1  0.082200  0.273500  0.345400  1.0  0.0459
  C  C162  1  0.582200  0.773500  0.845400  1.0  0.0459
  C  C163  1  0.917800  0.273500  0.654600  1.0  0.0464
  C  C164  1  0.417800  0.773500  0.154600  1.0  0.0464
  C  C165  1  0.917800  0.726500  0.345400  1.0  0.0446
  C  C166  1  0.417800  0.226500  0.845400  1.0  0.0446
  C  C167  1  0.082200  0.726500  0.654600  1.0  0.0458
  C  C168  1  0.582200  0.226500  0.154600  1.0  0.0458
  C  C169  1  0.273500  0.345400  0.082200  1.0  0.0448
  C  C170  1  0.773500  0.845400  0.582200  1.0  0.0448
  C  C171  1  0.273500  0.654600  0.917800  1.0  0.0452
  C  C172  1  0.773500  0.154600  0.417800  1.0  0.0452
  C  C173  1  0.726500  0.345400  0.917800  1.0  0.0454
  C  C174  1  0.226500  0.845400  0.417800  1.0  0.0454
  C  C175  1  0.726500  0.654600  0.082200  1.0  0.0471
  C  C176  1  0.226500  0.154600  0.582200  1.0  0.0471
  C  C177  1  0.993200  0.351500  0.351500  1.0  -0.1242
  C  C178  1  0.935600  0.321700  0.321700  1.0  0.6754
  C  C179  1  0.493200  0.851500  0.851500  1.0  -0.1242
  C  C180  1  0.435600  0.821700  0.821700  1.0  0.6754
  C  C181  1  0.006800  0.648500  0.351500  1.0  -0.1248
  C  C182  1  0.064400  0.678300  0.321700  1.0  0.6776
  C  C183  1  0.506800  0.148500  0.851500  1.0  -0.1248
  C  C184  1  0.564400  0.178300  0.821700  1.0  0.6776
  C  C185  1  0.006800  0.351500  0.648500  1.0  -0.1225
  C  C186  1  0.064400  0.321700  0.678300  1.0  0.6778
  C  C187  1  0.506800  0.851500  0.148500  1.0  -0.1225
  C  C188  1  0.564400  0.821700  0.178300  1.0  0.6778
  C  C189  1  0.993200  0.648500  0.648500  1.0  -0.1236
  C  C190  1  0.935600  0.678300  0.678300  1.0  0.6756
  C  C191  1  0.493200  0.148500  0.148500  1.0  -0.1236
  C  C192  1  0.435600  0.178300  0.178300  1.0  0.6756
  C  C193  1  0.351500  0.993200  0.351500  1.0  -0.1254
  C  C194  1  0.321700  0.935600  0.321700  1.0  0.6779
  C  C195  1  0.851500  0.493200  0.851500  1.0  -0.1254
  C  C196  1  0.821700  0.435600  0.821700  1.0  0.6779
  C  C197  1  0.351500  0.006800  0.648500  1.0  -0.1249
  C  C198  1  0.321700  0.064400  0.678300  1.0  0.6784
  C  C199  1  0.851500  0.506800  0.148500  1.0  -0.1249
  C  C200  1  0.821700  0.564400  0.178300  1.0  0.6784
  C  C201  1  0.648500  0.006800  0.351500  1.0  -0.1248
  C  C202  1  0.678300  0.064400  0.321700  1.0  0.6786
  C  C203  1  0.148500  0.506800  0.851500  1.0  -0.1248
  C  C204  1  0.178300  0.564400  0.821700  1.0  0.6786
  C  C205  1  0.648500  0.993200  0.648500  1.0  -0.1225
  C  C206  1  0.678300  0.935600  0.678300  1.0  0.6787
  C  C207  1  0.148500  0.493200  0.148500  1.0  -0.1225
  C  C208  1  0.178300  0.435600  0.178300  1.0  0.6787
  C  C209  1  0.351500  0.351500  0.993200  1.0  -0.1225
  C  C210  1  0.321700  0.321700  0.935600  1.0  0.6778
  C  C211  1  0.851500  0.851500  0.493200  1.0  -0.1225
  C  C212  1  0.821700  0.821700  0.435600  1.0  0.6778
  C  C213  1  0.648500  0.351500  0.006800  1.0  -0.1211
  C  C214  1  0.678300  0.321700  0.064400  1.0  0.6793
  C  C215  1  0.148500  0.851500  0.506800  1.0  -0.1211
  C  C216  1  0.178300  0.821700  0.564400  1.0  0.6793
  C  C217  1  0.351500  0.648500  0.006800  1.0  -0.1237
  C  C218  1  0.321700  0.678300  0.064400  1.0  0.6785
  C  C219  1  0.851500  0.148500  0.506800  1.0  -0.1237
  C  C220  1  0.821700  0.178300  0.564400  1.0  0.6785
  C  C221  1  0.648500  0.648500  0.993200  1.0  -0.1222
  C  C222  1  0.678300  0.678300  0.935600  1.0  0.6785
  C  C223  1  0.148500  0.148500  0.493200  1.0  -0.1222
  C  C224  1  0.178300  0.178300  0.435600  1.0  0.6785
  N  N225  1  0.131380  0.308900  0.262760  1.0  -0.2645
  N  N226  1  0.631380  0.808900  0.762760  1.0  -0.2645
  N  N227  1  0.868620  0.691100  0.262760  1.0  -0.2648
  N  N228  1  0.368620  0.191100  0.762760  1.0  -0.2648
  N  N229  1  0.868620  0.308900  0.737240  1.0  -0.2638
  N  N230  1  0.368620  0.808900  0.237240  1.0  -0.2638
  N  N231  1  0.131380  0.691100  0.737240  1.0  -0.263
  N  N232  1  0.631380  0.191100  0.237240  1.0  -0.263
  N  N233  1  0.262760  0.131380  0.308900  1.0  -0.264
  N  N234  1  0.762760  0.631380  0.808900  1.0  -0.264
  N  N235  1  0.262760  0.868620  0.691100  1.0  -0.2655
  N  N236  1  0.762760  0.368620  0.191100  1.0  -0.2655
  N  N237  1  0.737240  0.868620  0.308900  1.0  -0.2648
  N  N238  1  0.237240  0.368620  0.808900  1.0  -0.2648
  N  N239  1  0.737240  0.131380  0.691100  1.0  -0.2637
  N  N240  1  0.237240  0.631380  0.191100  1.0  -0.2637
  N  N241  1  0.308900  0.262760  0.131380  1.0  -0.2626
  N  N242  1  0.808900  0.762760  0.631380  1.0  -0.2626
  N  N243  1  0.691100  0.262760  0.868620  1.0  -0.2643
  N  N244  1  0.191100  0.762760  0.368620  1.0  -0.2643
  N  N245  1  0.308900  0.737240  0.868620  1.0  -0.2643
  N  N246  1  0.808900  0.237240  0.368620  1.0  -0.2643
  N  N247  1  0.691100  0.737240  0.131380  1.0  -0.2623
  N  N248  1  0.191100  0.237240  0.631380  1.0  -0.2623
  N  N249  1  0.308900  0.131380  0.262760  1.0  -0.2644
  N  N250  1  0.808900  0.631380  0.762760  1.0  -0.2644
  N  N251  1  0.691100  0.868620  0.262760  1.0  -0.2661
  N  N252  1  0.191100  0.368620  0.762760  1.0  -0.2661
  N  N253  1  0.308900  0.868620  0.737240  1.0  -0.2645
  N  N254  1  0.808900  0.368620  0.237240  1.0  -0.2645
  N  N255  1  0.691100  0.131380  0.737240  1.0  -0.2634
  N  N256  1  0.191100  0.631380  0.237240  1.0  -0.2634
  N  N257  1  0.131380  0.262760  0.308900  1.0  -0.265
  N  N258  1  0.631380  0.762760  0.808900  1.0  -0.265
  N  N259  1  0.868620  0.262760  0.691100  1.0  -0.2657
  N  N260  1  0.368620  0.762760  0.191100  1.0  -0.2657
  N  N261  1  0.868620  0.737240  0.308900  1.0  -0.2653
  N  N262  1  0.368620  0.237240  0.808900  1.0  -0.2653
  N  N263  1  0.131380  0.737240  0.691100  1.0  -0.2649
  N  N264  1  0.631380  0.237240  0.191100  1.0  -0.2649
  N  N265  1  0.262760  0.308900  0.131380  1.0  -0.2637
  N  N266  1  0.762760  0.808900  0.631380  1.0  -0.2637
  N  N267  1  0.262760  0.691100  0.868620  1.0  -0.2644
  N  N268  1  0.762760  0.191100  0.368620  1.0  -0.2644
  N  N269  1  0.737240  0.308900  0.868620  1.0  -0.2642
  N  N270  1  0.237240  0.808900  0.368620  1.0  -0.2642
  N  N271  1  0.737240  0.691100  0.131380  1.0  -0.2626
  N  N272  1  0.237240  0.191100  0.631380  1.0  -0.2626
  N  N273  1  0.053000  0.325540  0.325540  1.0  0.0276
  N  N274  1  0.553000  0.825540  0.825540  1.0  0.0276
  N  N275  1  0.947000  0.674460  0.325540  1.0  0.0281
  N  N276  1  0.447000  0.174460  0.825540  1.0  0.0281
  N  N277  1  0.947000  0.325540  0.674460  1.0  0.0281
  N  N278  1  0.447000  0.825540  0.174460  1.0  0.0281
  N  N279  1  0.053000  0.674460  0.674460  1.0  0.028
  N  N280  1  0.553000  0.174460  0.174460  1.0  0.028
  N  N281  1  0.325540  0.053000  0.325540  1.0  0.0274
  N  N282  1  0.825540  0.553000  0.825540  1.0  0.0274
  N  N283  1  0.325540  0.947000  0.674460  1.0  0.0272
  N  N284  1  0.825540  0.447000  0.174460  1.0  0.0272
  N  N285  1  0.674460  0.947000  0.325540  1.0  0.0265
  N  N286  1  0.174460  0.447000  0.825540  1.0  0.0265
  N  N287  1  0.674460  0.053000  0.674460  1.0  0.0267
  N  N288  1  0.174460  0.553000  0.174460  1.0  0.0267
  N  N289  1  0.325540  0.325540  0.053000  1.0  0.0265
  N  N290  1  0.825540  0.825540  0.553000  1.0  0.0265
  N  N291  1  0.674460  0.325540  0.947000  1.0  0.0263
  N  N292  1  0.174460  0.825540  0.447000  1.0  0.0263
  N  N293  1  0.325540  0.674460  0.947000  1.0  0.0274
  N  N294  1  0.825540  0.174460  0.447000  1.0  0.0274
  N  N295  1  0.674460  0.674460  0.053000  1.0  0.0265
  N  N296  1  0.174460  0.174460  0.553000  1.0  0.0265
  O  O297  1  0.940400  0.280350  0.280350  1.0  -0.5255
  O  O298  1  0.884200  0.343330  0.343330  1.0  -0.6171
  O  O299  1  0.440400  0.780350  0.780350  1.0  -0.5307
  O  O300  1  0.384200  0.843330  0.843330  1.0  -0.6171
  O  O301  1  0.059600  0.719650  0.280350  1.0  -0.5259
  O  O302  1  0.115800  0.656670  0.343330  1.0  -0.6176
  O  O303  1  0.559600  0.219650  0.780350  1.0  -0.531
  O  O304  1  0.615800  0.156670  0.843330  1.0  -0.6176
  O  O305  1  0.059600  0.280350  0.719650  1.0  -0.5268
  O  O306  1  0.115800  0.343330  0.656670  1.0  -0.6183
  O  O307  1  0.559600  0.780350  0.219650  1.0  -0.532
  O  O308  1  0.615800  0.843330  0.156670  1.0  -0.6183
  O  O309  1  0.940400  0.719650  0.719650  1.0  -0.528
  O  O310  1  0.884200  0.656670  0.656670  1.0  -0.6167
  O  O311  1  0.440400  0.219650  0.219650  1.0  -0.5336
  O  O312  1  0.384200  0.156670  0.156670  1.0  -0.6167
  O  O313  1  0.280350  0.940400  0.280350  1.0  -0.528
  O  O314  1  0.343330  0.884200  0.343330  1.0  -0.6186
  O  O315  1  0.780350  0.440400  0.780350  1.0  -0.5327
  O  O316  1  0.843330  0.384200  0.843330  1.0  -0.6186
  O  O317  1  0.280350  0.059600  0.719650  1.0  -0.5276
  O  O318  1  0.343330  0.115800  0.656670  1.0  -0.619
  O  O319  1  0.780350  0.559600  0.219650  1.0  -0.5327
  O  O320  1  0.843330  0.615800  0.156670  1.0  -0.619
  O  O321  1  0.719650  0.059600  0.280350  1.0  -0.527
  O  O322  1  0.656670  0.115800  0.343330  1.0  -0.6194
  O  O323  1  0.219650  0.559600  0.780350  1.0  -0.532
  O  O324  1  0.156670  0.615800  0.843330  1.0  -0.6194
  O  O325  1  0.719650  0.940400  0.719650  1.0  -0.5311
  O  O326  1  0.656670  0.884200  0.656670  1.0  -0.6172
  O  O327  1  0.219650  0.440400  0.219650  1.0  -0.5366
  O  O328  1  0.156670  0.384200  0.156670  1.0  -0.6172
  O  O329  1  0.280350  0.280350  0.940400  1.0  -0.524
  O  O330  1  0.343330  0.343330  0.884200  1.0  -0.6183
  O  O331  1  0.780350  0.780350  0.440400  1.0  -0.5286
  O  O332  1  0.843330  0.843330  0.384200  1.0  -0.6183
  O  O333  1  0.719650  0.280350  0.059600  1.0  -0.5245
  O  O334  1  0.656670  0.343330  0.115800  1.0  -0.6205
  O  O335  1  0.219650  0.780350  0.559600  1.0  -0.5296
  O  O336  1  0.156670  0.843330  0.615800  1.0  -0.6205
  O  O337  1  0.280350  0.719650  0.059600  1.0  -0.5255
  O  O338  1  0.343330  0.656670  0.115800  1.0  -0.6204
  O  O339  1  0.780350  0.219650  0.559600  1.0  -0.5304
  O  O340  1  0.843330  0.156670  0.615800  1.0  -0.6204
  O  O341  1  0.719650  0.719650  0.940400  1.0  -0.5251
  O  O342  1  0.656670  0.656670  0.884200  1.0  -0.6181
  O  O343  1  0.219650  0.219650  0.440400  1.0  -0.5304
  O  O344  1  0.156670  0.156670  0.384200  1.0  -0.6181
  O  O345  1  0.243200  0.243200  0.243200  1.0  -0.7801
  O  O346  1  0.743200  0.743200  0.743200  1.0  -0.7801
  O  O347  1  0.756800  0.756800  0.243200  1.0  -0.7823
  O  O348  1  0.256800  0.256800  0.743200  1.0  -0.7823
  O  O349  1  0.756800  0.243200  0.756800  1.0  -0.7795
  O  O350  1  0.256800  0.743200  0.256800  1.0  -0.7795
  O  O351  1  0.243200  0.756800  0.756800  1.0  -0.7801
  O  O352  1  0.743200  0.256800  0.256800  1.0  -0.7801
