# generated using pymatgen
data_CoH20C28(NO2)2
_symmetry_space_group_name_H-M   'P 1'
_cell_length_a   8.50460000
_cell_length_b   13.33740000
_cell_length_c   14.15840000
_cell_angle_alpha   61.90020000
_cell_angle_beta   85.71900000
_cell_angle_gamma   80.88100000
_symmetry_Int_Tables_number   1
_chemical_formula_structural   CoH20C28(NO2)2
_chemical_formula_sum   'Co2 H40 C56 N4 O8'
_cell_volume   1398.77289426
_cell_formula_units_Z   2
loop_
 _symmetry_equiv_pos_site_id
 _symmetry_equiv_pos_as_xyz
  1  'x, y, z'
loop_
 _atom_site_type_symbol
 _atom_site_label
 _atom_site_symmetry_multiplicity
 _atom_site_fract_x
 _atom_site_fract_y
 _atom_site_fract_z
 _atom_site_occupancy
 _atom_site_charge
  Co  Co1  1  0.200980  0.297140  0.192840  1.0  0.8114
  Co  Co2  1  0.700980  0.489980  0.807160  1.0  0.811
  H  H3  1  0.481500  0.004000  0.838600  1.0  0.1313
  H  H4  1  0.328000  0.474500  0.980800  1.0  0.0877
  H  H5  1  0.572500  0.180600  0.775000  1.0  0.0925
  H  H6  1  0.404400  0.815000  0.114200  1.0  0.1043
  H  H7  1  0.077800  0.508100  0.512200  1.0  0.1185
  H  H8  1  0.799900  0.906300  0.527200  1.0  0.1141
  H  H9  1  0.577800  0.020300  0.487800  1.0  0.1193
  H  H10  1  0.051900  0.412200  0.867800  1.0  0.0746
  H  H11  1  0.072500  0.955600  0.225000  1.0  0.0919
  H  H12  1  0.259000  0.673400  0.174600  1.0  0.1183
  H  H13  1  0.908400  0.559600  0.093000  1.0  0.1193
  H  H14  1  0.197500  0.946100  0.414600  1.0  0.1129
  H  H15  1  0.981500  0.842600  0.161400  1.0  0.131
  H  H16  1  0.680400  0.383000  0.250600  1.0  0.0951
  H  H17  1  0.429000  0.831100  0.912800  1.0  0.1016
  H  H18  1  0.011100  0.095200  0.862000  1.0  0.1151
  H  H19  1  0.828000  0.455300  0.019200  1.0  0.087
  H  H20  1  0.110000  0.206400  0.926400  1.0  0.1165
  H  H21  1  0.551900  0.280000  0.132200  1.0  0.0728
  H  H22  1  0.408400  0.652600  0.907000  1.0  0.1187
  H  H23  1  0.929000  0.743900  0.087200  1.0  0.0995
  H  H24  1  0.795400  0.178500  0.205400  1.0  0.1252
  H  H25  1  0.295400  0.383900  0.794600  1.0  0.1259
  H  H26  1  0.462700  0.405000  0.642200  1.0  0.0844
  H  H27  1  0.937300  0.324700  0.503000  1.0  0.1147
  H  H28  1  0.446800  0.415200  0.334400  1.0  0.1011
  H  H29  1  0.697500  0.360700  0.585400  1.0  0.1153
  H  H30  1  0.610000  0.132800  0.073600  1.0  0.1165
  H  H31  1  0.685900  0.738600  0.756600  1.0  0.0932
  H  H32  1  0.511100  0.957200  0.138000  1.0  0.1141
  H  H33  1  0.334900  0.128400  0.405600  1.0  0.0929
  H  H34  1  0.759000  0.848000  0.825400  1.0  0.1172
  H  H35  1  0.962700  0.047200  0.357800  1.0  0.0849
  H  H36  1  0.946800  0.749600  0.665600  1.0  0.1006
  H  H37  1  0.185900  0.495200  0.243400  1.0  0.0922
  H  H38  1  0.180400  0.633600  0.749400  1.0  0.0923
  H  H39  1  0.299900  0.433500  0.472800  1.0  0.116
  H  H40  1  0.834900  0.534000  0.594400  1.0  0.0926
  H  H41  1  0.437300  0.827700  0.497000  1.0  0.1154
  H  H42  1  0.904400  0.929200  0.885800  1.0  0.1015
  C  C43  1  0.685500  0.377100  0.319200  1.0  -0.0156
  C  C44  1  0.545100  0.397400  0.369000  1.0  -0.0897
  C  C45  1  0.506800  0.028700  0.887200  1.0  -0.1516
  C  C46  1  0.096900  0.091400  0.083400  1.0  -0.093
  C  C47  1  0.330400  0.716700  0.632200  1.0  -0.1235
  C  C48  1  0.203600  0.413900  0.751600  1.0  -0.2238
  C  C49  1  0.277300  0.633000  0.134600  1.0  -0.178
  C  C50  1  0.490800  0.960400  0.996200  1.0  0.0359
  C  C51  1  0.391400  0.417200  0.513600  1.0  -0.1053
  C  C52  1  0.050000  0.859000  0.532600  1.0  -0.032
  C  C53  1  0.733000  0.701900  0.825000  1.0  0.1664
  C  C54  1  0.838900  0.342800  0.468400  1.0  -0.0825
  C  C55  1  0.525600  0.001400  0.064000  1.0  -0.0817
  C  C56  1  0.647600  0.289500  0.873800  1.0  0.6437
  C  C57  1  0.929700  0.890800  0.959000  1.0  -0.1397
  C  C58  1  0.147600  0.163300  0.126200  1.0  0.6451
  C  C59  1  0.194200  0.882300  0.482400  1.0  -0.1012
  C  C60  1  0.233000  0.526900  0.175000  1.0  0.1668
  C  C61  1  0.694200  0.364700  0.517600  1.0  -0.102
  C  C62  1  0.990800  0.956600  0.003800  1.0  0.0351
  C  C63  1  0.907100  0.782000  0.013400  1.0  -0.1328
  C  C64  1  0.816800  0.535700  0.978800  1.0  0.177
  C  C65  1  0.871800  0.020100  0.398400  1.0  -0.124
  C  C66  1  0.550000  0.391600  0.467400  1.0  -0.0327
  C  C67  1  0.891400  0.930800  0.486400  1.0  -0.1035
  C  C68  1  0.713400  0.085900  0.354400  1.0  0.0888
  C  C69  1  0.556200  0.226700  0.205400  1.0  0.1827
  C  C70  1  0.429700  0.849800  0.041000  1.0  -0.1352
  C  C71  1  0.928700  0.503100  0.635600  1.0  0.1555
  C  C72  1  0.575100  0.072700  0.414400  1.0  -0.1593
  C  C73  1  0.006800  0.915900  0.112800  1.0  -0.1568
  C  C74  1  0.185500  0.696300  0.680800  1.0  -0.0161
  C  C75  1  0.060900  0.984400  0.150800  1.0  -0.0265
  C  C76  1  0.830400  0.348900  0.367800  1.0  -0.1221
  C  C77  1  0.056200  0.432100  0.794600  1.0  0.1803
  C  C78  1  0.703600  0.165500  0.248400  1.0  -0.2246
  C  C79  1  0.316800  0.514500  0.021200  1.0  0.179
  C  C80  1  0.213400  0.440300  0.645600  1.0  0.0871
  C  C81  1  0.596900  0.174800  0.916600  1.0  -0.095
  C  C82  1  0.865200  0.597900  0.023600  1.0  -0.193
  C  C83  1  0.475400  0.636200  0.689600  1.0  0.6306
  C  C84  1  0.407100  0.795400  0.986600  1.0  -0.1323
  C  C85  1  0.777300  0.767600  0.865400  1.0  -0.1814
  C  C86  1  0.338900  0.811200  0.531600  1.0  -0.0795
  C  C87  1  0.428700  0.138700  0.364400  1.0  0.1553
  C  C88  1  0.371800  0.418500  0.601600  1.0  -0.1203
  C  C89  1  0.082600  0.133800  0.974200  1.0  -0.0971
  C  C90  1  0.365200  0.621500  0.976400  1.0  -0.1851
  C  C91  1  0.075100  0.487100  0.585600  1.0  -0.1582
  C  C92  1  0.350500  0.683100  0.033000  1.0  0.1167
  C  C93  1  0.560900  0.135200  0.849200  1.0  -0.0225
  C  C94  1  0.045100  0.766400  0.631000  1.0  -0.0919
  C  C95  1  0.582600  0.108000  0.025800  1.0  -0.0958
  C  C96  1  0.025600  0.065400  0.936000  1.0  -0.0786
  C  C97  1  0.850500  0.716100  0.967000  1.0  0.1165
  C  C98  1  0.975400  0.325800  0.310400  1.0  0.6304
  N  N99  1  0.921000  0.475500  0.739800  1.0  -0.3232
  N  N100  1  0.254200  0.464400  0.120600  1.0  -0.3523
  N  N101  1  0.754200  0.585000  0.879400  1.0  -0.3534
  N  N102  1  0.421000  0.215300  0.260200  1.0  -0.3229
  O  O103  1  0.608700  0.652000  0.645200  1.0  -0.595
  O  O104  1  0.653600  0.352390  0.773620  1.0  -0.5787
  O  O105  1  0.463000  0.558300  0.783600  1.0  -0.5616
  O  O106  1  0.153600  0.126010  0.226380  1.0  -0.5785
  O  O107  1  0.108700  0.297200  0.354800  1.0  -0.5945
  O  O108  1  0.963000  0.341900  0.216400  1.0  -0.5614
  O  O109  1  0.678100  0.330790  0.935020  1.0  -0.5652
  O  O110  1  0.178100  0.265810  0.064980  1.0  -0.5626
