# generated using pymatgen
data_Er2CuH2C12(NO3)4
_symmetry_space_group_name_H-M   'P 1'
_cell_length_a   6.94570000
_cell_length_b   19.23070000
_cell_length_c   19.66810000
_cell_angle_alpha   71.65490000
_cell_angle_beta   79.82980000
_cell_angle_gamma   79.59600000
_symmetry_Int_Tables_number   1
_chemical_formula_structural   Er2CuH2C12(NO3)4
_chemical_formula_sum   'Er8 Cu4 H8 C48 N16 O48'
_cell_volume   2432.31580075
_cell_formula_units_Z   4
loop_
 _symmetry_equiv_pos_site_id
 _symmetry_equiv_pos_as_xyz
  1  'x, y, z'
loop_
 _atom_site_type_symbol
 _atom_site_label
 _atom_site_symmetry_multiplicity
 _atom_site_fract_x
 _atom_site_fract_y
 _atom_site_fract_z
 _atom_site_occupancy
 _atom_site_charge
  Er  Er1  1  0.837280  0.619910  0.765890  1.0  1.5334
  Er  Er2  1  0.768230  0.382350  0.610590  1.0  1.5532
  Er  Er3  1  0.223080  0.880090  0.734110  1.0  1.5327
  Er  Er4  1  0.761170  0.117650  0.889410  1.0  1.5534
  Er  Er5  1  0.162720  0.380090  0.234110  1.0  1.5333
  Er  Er6  1  0.231770  0.617650  0.389410  1.0  1.5531
  Er  Er7  1  0.776920  0.119910  0.265890  1.0  1.5324
  Er  Er8  1  0.238830  0.882350  0.110590  1.0  1.5522
  Cu  Cu9  1  0.750100  0.489810  0.002350  1.0  0.7721
  Cu  Cu10  1  0.242260  0.010190  0.497650  1.0  0.7724
  Cu  Cu11  1  0.249900  0.510190  0.997650  1.0  0.7686
  Cu  Cu12  1  0.757740  0.989810  0.502350  1.0  0.7709
  H  H13  1  0.890100  0.732100  0.980500  1.0  0.1542
  H  H14  1  0.682400  0.340500  0.855100  1.0  0.1281
  H  H15  1  0.602700  0.767900  0.519500  1.0  0.1538
  H  H16  1  0.878000  0.159500  0.644900  1.0  0.1285
  H  H17  1  0.109900  0.267900  0.019500  1.0  0.1538
  H  H18  1  0.317600  0.659500  0.144900  1.0  0.1277
  H  H19  1  0.397300  0.232100  0.480500  1.0  0.1545
  H  H20  1  0.122000  0.840500  0.355100  1.0  0.1279
  C  C21  1  0.781700  0.584100  0.079300  1.0  0.5881
  C  C22  1  0.824200  0.624200  0.002600  1.0  -0.0366
  C  C23  1  0.873100  0.693800  0.963600  1.0  -0.1238
  C  C24  1  0.891000  0.691400  0.893000  1.0  0.0839
  C  C25  1  0.948500  0.747100  0.821500  1.0  0.6956
  C  C26  1  0.675300  0.353400  0.005600  1.0  0.6
  C  C27  1  0.709100  0.394200  0.929400  1.0  -0.0363
  C  C28  1  0.707400  0.382800  0.863400  1.0  -0.1075
  C  C29  1  0.749300  0.448500  0.813300  1.0  0.0506
  C  C30  1  0.761000  0.475400  0.734200  1.0  0.7283
  C  C31  1  0.084300  0.486700  0.522900  1.0  0.5691
  C  C32  1  0.445100  0.915900  0.420700  1.0  0.592
  C  C33  1  0.451000  0.875800  0.497400  1.0  -0.0378
  C  C34  1  0.530500  0.806200  0.536400  1.0  -0.1243
  C  C35  1  0.475400  0.808600  0.607000  1.0  0.0828
  C  C36  1  0.517100  0.752900  0.678500  1.0  0.6973
  C  C37  1  0.034300  0.146600  0.494400  1.0  0.6007
  C  C38  1  0.032700  0.105800  0.570600  1.0  -0.0338
  C  C39  1  0.953600  0.117200  0.636600  1.0  -0.1079
  C  C40  1  0.011100  0.051500  0.686700  1.0  0.0507
  C  C41  1  0.970600  0.024600  0.765800  1.0  0.7293
  C  C42  1  0.093900  0.013300  0.977100  1.0  0.5677
  C  C43  1  0.218300  0.415900  0.920700  1.0  0.5902
  C  C44  1  0.175800  0.375800  0.997400  1.0  -0.0384
  C  C45  1  0.126900  0.306200  0.036400  1.0  -0.1248
  C  C46  1  0.109000  0.308600  0.107000  1.0  0.0822
  C  C47  1  0.051500  0.252900  0.178500  1.0  0.6971
  C  C48  1  0.324700  0.646600  0.994400  1.0  0.6001
  C  C49  1  0.290900  0.605800  0.070600  1.0  -0.0316
  C  C50  1  0.292600  0.617200  0.136600  1.0  -0.108
  C  C51  1  0.250700  0.551500  0.186700  1.0  0.0498
  C  C52  1  0.239000  0.524600  0.265800  1.0  0.7298
  C  C53  1  0.915700  0.513300  0.477100  1.0  0.5702
  C  C54  1  0.554900  0.084100  0.579300  1.0  0.5902
  C  C55  1  0.549000  0.124200  0.502600  1.0  -0.0392
  C  C56  1  0.469500  0.193800  0.463600  1.0  -0.1263
  C  C57  1  0.524600  0.191400  0.393000  1.0  0.0835
  C  C58  1  0.482900  0.247100  0.321500  1.0  0.6959
  C  C59  1  0.965700  0.853400  0.505600  1.0  0.6003
  C  C60  1  0.967300  0.894200  0.429400  1.0  -0.0378
  C  C61  1  0.046400  0.882800  0.363400  1.0  -0.1065
  C  C62  1  0.988900  0.948500  0.313300  1.0  0.0514
  C  C63  1  0.029400  0.975400  0.234200  1.0  0.7268
  C  C64  1  0.906100  0.986700  0.022900  1.0  0.5675
  C  C65  1  0.892000  0.250000  0.750000  1.0  0.5125
  C  C66  1  0.668000  0.250000  0.750000  1.0  0.5911
  C  C67  1  0.108000  0.750000  0.250000  1.0  0.5121
  C  C68  1  0.332000  0.750000  0.250000  1.0  0.5924
  N  N69  1  0.820500  0.585500  0.956900  1.0  -0.1361
  N  N70  1  0.859500  0.627000  0.888600  1.0  -0.3501
  N  N71  1  0.753100  0.462800  0.916800  1.0  -0.1114
  N  N72  1  0.778300  0.496700  0.846300  1.0  -0.3601
  N  N73  1  0.362900  0.914500  0.543100  1.0  -0.136
  N  N74  1  0.375100  0.873000  0.611400  1.0  -0.3494
  N  N75  1  0.132700  0.037200  0.583200  1.0  -0.1102
  N  N76  1  0.121300  0.003300  0.653700  1.0  -0.3583
  N  N77  1  0.179500  0.414500  0.043100  1.0  -0.1356
  N  N78  1  0.140500  0.373000  0.111400  1.0  -0.3502
  N  N79  1  0.246900  0.537200  0.083200  1.0  -0.1117
  N  N80  1  0.221700  0.503300  0.153700  1.0  -0.3597
  N  N81  1  0.637100  0.085500  0.456900  1.0  -0.1356
  N  N82  1  0.624900  0.127000  0.388600  1.0  -0.3547
  N  N83  1  0.867300  0.962800  0.416800  1.0  -0.1119
  N  N84  1  0.878700  0.996700  0.346300  1.0  -0.3601
  O  O85  1  0.749600  0.517400  0.090400  1.0  -0.4982
  O  O86  1  0.779400  0.611900  0.127300  1.0  -0.4322
  O  O87  1  0.913700  0.731400  0.767600  1.0  -0.6722
  O  O88  1  0.024400  0.800700  0.821500  1.0  -0.6283
  O  O89  1  0.670400  0.392200  0.049400  1.0  -0.4986
  O  O90  1  0.651700  0.287900  0.027100  1.0  -0.4617
  O  O91  1  0.786000  0.542300  0.704900  1.0  -0.6685
  O  O92  1  0.741500  0.431600  0.700600  1.0  -0.6746
  O  O93  1  0.972900  0.297900  0.698900  1.0  -0.4991
  O  O94  1  0.598400  0.292200  0.695400  1.0  -0.5634
  O  O95  1  0.060500  0.435500  0.579500  1.0  -0.5481
  O  O96  1  0.233200  0.520300  0.498900  1.0  -0.6023
  O  O97  1  0.357400  0.982600  0.409600  1.0  -0.4989
  O  O98  1  0.518600  0.888100  0.372700  1.0  -0.4272
  O  O99  1  0.412700  0.768600  0.732400  1.0  -0.6734
  O  O100  1  0.646600  0.699300  0.678500  1.0  -0.6282
  O  O101  1  0.112000  0.107800  0.450600  1.0  -0.4989
  O  O102  1  0.966700  0.212100  0.472900  1.0  -0.4612
  O  O103  1  0.033200  0.957700  0.795100  1.0  -0.6742
  O  O104  1  0.873700  0.068400  0.799400  1.0  -0.6746
  O  O105  1  0.969700  0.202100  0.801100  1.0  -0.4954
  O  O106  1  0.586000  0.207800  0.804600  1.0  -0.5587
  O  O107  1  0.075500  0.064500  0.920500  1.0  -0.5494
  O  O108  1  0.252400  0.979700  0.001100  1.0  -0.604
  O  O109  1  0.250400  0.482600  0.909600  1.0  -0.4988
  O  O110  1  0.220600  0.388100  0.872700  1.0  -0.4278
  O  O111  1  0.086300  0.268600  0.232400  1.0  -0.6704
  O  O112  1  0.975600  0.199300  0.178500  1.0  -0.6315
  O  O113  1  0.329600  0.607800  0.950600  1.0  -0.4994
  O  O114  1  0.348300  0.712100  0.972900  1.0  -0.4623
  O  O115  1  0.214000  0.457700  0.295100  1.0  -0.6707
  O  O116  1  0.258500  0.568400  0.299400  1.0  -0.6739
  O  O117  1  0.027100  0.702100  0.301100  1.0  -0.4954
  O  O118  1  0.401600  0.707800  0.304600  1.0  -0.5609
  O  O119  1  0.939500  0.564500  0.420500  1.0  -0.5494
  O  O120  1  0.766800  0.479700  0.501100  1.0  -0.6028
  O  O121  1  0.642600  0.017400  0.590400  1.0  -0.4982
  O  O122  1  0.481400  0.111900  0.627300  1.0  -0.4329
  O  O123  1  0.587300  0.231400  0.267600  1.0  -0.6736
  O  O124  1  0.353400  0.300700  0.321500  1.0  -0.6278
  O  O125  1  0.888000  0.892200  0.549400  1.0  -0.4979
  O  O126  1  0.033300  0.787900  0.527100  1.0  -0.4617
  O  O127  1  0.966800  0.042300  0.204900  1.0  -0.6708
  O  O128  1  0.126300  0.931600  0.200600  1.0  -0.6763
  O  O129  1  0.030300  0.797900  0.198900  1.0  -0.4962
  O  O130  1  0.414000  0.792200  0.195400  1.0  -0.5612
  O  O131  1  0.924500  0.935500  0.079500  1.0  -0.5482
  O  O132  1  0.747600  0.020300  0.998900  1.0  -0.6043
