# generated using pymatgen
data_CdH22C26(NO)4
_symmetry_space_group_name_H-M   'P 1'
_cell_length_a   13.51500000
_cell_length_b   16.18190000
_cell_length_c   16.18190000
_cell_angle_alpha   79.95700000
_cell_angle_beta   65.31700000
_cell_angle_gamma   65.31710000
_symmetry_Int_Tables_number   1
_chemical_formula_structural   CdH22C26(NO)4
_chemical_formula_sum   'Cd4 H88 C104 N16 O16'
_cell_volume   2921.80747316
_cell_formula_units_Z   4
loop_
 _symmetry_equiv_pos_site_id
 _symmetry_equiv_pos_as_xyz
  1  'x, y, z'
loop_
 _atom_site_type_symbol
 _atom_site_label
 _atom_site_symmetry_multiplicity
 _atom_site_fract_x
 _atom_site_fract_y
 _atom_site_fract_z
 _atom_site_occupancy
 _atom_site_charge
  Cd  Cd1  1  0.588340  0.791970  0.794440  1.0  0.8976
  Cd  Cd2  1  0.619690  0.205560  0.791970  1.0  0.8996
  Cd  Cd3  1  0.174750  0.208030  0.205550  1.0  0.893
  Cd  Cd4  1  0.617230  0.794440  0.208020  1.0  0.8989
  H  H5  1  0.454200  0.003700  0.739300  1.0  0.1107
  H  H6  1  0.746900  0.588800  0.765600  1.0  0.0856
  H  H7  1  0.465300  0.164200  0.600200  1.0  0.1044
  H  H8  1  0.576600  0.703400  0.004200  1.0  0.0704
  H  H9  1  0.364600  0.149200  0.687400  1.0  0.1011
  H  H10  1  0.805100  0.413000  0.767200  1.0  0.1088
  H  H11  1  0.622300  0.873200  0.459600  1.0  0.1044
  H  H12  1  0.963400  0.284800  0.587200  1.0  0.1029
  H  H13  1  0.641300  0.567600  0.073200  1.0  0.0974
  H  H14  1  0.223100  0.094400  0.719800  1.0  0.1102
  H  H15  1  0.332900  0.385100  0.636100  1.0  0.1064
  H  H16  1  0.349700  0.201400  0.524800  1.0  0.229
  H  H17  1  0.154500  0.437600  0.621200  1.0  0.1092
  H  H18  1  0.192900  0.287300  0.884100  1.0  0.0997
  H  H19  1  0.154300  0.272500  0.523700  1.0  0.1091
  H  H20  1  0.031500  0.105700  0.779700  1.0  0.1091
  H  H21  1  0.513200  0.028900  0.474700  1.0  0.106
  H  H22  1  0.009900  0.346700  0.873700  1.0  0.1104
  H  H23  1  0.956700  0.452200  0.682000  1.0  0.246
  H  H24  1  0.868600  0.362800  0.834200  1.0  0.0903
  H  H25  1  0.647500  0.788300  0.583700  1.0  0.0827
  H  H26  1  0.767200  0.435200  0.984800  1.0  0.1187
  H  H27  1  0.862800  0.220300  0.105700  1.0  0.1087
  H  H28  1  0.791100  0.926800  0.567600  1.0  0.098
  H  H29  1  0.448900  0.475200  0.201400  1.0  0.2266
  H  H30  1  0.664300  0.234400  0.588800  1.0  0.0856
  H  H31  1  0.720000  0.995800  0.703400  1.0  0.0734
  H  H32  1  0.519800  0.115900  0.287300  1.0  0.0974
  H  H33  1  0.781900  0.232800  0.413000  1.0  0.1052
  H  H34  1  0.591100  0.318000  0.452200  1.0  0.2433
  H  H35  1  0.370500  0.399800  0.164200  1.0  0.1033
  H  H36  1  0.486200  0.312600  0.149200  1.0  0.0979
  H  H37  1  0.542100  0.260700  0.003700  1.0  0.1086
  H  H38  1  0.797600  0.015200  0.435200  1.0  0.12
  H  H39  1  0.768600  0.165800  0.362800  1.0  0.0906
  H  H40  1  0.407900  0.378800  0.437600  1.0  0.1095
  H  H41  1  0.682500  0.280200  0.094400  1.0  0.1099
  H  H42  1  0.504500  0.540400  0.873200  1.0  0.1045
  H  H43  1  0.643400  0.126300  0.346700  1.0  0.1096
  H  H44  1  0.564200  0.416300  0.788300  1.0  0.0819
  H  H45  1  0.457900  0.525300  0.028900  1.0  0.1056
  H  H46  1  0.751800  0.412800  0.284800  1.0  0.1023
  H  H47  1  0.573200  0.476300  0.272500  1.0  0.1086
  H  H48  1  0.282000  0.363900  0.385100  1.0  0.1053
  H  H49  1  0.354100  0.614900  0.363900  1.0  0.106
  H  H50  1  0.985300  0.587000  0.232800  1.0  0.1075
  H  H51  1  0.090900  0.547800  0.318000  1.0  0.2475
  H  H52  1  0.019500  0.211700  0.416300  1.0  0.0804
  H  H53  1  0.213300  0.562400  0.378800  1.0  0.1092
  H  H54  1  0.916900  0.894300  0.220300  1.0  0.1099
  H  H55  1  0.229700  0.835800  0.399800  1.0  0.1022
  H  H56  1  0.201200  0.850800  0.312600  1.0  0.102
  H  H57  1  0.187200  0.564800  0.015200  1.0  0.1185
  H  H58  1  0.282100  0.432400  0.926800  1.0  0.0973
  H  H59  1  0.037300  0.905600  0.280200  1.0  0.1105
  H  H60  1  0.197200  0.996300  0.260700  1.0  0.1124
  H  H61  1  0.016800  0.971100  0.525300  1.0  0.1047
  H  H62  1  0.075900  0.798600  0.475200  1.0  0.2284
  H  H63  1  0.284200  0.296600  0.995800  1.0  0.073
  H  H64  1  0.835400  0.715200  0.412800  1.0  0.1013
  H  H65  1  0.364300  0.712700  0.115900  1.0  0.0986
  H  H66  1  0.950500  0.727500  0.476300  1.0  0.11
  H  H67  1  0.101300  0.411200  0.234400  1.0  0.0866
  H  H68  1  0.065600  0.637200  0.165800  1.0  0.0893
  H  H69  1  0.955100  0.126800  0.540400  1.0  0.1036
  H  H70  1  0.230300  0.653300  0.126300  1.0  0.1132
  H  H71  1  0.057100  0.719800  0.905600  1.0  0.1092
  H  H72  1  0.361300  0.682000  0.547800  1.0  0.2439
  H  H73  1  0.427700  0.767200  0.587000  1.0  0.1084
  H  H74  1  0.449400  0.587200  0.715200  1.0  0.1032
  H  H75  1  0.487500  0.765600  0.411200  1.0  0.0866
  H  H76  1  0.322000  0.523700  0.727500  1.0  0.1093
  H  H77  1  0.012100  0.474700  0.971100  1.0  0.1054
  H  H78  1  0.125500  0.524800  0.798600  1.0  0.2294
  H  H79  1  0.934500  0.600200  0.835800  1.0  0.1048
  H  H80  1  0.188800  0.779700  0.894300  1.0  0.1084
  H  H81  1  0.116400  0.873700  0.653300  1.0  0.1106
  H  H82  1  0.918100  0.459600  0.126800  1.0  0.1046
  H  H83  1  0.806500  0.739300  0.996300  1.0  0.1068
  H  H84  1  0.419200  0.004200  0.296600  1.0  0.0738
  H  H85  1  0.248000  0.984800  0.564800  1.0  0.1183
  H  H86  1  0.031000  0.636100  0.614900  1.0  0.1044
  H  H87  1  0.297200  0.834200  0.637200  1.0  0.0888
  H  H88  1  0.285500  0.073200  0.432400  1.0  0.0964
  H  H89  1  0.948000  0.687400  0.850800  1.0  0.0965
  H  H90  1  0.923000  0.884100  0.712700  1.0  0.0985
  H  H91  1  0.768800  0.583700  0.211700  1.0  0.0821
  H  H92  1  0.224300  0.621200  0.562400  1.0  0.1102
  C  C93  1  0.523100  0.993930  0.524870  1.0  -0.069
  C  C94  1  0.398600  0.294100  0.771700  1.0  0.6546
  C  C95  1  0.407630  0.136350  0.622790  1.0  -0.0489
  C  C96  1  0.625850  0.651440  0.968460  1.0  0.1748
  C  C97  1  0.851330  0.201490  0.727850  1.0  0.6718
  C  C98  1  0.472380  0.034490  0.609750  1.0  0.0873
  C  C99  1  0.281790  0.330910  0.762110  1.0  -0.1713
  C  C100  1  0.171670  0.132670  0.692390  1.0  -0.1899
  C  C101  1  0.848980  0.418120  0.799320  1.0  -0.0828
  C  C102  1  0.074620  0.352780  0.824980  1.0  -0.1989
  C  C103  1  0.664500  0.570290  0.010310  1.0  -0.1553
  C  C104  1  0.129950  0.239300  0.575800  1.0  -0.2041
  C  C105  1  0.184620  0.318680  0.831880  1.0  -0.0458
  C  C106  1  0.739700  0.490930  0.957470  1.0  -0.0545
  C  C107  1  0.771750  0.497730  0.863770  1.0  0.0965
  C  C108  1  0.212110  0.182530  0.615650  1.0  0.2078
  C  C109  1  0.015710  0.245560  0.613420  1.0  -0.0459
  C  C110  1  0.602050  0.850350  0.590750  1.0  0.161
  C  C111  1  0.974650  0.195660  0.689240  1.0  -0.0679
  C  C112  1  0.588230  0.901070  0.515870  1.0  -0.1264
  C  C113  1  0.268840  0.376230  0.683090  1.0  -0.0598
  C  C114  1  0.726580  0.583670  0.828170  1.0  0.1592
  C  C115  1  0.061390  0.396100  0.745120  1.0  0.2062
  C  C116  1  0.161440  0.407940  0.674380  1.0  -0.1748
  C  C117  1  0.056180  0.139420  0.728220  1.0  -0.0473
  C  C118  1  0.488790  0.977820  0.682000  1.0  0.0925
  C  C119  1  0.769370  0.042530  0.490930  1.0  -0.0571
  C  C120  1  0.456020  0.377210  0.136350  1.0  -0.0447
  C  C121  1  0.482970  0.475130  0.993930  1.0  -0.0726
  C  C122  1  0.829690  0.310760  0.195660  1.0  -0.0663
  C  C123  1  0.547600  0.409250  0.850350  1.0  0.1631
  C  C124  1  0.307300  0.228300  0.294100  1.0  0.6517
  C  C125  1  0.510700  0.484130  0.901070  1.0  -0.1246
  C  C126  1  0.496700  0.168120  0.318680  1.0  -0.0446
  C  C127  1  0.572600  0.175020  0.352780  1.0  -0.1998
  C  C128  1  0.354930  0.316910  0.376230  1.0  -0.0591
  C  C129  1  0.730520  0.136230  0.497730  1.0  0.0955
  C  C130  1  0.738730  0.386580  0.245560  1.0  -0.0474
  C  C131  1  0.695660  0.307610  0.132670  1.0  -0.1924
  C  C132  1  0.542510  0.254880  0.396100  1.0  0.205
  C  C133  1  0.689750  0.171830  0.583670  1.0  0.1625
  C  C134  1  0.493130  0.390250  0.034490  1.0  0.0855
  C  C135  1  0.630750  0.424200  0.239300  1.0  -0.2094
  C  C136  1  0.947180  0.272150  0.201490  1.0  0.6734
  C  C137  1  0.387300  0.237890  0.330910  1.0  -0.1708
  C  C138  1  0.605360  0.384350  0.182530  1.0  0.2082
  C  C139  1  0.732900  0.200680  0.418120  1.0  -0.0784
  C  C140  1  0.765210  0.989690  0.570290  1.0  -0.1499
  C  C141  1  0.722710  0.031540  0.651440  1.0  0.1802
  C  C142  1  0.804400  0.271780  0.139420  1.0  -0.0536
  C  C143  1  0.430620  0.325620  0.407940  1.0  -0.1781
  C  C144  1  0.533390  0.318000  0.977820  1.0  0.0846
  C  C145  1  0.923820  0.860580  0.271780  1.0  -0.0459
  C  C146  1  0.010290  0.817470  0.384350  1.0  0.2109
  C  C147  1  0.188100  0.509070  0.042530  1.0  -0.0535
  C  C148  1  0.166770  0.863650  0.377210  1.0  -0.0431
  C  C149  1  0.245100  0.429710  0.989690  1.0  -0.1534
  C  C150  1  0.243760  0.592060  0.325620  1.0  -0.1759
  C  C151  1  0.945050  0.760700  0.424200  1.0  -0.2027
  C  C152  1  0.859550  0.804340  0.310760  1.0  -0.0641
  C  C153  1  0.996730  0.867330  0.307610  1.0  -0.1922
  C  C154  1  0.464400  0.705900  0.228300  1.0  0.6539
  C  C155  1  0.245750  0.348560  0.031540  1.0  0.1769
  C  C156  1  0.252380  0.647220  0.175020  1.0  -0.2021
  C  C157  1  0.374810  0.669090  0.237890  1.0  -0.1706
  C  C158  1  0.335180  0.681320  0.168120  1.0  -0.0488
  C  C159  1  0.066420  0.581880  0.200680  1.0  -0.081
  C  C160  1  0.041900  0.006070  0.475130  1.0  -0.0711
  C  C161  1  0.328160  0.623770  0.316910  1.0  -0.0588
  C  C162  1  0.005170  0.098930  0.484130  1.0  -0.1272
  C  C163  1  0.202610  0.603900  0.254880  1.0  0.206
  C  C164  1  0.874690  0.754440  0.386580  1.0  -0.0536
  C  C165  1  0.133250  0.502270  0.136230  1.0  0.0951
  C  C166  1  0.780670  0.798510  0.272150  1.0  0.6765
  C  C167  1  0.043150  0.149650  0.409250  1.0  0.1599
  C  C168  1  0.148610  0.022180  0.318000  1.0  0.0909
  C  C169  1  0.116620  0.965510  0.390250  1.0  0.0868
  C  C170  1  0.138420  0.416330  0.171830  1.0  0.1619
  C  C171  1  0.351700  0.799320  0.581880  1.0  -0.0807
  C  C172  1  0.829700  0.771700  0.705900  1.0  0.6543
  C  C173  1  0.420820  0.727850  0.798510  1.0  0.6713
  C  C174  1  0.956100  0.762110  0.669090  1.0  -0.1679
  C  C175  1  0.172240  0.615650  0.817470  1.0  0.2082
  C  C176  1  0.302830  0.957470  0.509070  1.0  -0.0544
  C  C177  1  0.164180  0.674380  0.592060  1.0  -0.1811
  C  C178  1  0.364480  0.863770  0.502270  1.0  0.0955
  C  C179  1  0.215600  0.728220  0.860580  1.0  -0.0462
  C  C180  1  0.336110  0.689240  0.804340  1.0  -0.0676
  C  C181  1  0.969580  0.622790  0.863650  1.0  -0.0467
  C  C182  1  0.983500  0.831880  0.681320  1.0  -0.0449
  C  C183  1  0.370870  0.613420  0.754440  1.0  -0.0458
  C  C184  1  0.952030  0.524870  0.006070  1.0  -0.0726
  C  C185  1  0.193490  0.745120  0.603900  1.0  0.2053
  C  C186  1  0.325190  0.010310  0.429710  1.0  -0.1513
  C  C187  1  0.048070  0.683090  0.623770  1.0  -0.0597
  C  C188  1  0.807200  0.590750  0.149650  1.0  0.1608
  C  C189  1  0.917870  0.609750  0.965510  1.0  0.0865
  C  C190  1  0.100400  0.824980  0.647220  1.0  -0.1998
  C  C191  1  0.829210  0.682000  0.022180  1.0  0.0919
  C  C192  1  0.895900  0.515870  0.098930  1.0  -0.123
  C  C193  1  0.405690  0.968460  0.348560  1.0  0.1806
  C  C194  1  0.135940  0.692390  0.867330  1.0  -0.1947
  C  C195  1  0.445250  0.828170  0.416330  1.0  0.1603
  C  C196  1  0.294250  0.575800  0.760700  1.0  -0.2077
  N  N197  1  0.552420  0.887110  0.673650  1.0  -0.3597
  N  N198  1  0.325890  0.178140  0.577880  1.0  -0.4276
  N  N199  1  0.957830  0.426280  0.732860  1.0  -0.4236
  N  N200  1  0.655690  0.659530  0.878490  1.0  -0.3638
  N  N201  1  0.560470  0.326350  0.887110  1.0  -0.3483
  N  N202  1  0.495970  0.422120  0.178140  1.0  -0.4262
  N  N203  1  0.684780  0.121510  0.659530  1.0  -0.3715
  N  N204  1  0.615890  0.267140  0.426280  1.0  -0.4209
  N  N205  1  0.116970  0.573720  0.267140  1.0  -0.4205
  N  N206  1  0.113180  0.112890  0.326350  1.0  -0.3513
  N  N207  1  0.081910  0.821860  0.422120  1.0  -0.4329
  N  N208  1  0.193710  0.340470  0.121510  1.0  -0.3584
  N  N209  1  0.096230  0.577880  0.821860  1.0  -0.4272
  N  N210  1  0.773930  0.673650  0.112890  1.0  -0.3483
  N  N211  1  0.309310  0.732860  0.573720  1.0  -0.42
  N  N212  1  0.465820  0.878490  0.340470  1.0  -0.3648
  O  O213  1  0.479510  0.322220  0.720160  1.0  -0.6738
  O  O214  1  0.416010  0.232820  0.830960  1.0  -0.6586
  O  O215  1  0.778120  0.254750  0.693490  1.0  -0.6312
  O  O216  1  0.818990  0.150650  0.795770  1.0  -0.6419
  O  O217  1  0.967130  0.306510  0.254750  1.0  -0.6323
  O  O218  1  0.351170  0.169040  0.232820  1.0  -0.6564
  O  O219  1  0.030360  0.204230  0.150650  1.0  -0.6363
  O  O220  1  0.198270  0.279840  0.322220  1.0  -0.6722
  O  O221  1  0.479790  0.767180  0.169040  1.0  -0.6565
  O  O222  1  0.726360  0.745250  0.306510  1.0  -0.6319
  O  O223  1  0.765410  0.849350  0.204230  1.0  -0.6432
  O  O224  1  0.521890  0.677780  0.279840  1.0  -0.6771
  O  O225  1  0.753030  0.830960  0.767180  1.0  -0.6569
  O  O226  1  0.385240  0.795770  0.849350  1.0  -0.6427
  O  O227  1  0.800330  0.720160  0.677780  1.0  -0.6767
  O  O228  1  0.528390  0.693490  0.745250  1.0  -0.6313
