# generated using pymatgen
data_CuH2C3(N2O)2
_symmetry_space_group_name_H-M   'P 1'
_cell_length_a   8.90420000
_cell_length_b   12.80560000
_cell_length_c   12.80560000
_cell_angle_alpha   65.20220000
_cell_angle_beta   76.59810000
_cell_angle_gamma   103.40200000
_symmetry_Int_Tables_number   1
_chemical_formula_structural   CuH2C3(N2O)2
_chemical_formula_sum   'Cu6 H12 C18 N24 O12'
_cell_volume   1196.58533214
_cell_formula_units_Z   6
loop_
 _symmetry_equiv_pos_site_id
 _symmetry_equiv_pos_as_xyz
  1  'x, y, z'
loop_
 _atom_site_type_symbol
 _atom_site_label
 _atom_site_symmetry_multiplicity
 _atom_site_fract_x
 _atom_site_fract_y
 _atom_site_fract_z
 _atom_site_occupancy
 _atom_site_charge
  Cu  Cu1  1  0.738510  0.580440  0.471560  1.0  0.759
  Cu  Cu2  1  0.158070  0.948000  0.580440  1.0  0.761
  Cu  Cu3  1  0.210070  0.471560  0.948000  1.0  0.761
  Cu  Cu4  1  0.261490  0.419560  0.528440  1.0  0.7629
  Cu  Cu5  1  0.789930  0.528440  0.052000  1.0  0.762
  Cu  Cu6  1  0.841930  0.052000  0.419560  1.0  0.7625
  H  H7  1  0.823400  0.273200  0.445800  1.0  0.3184
  H  H8  1  0.384000  0.487300  0.162600  1.0  0.337
  H  H9  1  0.730800  0.554200  0.719000  1.0  0.3207
  H  H10  1  0.896700  0.350100  0.487300  1.0  0.3382
  H  H11  1  0.546600  0.162600  0.350100  1.0  0.3384
  H  H12  1  0.616000  0.512700  0.837400  1.0  0.3372
  H  H13  1  0.453400  0.837400  0.649900  1.0  0.3396
  H  H14  1  0.103300  0.649900  0.512700  1.0  0.3374
  H  H15  1  0.550200  0.281000  0.273200  1.0  0.3161
  H  H16  1  0.176600  0.726800  0.554200  1.0  0.319
  H  H17  1  0.269200  0.445800  0.281000  1.0  0.3199
  H  H18  1  0.449800  0.719000  0.726800  1.0  0.3172
  C  C19  1  0.276200  0.460500  0.721000  1.0  0.2417
  C  C20  1  0.997200  0.721000  0.818500  1.0  0.2403
  C  C21  1  0.306500  0.155000  0.597600  1.0  0.6325
  C  C22  1  0.239900  0.724000  0.754300  1.0  0.6816
  C  C23  1  0.693500  0.845000  0.402400  1.0  0.6347
  C  C24  1  0.002800  0.279000  0.181500  1.0  0.2418
  C  C25  1  0.005800  0.245700  0.478300  1.0  0.6786
  C  C26  1  0.515900  0.521700  0.724000  1.0  0.6831
  C  C27  1  0.151500  0.247400  0.155000  1.0  0.6265
  C  C28  1  0.848500  0.752600  0.845000  1.0  0.6264
  C  C29  1  0.184300  0.181500  0.539500  1.0  0.241
  C  C30  1  0.904100  0.597600  0.247400  1.0  0.6288
  C  C31  1  0.723800  0.539500  0.279000  1.0  0.2394
  C  C32  1  0.815700  0.818500  0.460500  1.0  0.2404
  C  C33  1  0.484100  0.478300  0.276000  1.0  0.6811
  C  C34  1  0.760100  0.276000  0.245700  1.0  0.6806
  C  C35  1  0.994200  0.754300  0.521700  1.0  0.6794
  C  C36  1  0.095900  0.402400  0.752600  1.0  0.6272
  N  N37  1  0.646740  0.516710  0.206890  1.0  -0.5157
  N  N38  1  0.597840  0.240180  0.316860  1.0  -0.7062
  N  N39  1  0.353260  0.483290  0.793110  1.0  -0.5153
  N  N40  1  0.130030  0.276400  0.516710  1.0  -0.5157
  N  N41  1  0.012060  0.858880  0.525300  1.0  -0.3526
  N  N42  1  0.987940  0.141120  0.474700  1.0  -0.3536
  N  N43  1  0.853630  0.206890  0.276400  1.0  -0.5112
  N  N44  1  0.995550  0.614870  0.899420  1.0  -0.2843
  N  N45  1  0.462640  0.474700  0.384180  1.0  -0.3553
  N  N46  1  0.380680  0.485710  0.614870  1.0  -0.2839
  N  N47  1  0.004450  0.385130  0.100580  1.0  -0.2834
  N  N48  1  0.537360  0.525300  0.615820  1.0  -0.356
  N  N49  1  0.146370  0.793110  0.723600  1.0  -0.5112
  N  N50  1  0.105030  0.100580  0.514290  1.0  -0.2842
  N  N51  1  0.357660  0.442960  0.240180  1.0  -0.7031
  N  N52  1  0.153180  0.615820  0.858880  1.0  -0.3526
  N  N53  1  0.869970  0.723600  0.483290  1.0  -0.5182
  N  N54  1  0.085300  0.683140  0.557040  1.0  -0.7025
  N  N55  1  0.846820  0.384180  0.141120  1.0  -0.352
  N  N56  1  0.894970  0.899420  0.485710  1.0  -0.2837
  N  N57  1  0.402160  0.759820  0.683140  1.0  -0.7065
  N  N58  1  0.914700  0.316860  0.442960  1.0  -0.702
  N  N59  1  0.642340  0.557040  0.759820  1.0  -0.7016
  N  N60  1  0.619320  0.514290  0.385130  1.0  -0.2854
  O  O61  1  0.063650  0.383930  0.667980  1.0  -0.614
  O  O62  1  0.995460  0.374940  0.852760  1.0  -0.4904
  O  O63  1  0.848220  0.852760  0.772300  1.0  -0.5147
  O  O64  1  0.936350  0.616070  0.332020  1.0  -0.6126
  O  O65  1  0.320280  0.051910  0.616070  1.0  -0.6141
  O  O66  1  0.151780  0.147240  0.227700  1.0  -0.5206
  O  O67  1  0.620520  0.772300  0.374940  1.0  -0.4892
  O  O68  1  0.379480  0.227700  0.625060  1.0  -0.4889
  O  O69  1  0.731630  0.667980  0.948090  1.0  -0.6152
  O  O70  1  0.004540  0.625060  0.147240  1.0  -0.4907
  O  O71  1  0.679720  0.948090  0.383930  1.0  -0.6132
  O  O72  1  0.268370  0.332020  0.051910  1.0  -0.6127
