# generated using pymatgen
data_CuH2C3(N2O)2
_symmetry_space_group_name_H-M   'P 1'
_cell_length_a   21.53730000
_cell_length_b   21.53730000
_cell_length_c   8.87530000
_cell_angle_alpha   90.00000000
_cell_angle_beta   90.00000000
_cell_angle_gamma   120.00000000
_symmetry_Int_Tables_number   1
_chemical_formula_structural   CuH2C3(N2O)2
_chemical_formula_sum   'Cu18 H36 C54 N72 O36'
_cell_volume   3565.30089833
_cell_formula_units_Z   18
loop_
 _symmetry_equiv_pos_site_id
 _symmetry_equiv_pos_as_xyz
  1  'x, y, z'
loop_
 _atom_site_type_symbol
 _atom_site_label
 _atom_site_symmetry_multiplicity
 _atom_site_fract_x
 _atom_site_fract_y
 _atom_site_fract_z
 _atom_site_occupancy
 _atom_site_charge
  Cu  Cu1  1  0.296800  0.174450  0.464470  1.0  0.7695
  Cu  Cu2  1  0.963470  0.507790  0.797800  1.0  0.7697
  Cu  Cu3  1  0.630130  0.841120  0.131140  1.0  0.7695
  Cu  Cu4  1  0.825550  0.122350  0.464470  1.0  0.7698
  Cu  Cu5  1  0.492210  0.455680  0.797800  1.0  0.7698
  Cu  Cu6  1  0.158880  0.789010  0.131140  1.0  0.7698
  Cu  Cu7  1  0.877650  0.703200  0.464470  1.0  0.7698
  Cu  Cu8  1  0.544320  0.036530  0.797800  1.0  0.7698
  Cu  Cu9  1  0.210990  0.369870  0.131140  1.0  0.77
  Cu  Cu10  1  0.703200  0.825550  0.535530  1.0  0.7706
  Cu  Cu11  1  0.369870  0.158880  0.868860  1.0  0.7706
  Cu  Cu12  1  0.036530  0.492210  0.202200  1.0  0.7707
  Cu  Cu13  1  0.174450  0.877650  0.535530  1.0  0.7698
  Cu  Cu14  1  0.841120  0.210990  0.868860  1.0  0.7699
  Cu  Cu15  1  0.507790  0.544320  0.202200  1.0  0.7698
  Cu  Cu16  1  0.122350  0.296800  0.535530  1.0  0.7697
  Cu  Cu17  1  0.789010  0.630130  0.868860  1.0  0.7699
  Cu  Cu18  1  0.455680  0.963470  0.202200  1.0  0.7697
  H  H19  1  0.291100  0.998600  0.953700  1.0  0.3161
  H  H20  1  0.240700  0.928800  0.881500  1.0  0.3438
  H  H21  1  0.957770  0.331930  0.287030  1.0  0.3161
  H  H22  1  0.907370  0.262130  0.214830  1.0  0.3438
  H  H23  1  0.624430  0.665270  0.620370  1.0  0.316
  H  H24  1  0.574030  0.595470  0.548170  1.0  0.344
  H  H25  1  0.001400  0.292500  0.953700  1.0  0.316
  H  H26  1  0.071200  0.311900  0.881500  1.0  0.3454
  H  H27  1  0.668070  0.625830  0.287030  1.0  0.3168
  H  H28  1  0.737870  0.645230  0.214830  1.0  0.3453
  H  H29  1  0.334730  0.959170  0.620370  1.0  0.316
  H  H30  1  0.404530  0.978570  0.548170  1.0  0.3454
  H  H31  1  0.707500  0.708900  0.953700  1.0  0.3173
  H  H32  1  0.688100  0.759300  0.881500  1.0  0.3451
  H  H33  1  0.374170  0.042230  0.287030  1.0  0.3163
  H  H34  1  0.354770  0.092630  0.214830  1.0  0.3451
  H  H35  1  0.040830  0.375570  0.620370  1.0  0.3173
  H  H36  1  0.021430  0.425970  0.548170  1.0  0.3454
  H  H37  1  0.708900  0.001400  0.046300  1.0  0.3174
  H  H38  1  0.759300  0.071200  0.118500  1.0  0.3441
  H  H39  1  0.375570  0.334730  0.379630  1.0  0.3173
  H  H40  1  0.425970  0.404530  0.451830  1.0  0.3443
  H  H41  1  0.042230  0.668070  0.712970  1.0  0.3175
  H  H42  1  0.092630  0.737870  0.785170  1.0  0.3441
  H  H43  1  0.998600  0.707500  0.046300  1.0  0.3164
  H  H44  1  0.928800  0.688100  0.118500  1.0  0.3434
  H  H45  1  0.665270  0.040830  0.379630  1.0  0.3164
  H  H46  1  0.595470  0.021430  0.451830  1.0  0.3434
  H  H47  1  0.331930  0.374170  0.712970  1.0  0.3172
  H  H48  1  0.262130  0.354770  0.785170  1.0  0.3433
  H  H49  1  0.292500  0.291100  0.046300  1.0  0.3174
  H  H50  1  0.311900  0.240700  0.118500  1.0  0.3472
  H  H51  1  0.959170  0.624430  0.379630  1.0  0.3174
  H  H52  1  0.978570  0.574030  0.451830  1.0  0.3476
  H  H53  1  0.625830  0.957770  0.712970  1.0  0.3164
  H  H54  1  0.645230  0.907370  0.785170  1.0  0.3472
  C  C55  1  0.265830  0.009830  0.750000  1.0  0.6833
  C  C56  1  0.246270  0.032490  0.530400  1.0  0.2584
  C  C57  1  0.215950  0.030690  0.379600  1.0  0.6417
  C  C58  1  0.932500  0.343160  0.083330  1.0  0.6833
  C  C59  1  0.912940  0.365820  0.863730  1.0  0.2584
  C  C60  1  0.882620  0.364020  0.712930  1.0  0.6417
  C  C61  1  0.599160  0.676500  0.416670  1.0  0.6833
  C  C62  1  0.579600  0.699160  0.197070  1.0  0.2585
  C  C63  1  0.549280  0.697360  0.046270  1.0  0.6417
  C  C64  1  0.990170  0.256000  0.750000  1.0  0.6823
  C  C65  1  0.967510  0.213780  0.530400  1.0  0.2606
  C  C66  1  0.969310  0.185260  0.379600  1.0  0.6436
  C  C67  1  0.656840  0.589330  0.083330  1.0  0.6823
  C  C68  1  0.634180  0.547110  0.863730  1.0  0.2607
  C  C69  1  0.635980  0.518590  0.712930  1.0  0.6436
  C  C70  1  0.323500  0.922670  0.416670  1.0  0.6823
  C  C71  1  0.300840  0.880450  0.197070  1.0  0.2607
  C  C72  1  0.302640  0.851930  0.046270  1.0  0.6436
  C  C73  1  0.744000  0.734170  0.750000  1.0  0.685
  C  C74  1  0.786220  0.753730  0.530400  1.0  0.2611
  C  C75  1  0.814740  0.784050  0.379600  1.0  0.6458
  C  C76  1  0.410670  0.067500  0.083330  1.0  0.685
  C  C77  1  0.452890  0.087060  0.863730  1.0  0.2611
  C  C78  1  0.481410  0.117380  0.712930  1.0  0.6458
  C  C79  1  0.077330  0.400840  0.416670  1.0  0.685
  C  C80  1  0.119550  0.420400  0.197070  1.0  0.2611
  C  C81  1  0.148070  0.450720  0.046270  1.0  0.6458
  C  C82  1  0.734170  0.990170  0.250000  1.0  0.6818
  C  C83  1  0.753730  0.967510  0.469600  1.0  0.2573
  C  C84  1  0.784050  0.969310  0.620400  1.0  0.6439
  C  C85  1  0.400840  0.323500  0.583330  1.0  0.6818
  C  C86  1  0.420400  0.300840  0.802930  1.0  0.2573
  C  C87  1  0.450720  0.302640  0.953730  1.0  0.6439
  C  C88  1  0.067500  0.656840  0.916670  1.0  0.6818
  C  C89  1  0.087060  0.634180  0.136270  1.0  0.2573
  C  C90  1  0.117380  0.635980  0.287070  1.0  0.6439
  C  C91  1  0.009830  0.744000  0.250000  1.0  0.6847
  C  C92  1  0.032490  0.786220  0.469600  1.0  0.2599
  C  C93  1  0.030690  0.814740  0.620400  1.0  0.6429
  C  C94  1  0.676500  0.077330  0.583330  1.0  0.6847
  C  C95  1  0.699160  0.119550  0.802930  1.0  0.2599
  C  C96  1  0.697360  0.148070  0.953730  1.0  0.6429
  C  C97  1  0.343160  0.410670  0.916670  1.0  0.6847
  C  C98  1  0.365820  0.452890  0.136270  1.0  0.2599
  C  C99  1  0.364020  0.481410  0.287070  1.0  0.6429
  C  C100  1  0.256000  0.265830  0.250000  1.0  0.6816
  C  C101  1  0.213780  0.246270  0.469600  1.0  0.2581
  C  C102  1  0.185260  0.215950  0.620400  1.0  0.6447
  C  C103  1  0.922670  0.599160  0.583330  1.0  0.6816
  C  C104  1  0.880450  0.579600  0.802930  1.0  0.2581
  C  C105  1  0.851930  0.549280  0.953730  1.0  0.6447
  C  C106  1  0.589330  0.932500  0.916670  1.0  0.6817
  C  C107  1  0.547110  0.912940  0.136270  1.0  0.2581
  C  C108  1  0.518590  0.882620  0.287070  1.0  0.6447
  N  N109  1  0.303550  0.081230  0.734300  1.0  -0.4037
  N  N110  1  0.265870  0.974810  0.877300  1.0  -0.7475
  N  N111  1  0.290090  0.094670  0.590100  1.0  -0.2741
  N  N112  1  0.230160  0.977030  0.623500  1.0  -0.4861
  N  N113  1  0.970220  0.414560  0.067630  1.0  -0.4033
  N  N114  1  0.932540  0.308140  0.210630  1.0  -0.7475
  N  N115  1  0.956760  0.428000  0.923430  1.0  -0.2739
  N  N116  1  0.896830  0.310360  0.956830  1.0  -0.486
  N  N117  1  0.636880  0.747900  0.400970  1.0  -0.4037
  N  N118  1  0.599200  0.641480  0.543970  1.0  -0.7475
  N  N119  1  0.623420  0.761340  0.256770  1.0  -0.2741
  N  N120  1  0.563490  0.643700  0.290170  1.0  -0.4864
  N  N121  1  0.918770  0.222320  0.734300  1.0  -0.4056
  N  N122  1  0.025190  0.291060  0.877300  1.0  -0.7482
  N  N123  1  0.905330  0.195420  0.590100  1.0  -0.271
  N  N124  1  0.022970  0.253130  0.623500  1.0  -0.4873
  N  N125  1  0.585440  0.555650  0.067630  1.0  -0.4066
  N  N126  1  0.691860  0.624390  0.210630  1.0  -0.7482
  N  N127  1  0.572000  0.528750  0.923430  1.0  -0.271
  N  N128  1  0.689640  0.586460  0.956830  1.0  -0.4873
  N  N129  1  0.252100  0.888990  0.400970  1.0  -0.4051
  N  N130  1  0.358520  0.957730  0.543970  1.0  -0.7486
  N  N131  1  0.238660  0.862090  0.256770  1.0  -0.2709
  N  N132  1  0.356300  0.919800  0.290170  1.0  -0.4874
  N  N133  1  0.777680  0.696450  0.734300  1.0  -0.4041
  N  N134  1  0.708940  0.734130  0.877300  1.0  -0.747
  N  N135  1  0.804580  0.709910  0.590100  1.0  -0.2722
  N  N136  1  0.746870  0.769840  0.623500  1.0  -0.4911
  N  N137  1  0.444350  0.029780  0.067630  1.0  -0.404
  N  N138  1  0.375610  0.067460  0.210630  1.0  -0.747
  N  N139  1  0.471250  0.043240  0.923430  1.0  -0.2722
  N  N140  1  0.413540  0.103170  0.956830  1.0  -0.4912
  N  N141  1  0.111010  0.363120  0.400970  1.0  -0.4046
  N  N142  1  0.042270  0.400800  0.543970  1.0  -0.747
  N  N143  1  0.137910  0.376580  0.256770  1.0  -0.2721
  N  N144  1  0.080200  0.436510  0.290170  1.0  -0.4911
  N  N145  1  0.696450  0.918770  0.265700  1.0  -0.4044
  N  N146  1  0.734130  0.025190  0.122700  1.0  -0.7477
  N  N147  1  0.709910  0.905330  0.409900  1.0  -0.2724
  N  N148  1  0.769840  0.022970  0.376500  1.0  -0.4858
  N  N149  1  0.363120  0.252100  0.599030  1.0  -0.4044
  N  N150  1  0.400800  0.358520  0.456030  1.0  -0.7477
  N  N151  1  0.376580  0.238660  0.743230  1.0  -0.2724
  N  N152  1  0.436510  0.356300  0.709830  1.0  -0.4861
  N  N153  1  0.029780  0.585440  0.932370  1.0  -0.4041
  N  N154  1  0.067460  0.691860  0.789370  1.0  -0.7477
  N  N155  1  0.043240  0.572000  0.076570  1.0  -0.2723
  N  N156  1  0.103170  0.689640  0.043170  1.0  -0.4858
  N  N157  1  0.081230  0.777680  0.265700  1.0  -0.4036
  N  N158  1  0.974810  0.708940  0.122700  1.0  -0.7466
  N  N159  1  0.094670  0.804580  0.409900  1.0  -0.2731
  N  N160  1  0.977030  0.746870  0.376500  1.0  -0.4865
  N  N161  1  0.747900  0.111010  0.599030  1.0  -0.4032
  N  N162  1  0.641480  0.042270  0.456030  1.0  -0.747
  N  N163  1  0.761340  0.137910  0.743230  1.0  -0.273
  N  N164  1  0.643700  0.080200  0.709830  1.0  -0.4866
  N  N165  1  0.414560  0.444350  0.932370  1.0  -0.4048
  N  N166  1  0.308140  0.375610  0.789370  1.0  -0.7466
  N  N167  1  0.428000  0.471250  0.076570  1.0  -0.2731
  N  N168  1  0.310360  0.413540  0.043170  1.0  -0.4865
  N  N169  1  0.222320  0.303550  0.265700  1.0  -0.4051
  N  N170  1  0.291060  0.265870  0.122700  1.0  -0.7482
  N  N171  1  0.195420  0.290090  0.409900  1.0  -0.2701
  N  N172  1  0.253130  0.230160  0.376500  1.0  -0.4848
  N  N173  1  0.888990  0.636880  0.599030  1.0  -0.4057
  N  N174  1  0.957730  0.599200  0.456030  1.0  -0.7482
  N  N175  1  0.862090  0.623420  0.743230  1.0  -0.27
  N  N176  1  0.919800  0.563490  0.709830  1.0  -0.4847
  N  N177  1  0.555650  0.970220  0.932370  1.0  -0.405
  N  N178  1  0.624390  0.932540  0.789370  1.0  -0.7482
  N  N179  1  0.528750  0.956760  0.076570  1.0  -0.2701
  N  N180  1  0.586460  0.896830  0.043170  1.0  -0.4848
  O  O181  1  0.237970  0.093240  0.325100  1.0  -0.5942
  O  O182  1  0.173150  0.973090  0.322100  1.0  -0.5144
  O  O183  1  0.904640  0.426570  0.658430  1.0  -0.5945
  O  O184  1  0.839820  0.306420  0.655430  1.0  -0.5142
  O  O185  1  0.571300  0.759910  0.991770  1.0  -0.5942
  O  O186  1  0.506480  0.639760  0.988770  1.0  -0.5146
  O  O187  1  0.906760  0.144730  0.325100  1.0  -0.5945
  O  O188  1  0.026910  0.200060  0.322100  1.0  -0.5123
  O  O189  1  0.573430  0.478060  0.658430  1.0  -0.5947
  O  O190  1  0.693580  0.533390  0.655430  1.0  -0.5123
  O  O191  1  0.240090  0.811400  0.991770  1.0  -0.5947
  O  O192  1  0.360240  0.866730  0.988770  1.0  -0.512
  O  O193  1  0.855270  0.762030  0.325100  1.0  -0.5944
  O  O194  1  0.799940  0.826850  0.322100  1.0  -0.5101
  O  O195  1  0.521940  0.095360  0.658430  1.0  -0.5944
  O  O196  1  0.466610  0.160180  0.655430  1.0  -0.5099
  O  O197  1  0.188600  0.428700  0.991770  1.0  -0.5946
  O  O198  1  0.133270  0.493520  0.988770  1.0  -0.5099
  O  O199  1  0.762030  0.906760  0.674900  1.0  -0.5933
  O  O200  1  0.826850  0.026910  0.677900  1.0  -0.5133
  O  O201  1  0.428700  0.240090  0.008230  1.0  -0.5933
  O  O202  1  0.493520  0.360240  0.011230  1.0  -0.5136
  O  O203  1  0.095360  0.573430  0.341570  1.0  -0.5936
  O  O204  1  0.160180  0.693580  0.344570  1.0  -0.5131
  O  O205  1  0.093240  0.855270  0.674900  1.0  -0.5965
  O  O206  1  0.973090  0.799940  0.677900  1.0  -0.5134
  O  O207  1  0.759910  0.188600  0.008230  1.0  -0.5967
  O  O208  1  0.639760  0.133270  0.011230  1.0  -0.5131
  O  O209  1  0.426570  0.521940  0.341570  1.0  -0.5968
  O  O210  1  0.306420  0.466610  0.344570  1.0  -0.5134
  O  O211  1  0.144730  0.237970  0.674900  1.0  -0.5917
  O  O212  1  0.200060  0.173150  0.677900  1.0  -0.5107
  O  O213  1  0.811400  0.571300  0.008230  1.0  -0.592
  O  O214  1  0.866730  0.506480  0.011230  1.0  -0.5104
  O  O215  1  0.478060  0.904640  0.341570  1.0  -0.5917
  O  O216  1  0.533390  0.839820  0.344570  1.0  -0.5104
