# generated using pymatgen
data_Cu8H60C33(Br4N3)2
_symmetry_space_group_name_H-M   'P 1'
_cell_length_a   6.65790000
_cell_length_b   15.25820000
_cell_length_c   15.25820000
_cell_angle_alpha   120.00000000
_cell_angle_beta   90.00000000
_cell_angle_gamma   90.00000000
_symmetry_Int_Tables_number   1
_chemical_formula_structural   Cu8H60C33(Br4N3)2
_chemical_formula_sum   'Cu8 H60 C33 Br8 N6'
_cell_volume   1342.37701092
_cell_formula_units_Z   1
loop_
 _symmetry_equiv_pos_site_id
 _symmetry_equiv_pos_as_xyz
  1  'x, y, z'
loop_
 _atom_site_type_symbol
 _atom_site_label
 _atom_site_symmetry_multiplicity
 _atom_site_fract_x
 _atom_site_fract_y
 _atom_site_fract_z
 _atom_site_occupancy
 _atom_site_charge
  Cu  Cu1  1  0.511600  0.915820  0.864310  1.0  0.1655
  Cu  Cu2  1  0.216490  0.757580  0.469370  1.0  0.1905
  Cu  Cu3  1  0.511600  0.948490  0.084180  1.0  0.1649
  Cu  Cu4  1  0.216490  0.711790  0.242420  1.0  0.191
  Cu  Cu5  1  0.511600  0.135690  0.051510  1.0  0.1645
  Cu  Cu6  1  0.216490  0.530630  0.288210  1.0  0.1836
  Cu  Cu7  1  0.857100  0.000000  0.000000  1.0  0.1595
  Cu  Cu8  1  0.873100  0.666667  0.333333  1.0  0.2071
  H  H9  1  0.097900  0.888100  0.774700  1.0  0.079
  H  H10  1  0.095600  0.796900  0.663100  1.0  0.0631
  H  H11  1  0.335000  0.973200  0.729800  1.0  0.0316
  H  H12  1  0.617000  0.874100  0.674500  1.0  0.0624
  H  H13  1  0.642700  0.789400  0.560300  1.0  0.076
  H  H14  1  0.360400  0.703200  0.585400  1.0  0.0649
  H  H15  1  0.556500  0.703600  0.643400  1.0  0.0781
  H  H16  1  0.114100  0.025900  0.645200  1.0  0.1157
  H  H17  1  0.976700  0.998600  0.711500  1.0  0.1072
  H  H18  1  0.998100  0.922600  0.595100  1.0  0.1005
  H  H19  1  0.240500  0.780200  0.847200  1.0  0.0738
  H  H20  1  0.117100  0.723500  0.747400  1.0  0.0757
  H  H21  1  0.433500  0.610300  0.699400  1.0  0.0942
  H  H22  1  0.203600  0.653400  0.867400  1.0  0.122
  H  H23  1  0.344900  0.555200  0.807300  1.0  0.1117
  H  H24  1  0.539800  0.896400  0.486900  1.0  0.1003
  H  H25  1  0.329100  0.950400  0.513600  1.0  0.0921
  H  H26  1  0.585900  0.030700  0.684100  1.0  0.1058
  H  H27  1  0.521600  0.116000  0.561700  1.0  0.1376
  H  H28  1  0.624700  0.172300  0.672000  1.0  0.1431
  H  H29  1  0.097900  0.886600  0.111900  1.0  0.0792
  H  H30  1  0.095600  0.866200  0.203100  1.0  0.0625
  H  H31  1  0.335000  0.756600  0.026800  1.0  0.0312
  H  H32  1  0.617000  0.800400  0.125900  1.0  0.0632
  H  H33  1  0.642700  0.770900  0.210600  1.0  0.0758
  H  H34  1  0.360400  0.882200  0.296800  1.0  0.0629
  H  H35  1  0.556500  0.939800  0.296400  1.0  0.0769
  H  H36  1  0.114100  0.619300  0.974100  1.0  0.1164
  H  H37  1  0.976700  0.712900  0.001400  1.0  0.1076
  H  H38  1  0.998100  0.672500  0.077400  1.0  0.1009
  H  H39  1  0.240500  0.067000  0.219800  1.0  0.0734
  H  H40  1  0.117100  0.023900  0.276500  1.0  0.0742
  H  H41  1  0.433500  0.089100  0.389700  1.0  0.0949
  H  H42  1  0.203600  0.214000  0.346600  1.0  0.1241
  H  H43  1  0.344900  0.252100  0.444800  1.0  0.1084
  H  H44  1  0.539800  0.590500  0.103600  1.0  0.0998
  H  H45  1  0.329100  0.563200  0.049600  1.0  0.0898
  H  H46  1  0.585900  0.653400  0.969300  1.0  0.1045
  H  H47  1  0.521600  0.445700  0.884000  1.0  0.1369
  H  H48  1  0.624700  0.499700  0.827700  1.0  0.1499
  H  H49  1  0.097900  0.225300  0.113400  1.0  0.0785
  H  H50  1  0.095600  0.336900  0.133800  1.0  0.0627
  H  H51  1  0.335000  0.270200  0.243400  1.0  0.0302
  H  H52  1  0.617000  0.325500  0.199600  1.0  0.062
  H  H53  1  0.642700  0.439700  0.229100  1.0  0.075
  H  H54  1  0.360400  0.414600  0.117800  1.0  0.0635
  H  H55  1  0.556500  0.356600  0.060200  1.0  0.0766
  H  H56  1  0.114100  0.354800  0.380700  1.0  0.1181
  H  H57  1  0.976700  0.288500  0.287100  1.0  0.1079
  H  H58  1  0.998100  0.404900  0.327500  1.0  0.1014
  H  H59  1  0.240500  0.152800  0.933000  1.0  0.0715
  H  H60  1  0.117100  0.252600  0.976100  1.0  0.0741
  H  H61  1  0.433500  0.300600  0.910900  1.0  0.0938
  H  H62  1  0.203600  0.132600  0.786000  1.0  0.1216
  H  H63  1  0.344900  0.192700  0.747900  1.0  0.1088
  H  H64  1  0.539800  0.513100  0.409500  1.0  0.0989
  H  H65  1  0.329100  0.486400  0.436800  1.0  0.0903
  H  H66  1  0.585900  0.315900  0.346600  1.0  0.1011
  H  H67  1  0.521600  0.438300  0.554300  1.0  0.1375
  H  H68  1  0.624700  0.328000  0.500300  1.0  0.1484
  C  C69  1  0.178900  0.849800  0.714400  1.0  -0.0877
  C  C70  1  0.253100  0.919800  0.676300  1.0  0.1185
  C  C71  1  0.547500  0.822000  0.615600  1.0  -0.02
  C  C72  1  0.453900  0.746100  0.638400  1.0  -0.0236
  C  C73  1  0.067000  0.971900  0.654900  1.0  -0.3785
  C  C74  1  0.252600  0.739200  0.774300  1.0  -0.0229
  C  C75  1  0.344800  0.645700  0.752800  1.0  -0.0604
  C  C76  1  0.292900  0.615200  0.815000  1.0  -0.294
  C  C77  1  0.444000  0.933200  0.541100  1.0  -0.0649
  C  C78  1  0.541500  0.030200  0.626000  1.0  -0.0597
  C  C79  1  0.565100  0.115100  0.619200  1.0  -0.292
  C  C80  1  0.178900  0.864600  0.150200  1.0  -0.0906
  C  C81  1  0.253100  0.756500  0.080200  1.0  0.1176
  C  C82  1  0.547500  0.793600  0.178000  1.0  -0.0231
  C  C83  1  0.453900  0.892300  0.253900  1.0  -0.0292
  C  C84  1  0.067000  0.683000  0.028100  1.0  -0.3791
  C  C85  1  0.252600  0.035100  0.260800  1.0  -0.0228
  C  C86  1  0.344800  0.107100  0.354300  1.0  -0.0611
  C  C87  1  0.292900  0.199800  0.384800  1.0  -0.2944
  C  C88  1  0.444000  0.607900  0.066800  1.0  -0.0605
  C  C89  1  0.541500  0.595800  0.969800  1.0  -0.0698
  C  C90  1  0.565100  0.504100  0.884900  1.0  -0.2908
  C  C91  1  0.178900  0.285600  0.135400  1.0  -0.088
  C  C92  1  0.253100  0.323700  0.243500  1.0  0.1182
  C  C93  1  0.547500  0.384400  0.206400  1.0  -0.0224
  C  C94  1  0.453900  0.361600  0.107700  1.0  -0.0255
  C  C95  1  0.067000  0.345100  0.317000  1.0  -0.3793
  C  C96  1  0.252600  0.225700  0.964900  1.0  -0.0246
  C  C97  1  0.344800  0.247200  0.892900  1.0  -0.0612
  C  C98  1  0.292900  0.185000  0.800200  1.0  -0.2948
  C  C99  1  0.444000  0.458900  0.392100  1.0  -0.0579
  C  C100  1  0.541500  0.374000  0.404200  1.0  -0.0612
  C  C101  1  0.565100  0.380800  0.495900  1.0  -0.2942
  Br  Br102  1  0.713040  0.828210  0.937270  1.0  -0.2937
  Br  Br103  1  0.988730  0.625270  0.461070  1.0  -0.3323
  Br  Br104  1  0.713040  0.109060  0.171790  1.0  -0.2939
  Br  Br105  1  0.988730  0.835800  0.374730  1.0  -0.332
  Br  Br106  1  0.713040  0.062730  0.890940  1.0  -0.2937
  Br  Br107  1  0.988730  0.538930  0.164200  1.0  -0.3318
  Br  Br108  1  0.221600  0.000000  0.000000  1.0  -0.2951
  Br  Br109  1  0.489800  0.666667  0.333333  1.0  -0.3016
  N  N110  1  0.346500  0.805300  0.737100  1.0  -0.1341
  N  N111  1  0.376100  0.866500  0.586800  1.0  -0.1537
  N  N112  1  0.346500  0.931800  0.194700  1.0  -0.1364
  N  N113  1  0.376100  0.720300  0.133500  1.0  -0.1547
  N  N114  1  0.346500  0.262900  0.068200  1.0  -0.1336
  N  N115  1  0.376100  0.413200  0.279700  1.0  -0.1491
