# generated using pymatgen
data_NiH9C11(NO)2
_symmetry_space_group_name_H-M   'P 1'
_cell_length_a   10.45600000
_cell_length_b   20.01700000
_cell_length_c   8.10770000
_cell_angle_alpha   90.00000000
_cell_angle_beta   102.60200000
_cell_angle_gamma   90.00000000
_symmetry_Int_Tables_number   1
_chemical_formula_structural   NiH9C11(NO)2
_chemical_formula_sum   'Ni4 H36 C44 N8 O8'
_cell_volume   1656.04305160
_cell_formula_units_Z   4
loop_
 _symmetry_equiv_pos_site_id
 _symmetry_equiv_pos_as_xyz
  1  'x, y, z'
loop_
 _atom_site_type_symbol
 _atom_site_label
 _atom_site_symmetry_multiplicity
 _atom_site_fract_x
 _atom_site_fract_y
 _atom_site_fract_z
 _atom_site_occupancy
 _atom_site_charge
  Ni  Ni1  1  0.750000  0.250000  0.000000  1.0  0.4938
  Ni  Ni2  1  0.250000  0.250000  0.500000  1.0  0.4938
  Ni  Ni3  1  0.250000  0.750000  0.000000  1.0  0.4938
  Ni  Ni4  1  0.750000  0.750000  0.500000  1.0  0.4938
  H  H5  1  0.790000  0.103200  0.912800  1.0  0.1143
  H  H6  1  0.691700  0.004200  0.912600  1.0  0.1001
  H  H7  1  0.396100  0.091900  0.079200  1.0  0.1003
  H  H8  1  0.496800  0.190400  0.075500  1.0  0.1029
  H  H9  1  0.290000  0.603200  0.912800  1.0  0.1143
  H  H10  1  0.191700  0.504200  0.912600  1.0  0.1001
  H  H11  1  0.896100  0.591900  0.079200  1.0  0.1003
  H  H12  1  0.996800  0.690400  0.075500  1.0  0.1029
  H  H13  1  0.210000  0.103200  0.587200  1.0  0.1149
  H  H14  1  0.308300  0.004200  0.587400  1.0  0.1
  H  H15  1  0.603900  0.091900  0.420800  1.0  0.1016
  H  H16  1  0.503200  0.190400  0.424500  1.0  0.102
  H  H17  1  0.710000  0.603200  0.587200  1.0  0.1149
  H  H18  1  0.808300  0.504200  0.587400  1.0  0.1
  H  H19  1  0.103900  0.591900  0.420800  1.0  0.1016
  H  H20  1  0.003200  0.690400  0.424500  1.0  0.102
  H  H21  1  0.210000  0.896800  0.087200  1.0  0.1151
  H  H22  1  0.308300  0.995800  0.087400  1.0  0.1018
  H  H23  1  0.603900  0.908100  0.920800  1.0  0.1015
  H  H24  1  0.503200  0.809600  0.924500  1.0  0.1022
  H  H25  1  0.710000  0.396800  0.087200  1.0  0.1151
  H  H26  1  0.808300  0.495800  0.087400  1.0  0.1018
  H  H27  1  0.103900  0.408100  0.920800  1.0  0.1015
  H  H28  1  0.003200  0.309600  0.924500  1.0  0.1022
  H  H29  1  0.790000  0.896800  0.412800  1.0  0.1141
  H  H30  1  0.691700  0.995800  0.412600  1.0  0.1015
  H  H31  1  0.396100  0.908100  0.579200  1.0  0.1012
  H  H32  1  0.496800  0.809600  0.575500  1.0  0.1027
  H  H33  1  0.290000  0.396800  0.412800  1.0  0.1141
  H  H34  1  0.191700  0.495800  0.412600  1.0  0.1015
  H  H35  1  0.896100  0.408100  0.579200  1.0  0.1012
  H  H36  1  0.996800  0.309600  0.575500  1.0  0.1027
  H  H37  1  0.000000  0.278400  0.250000  1.0  0.0578
  H  H38  1  0.500000  0.778400  0.250000  1.0  0.0578
  H  H39  1  0.000000  0.721600  0.750000  1.0  0.0562
  H  H40  1  0.500000  0.221600  0.750000  1.0  0.0562
  C  C41  1  0.710000  0.100320  0.944600  1.0  0.0936
  C  C42  1  0.651600  0.041730  0.946100  1.0  -0.085
  C  C43  1  0.531700  0.033550  0.996000  1.0  0.0719
  C  C44  1  0.475300  0.093800  0.045000  1.0  -0.178
  C  C45  1  0.534700  0.152100  0.042100  1.0  0.127
  C  C46  1  0.210000  0.600320  0.944600  1.0  0.0936
  C  C47  1  0.151600  0.541730  0.946100  1.0  -0.085
  C  C48  1  0.031700  0.533550  0.996000  1.0  0.0719
  C  C49  1  0.975300  0.593800  0.045000  1.0  -0.178
  C  C50  1  0.034700  0.652100  0.042100  1.0  0.127
  C  C51  1  0.290000  0.100320  0.555400  1.0  0.0945
  C  C52  1  0.348400  0.041730  0.553900  1.0  -0.0869
  C  C53  1  0.468300  0.033550  0.504000  1.0  0.0703
  C  C54  1  0.524700  0.093800  0.455000  1.0  -0.1785
  C  C55  1  0.465300  0.152100  0.457900  1.0  0.1271
  C  C56  1  0.790000  0.600320  0.555400  1.0  0.0945
  C  C57  1  0.848400  0.541730  0.553900  1.0  -0.0869
  C  C58  1  0.968300  0.533550  0.504000  1.0  0.0703
  C  C59  1  0.024700  0.593800  0.455000  1.0  -0.1785
  C  C60  1  0.965300  0.652100  0.457900  1.0  0.1271
  C  C61  1  0.290000  0.899680  0.055400  1.0  0.095
  C  C62  1  0.348400  0.958270  0.053900  1.0  -0.0868
  C  C63  1  0.468300  0.966450  0.004000  1.0  0.0699
  C  C64  1  0.524700  0.906200  0.955000  1.0  -0.1707
  C  C65  1  0.465300  0.847900  0.957900  1.0  0.1248
  C  C66  1  0.790000  0.399680  0.055400  1.0  0.095
  C  C67  1  0.848400  0.458270  0.053900  1.0  -0.0868
  C  C68  1  0.968300  0.466450  0.004000  1.0  0.0699
  C  C69  1  0.024700  0.406200  0.955000  1.0  -0.1707
  C  C70  1  0.965300  0.347900  0.957900  1.0  0.1248
  C  C71  1  0.710000  0.899680  0.444600  1.0  0.0938
  C  C72  1  0.651600  0.958270  0.446100  1.0  -0.0849
  C  C73  1  0.531700  0.966450  0.496000  1.0  0.0715
  C  C74  1  0.475300  0.906200  0.545000  1.0  -0.1701
  C  C75  1  0.534700  0.847900  0.542100  1.0  0.1255
  C  C76  1  0.210000  0.399680  0.444600  1.0  0.0938
  C  C77  1  0.151600  0.458270  0.446100  1.0  -0.0849
  C  C78  1  0.031700  0.466450  0.496000  1.0  0.0715
  C  C79  1  0.975300  0.406200  0.545000  1.0  -0.1701
  C  C80  1  0.034700  0.347900  0.542100  1.0  0.1255
  C  C81  1  0.000000  0.232000  0.250000  1.0  0.4833
  C  C82  1  0.500000  0.732000  0.250000  1.0  0.4833
  C  C83  1  0.000000  0.768000  0.750000  1.0  0.4821
  C  C84  1  0.500000  0.268000  0.750000  1.0  0.4821
  N  N85  1  0.651500  0.157220  0.990500  1.0  -0.3305
  N  N86  1  0.151500  0.657220  0.990500  1.0  -0.3305
  N  N87  1  0.348500  0.157220  0.509500  1.0  -0.3299
  N  N88  1  0.848500  0.657220  0.509500  1.0  -0.3299
  N  N89  1  0.348500  0.842780  0.009500  1.0  -0.3324
  N  N90  1  0.848500  0.342780  0.009500  1.0  -0.3324
  N  N91  1  0.651500  0.842780  0.490500  1.0  -0.3311
  N  N92  1  0.151500  0.342780  0.490500  1.0  -0.3311
  O  O93  1  0.913600  0.201600  0.146600  1.0  -0.6369
  O  O94  1  0.413600  0.701600  0.146600  1.0  -0.6369
  O  O95  1  0.086400  0.201600  0.353400  1.0  -0.6351
  O  O96  1  0.586400  0.701600  0.353400  1.0  -0.6351
  O  O97  1  0.086400  0.798400  0.853400  1.0  -0.6358
  O  O98  1  0.586400  0.298400  0.853400  1.0  -0.6358
  O  O99  1  0.913600  0.798400  0.646600  1.0  -0.6355
  O  O100  1  0.413600  0.298400  0.646600  1.0  -0.6355
