# generated using pymatgen
data_CoH9C11(NO)2
_symmetry_space_group_name_H-M   'P 1'
_cell_length_a   10.47600000
_cell_length_b   20.20500000
_cell_length_c   8.10900000
_cell_angle_alpha   90.00000000
_cell_angle_beta   102.26500000
_cell_angle_gamma   90.00000000
_symmetry_Int_Tables_number   1
_chemical_formula_structural   CoH9C11(NO)2
_chemical_formula_sum   'Co4 H36 C44 N8 O8'
_cell_volume   1677.23619415
_cell_formula_units_Z   4
loop_
 _symmetry_equiv_pos_site_id
 _symmetry_equiv_pos_as_xyz
  1  'x, y, z'
loop_
 _atom_site_type_symbol
 _atom_site_label
 _atom_site_symmetry_multiplicity
 _atom_site_fract_x
 _atom_site_fract_y
 _atom_site_fract_z
 _atom_site_occupancy
 _atom_site_charge
  Co  Co1  1  0.750000  0.250000  0.000000  1.0  0.7825
  Co  Co2  1  0.250000  0.250000  0.500000  1.0  0.7825
  Co  Co3  1  0.250000  0.750000  0.000000  1.0  0.7825
  Co  Co4  1  0.750000  0.750000  0.500000  1.0  0.7825
  H  H5  1  0.710800  0.396600  0.079300  1.0  0.0987
  H  H6  1  0.806100  0.494800  0.083800  1.0  0.0924
  H  H7  1  0.104400  0.409900  0.924100  1.0  0.0891
  H  H8  1  0.009000  0.311600  0.931300  1.0  0.0966
  H  H9  1  0.210800  0.896600  0.079300  1.0  0.0987
  H  H10  1  0.306100  0.994800  0.083800  1.0  0.092
  H  H11  1  0.604400  0.909900  0.924100  1.0  0.089
  H  H12  1  0.509000  0.811600  0.931300  1.0  0.0966
  H  H13  1  0.289200  0.396600  0.420700  1.0  0.0977
  H  H14  1  0.193900  0.494800  0.416200  1.0  0.093
  H  H15  1  0.895600  0.409900  0.575900  1.0  0.0868
  H  H16  1  0.991000  0.311600  0.568700  1.0  0.0963
  H  H17  1  0.789200  0.896600  0.420700  1.0  0.0977
  H  H18  1  0.693900  0.994800  0.416200  1.0  0.093
  H  H19  1  0.395600  0.909900  0.575900  1.0  0.0865
  H  H20  1  0.491000  0.811600  0.568700  1.0  0.0963
  H  H21  1  0.289200  0.603400  0.920700  1.0  0.0956
  H  H22  1  0.193900  0.505200  0.916200  1.0  0.0918
  H  H23  1  0.895600  0.590100  0.075900  1.0  0.0879
  H  H24  1  0.991000  0.688400  0.068700  1.0  0.0972
  H  H25  1  0.789200  0.103400  0.920700  1.0  0.0956
  H  H26  1  0.693900  0.005200  0.916200  1.0  0.0922
  H  H27  1  0.395600  0.090100  0.075900  1.0  0.0879
  H  H28  1  0.491000  0.188400  0.068700  1.0  0.0972
  H  H29  1  0.710800  0.603400  0.579300  1.0  0.097
  H  H30  1  0.806100  0.505200  0.583800  1.0  0.0911
  H  H31  1  0.104400  0.590100  0.424100  1.0  0.0899
  H  H32  1  0.009000  0.688400  0.431300  1.0  0.0969
  H  H33  1  0.210800  0.103400  0.579300  1.0  0.097
  H  H34  1  0.306100  0.005200  0.583800  1.0  0.0905
  H  H35  1  0.604400  0.090100  0.424100  1.0  0.0899
  H  H36  1  0.509000  0.188400  0.431300  1.0  0.0969
  H  H37  1  0.000000  0.273200  0.250000  1.0  0.0003
  H  H38  1  0.500000  0.773200  0.250000  1.0  0.0003
  H  H39  1  0.000000  0.726800  0.750000  1.0  -0.0017
  H  H40  1  0.500000  0.226800  0.750000  1.0  -0.0017
  C  C41  1  0.791900  0.400120  0.050500  1.0  0.1355
  C  C42  1  0.846500  0.457150  0.053100  1.0  -0.1208
  C  C43  1  0.967800  0.466650  0.003000  1.0  0.0222
  C  C44  1  0.024200  0.406420  0.955400  1.0  -0.1959
  C  C45  1  0.968500  0.349550  0.959900  1.0  0.1212
  C  C46  1  0.291900  0.900120  0.050500  1.0  0.1342
  C  C47  1  0.346500  0.957150  0.053100  1.0  -0.1198
  C  C48  1  0.467800  0.966650  0.003000  1.0  0.0222
  C  C49  1  0.524200  0.906420  0.955400  1.0  -0.1959
  C  C50  1  0.468500  0.849550  0.959900  1.0  0.1212
  C  C51  1  0.208100  0.400120  0.449500  1.0  0.1321
  C  C52  1  0.153500  0.457150  0.446900  1.0  -0.1213
  C  C53  1  0.032200  0.466650  0.497000  1.0  0.0225
  C  C54  1  0.975800  0.406420  0.544600  1.0  -0.2035
  C  C55  1  0.031500  0.349550  0.540100  1.0  0.1208
  C  C56  1  0.708100  0.900120  0.449500  1.0  0.1319
  C  C57  1  0.653500  0.957150  0.446900  1.0  -0.1213
  C  C58  1  0.532200  0.966650  0.497000  1.0  0.0225
  C  C59  1  0.475800  0.906420  0.544600  1.0  -0.2035
  C  C60  1  0.531500  0.849550  0.540100  1.0  0.1208
  C  C61  1  0.208100  0.599880  0.949500  1.0  0.1327
  C  C62  1  0.153500  0.542850  0.946900  1.0  -0.1261
  C  C63  1  0.032200  0.533350  0.997000  1.0  0.0224
  C  C64  1  0.975800  0.593580  0.044600  1.0  -0.2035
  C  C65  1  0.031500  0.650450  0.040100  1.0  0.1221
  C  C66  1  0.708100  0.099880  0.949500  1.0  0.1336
  C  C67  1  0.653500  0.042850  0.946900  1.0  -0.1261
  C  C68  1  0.532200  0.033350  0.997000  1.0  0.0224
  C  C69  1  0.475800  0.093580  0.044600  1.0  -0.2035
  C  C70  1  0.531500  0.150450  0.040100  1.0  0.1221
  C  C71  1  0.791900  0.599880  0.550500  1.0  0.1341
  C  C72  1  0.846500  0.542850  0.553100  1.0  -0.1247
  C  C73  1  0.967800  0.533350  0.503000  1.0  0.0218
  C  C74  1  0.024200  0.593580  0.455400  1.0  -0.1964
  C  C75  1  0.968500  0.650450  0.459900  1.0  0.1206
  C  C76  1  0.291900  0.099880  0.550500  1.0  0.1341
  C  C77  1  0.346500  0.042850  0.553100  1.0  -0.1247
  C  C78  1  0.467800  0.033350  0.503000  1.0  0.0218
  C  C79  1  0.524200  0.093580  0.455400  1.0  -0.1964
  C  C80  1  0.468500  0.150450  0.459900  1.0  0.1206
  C  C81  1  0.000000  0.227200  0.250000  1.0  0.5283
  C  C82  1  0.500000  0.727200  0.250000  1.0  0.5283
  C  C83  1  0.000000  0.772800  0.750000  1.0  0.5271
  C  C84  1  0.500000  0.272800  0.750000  1.0  0.5271
  N  N85  1  0.851100  0.344470  0.006100  1.0  -0.3494
  N  N86  1  0.351100  0.844470  0.006100  1.0  -0.3494
  N  N87  1  0.148900  0.344470  0.493900  1.0  -0.3495
  N  N88  1  0.648900  0.844470  0.493900  1.0  -0.3495
  N  N89  1  0.148900  0.655530  0.993900  1.0  -0.3511
  N  N90  1  0.648900  0.155530  0.993900  1.0  -0.3511
  N  N91  1  0.851100  0.655530  0.506100  1.0  -0.3487
  N  N92  1  0.351100  0.155530  0.506100  1.0  -0.3487
  O  O93  1  0.911500  0.201530  0.150100  1.0  -0.6335
  O  O94  1  0.411500  0.701530  0.150100  1.0  -0.6335
  O  O95  1  0.088500  0.201530  0.349900  1.0  -0.6338
  O  O96  1  0.588500  0.701530  0.349900  1.0  -0.6338
  O  O97  1  0.088500  0.798470  0.849900  1.0  -0.6337
  O  O98  1  0.588500  0.298470  0.849900  1.0  -0.6337
  O  O99  1  0.911500  0.798470  0.650100  1.0  -0.6327
  O  O100  1  0.411500  0.298470  0.650100  1.0  -0.6327
