# generated using pymatgen
data_NiH11C16N3O2
_symmetry_space_group_name_H-M   'P 1'
_cell_length_a   15.07210000
_cell_length_b   24.76940000
_cell_length_c   15.17070000
_cell_angle_alpha   90.00000000
_cell_angle_beta   110.54100000
_cell_angle_gamma   90.00000000
_symmetry_Int_Tables_number   1
_chemical_formula_structural   NiH11C16N3O2
_chemical_formula_sum   'Ni4 H44 C64 N12 O8'
_cell_volume   5303.54403281
_cell_formula_units_Z   4
loop_
 _symmetry_equiv_pos_site_id
 _symmetry_equiv_pos_as_xyz
  1  'x, y, z'
loop_
 _atom_site_type_symbol
 _atom_site_label
 _atom_site_symmetry_multiplicity
 _atom_site_fract_x
 _atom_site_fract_y
 _atom_site_fract_z
 _atom_site_occupancy
 _atom_site_charge
  Ni  Ni1  1  0.396210  0.522270  0.108120  1.0  0.6502
  Ni  Ni2  1  0.603790  0.022270  0.891880  1.0  0.6507
  Ni  Ni3  1  0.603790  0.477730  0.891880  1.0  0.6551
  Ni  Ni4  1  0.396210  0.977730  0.108120  1.0  0.6548
  H  H5  1  0.248300  0.484300  0.189400  1.0  0.0664
  H  H6  1  0.084800  0.477800  0.147400  1.0  0.0956
  H  H7  1  0.057100  0.531700  0.894800  1.0  0.0875
  H  H8  1  0.219600  0.541300  0.941400  1.0  0.0809
  H  H9  1  0.265200  0.710100  0.056200  1.0  0.1678
  H  H10  1  0.538100  0.709100  0.172800  1.0  0.092
  H  H11  1  0.532300  0.614100  0.182100  1.0  0.0678
  H  H12  1  0.517200  0.455600  0.263400  1.0  0.0891
  H  H13  1  0.561600  0.444700  0.422600  1.0  0.0796
  H  H14  1  0.410500  0.573500  0.434800  1.0  0.0914
  H  H15  1  0.377400  0.585200  0.278200  1.0  0.0553
  H  H16  1  0.751700  0.984300  0.810600  1.0  0.0664
  H  H17  1  0.915200  0.977800  0.852600  1.0  0.0952
  H  H18  1  0.942900  0.031700  0.105200  1.0  0.0883
  H  H19  1  0.780400  0.041300  0.058600  1.0  0.0823
  H  H20  1  0.734800  0.210100  0.943800  1.0  0.1671
  H  H21  1  0.461900  0.209100  0.827200  1.0  0.0894
  H  H22  1  0.467700  0.114100  0.817900  1.0  0.0696
  H  H23  1  0.482800  0.955600  0.736600  1.0  0.0898
  H  H24  1  0.438400  0.944700  0.577400  1.0  0.08
  H  H25  1  0.589500  0.073500  0.565200  1.0  0.0912
  H  H26  1  0.622600  0.085200  0.721800  1.0  0.0555
  H  H27  1  0.751700  0.515700  0.810600  1.0  0.0663
  H  H28  1  0.915200  0.522200  0.852600  1.0  0.0955
  H  H29  1  0.942900  0.468300  0.105200  1.0  0.0878
  H  H30  1  0.780400  0.458700  0.058600  1.0  0.0822
  H  H31  1  0.734800  0.289900  0.943800  1.0  0.1662
  H  H32  1  0.461900  0.290900  0.827200  1.0  0.0921
  H  H33  1  0.467700  0.385900  0.817900  1.0  0.0682
  H  H34  1  0.482800  0.544400  0.736600  1.0  0.0899
  H  H35  1  0.438400  0.555300  0.577400  1.0  0.0803
  H  H36  1  0.589500  0.426500  0.565200  1.0  0.0913
  H  H37  1  0.622600  0.414800  0.721800  1.0  0.0556
  H  H38  1  0.248300  0.015700  0.189400  1.0  0.0661
  H  H39  1  0.084800  0.022200  0.147400  1.0  0.0963
  H  H40  1  0.057100  0.968300  0.894800  1.0  0.087
  H  H41  1  0.219600  0.958700  0.941400  1.0  0.0809
  H  H42  1  0.265200  0.789900  0.056200  1.0  0.167
  H  H43  1  0.538100  0.790900  0.172800  1.0  0.0894
  H  H44  1  0.532300  0.885900  0.182100  1.0  0.0685
  H  H45  1  0.517200  0.044400  0.263400  1.0  0.0894
  H  H46  1  0.561600  0.055300  0.422600  1.0  0.0808
  H  H47  1  0.410500  0.926500  0.434800  1.0  0.0912
  H  H48  1  0.377400  0.914800  0.278200  1.0  0.0555
  C  C49  1  0.209500  0.495900  0.130100  1.0  0.1288
  C  C50  1  0.110700  0.490400  0.104000  1.0  -0.1855
  C  C51  1  0.052700  0.503500  0.014400  1.0  0.0346
  C  C52  1  0.094500  0.522500  0.956000  1.0  -0.169
  C  C53  1  0.192700  0.528900  0.984200  1.0  0.0879
  C  C54  1  0.322700  0.636300  0.080700  1.0  0.1854
  C  C55  1  0.322300  0.691800  0.081900  1.0  -0.031
  C  C56  1  0.404000  0.720200  0.119800  1.0  0.0818
  C  C57  1  0.479700  0.691700  0.150500  1.0  -0.1513
  C  C58  1  0.476800  0.633200  0.151500  1.0  0.1076
  C  C59  1  0.546500  0.498300  0.044000  1.0  0.6044
  C  C60  1  0.495300  0.479600  0.298300  1.0  0.083
  C  C61  1  0.520700  0.472800  0.394200  1.0  -0.1042
  C  C62  1  0.489000  0.505400  0.449900  1.0  -0.0189
  C  C63  1  0.433400  0.548700  0.401900  1.0  -0.175
  C  C64  1  0.412300  0.555000  0.307000  1.0  0.1368
  C  C65  1  0.790500  0.995900  0.869900  1.0  0.1291
  C  C66  1  0.889300  0.990400  0.896000  1.0  -0.1889
  C  C67  1  0.947300  0.003500  0.985600  1.0  0.0349
  C  C68  1  0.905500  0.022500  0.044000  1.0  -0.1718
  C  C69  1  0.807300  0.028900  0.015800  1.0  0.0878
  C  C70  1  0.677300  0.136300  0.919300  1.0  0.1842
  C  C71  1  0.677700  0.191800  0.918100  1.0  -0.0341
  C  C72  1  0.596000  0.220200  0.880200  1.0  0.0815
  C  C73  1  0.520300  0.191700  0.849500  1.0  -0.1514
  C  C74  1  0.523200  0.133200  0.848500  1.0  0.1091
  C  C75  1  0.453500  0.998300  0.956000  1.0  0.6049
  C  C76  1  0.504700  0.979600  0.701700  1.0  0.0846
  C  C77  1  0.479300  0.972800  0.605800  1.0  -0.1029
  C  C78  1  0.511000  0.005400  0.550100  1.0  -0.0189
  C  C79  1  0.566600  0.048700  0.598100  1.0  -0.174
  C  C80  1  0.587700  0.055000  0.693000  1.0  0.1374
  C  C81  1  0.790500  0.504100  0.869900  1.0  0.1262
  C  C82  1  0.889300  0.509600  0.896000  1.0  -0.19
  C  C83  1  0.947300  0.496500  0.985600  1.0  0.035
  C  C84  1  0.905500  0.477500  0.044000  1.0  -0.1707
  C  C85  1  0.807300  0.471100  0.015800  1.0  0.0878
  C  C86  1  0.677300  0.363700  0.919300  1.0  0.1842
  C  C87  1  0.677700  0.308200  0.918100  1.0  -0.0371
  C  C88  1  0.596000  0.279800  0.880200  1.0  0.0808
  C  C89  1  0.520300  0.308300  0.849500  1.0  -0.1509
  C  C90  1  0.523200  0.366800  0.848500  1.0  0.1085
  C  C91  1  0.453500  0.501700  0.956000  1.0  0.6049
  C  C92  1  0.504700  0.520400  0.701700  1.0  0.0826
  C  C93  1  0.479300  0.527200  0.605800  1.0  -0.1037
  C  C94  1  0.511000  0.494600  0.550100  1.0  -0.0189
  C  C95  1  0.566600  0.451300  0.598100  1.0  -0.1748
  C  C96  1  0.587700  0.445000  0.693000  1.0  0.1375
  C  C97  1  0.209500  0.004100  0.130100  1.0  0.1249
  C  C98  1  0.110700  0.009600  0.104000  1.0  -0.186
  C  C99  1  0.052700  0.996500  0.014400  1.0  0.0347
  C  C100  1  0.094500  0.977500  0.956000  1.0  -0.1683
  C  C101  1  0.192700  0.971100  0.984200  1.0  0.0879
  C  C102  1  0.322700  0.863700  0.080700  1.0  0.1854
  C  C103  1  0.322300  0.808200  0.081900  1.0  -0.0343
  C  C104  1  0.404000  0.779800  0.119800  1.0  0.0813
  C  C105  1  0.479700  0.808300  0.150500  1.0  -0.1505
  C  C106  1  0.476800  0.866800  0.151500  1.0  0.1077
  C  C107  1  0.546500  0.001700  0.044000  1.0  0.6044
  C  C108  1  0.495300  0.020400  0.298300  1.0  0.0824
  C  C109  1  0.520700  0.027200  0.394200  1.0  -0.1045
  C  C110  1  0.489000  0.994600  0.449900  1.0  -0.0189
  C  C111  1  0.433400  0.951300  0.401900  1.0  -0.1749
  C  C112  1  0.412300  0.945000  0.307000  1.0  0.1373
  N  N113  1  0.438000  0.521300  0.254700  1.0  -0.3442
  N  N114  1  0.248500  0.517200  0.073000  1.0  -0.3482
  N  N115  1  0.398500  0.606600  0.110700  1.0  -0.3344
  N  N116  1  0.562000  0.021300  0.745300  1.0  -0.3433
  N  N117  1  0.751500  0.017200  0.927000  1.0  -0.3518
  N  N118  1  0.601500  0.106600  0.889300  1.0  -0.3329
  N  N119  1  0.562000  0.478700  0.745300  1.0  -0.3436
  N  N120  1  0.751500  0.482800  0.927000  1.0  -0.3491
  N  N121  1  0.601500  0.393400  0.889300  1.0  -0.3341
  N  N122  1  0.438000  0.978700  0.254700  1.0  -0.3444
  N  N123  1  0.248500  0.982800  0.073000  1.0  -0.348
  N  N124  1  0.398500  0.893400  0.110700  1.0  -0.335
  O  O125  1  0.620400  0.482700  0.034800  1.0  -0.6216
  O  O126  1  0.536600  0.512600  0.120100  1.0  -0.5855
  O  O127  1  0.379600  0.982700  0.965200  1.0  -0.6255
  O  O128  1  0.463400  0.012600  0.879900  1.0  -0.5857
  O  O129  1  0.379600  0.517300  0.965200  1.0  -0.6227
  O  O130  1  0.463400  0.487400  0.879900  1.0  -0.5861
  O  O131  1  0.620400  0.017300  0.034800  1.0  -0.6219
  O  O132  1  0.536600  0.987400  0.120100  1.0  -0.5859
