# generated using pymatgen
data_YH3(C3O2)3
_symmetry_space_group_name_H-M   'P 1'
_cell_length_a   10.22300000
_cell_length_b   10.22300000
_cell_length_c   14.49300000
_cell_angle_alpha   90.00000000
_cell_angle_beta   90.00000000
_cell_angle_gamma   90.00000000
_symmetry_Int_Tables_number   1
_chemical_formula_structural   YH3(C3O2)3
_chemical_formula_sum   'Y4 H12 C36 O24'
_cell_volume   1514.65950240
_cell_formula_units_Z   4
loop_
 _symmetry_equiv_pos_site_id
 _symmetry_equiv_pos_as_xyz
  1  'x, y, z'
loop_
 _atom_site_type_symbol
 _atom_site_label
 _atom_site_symmetry_multiplicity
 _atom_site_fract_x
 _atom_site_fract_y
 _atom_site_fract_z
 _atom_site_occupancy
 _atom_site_charge
  Y  Y1  1  0.650230  0.650230  0.875000  1.0  2.1014
  Y  Y2  1  0.349770  0.349770  0.375000  1.0  2.1012
  Y  Y3  1  0.349770  0.650230  0.125000  1.0  2.1011
  Y  Y4  1  0.650230  0.349770  0.625000  1.0  2.1012
  H  H5  1  0.941600  0.575700  0.121400  1.0  0.1124
  H  H6  1  0.058400  0.424300  0.621400  1.0  0.1123
  H  H7  1  0.424300  0.941600  0.371400  1.0  0.1125
  H  H8  1  0.575700  0.058400  0.871400  1.0  0.1122
  H  H9  1  0.058400  0.575700  0.878600  1.0  0.1129
  H  H10  1  0.941600  0.424300  0.378600  1.0  0.1129
  H  H11  1  0.575700  0.941600  0.628600  1.0  0.113
  H  H12  1  0.424300  0.058400  0.128600  1.0  0.1127
  H  H13  1  0.603200  0.500000  0.250000  1.0  0.0724
  H  H14  1  0.396800  0.500000  0.750000  1.0  0.0733
  H  H15  1  0.500000  0.603200  0.500000  1.0  0.0716
  H  H16  1  0.500000  0.396800  0.000000  1.0  0.0706
  C  C17  1  0.755000  0.549000  0.171400  1.0  -0.2006
  C  C18  1  0.894000  0.547000  0.172100  1.0  0.0427
  C  C19  1  0.674000  0.589000  0.093000  1.0  0.7908
  C  C20  1  0.245000  0.451000  0.671400  1.0  -0.2045
  C  C21  1  0.106000  0.453000  0.672100  1.0  0.0431
  C  C22  1  0.326000  0.411000  0.593000  1.0  0.7896
  C  C23  1  0.451000  0.755000  0.421400  1.0  -0.2041
  C  C24  1  0.453000  0.894000  0.422100  1.0  0.0438
  C  C25  1  0.411000  0.674000  0.343000  1.0  0.7899
  C  C26  1  0.549000  0.245000  0.921400  1.0  -0.2025
  C  C27  1  0.547000  0.106000  0.922100  1.0  0.0431
  C  C28  1  0.589000  0.326000  0.843000  1.0  0.7887
  C  C29  1  0.245000  0.549000  0.828600  1.0  -0.2025
  C  C30  1  0.106000  0.547000  0.827900  1.0  0.0439
  C  C31  1  0.326000  0.589000  0.907000  1.0  0.7889
  C  C32  1  0.755000  0.451000  0.328600  1.0  -0.2009
  C  C33  1  0.894000  0.453000  0.327900  1.0  0.0438
  C  C34  1  0.674000  0.411000  0.407000  1.0  0.7912
  C  C35  1  0.549000  0.755000  0.578600  1.0  -0.2021
  C  C36  1  0.547000  0.894000  0.577900  1.0  0.0435
  C  C37  1  0.589000  0.674000  0.657000  1.0  0.7888
  C  C38  1  0.451000  0.245000  0.078600  1.0  -0.2034
  C  C39  1  0.453000  0.106000  0.077900  1.0  0.0438
  C  C40  1  0.411000  0.326000  0.157000  1.0  0.7894
  C  C41  1  0.694000  0.500000  0.250000  1.0  0.0172
  C  C42  1  0.957000  0.500000  0.250000  1.0  -0.1562
  C  C43  1  0.114000  0.500000  0.250000  1.0  0.7844
  C  C44  1  0.306000  0.500000  0.750000  1.0  0.0246
  C  C45  1  0.043000  0.500000  0.750000  1.0  -0.1568
  C  C46  1  0.886000  0.500000  0.750000  1.0  0.7842
  C  C47  1  0.500000  0.694000  0.500000  1.0  0.0221
  C  C48  1  0.500000  0.957000  0.500000  1.0  -0.1534
  C  C49  1  0.500000  0.114000  0.500000  1.0  0.7836
  C  C50  1  0.500000  0.306000  0.000000  1.0  0.022
  C  C51  1  0.500000  0.043000  0.000000  1.0  -0.154
  C  C52  1  0.500000  0.886000  0.000000  1.0  0.7826
  O  O53  1  0.739000  0.594800  0.014400  1.0  -0.7433
  O  O54  1  0.561000  0.616000  0.102000  1.0  -0.6889
  O  O55  1  0.164600  0.422100  0.307500  1.0  -0.7221
  O  O56  1  0.261000  0.405200  0.514400  1.0  -0.7441
  O  O57  1  0.439000  0.384000  0.602000  1.0  -0.688
  O  O58  1  0.835400  0.577900  0.807500  1.0  -0.7228
  O  O59  1  0.405200  0.739000  0.264400  1.0  -0.7463
  O  O60  1  0.384000  0.561000  0.352000  1.0  -0.6893
  O  O61  1  0.577900  0.164600  0.557500  1.0  -0.7211
  O  O62  1  0.594800  0.261000  0.764400  1.0  -0.7391
  O  O63  1  0.616000  0.439000  0.852000  1.0  -0.6886
  O  O64  1  0.422100  0.835400  0.057500  1.0  -0.7219
  O  O65  1  0.261000  0.594800  0.985600  1.0  -0.746
  O  O66  1  0.439000  0.616000  0.898000  1.0  -0.6884
  O  O67  1  0.835400  0.422100  0.692500  1.0  -0.7217
  O  O68  1  0.739000  0.405200  0.485600  1.0  -0.7462
  O  O69  1  0.561000  0.384000  0.398000  1.0  -0.6891
  O  O70  1  0.164600  0.577900  0.192500  1.0  -0.7229
  O  O71  1  0.594800  0.739000  0.735600  1.0  -0.7447
  O  O72  1  0.616000  0.561000  0.648000  1.0  -0.6883
  O  O73  1  0.422100  0.164600  0.442500  1.0  -0.7204
  O  O74  1  0.405200  0.261000  0.235600  1.0  -0.7453
  O  O75  1  0.384000  0.439000  0.148000  1.0  -0.689
  O  O76  1  0.577900  0.835400  0.942500  1.0  -0.7207
