# generated using pymatgen
data_ThH6C14(NO4)2
_symmetry_space_group_name_H-M   'P 1'
_cell_length_a   6.66020000
_cell_length_b   11.69410000
_cell_length_c   22.78800000
_cell_angle_alpha   90.00000000
_cell_angle_beta   90.00000000
_cell_angle_gamma   90.00000000
_symmetry_Int_Tables_number   1
_chemical_formula_structural   ThH6C14(NO4)2
_chemical_formula_sum   'Th4 H24 C56 N8 O32'
_cell_volume   1774.84440136
_cell_formula_units_Z   4
loop_
 _symmetry_equiv_pos_site_id
 _symmetry_equiv_pos_as_xyz
  1  'x, y, z'
loop_
 _atom_site_type_symbol
 _atom_site_label
 _atom_site_symmetry_multiplicity
 _atom_site_fract_x
 _atom_site_fract_y
 _atom_site_fract_z
 _atom_site_occupancy
 _atom_site_charge
  Th  Th1  1  0.767000  0.404130  0.862010  1.0  2.4598
  Th  Th2  1  0.733000  0.595870  0.362010  1.0  2.4561
  Th  Th3  1  0.233000  0.904130  0.637990  1.0  2.4581
  Th  Th4  1  0.267000  0.095870  0.137990  1.0  2.4596
  H  H5  1  0.751600  0.970500  0.030600  1.0  0.1112
  H  H6  1  0.742900  0.097900  0.868900  1.0  0.0683
  H  H7  1  0.210800  0.469200  0.775200  1.0  0.0671
  H  H8  1  0.398700  0.417400  0.696100  1.0  0.122
  H  H9  1  0.738100  0.942800  0.928800  1.0  0.1274
  H  H10  1  0.289400  0.279700  0.634700  1.0  0.117
  H  H11  1  0.748400  0.029500  0.530600  1.0  0.1115
  H  H12  1  0.757100  0.902100  0.368900  1.0  0.0682
  H  H13  1  0.289200  0.530800  0.275200  1.0  0.0675
  H  H14  1  0.101300  0.582600  0.196100  1.0  0.1223
  H  H15  1  0.761900  0.057200  0.428800  1.0  0.1272
  H  H16  1  0.210600  0.720300  0.134700  1.0  0.1167
  H  H17  1  0.248400  0.470500  0.469400  1.0  0.111
  H  H18  1  0.257100  0.597900  0.631100  1.0  0.068
  H  H19  1  0.789200  0.969200  0.724800  1.0  0.0674
  H  H20  1  0.601300  0.917400  0.803900  1.0  0.1213
  H  H21  1  0.261900  0.442800  0.571200  1.0  0.1271
  H  H22  1  0.710600  0.779700  0.865300  1.0  0.1168
  H  H23  1  0.251600  0.529500  0.969400  1.0  0.1115
  H  H24  1  0.242900  0.402100  0.131100  1.0  0.0681
  H  H25  1  0.710800  0.030800  0.224800  1.0  0.067
  H  H26  1  0.898700  0.082600  0.303900  1.0  0.1226
  H  H27  1  0.238100  0.557200  0.071200  1.0  0.1268
  H  H28  1  0.789400  0.220300  0.365300  1.0  0.1166
  C  C29  1  0.754000  0.231800  0.986900  1.0  0.1259
  C  C30  1  0.766000  0.354300  0.005400  1.0  0.6281
  C  C31  1  0.761000  0.142000  0.026900  1.0  -0.2007
  C  C32  1  0.760000  0.155500  0.092000  1.0  0.8187
  C  C33  1  0.752000  0.032700  0.005300  1.0  0.0588
  C  C34  1  0.745000  0.109400  0.909300  1.0  0.2017
  C  C35  1  0.163700  0.411200  0.751000  1.0  0.2058
  C  C36  1  0.277000  0.381200  0.703100  1.0  -0.1441
  C  C37  1  0.744000  0.016100  0.944600  1.0  -0.1308
  C  C38  1  0.723000  0.224500  0.746100  1.0  0.636
  C  C39  1  0.917000  0.281200  0.727200  1.0  0.1233
  C  C40  1  0.023000  0.246900  0.677900  1.0  -0.1399
  C  C41  1  0.213000  0.300900  0.666900  1.0  0.0145
  C  C42  1  0.946700  0.159700  0.635000  1.0  0.73
  C  C43  1  0.746000  0.768200  0.486900  1.0  0.1258
  C  C44  1  0.734000  0.645700  0.505400  1.0  0.629
  C  C45  1  0.739000  0.858000  0.526900  1.0  -0.2
  C  C46  1  0.740000  0.844500  0.592000  1.0  0.8187
  C  C47  1  0.748000  0.967300  0.505300  1.0  0.0595
  C  C48  1  0.755000  0.890600  0.409300  1.0  0.1997
  C  C49  1  0.336300  0.588800  0.251000  1.0  0.2054
  C  C50  1  0.223000  0.618800  0.203100  1.0  -0.1446
  C  C51  1  0.756000  0.983900  0.444600  1.0  -0.1312
  C  C52  1  0.777000  0.775500  0.246100  1.0  0.6362
  C  C53  1  0.583000  0.718800  0.227200  1.0  0.1231
  C  C54  1  0.477000  0.753100  0.177900  1.0  -0.139
  C  C55  1  0.287000  0.699100  0.166900  1.0  0.0159
  C  C56  1  0.553300  0.840300  0.135000  1.0  0.7298
  C  C57  1  0.246000  0.731800  0.513100  1.0  0.1259
  C  C58  1  0.234000  0.854300  0.494600  1.0  0.6284
  C  C59  1  0.239000  0.642000  0.473100  1.0  -0.1999
  C  C60  1  0.240000  0.655500  0.408000  1.0  0.8173
  C  C61  1  0.248000  0.532700  0.494700  1.0  0.0601
  C  C62  1  0.255000  0.609400  0.590700  1.0  0.2038
  C  C63  1  0.836300  0.911200  0.749000  1.0  0.2054
  C  C64  1  0.723000  0.881200  0.796900  1.0  -0.1449
  C  C65  1  0.256000  0.516100  0.555400  1.0  -0.1306
  C  C66  1  0.277000  0.724500  0.753900  1.0  0.6362
  C  C67  1  0.083000  0.781200  0.772800  1.0  0.123
  C  C68  1  0.977000  0.746900  0.822100  1.0  -0.1379
  C  C69  1  0.787000  0.800900  0.833100  1.0  0.0165
  C  C70  1  0.053300  0.659700  0.865000  1.0  0.7307
  C  C71  1  0.254000  0.268200  0.013100  1.0  0.1256
  C  C72  1  0.266000  0.145700  0.994600  1.0  0.6282
  C  C73  1  0.261000  0.358000  0.973100  1.0  -0.2018
  C  C74  1  0.260000  0.344500  0.908000  1.0  0.815
  C  C75  1  0.252000  0.467300  0.994700  1.0  0.0595
  C  C76  1  0.245000  0.390600  0.090700  1.0  0.2036
  C  C77  1  0.663700  0.088800  0.249000  1.0  0.2042
  C  C78  1  0.777000  0.118800  0.296900  1.0  -0.1445
  C  C79  1  0.244000  0.483900  0.055400  1.0  -0.1315
  C  C80  1  0.223000  0.275500  0.253900  1.0  0.6364
  C  C81  1  0.417000  0.218800  0.272800  1.0  0.1231
  C  C82  1  0.523000  0.253100  0.322100  1.0  -0.1385
  C  C83  1  0.713000  0.199100  0.333100  1.0  0.0154
  C  C84  1  0.446700  0.340300  0.365000  1.0  0.731
  N  N85  1  0.749000  0.216500  0.929000  1.0  -0.424
  N  N86  1  0.989500  0.361400  0.764600  1.0  -0.4755
  N  N87  1  0.751000  0.783500  0.429000  1.0  -0.4236
  N  N88  1  0.510500  0.638600  0.264600  1.0  -0.4725
  N  N89  1  0.251000  0.716500  0.571000  1.0  -0.4244
  N  N90  1  0.010500  0.861400  0.735400  1.0  -0.47
  N  N91  1  0.249000  0.283500  0.071000  1.0  -0.4237
  N  N92  1  0.489500  0.138600  0.235400  1.0  -0.4742
  O  O93  1  0.770400  0.427900  0.963900  1.0  -0.7091
  O  O94  1  0.773900  0.378100  0.057800  1.0  -0.5065
  O  O95  1  0.639400  0.159800  0.712800  1.0  -0.5388
  O  O96  1  0.669700  0.251300  0.799200  1.0  -0.679
  O  O97  1  0.589100  0.168600  0.116700  1.0  -0.6957
  O  O98  1  0.006100  0.057800  0.639000  1.0  -0.7416
  O  O99  1  0.917700  0.144300  0.119700  1.0  -0.6866
  O  O100  1  0.828600  0.193400  0.594900  1.0  -0.5461
  O  O101  1  0.729600  0.572100  0.463900  1.0  -0.7104
  O  O102  1  0.726100  0.621900  0.557800  1.0  -0.505
  O  O103  1  0.860600  0.840200  0.212800  1.0  -0.5378
  O  O104  1  0.830300  0.748700  0.299200  1.0  -0.6777
  O  O105  1  0.910900  0.831400  0.616700  1.0  -0.6968
  O  O106  1  0.493900  0.942200  0.139000  1.0  -0.7421
  O  O107  1  0.582300  0.855700  0.619700  1.0  -0.6873
  O  O108  1  0.671400  0.806600  0.094900  1.0  -0.5455
  O  O109  1  0.229600  0.927900  0.536100  1.0  -0.7123
  O  O110  1  0.226100  0.878100  0.442200  1.0  -0.5052
  O  O111  1  0.360600  0.659800  0.787200  1.0  -0.5368
  O  O112  1  0.330300  0.751300  0.700800  1.0  -0.6761
  O  O113  1  0.410900  0.668600  0.383300  1.0  -0.698
  O  O114  1  0.993900  0.557800  0.861000  1.0  -0.7419
  O  O115  1  0.082300  0.644300  0.380300  1.0  -0.6873
  O  O116  1  0.171400  0.693400  0.905100  1.0  -0.5455
  O  O117  1  0.270400  0.072100  0.036100  1.0  -0.709
  O  O118  1  0.273900  0.121900  0.942200  1.0  -0.5052
  O  O119  1  0.139400  0.340200  0.287200  1.0  -0.5381
  O  O120  1  0.169700  0.248700  0.200800  1.0  -0.678
  O  O121  1  0.089100  0.331400  0.883300  1.0  -0.6989
  O  O122  1  0.506100  0.442200  0.361000  1.0  -0.7417
  O  O123  1  0.417700  0.355700  0.880300  1.0  -0.6872
  O  O124  1  0.328600  0.306600  0.405100  1.0  -0.5449
