# generated using pymatgen
data_ThH4C12(NO2)4
_symmetry_space_group_name_H-M   'P 1'
_cell_length_a   7.24530000
_cell_length_b   9.42180000
_cell_length_c   14.09170000
_cell_angle_alpha   78.31390000
_cell_angle_beta   75.10340000
_cell_angle_gamma   67.38760000
_symmetry_Int_Tables_number   1
_chemical_formula_structural   ThH4C12(NO2)4
_chemical_formula_sum   'Th2 H8 C24 N8 O16'
_cell_volume   852.34155894
_cell_formula_units_Z   2
loop_
 _symmetry_equiv_pos_site_id
 _symmetry_equiv_pos_as_xyz
  1  'x, y, z'
loop_
 _atom_site_type_symbol
 _atom_site_label
 _atom_site_symmetry_multiplicity
 _atom_site_fract_x
 _atom_site_fract_y
 _atom_site_fract_z
 _atom_site_occupancy
 _atom_site_charge
  Th  Th1  1  0.227200  0.750000  0.250000  1.0  2.2942
  Th  Th2  1  0.772800  0.250000  0.750000  1.0  2.2938
  H  H3  1  0.821100  0.493500  0.928100  1.0  0.0922
  H  H4  1  0.804700  0.376800  0.476400  1.0  0.0753
  H  H5  1  0.242700  0.006500  0.571900  1.0  0.0931
  H  H6  1  0.657900  0.123200  0.023600  1.0  0.075
  H  H7  1  0.178900  0.506500  0.071900  1.0  0.0929
  H  H8  1  0.195300  0.623200  0.523600  1.0  0.0752
  H  H9  1  0.757300  0.993500  0.428100  1.0  0.0923
  H  H10  1  0.342100  0.876800  0.976400  1.0  0.0747
  C  C11  1  0.578400  0.580900  0.034700  1.0  0.1264
  C  C12  1  0.659600  0.679700  0.073500  1.0  0.6325
  C  C13  1  0.689600  0.494800  0.956400  1.0  0.168
  C  C14  1  0.884800  0.426200  0.487800  1.0  0.1818
  C  C15  1  0.969300  0.512900  0.408900  1.0  0.1394
  C  C16  1  0.949400  0.516900  0.304500  1.0  0.6834
  C  C17  1  0.194000  0.919100  0.465300  1.0  0.1282
  C  C18  1  0.412800  0.820300  0.426500  1.0  0.6319
  C  C19  1  0.140800  0.005200  0.543600  1.0  0.1715
  C  C20  1  0.798800  0.073800  0.012200  1.0  0.1821
  C  C21  1  0.891100  0.987100  0.091100  1.0  0.1387
  C  C22  1  0.770800  0.983100  0.195500  1.0  0.6738
  C  C23  1  0.421600  0.419100  0.965300  1.0  0.1284
  C  C24  1  0.340400  0.320300  0.926500  1.0  0.6324
  C  C25  1  0.310400  0.505200  0.043600  1.0  0.1612
  C  C26  1  0.115200  0.573800  0.512200  1.0  0.1685
  C  C27  1  0.030700  0.487100  0.591100  1.0  0.1406
  C  C28  1  0.050600  0.483100  0.695500  1.0  0.6797
  C  C29  1  0.806000  0.080900  0.534700  1.0  0.1291
  C  C30  1  0.587200  0.179700  0.573500  1.0  0.6319
  C  C31  1  0.859200  0.994800  0.456400  1.0  0.1639
  C  C32  1  0.201200  0.926200  0.987800  1.0  0.1689
  C  C33  1  0.108900  0.012900  0.908900  1.0  0.1404
  C  C34  1  0.229200  0.016900  0.804500  1.0  0.675
  N  N35  1  0.388600  0.586090  0.079310  1.0  -0.4361
  N  N36  1  0.084270  0.587760  0.421100  1.0  -0.4302
  N  N37  1  0.054000  0.913910  0.420690  1.0  -0.4421
  N  N38  1  0.093130  0.912240  0.078900  1.0  -0.4304
  N  N39  1  0.611400  0.413910  0.920690  1.0  -0.4407
  N  N40  1  0.915730  0.412240  0.578900  1.0  -0.4286
  N  N41  1  0.946000  0.086090  0.579310  1.0  -0.4376
  N  N42  1  0.906870  0.087760  0.921100  1.0  -0.4332
  O  O43  1  0.534210  0.758510  0.142270  1.0  -0.6341
  O  O44  1  0.832080  0.681060  0.037180  1.0  -0.57
  O  O45  1  0.849440  0.444040  0.290680  1.0  -0.5267
  O  O46  1  0.047810  0.588490  0.238890  1.0  -0.6352
  O  O47  1  0.434990  0.741490  0.357730  1.0  -0.6333
  O  O48  1  0.550320  0.818940  0.462820  1.0  -0.5659
  O  O49  1  0.584160  0.055960  0.209320  1.0  -0.527
  O  O50  1  0.875190  0.911510  0.261110  1.0  -0.6369
  O  O51  1  0.465790  0.241490  0.857730  1.0  -0.6341
  O  O52  1  0.167920  0.318940  0.962820  1.0  -0.5696
  O  O53  1  0.150560  0.555960  0.709320  1.0  -0.526
  O  O54  1  0.952190  0.411510  0.761110  1.0  -0.6348
  O  O55  1  0.565010  0.258510  0.642270  1.0  -0.6336
  O  O56  1  0.449680  0.181060  0.537180  1.0  -0.5665
  O  O57  1  0.415840  0.944040  0.790680  1.0  -0.5271
  O  O58  1  0.124810  0.088490  0.738890  1.0  -0.6367
