# generated using pymatgen
data_Zn2P2HO8
_symmetry_space_group_name_H-M   'P 1'
_cell_length_a   9.51500000
_cell_length_b   12.29700000
_cell_length_c   9.46100000
_cell_angle_alpha   91.03000000
_cell_angle_beta   98.65800000
_cell_angle_gamma   93.71400000
_symmetry_Int_Tables_number   1
_chemical_formula_structural   Zn2P2HO8
_chemical_formula_sum   'Zn8 P8 H4 O32'
_cell_volume   1091.64878806
_cell_formula_units_Z   4
loop_
 _symmetry_equiv_pos_site_id
 _symmetry_equiv_pos_as_xyz
  1  'x, y, z'
loop_
 _atom_site_type_symbol
 _atom_site_label
 _atom_site_symmetry_multiplicity
 _atom_site_fract_x
 _atom_site_fract_y
 _atom_site_fract_z
 _atom_site_occupancy
 _atom_site_charge
  Zn  Zn1  1  0.314300  0.448830  0.093600  1.0  0.9058
  Zn  Zn2  1  0.904500  0.033070  0.678500  1.0  0.8713
  Zn  Zn3  1  0.597400  0.147530  0.104400  1.0  1.119
  Zn  Zn4  1  0.099000  0.648780  0.585800  1.0  1.1434
  Zn  Zn5  1  0.685700  0.551170  0.906400  1.0  0.9074
  Zn  Zn6  1  0.095500  0.966930  0.321500  1.0  0.8731
  Zn  Zn7  1  0.402600  0.852470  0.895600  1.0  1.1187
  Zn  Zn8  1  0.901000  0.351220  0.414200  1.0  1.1428
  P  P9  1  0.661900  0.402300  0.161900  1.0  1.8837
  P  P10  1  0.838800  0.088000  0.353700  1.0  1.8411
  P  P11  1  0.698900  0.969800  0.889500  1.0  1.7276
  P  P12  1  0.114200  0.526000  0.294200  1.0  1.8619
  P  P13  1  0.338100  0.597700  0.838100  1.0  1.8848
  P  P14  1  0.161200  0.912000  0.646300  1.0  1.8408
  P  P15  1  0.301100  0.030200  0.110500  1.0  1.7262
  P  P16  1  0.885800  0.474000  0.705800  1.0  1.862
  H  H17  1  0.920000  0.507000  0.140000  1.0  0.3857
  H  H18  1  0.860000  0.994000  0.082000  1.0  0.383
  H  H19  1  0.080000  0.493000  0.860000  1.0  0.3869
  H  H20  1  0.140000  0.006000  0.918000  1.0  0.3819
  O  O21  1  0.508700  0.428500  0.154600  1.0  -0.8529
  O  O22  1  0.267300  0.525300  0.262800  1.0  -0.7447
  O  O23  1  0.745200  0.492200  0.090900  1.0  -0.7197
  O  O24  1  0.729700  0.974800  0.736400  1.0  -0.7478
  O  O25  1  0.927600  0.042500  0.243900  1.0  -0.8324
  O  O26  1  0.840100  0.006000  0.475700  1.0  -0.779
  O  O27  1  0.631600  0.069800  0.932900  1.0  -0.8248
  O  O28  1  0.684000  0.091800  0.282800  1.0  -0.7758
  O  O29  1  0.609200  0.864200  0.907500  1.0  -0.7856
  O  O30  1  0.676500  0.294700  0.083500  1.0  -0.794
  O  O31  1  0.098000  0.629600  0.378900  1.0  -0.7517
  O  O32  1  0.075200  0.424400  0.368800  1.0  -0.8039
  O  O33  1  0.725200  0.400200  0.319800  1.0  -0.7792
  O  O34  1  0.909500  0.195700  0.416700  1.0  -0.8209
  O  O35  1  0.023000  0.532900  0.143100  1.0  -0.5524
  O  O36  1  0.847700  0.956900  0.984300  1.0  -0.5587
  O  O37  1  0.491300  0.571500  0.845400  1.0  -0.8549
  O  O38  1  0.732700  0.474700  0.737200  1.0  -0.7417
  O  O39  1  0.254800  0.507800  0.909100  1.0  -0.7201
  O  O40  1  0.270300  0.025200  0.263600  1.0  -0.7472
  O  O41  1  0.072400  0.957500  0.756100  1.0  -0.8342
  O  O42  1  0.159900  0.994000  0.524300  1.0  -0.7783
  O  O43  1  0.368400  0.930200  0.067100  1.0  -0.8228
  O  O44  1  0.316000  0.908200  0.717200  1.0  -0.7756
  O  O45  1  0.390800  0.135800  0.092500  1.0  -0.784
  O  O46  1  0.323500  0.705300  0.916500  1.0  -0.7934
  O  O47  1  0.902000  0.370400  0.621100  1.0  -0.7518
  O  O48  1  0.924800  0.575600  0.631200  1.0  -0.8049
  O  O49  1  0.274800  0.599800  0.680200  1.0  -0.7791
  O  O50  1  0.090500  0.804300  0.583300  1.0  -0.8242
  O  O51  1  0.977000  0.467100  0.856900  1.0  -0.555
  O  O52  1  0.152300  0.043100  0.015700  1.0  -0.5565
