# generated using pymatgen
data_CdNiC7N6
_symmetry_space_group_name_H-M   'P 1'
_cell_length_a   13.98700000
_cell_length_b   26.97100000
_cell_length_c   7.59500000
_cell_angle_alpha   90.00000000
_cell_angle_beta   90.00000000
_cell_angle_gamma   91.74000000
_symmetry_Int_Tables_number   1
_chemical_formula_structural   CdNiC7N6
_chemical_formula_sum   'Cd8 Ni8 C56 N48'
_cell_volume   2863.84233746
_cell_formula_units_Z   8
loop_
 _symmetry_equiv_pos_site_id
 _symmetry_equiv_pos_as_xyz
  1  'x, y, z'
loop_
 _atom_site_type_symbol
 _atom_site_label
 _atom_site_symmetry_multiplicity
 _atom_site_fract_x
 _atom_site_fract_y
 _atom_site_fract_z
 _atom_site_occupancy
 _atom_site_charge
  Cd  Cd1  1  0.275570  0.135240  0.879100  1.0  1.0196
  Cd  Cd2  1  0.275570  0.635240  0.379100  1.0  1.0196
  Cd  Cd3  1  0.224430  0.864760  0.879100  1.0  1.0203
  Cd  Cd4  1  0.224430  0.364760  0.379100  1.0  1.0203
  Cd  Cd5  1  0.724430  0.864760  0.120900  1.0  1.02
  Cd  Cd6  1  0.724430  0.364760  0.620900  1.0  1.02
  Cd  Cd7  1  0.775570  0.135240  0.120900  1.0  1.0217
  Cd  Cd8  1  0.775570  0.635240  0.620900  1.0  1.0217
  Ni  Ni9  1  0.250000  0.000000  0.372200  1.0  0.0882
  Ni  Ni10  1  0.250000  0.500000  0.872200  1.0  0.0882
  Ni  Ni11  1  0.750000  0.000000  0.627800  1.0  0.088
  Ni  Ni12  1  0.750000  0.500000  0.127800  1.0  0.088
  Ni  Ni13  1  0.000000  0.750000  0.250000  1.0  0.3794
  Ni  Ni14  1  0.500000  0.250000  0.250000  1.0  0.3794
  Ni  Ni15  1  0.000000  0.250000  0.750000  1.0  0.3794
  Ni  Ni16  1  0.500000  0.750000  0.750000  1.0  0.3794
  C  C17  1  0.252100  0.049200  0.199200  1.0  0.1582
  C  C18  1  0.250000  0.048800  0.546000  1.0  0.1426
  C  C19  1  0.108300  0.781200  0.151500  1.0  0.152
  C  C20  1  0.924300  0.801400  0.175300  1.0  0.1689
  C  C21  1  0.420200  0.190100  0.622000  1.0  0.1649
  C  C22  1  0.476400  0.159500  0.700000  1.0  0.2351
  C  C23  1  0.581600  0.158300  0.656000  1.0  0.0195
  C  C24  1  0.252100  0.549200  0.699200  1.0  0.1582
  C  C25  1  0.250000  0.548800  0.046000  1.0  0.1426
  C  C26  1  0.108300  0.281200  0.651500  1.0  0.152
  C  C27  1  0.924300  0.301400  0.675300  1.0  0.1692
  C  C28  1  0.420200  0.690100  0.122000  1.0  0.1649
  C  C29  1  0.476400  0.659500  0.200000  1.0  0.2351
  C  C30  1  0.581600  0.658300  0.156000  1.0  0.0195
  C  C31  1  0.247900  0.950800  0.199200  1.0  0.159
  C  C32  1  0.250000  0.951200  0.546000  1.0  0.143
  C  C33  1  0.391700  0.218800  0.151500  1.0  0.1515
  C  C34  1  0.575700  0.198600  0.175300  1.0  0.1701
  C  C35  1  0.079800  0.809900  0.622000  1.0  0.1653
  C  C36  1  0.023600  0.840500  0.700000  1.0  0.2344
  C  C37  1  0.918400  0.841700  0.656000  1.0  0.0232
  C  C38  1  0.247900  0.450800  0.699200  1.0  0.159
  C  C39  1  0.250000  0.451200  0.046000  1.0  0.143
  C  C40  1  0.391700  0.718800  0.651500  1.0  0.1515
  C  C41  1  0.575700  0.698600  0.675300  1.0  0.1706
  C  C42  1  0.079800  0.309900  0.122000  1.0  0.1653
  C  C43  1  0.023600  0.340500  0.200000  1.0  0.2344
  C  C44  1  0.918400  0.341700  0.156000  1.0  0.0232
  C  C45  1  0.747900  0.950800  0.800800  1.0  0.1585
  C  C46  1  0.750000  0.951200  0.454000  1.0  0.1449
  C  C47  1  0.891700  0.218800  0.848500  1.0  0.1515
  C  C48  1  0.075700  0.198600  0.824700  1.0  0.1705
  C  C49  1  0.579800  0.809900  0.378000  1.0  0.1641
  C  C50  1  0.523600  0.840500  0.300000  1.0  0.2345
  C  C51  1  0.418400  0.841700  0.344000  1.0  0.0232
  C  C52  1  0.747900  0.450800  0.300800  1.0  0.1585
  C  C53  1  0.750000  0.451200  0.954000  1.0  0.1449
  C  C54  1  0.891700  0.718800  0.348500  1.0  0.1515
  C  C55  1  0.075700  0.698600  0.324700  1.0  0.1704
  C  C56  1  0.579800  0.309900  0.878000  1.0  0.1641
  C  C57  1  0.523600  0.340500  0.800000  1.0  0.2345
  C  C58  1  0.418400  0.341700  0.844000  1.0  0.0232
  C  C59  1  0.752100  0.049200  0.800800  1.0  0.1578
  C  C60  1  0.750000  0.048800  0.454000  1.0  0.1436
  C  C61  1  0.608300  0.781200  0.848500  1.0  0.1516
  C  C62  1  0.424300  0.801400  0.824700  1.0  0.1693
  C  C63  1  0.920200  0.190100  0.378000  1.0  0.1639
  C  C64  1  0.976400  0.159500  0.300000  1.0  0.2351
  C  C65  1  0.081600  0.158300  0.344000  1.0  0.0195
  C  C66  1  0.752100  0.549200  0.300800  1.0  0.1578
  C  C67  1  0.750000  0.548800  0.954000  1.0  0.1436
  C  C68  1  0.608300  0.281200  0.348500  1.0  0.1516
  C  C69  1  0.424300  0.301400  0.324700  1.0  0.1693
  C  C70  1  0.920200  0.690100  0.878000  1.0  0.1639
  C  C71  1  0.976400  0.659500  0.800000  1.0  0.2351
  C  C72  1  0.081600  0.658300  0.844000  1.0  0.0195
  N  N73  1  0.254900  0.080000  0.095800  1.0  -0.4104
  N  N74  1  0.249900  0.921700  0.653600  1.0  -0.4146
  N  N75  1  0.173900  0.800400  0.089200  1.0  -0.4515
  N  N76  1  0.875800  0.832200  0.131200  1.0  -0.4563
  N  N77  1  0.318100  0.193000  0.652100  1.0  -0.273
  N  N78  1  0.442500  0.125600  0.836300  1.0  -0.2937
  N  N79  1  0.254900  0.580000  0.595800  1.0  -0.4104
  N  N80  1  0.249900  0.421700  0.153600  1.0  -0.4146
  N  N81  1  0.173900  0.300400  0.589200  1.0  -0.4515
  N  N82  1  0.875800  0.332200  0.631200  1.0  -0.4563
  N  N83  1  0.318100  0.693000  0.152100  1.0  -0.273
  N  N84  1  0.442500  0.625600  0.336300  1.0  -0.2937
  N  N85  1  0.245100  0.920000  0.095800  1.0  -0.4091
  N  N86  1  0.250100  0.078300  0.653600  1.0  -0.4146
  N  N87  1  0.326100  0.199600  0.089200  1.0  -0.452
  N  N88  1  0.624200  0.167800  0.131200  1.0  -0.4538
  N  N89  1  0.181900  0.807000  0.652100  1.0  -0.2727
  N  N90  1  0.057500  0.874400  0.836300  1.0  -0.2969
  N  N91  1  0.245100  0.420000  0.595800  1.0  -0.4091
  N  N92  1  0.250100  0.578300  0.153600  1.0  -0.4146
  N  N93  1  0.326100  0.699600  0.589200  1.0  -0.452
  N  N94  1  0.624200  0.667800  0.631200  1.0  -0.4538
  N  N95  1  0.181900  0.307000  0.152100  1.0  -0.2727
  N  N96  1  0.057500  0.374400  0.336300  1.0  -0.2969
  N  N97  1  0.745100  0.920000  0.904200  1.0  -0.4093
  N  N98  1  0.750100  0.078300  0.346400  1.0  -0.413
  N  N99  1  0.826100  0.199600  0.910800  1.0  -0.4523
  N  N100  1  0.124200  0.167800  0.868800  1.0  -0.4542
  N  N101  1  0.681900  0.807000  0.347900  1.0  -0.2722
  N  N102  1  0.557500  0.874400  0.163700  1.0  -0.2961
  N  N103  1  0.745100  0.420000  0.404200  1.0  -0.4093
  N  N104  1  0.750100  0.578300  0.846400  1.0  -0.413
  N  N105  1  0.826100  0.699600  0.410800  1.0  -0.4523
  N  N106  1  0.124200  0.667800  0.368800  1.0  -0.4542
  N  N107  1  0.681900  0.307000  0.847900  1.0  -0.2722
  N  N108  1  0.557500  0.374400  0.663700  1.0  -0.2961
  N  N109  1  0.754900  0.080000  0.904200  1.0  -0.4101
  N  N110  1  0.749900  0.921700  0.346400  1.0  -0.4123
  N  N111  1  0.673900  0.800400  0.910800  1.0  -0.4515
  N  N112  1  0.375800  0.832200  0.868800  1.0  -0.457
  N  N113  1  0.818100  0.193000  0.347900  1.0  -0.2725
  N  N114  1  0.942500  0.125600  0.163700  1.0  -0.2933
  N  N115  1  0.754900  0.580000  0.404200  1.0  -0.4101
  N  N116  1  0.749900  0.421700  0.846400  1.0  -0.4123
  N  N117  1  0.673900  0.300400  0.410800  1.0  -0.4515
  N  N118  1  0.375800  0.332200  0.368800  1.0  -0.457
  N  N119  1  0.818100  0.693000  0.847900  1.0  -0.2725
  N  N120  1  0.942500  0.625600  0.663700  1.0  -0.2933
