# generated using pymatgen
data_CdNiC7N6
_symmetry_space_group_name_H-M   'P 1'
_cell_length_a   14.08300000
_cell_length_b   27.04700000
_cell_length_c   7.61600000
_cell_angle_alpha   90.00000000
_cell_angle_beta   90.00000000
_cell_angle_gamma   90.16000000
_symmetry_Int_Tables_number   1
_chemical_formula_structural   CdNiC7N6
_chemical_formula_sum   'Cd8 Ni8 C56 N48'
_cell_volume   2900.94518290
_cell_formula_units_Z   8
loop_
 _symmetry_equiv_pos_site_id
 _symmetry_equiv_pos_as_xyz
  1  'x, y, z'
loop_
 _atom_site_type_symbol
 _atom_site_label
 _atom_site_symmetry_multiplicity
 _atom_site_fract_x
 _atom_site_fract_y
 _atom_site_fract_z
 _atom_site_occupancy
 _atom_site_charge
  Cd  Cd1  1  0.215970  0.134620  0.126130  1.0  1.0475
  Cd  Cd2  1  0.284030  0.865380  0.126130  1.0  1.0475
  Cd  Cd3  1  0.784030  0.365380  0.373870  1.0  1.048
  Cd  Cd4  1  0.715970  0.634620  0.373870  1.0  1.0479
  Cd  Cd5  1  0.215970  0.634620  0.626130  1.0  1.0474
  Cd  Cd6  1  0.284030  0.365380  0.626130  1.0  1.0474
  Cd  Cd7  1  0.784030  0.865380  0.873870  1.0  1.0479
  Cd  Cd8  1  0.715970  0.134620  0.873870  1.0  1.0478
  Ni  Ni9  1  0.250000  0.000000  0.634700  1.0  0.0995
  Ni  Ni10  1  0.750000  0.500000  0.865300  1.0  0.0996
  Ni  Ni11  1  0.500000  0.250000  0.250000  1.0  0.3514
  Ni  Ni12  1  0.000000  0.750000  0.250000  1.0  0.3514
  Ni  Ni13  1  0.250000  0.500000  0.134700  1.0  0.0995
  Ni  Ni14  1  0.750000  0.000000  0.365300  1.0  0.0996
  Ni  Ni15  1  0.500000  0.750000  0.750000  1.0  0.3514
  Ni  Ni16  1  0.000000  0.250000  0.750000  1.0  0.3514
  C  C17  1  0.243700  0.048700  0.807500  1.0  0.1663
  C  C18  1  0.244500  0.048500  0.461600  1.0  0.1573
  C  C19  1  0.418800  0.199400  0.176500  1.0  0.1602
  C  C20  1  0.073900  0.192000  0.371000  1.0  0.1652
  C  C21  1  0.017100  0.158600  0.304000  1.0  0.155
  C  C22  1  0.911200  0.159000  0.338800  1.0  0.0209
  C  C23  1  0.104500  0.717400  0.347900  1.0  0.1454
  C  C24  1  0.256300  0.951300  0.807500  1.0  0.167
  C  C25  1  0.255500  0.951500  0.461600  1.0  0.1576
  C  C26  1  0.081200  0.800600  0.176500  1.0  0.1594
  C  C27  1  0.426100  0.808000  0.371000  1.0  0.1679
  C  C28  1  0.482900  0.841400  0.304000  1.0  0.1545
  C  C29  1  0.588800  0.841000  0.338800  1.0  0.0179
  C  C30  1  0.395500  0.282600  0.347900  1.0  0.1447
  C  C31  1  0.895500  0.782600  0.152100  1.0  0.1446
  C  C32  1  0.756300  0.451300  0.692500  1.0  0.168
  C  C33  1  0.755500  0.451500  0.038400  1.0  0.1566
  C  C34  1  0.581200  0.300600  0.323500  1.0  0.1598
  C  C35  1  0.926100  0.308000  0.129000  1.0  0.1677
  C  C36  1  0.982900  0.341400  0.196000  1.0  0.1546
  C  C37  1  0.088800  0.341000  0.161200  1.0  0.0178
  C  C38  1  0.604500  0.217400  0.152100  1.0  0.1449
  C  C39  1  0.743700  0.548700  0.692500  1.0  0.1674
  C  C40  1  0.744500  0.548500  0.038400  1.0  0.1562
  C  C41  1  0.918800  0.699400  0.323500  1.0  0.1605
  C  C42  1  0.573900  0.692000  0.129000  1.0  0.1648
  C  C43  1  0.517100  0.658600  0.196000  1.0  0.1549
  C  C44  1  0.411200  0.659000  0.161200  1.0  0.0208
  C  C45  1  0.104500  0.217400  0.847900  1.0  0.1454
  C  C46  1  0.243700  0.548700  0.307500  1.0  0.1663
  C  C47  1  0.244500  0.548500  0.961600  1.0  0.1573
  C  C48  1  0.418800  0.699400  0.676500  1.0  0.1602
  C  C49  1  0.073900  0.692000  0.871000  1.0  0.1652
  C  C50  1  0.017100  0.658600  0.804000  1.0  0.155
  C  C51  1  0.911200  0.659000  0.838800  1.0  0.0209
  C  C52  1  0.395500  0.782600  0.847900  1.0  0.1447
  C  C53  1  0.256300  0.451300  0.307500  1.0  0.167
  C  C54  1  0.255500  0.451500  0.961600  1.0  0.1576
  C  C55  1  0.081200  0.300600  0.676500  1.0  0.1594
  C  C56  1  0.426100  0.308000  0.871000  1.0  0.1679
  C  C57  1  0.482900  0.341400  0.804000  1.0  0.1545
  C  C58  1  0.588800  0.341000  0.838800  1.0  0.0179
  C  C59  1  0.756300  0.951300  0.192500  1.0  0.168
  C  C60  1  0.755500  0.951500  0.538400  1.0  0.1566
  C  C61  1  0.581200  0.800600  0.823500  1.0  0.1598
  C  C62  1  0.926100  0.808000  0.629000  1.0  0.1677
  C  C63  1  0.982900  0.841400  0.696000  1.0  0.1546
  C  C64  1  0.088800  0.841000  0.661200  1.0  0.0178
  C  C65  1  0.895500  0.282600  0.652100  1.0  0.1446
  C  C66  1  0.743700  0.048700  0.192500  1.0  0.1674
  C  C67  1  0.744500  0.048500  0.538400  1.0  0.1562
  C  C68  1  0.918800  0.199400  0.823500  1.0  0.1605
  C  C69  1  0.573900  0.192000  0.629000  1.0  0.1648
  C  C70  1  0.517100  0.158600  0.696000  1.0  0.1549
  C  C71  1  0.411200  0.159000  0.661200  1.0  0.0208
  C  C72  1  0.604500  0.717400  0.652100  1.0  0.1449
  N  N73  1  0.238600  0.078600  0.913200  1.0  -0.3931
  N  N74  1  0.240800  0.078600  0.355300  1.0  -0.4122
  N  N75  1  0.367200  0.169200  0.133000  1.0  -0.417
  N  N76  1  0.175800  0.193200  0.348400  1.0  -0.29
  N  N77  1  0.049300  0.124700  0.168600  1.0  -0.278
  N  N78  1  0.167500  0.697400  0.411600  1.0  -0.4483
  N  N79  1  0.261400  0.921400  0.913200  1.0  -0.3905
  N  N80  1  0.259200  0.921400  0.355300  1.0  -0.4117
  N  N81  1  0.132800  0.830800  0.133000  1.0  -0.4184
  N  N82  1  0.324200  0.806800  0.348400  1.0  -0.2923
  N  N83  1  0.450700  0.875300  0.168600  1.0  -0.2809
  N  N84  1  0.332500  0.302600  0.411600  1.0  -0.4483
  N  N85  1  0.832500  0.802600  0.088400  1.0  -0.4485
  N  N86  1  0.761400  0.421400  0.586800  1.0  -0.3896
  N  N87  1  0.759200  0.421400  0.144700  1.0  -0.4137
  N  N88  1  0.632800  0.330800  0.367000  1.0  -0.4203
  N  N89  1  0.824200  0.306800  0.151600  1.0  -0.2923
  N  N90  1  0.950700  0.375300  0.331400  1.0  -0.2818
  N  N91  1  0.667500  0.197400  0.088400  1.0  -0.4484
  N  N92  1  0.738600  0.578600  0.586800  1.0  -0.3927
  N  N93  1  0.740800  0.578600  0.144700  1.0  -0.4141
  N  N94  1  0.867200  0.669200  0.367000  1.0  -0.4168
  N  N95  1  0.675800  0.693200  0.151600  1.0  -0.2898
  N  N96  1  0.549300  0.624700  0.331400  1.0  -0.2796
  N  N97  1  0.167500  0.197400  0.911600  1.0  -0.4483
  N  N98  1  0.238600  0.578600  0.413200  1.0  -0.3931
  N  N99  1  0.240800  0.578600  0.855300  1.0  -0.4122
  N  N100  1  0.367200  0.669200  0.633000  1.0  -0.4177
  N  N101  1  0.175800  0.693200  0.848400  1.0  -0.29
  N  N102  1  0.049300  0.624700  0.668600  1.0  -0.278
  N  N103  1  0.332500  0.802600  0.911600  1.0  -0.4483
  N  N104  1  0.261400  0.421400  0.413200  1.0  -0.3905
  N  N105  1  0.259200  0.421400  0.855300  1.0  -0.4117
  N  N106  1  0.132800  0.330800  0.633000  1.0  -0.4199
  N  N107  1  0.324200  0.306800  0.848400  1.0  -0.2923
  N  N108  1  0.450700  0.375300  0.668600  1.0  -0.2809
  N  N109  1  0.761400  0.921400  0.086800  1.0  -0.3896
  N  N110  1  0.759200  0.921400  0.644700  1.0  -0.4137
  N  N111  1  0.632800  0.830800  0.867000  1.0  -0.4211
  N  N112  1  0.824200  0.806800  0.651600  1.0  -0.2923
  N  N113  1  0.950700  0.875300  0.831400  1.0  -0.2818
  N  N114  1  0.832500  0.302600  0.588400  1.0  -0.4485
  N  N115  1  0.738600  0.078600  0.086800  1.0  -0.3927
  N  N116  1  0.740800  0.078600  0.644700  1.0  -0.4141
  N  N117  1  0.867200  0.169200  0.867000  1.0  -0.4183
  N  N118  1  0.675800  0.193200  0.651600  1.0  -0.2898
  N  N119  1  0.549300  0.124700  0.831400  1.0  -0.2796
  N  N120  1  0.667500  0.697400  0.588400  1.0  -0.4484
