# generated using pymatgen
data_CdNiC7N6
_symmetry_space_group_name_H-M   'P 1'
_cell_length_a   13.96100000
_cell_length_b   26.99800000
_cell_length_c   7.58900000
_cell_angle_alpha   90.00000000
_cell_angle_beta   90.00000000
_cell_angle_gamma   90.84000000
_symmetry_Int_Tables_number   1
_chemical_formula_structural   CdNiC7N6
_chemical_formula_sum   'Cd8 Ni8 C56 N48'
_cell_volume   2860.13147987
_cell_formula_units_Z   8
loop_
 _symmetry_equiv_pos_site_id
 _symmetry_equiv_pos_as_xyz
  1  'x, y, z'
loop_
 _atom_site_type_symbol
 _atom_site_label
 _atom_site_symmetry_multiplicity
 _atom_site_fract_x
 _atom_site_fract_y
 _atom_site_fract_z
 _atom_site_occupancy
 _atom_site_charge
  Cd  Cd1  1  0.213750  0.134540  0.123330  1.0  1.0858
  Cd  Cd2  1  0.213750  0.634540  0.623330  1.0  1.0858
  Cd  Cd3  1  0.286250  0.865460  0.123330  1.0  1.0852
  Cd  Cd4  1  0.286250  0.365460  0.623330  1.0  1.0852
  Cd  Cd5  1  0.786250  0.865460  0.876670  1.0  1.0855
  Cd  Cd6  1  0.786250  0.365460  0.376670  1.0  1.0855
  Cd  Cd7  1  0.713750  0.134540  0.876670  1.0  1.0861
  Cd  Cd8  1  0.713750  0.634540  0.376670  1.0  1.0861
  Ni  Ni9  1  0.250000  0.000000  0.632100  1.0  0.1427
  Ni  Ni10  1  0.250000  0.500000  0.132100  1.0  0.1427
  Ni  Ni11  1  0.750000  0.000000  0.367900  1.0  0.1429
  Ni  Ni12  1  0.750000  0.500000  0.867900  1.0  0.1429
  Ni  Ni13  1  0.500000  0.250000  0.250000  1.0  0.3685
  Ni  Ni14  1  0.000000  0.750000  0.250000  1.0  0.3685
  Ni  Ni15  1  0.500000  0.750000  0.750000  1.0  0.3685
  Ni  Ni16  1  0.000000  0.250000  0.750000  1.0  0.3685
  C  C17  1  0.242400  0.048700  0.805000  1.0  0.1681
  C  C18  1  0.257500  0.048500  0.458000  1.0  0.0441
  C  C19  1  0.418700  0.199000  0.174000  1.0  0.1976
  C  C20  1  0.104500  0.218100  0.849000  1.0  0.1877
  C  C21  1  0.071500  0.192100  0.372000  1.0  0.1045
  C  C22  1  0.017700  0.152900  0.315000  1.0  0.1397
  C  C23  1  0.909600  0.155100  0.348000  1.0  0.0134
  C  C24  1  0.242400  0.548700  0.305000  1.0  0.1679
  C  C25  1  0.257500  0.548500  0.958000  1.0  0.0441
  C  C26  1  0.418700  0.699000  0.674000  1.0  0.1976
  C  C27  1  0.104500  0.718100  0.349000  1.0  0.1877
  C  C28  1  0.071500  0.692100  0.872000  1.0  0.1045
  C  C29  1  0.017700  0.652900  0.815000  1.0  0.1397
  C  C30  1  0.909600  0.655100  0.848000  1.0  0.0134
  C  C31  1  0.257600  0.951300  0.805000  1.0  0.1683
  C  C32  1  0.242500  0.951500  0.458000  1.0  0.0433
  C  C33  1  0.081300  0.801000  0.174000  1.0  0.1974
  C  C34  1  0.395500  0.781900  0.849000  1.0  0.1874
  C  C35  1  0.428500  0.807900  0.372000  1.0  0.1034
  C  C36  1  0.482300  0.847100  0.315000  1.0  0.1384
  C  C37  1  0.590400  0.844900  0.348000  1.0  0.0106
  C  C38  1  0.257600  0.451300  0.305000  1.0  0.1686
  C  C39  1  0.242500  0.451500  0.958000  1.0  0.0433
  C  C40  1  0.081300  0.301000  0.674000  1.0  0.1974
  C  C41  1  0.395500  0.281900  0.349000  1.0  0.1873
  C  C42  1  0.428500  0.307900  0.872000  1.0  0.1034
  C  C43  1  0.482300  0.347100  0.815000  1.0  0.1384
  C  C44  1  0.590400  0.344900  0.848000  1.0  0.0106
  C  C45  1  0.757600  0.951300  0.195000  1.0  0.1688
  C  C46  1  0.742500  0.951500  0.542000  1.0  0.0433
  C  C47  1  0.581300  0.801000  0.826000  1.0  0.1971
  C  C48  1  0.895500  0.781900  0.151000  1.0  0.1875
  C  C49  1  0.928500  0.807900  0.628000  1.0  0.1038
  C  C50  1  0.982300  0.847100  0.685000  1.0  0.1376
  C  C51  1  0.090400  0.844900  0.652000  1.0  0.0105
  C  C52  1  0.757600  0.451300  0.695000  1.0  0.1688
  C  C53  1  0.742500  0.451500  0.042000  1.0  0.0433
  C  C54  1  0.581300  0.301000  0.326000  1.0  0.1971
  C  C55  1  0.895500  0.281900  0.651000  1.0  0.1875
  C  C56  1  0.928500  0.307900  0.128000  1.0  0.1038
  C  C57  1  0.982300  0.347100  0.185000  1.0  0.1376
  C  C58  1  0.090400  0.344900  0.152000  1.0  0.0105
  C  C59  1  0.742400  0.048700  0.195000  1.0  0.1685
  C  C60  1  0.757500  0.048500  0.542000  1.0  0.0443
  C  C61  1  0.918700  0.199000  0.826000  1.0  0.1973
  C  C62  1  0.604500  0.218100  0.151000  1.0  0.1879
  C  C63  1  0.571500  0.192100  0.628000  1.0  0.1055
  C  C64  1  0.517700  0.152900  0.685000  1.0  0.1389
  C  C65  1  0.409600  0.155100  0.652000  1.0  0.0132
  C  C66  1  0.742400  0.548700  0.695000  1.0  0.1685
  C  C67  1  0.757500  0.548500  0.042000  1.0  0.0443
  C  C68  1  0.918700  0.699000  0.326000  1.0  0.1973
  C  C69  1  0.604500  0.718100  0.651000  1.0  0.1879
  C  C70  1  0.571500  0.692100  0.128000  1.0  0.1055
  C  C71  1  0.517700  0.652900  0.185000  1.0  0.1389
  C  C72  1  0.409600  0.655100  0.152000  1.0  0.0132
  N  N73  1  0.236600  0.078900  0.909600  1.0  -0.3941
  N  N74  1  0.238000  0.077900  0.350800  1.0  -0.4039
  N  N75  1  0.367000  0.168800  0.130000  1.0  -0.4094
  N  N76  1  0.167600  0.198600  0.913000  1.0  -0.4434
  N  N77  1  0.175600  0.192100  0.351000  1.0  -0.253
  N  N78  1  0.047100  0.124600  0.166300  1.0  -0.2858
  N  N79  1  0.236600  0.578900  0.409600  1.0  -0.3941
  N  N80  1  0.238000  0.577900  0.850800  1.0  -0.4039
  N  N81  1  0.367000  0.668800  0.630000  1.0  -0.4094
  N  N82  1  0.167600  0.698600  0.413000  1.0  -0.4434
  N  N83  1  0.175600  0.692100  0.851000  1.0  -0.253
  N  N84  1  0.047100  0.624600  0.666300  1.0  -0.2867
  N  N85  1  0.263400  0.921100  0.909600  1.0  -0.3921
  N  N86  1  0.262000  0.922100  0.350800  1.0  -0.403
  N  N87  1  0.133000  0.831200  0.130000  1.0  -0.4114
  N  N88  1  0.332400  0.801400  0.913000  1.0  -0.4429
  N  N89  1  0.324400  0.807900  0.351000  1.0  -0.2538
  N  N90  1  0.452900  0.875400  0.166300  1.0  -0.2918
  N  N91  1  0.263400  0.421100  0.409600  1.0  -0.3921
  N  N92  1  0.262000  0.422100  0.850800  1.0  -0.403
  N  N93  1  0.133000  0.331200  0.630000  1.0  -0.4116
  N  N94  1  0.332400  0.301400  0.413000  1.0  -0.4429
  N  N95  1  0.324400  0.307900  0.851000  1.0  -0.2538
  N  N96  1  0.452900  0.375400  0.666300  1.0  -0.2901
  N  N97  1  0.763400  0.921100  0.090400  1.0  -0.3917
  N  N98  1  0.762000  0.922100  0.649200  1.0  -0.4049
  N  N99  1  0.633000  0.831200  0.870000  1.0  -0.4136
  N  N100  1  0.832400  0.801400  0.087000  1.0  -0.4429
  N  N101  1  0.824400  0.807900  0.649000  1.0  -0.2537
  N  N102  1  0.952900  0.875400  0.833700  1.0  -0.2894
  N  N103  1  0.763400  0.421100  0.590400  1.0  -0.3917
  N  N104  1  0.762000  0.422100  0.149200  1.0  -0.4049
  N  N105  1  0.633000  0.331200  0.370000  1.0  -0.4136
  N  N106  1  0.832400  0.301400  0.587000  1.0  -0.4429
  N  N107  1  0.824400  0.307900  0.149000  1.0  -0.2537
  N  N108  1  0.952900  0.375400  0.333700  1.0  -0.2894
  N  N109  1  0.736600  0.078900  0.090400  1.0  -0.3941
  N  N110  1  0.738000  0.077900  0.649200  1.0  -0.4056
  N  N111  1  0.867000  0.168800  0.870000  1.0  -0.4103
  N  N112  1  0.667600  0.198600  0.087000  1.0  -0.4431
  N  N113  1  0.675600  0.192100  0.649000  1.0  -0.2528
  N  N114  1  0.547100  0.124600  0.833700  1.0  -0.2871
  N  N115  1  0.736600  0.578900  0.590400  1.0  -0.3941
  N  N116  1  0.738000  0.577900  0.149200  1.0  -0.4056
  N  N117  1  0.867000  0.668800  0.370000  1.0  -0.4103
  N  N118  1  0.667600  0.698600  0.587000  1.0  -0.4431
  N  N119  1  0.675600  0.692100  0.149000  1.0  -0.2528
  N  N120  1  0.547100  0.624600  0.333700  1.0  -0.2871
