# generated using pymatgen
data_CdNiC7N6
_symmetry_space_group_name_H-M   'P 1'
_cell_length_a   14.01400000
_cell_length_b   26.96300000
_cell_length_c   7.57600000
_cell_angle_alpha   90.00000000
_cell_angle_beta   90.00000000
_cell_angle_gamma   91.74000000
_symmetry_Int_Tables_number   1
_chemical_formula_structural   CdNiC7N6
_chemical_formula_sum   'Cd8 Ni8 C56 N48'
_cell_volume   2861.34347752
_cell_formula_units_Z   8
loop_
 _symmetry_equiv_pos_site_id
 _symmetry_equiv_pos_as_xyz
  1  'x, y, z'
loop_
 _atom_site_type_symbol
 _atom_site_label
 _atom_site_symmetry_multiplicity
 _atom_site_fract_x
 _atom_site_fract_y
 _atom_site_fract_z
 _atom_site_occupancy
 _atom_site_charge
  Cd  Cd1  1  0.274840  0.135430  0.881040  1.0  1.0439
  Cd  Cd2  1  0.274840  0.635430  0.381040  1.0  1.0439
  Cd  Cd3  1  0.225160  0.864570  0.881040  1.0  1.0423
  Cd  Cd4  1  0.225160  0.364570  0.381040  1.0  1.0423
  Cd  Cd5  1  0.725160  0.864570  0.118960  1.0  1.0426
  Cd  Cd6  1  0.725160  0.364570  0.618960  1.0  1.0426
  Cd  Cd7  1  0.774840  0.135430  0.118960  1.0  1.0439
  Cd  Cd8  1  0.774840  0.635430  0.618960  1.0  1.0439
  Ni  Ni9  1  0.250000  0.000000  0.374400  1.0  0.0826
  Ni  Ni10  1  0.250000  0.500000  0.874400  1.0  0.0826
  Ni  Ni11  1  0.750000  0.000000  0.625600  1.0  0.0824
  Ni  Ni12  1  0.750000  0.500000  0.125600  1.0  0.0824
  Ni  Ni13  1  0.500000  0.250000  0.250000  1.0  0.3682
  Ni  Ni14  1  0.000000  0.750000  0.250000  1.0  0.3682
  Ni  Ni15  1  0.500000  0.750000  0.750000  1.0  0.3682
  Ni  Ni16  1  0.000000  0.250000  0.750000  1.0  0.3682
  C  C17  1  0.252000  0.049200  0.202300  1.0  0.171
  C  C18  1  0.249400  0.048600  0.549600  1.0  0.1555
  C  C19  1  0.391900  0.218800  0.152900  1.0  0.1747
  C  C20  1  0.075400  0.198300  0.825900  1.0  0.1614
  C  C21  1  0.473800  0.157000  0.694000  1.0  0.1659
  C  C22  1  0.419100  0.190800  0.626000  1.0  0.1622
  C  C23  1  0.579500  0.157400  0.656000  1.0  0.0297
  C  C24  1  0.252000  0.549200  0.702300  1.0  0.171
  C  C25  1  0.249400  0.548600  0.049600  1.0  0.1555
  C  C26  1  0.391900  0.718800  0.652900  1.0  0.1747
  C  C27  1  0.075400  0.698300  0.325900  1.0  0.1614
  C  C28  1  0.473800  0.657000  0.194000  1.0  0.1659
  C  C29  1  0.419100  0.690800  0.126000  1.0  0.1622
  C  C30  1  0.579500  0.657400  0.156000  1.0  0.0297
  C  C31  1  0.248000  0.950800  0.202300  1.0  0.1718
  C  C32  1  0.250600  0.951400  0.549600  1.0  0.1559
  C  C33  1  0.108100  0.781200  0.152900  1.0  0.175
  C  C34  1  0.424600  0.801700  0.825900  1.0  0.16
  C  C35  1  0.026200  0.843000  0.694000  1.0  0.1667
  C  C36  1  0.080900  0.809200  0.626000  1.0  0.1636
  C  C37  1  0.920500  0.842600  0.656000  1.0  0.0329
  C  C38  1  0.248000  0.450800  0.702300  1.0  0.1718
  C  C39  1  0.250600  0.451400  0.049600  1.0  0.1559
  C  C40  1  0.108100  0.281200  0.652900  1.0  0.175
  C  C41  1  0.424600  0.301700  0.325900  1.0  0.16
  C  C42  1  0.026200  0.343000  0.194000  1.0  0.1667
  C  C43  1  0.080900  0.309200  0.126000  1.0  0.1636
  C  C44  1  0.920500  0.342600  0.156000  1.0  0.0329
  C  C45  1  0.748000  0.950800  0.797700  1.0  0.1707
  C  C46  1  0.750600  0.951400  0.450400  1.0  0.1574
  C  C47  1  0.608100  0.781200  0.847100  1.0  0.1751
  C  C48  1  0.924600  0.801700  0.174100  1.0  0.1592
  C  C49  1  0.526200  0.843000  0.306000  1.0  0.1669
  C  C50  1  0.580900  0.809200  0.374000  1.0  0.1637
  C  C51  1  0.420500  0.842600  0.344000  1.0  0.0326
  C  C52  1  0.748000  0.450800  0.297700  1.0  0.1707
  C  C53  1  0.750600  0.451400  0.950400  1.0  0.1574
  C  C54  1  0.608100  0.281200  0.347100  1.0  0.1751
  C  C55  1  0.924600  0.301700  0.674100  1.0  0.1592
  C  C56  1  0.526200  0.343000  0.806000  1.0  0.1669
  C  C57  1  0.580900  0.309200  0.874000  1.0  0.1637
  C  C58  1  0.420500  0.342600  0.844000  1.0  0.0326
  C  C59  1  0.752000  0.049200  0.797700  1.0  0.1698
  C  C60  1  0.749400  0.048600  0.450400  1.0  0.1566
  C  C61  1  0.891900  0.218800  0.847100  1.0  0.1741
  C  C62  1  0.575400  0.198300  0.174100  1.0  0.1607
  C  C63  1  0.973800  0.157000  0.306000  1.0  0.1662
  C  C64  1  0.919100  0.190800  0.374000  1.0  0.1623
  C  C65  1  0.079500  0.157400  0.344000  1.0  0.0296
  C  C66  1  0.752000  0.549200  0.297700  1.0  0.1698
  C  C67  1  0.749400  0.548600  0.950400  1.0  0.1566
  C  C68  1  0.891900  0.718800  0.347100  1.0  0.1741
  C  C69  1  0.575400  0.698300  0.674100  1.0  0.1607
  C  C70  1  0.973800  0.657000  0.806000  1.0  0.1662
  C  C71  1  0.919100  0.690800  0.874000  1.0  0.1623
  C  C72  1  0.079500  0.657400  0.844000  1.0  0.0296
  N  N73  1  0.254400  0.079600  0.099000  1.0  -0.403
  N  N74  1  0.248800  0.077900  0.655500  1.0  -0.409
  N  N75  1  0.325900  0.199800  0.090000  1.0  -0.459
  N  N76  1  0.123400  0.168000  0.871500  1.0  -0.4175
  N  N77  1  0.441000  0.125700  0.837000  1.0  -0.2936
  N  N78  1  0.317800  0.192600  0.652500  1.0  -0.3099
  N  N79  1  0.254400  0.579600  0.599000  1.0  -0.403
  N  N80  1  0.248800  0.577900  0.155500  1.0  -0.409
  N  N81  1  0.325900  0.699800  0.590000  1.0  -0.459
  N  N82  1  0.123400  0.668000  0.371500  1.0  -0.4175
  N  N83  1  0.441000  0.625700  0.337000  1.0  -0.2936
  N  N84  1  0.317800  0.692600  0.152500  1.0  -0.3099
  N  N85  1  0.245600  0.920400  0.099000  1.0  -0.3997
  N  N86  1  0.251200  0.922100  0.655500  1.0  -0.4069
  N  N87  1  0.174100  0.800200  0.090000  1.0  -0.4576
  N  N88  1  0.376600  0.832000  0.871500  1.0  -0.4211
  N  N89  1  0.059000  0.874300  0.837000  1.0  -0.2975
  N  N90  1  0.182200  0.807400  0.652500  1.0  -0.3091
  N  N91  1  0.245600  0.420400  0.599000  1.0  -0.3997
  N  N92  1  0.251200  0.422100  0.155500  1.0  -0.4069
  N  N93  1  0.174100  0.300200  0.590000  1.0  -0.4576
  N  N94  1  0.376600  0.332000  0.371500  1.0  -0.4211
  N  N95  1  0.059000  0.374300  0.337000  1.0  -0.2975
  N  N96  1  0.182200  0.307400  0.152500  1.0  -0.3091
  N  N97  1  0.745600  0.920400  0.901000  1.0  -0.4009
  N  N98  1  0.751200  0.922100  0.344500  1.0  -0.4052
  N  N99  1  0.674100  0.800200  0.910000  1.0  -0.4575
  N  N100  1  0.876600  0.832000  0.128500  1.0  -0.4199
  N  N101  1  0.559000  0.874300  0.163000  1.0  -0.2984
  N  N102  1  0.682200  0.807400  0.347500  1.0  -0.3091
  N  N103  1  0.745600  0.420400  0.401000  1.0  -0.4009
  N  N104  1  0.751200  0.422100  0.844500  1.0  -0.4052
  N  N105  1  0.674100  0.300200  0.410000  1.0  -0.4575
  N  N106  1  0.876600  0.332000  0.628500  1.0  -0.4199
  N  N107  1  0.559000  0.374300  0.663000  1.0  -0.2984
  N  N108  1  0.682200  0.307400  0.847500  1.0  -0.3091
  N  N109  1  0.754400  0.079600  0.901000  1.0  -0.4037
  N  N110  1  0.748800  0.077900  0.344500  1.0  -0.4076
  N  N111  1  0.825900  0.199800  0.910000  1.0  -0.4589
  N  N112  1  0.623400  0.168000  0.128500  1.0  -0.4167
  N  N113  1  0.941000  0.125700  0.163000  1.0  -0.2936
  N  N114  1  0.817800  0.192600  0.347500  1.0  -0.31
  N  N115  1  0.754400  0.579600  0.401000  1.0  -0.4037
  N  N116  1  0.748800  0.577900  0.844500  1.0  -0.4076
  N  N117  1  0.825900  0.699800  0.410000  1.0  -0.4589
  N  N118  1  0.623400  0.668000  0.628500  1.0  -0.4167
  N  N119  1  0.941000  0.625700  0.663000  1.0  -0.2936
  N  N120  1  0.817800  0.692600  0.847500  1.0  -0.31
