# generated using pymatgen
data_CdNiC7N6
_symmetry_space_group_name_H-M   'P 1'
_cell_length_a   14.01400000
_cell_length_b   26.96300000
_cell_length_c   7.57600000
_cell_angle_alpha   90.00000000
_cell_angle_beta   90.00000000
_cell_angle_gamma   91.74000000
_symmetry_Int_Tables_number   1
_chemical_formula_structural   CdNiC7N6
_chemical_formula_sum   'Cd8 Ni8 C56 N48'
_cell_volume   2861.34347752
_cell_formula_units_Z   8
loop_
 _symmetry_equiv_pos_site_id
 _symmetry_equiv_pos_as_xyz
  1  'x, y, z'
loop_
 _atom_site_type_symbol
 _atom_site_label
 _atom_site_symmetry_multiplicity
 _atom_site_fract_x
 _atom_site_fract_y
 _atom_site_fract_z
 _atom_site_occupancy
 _atom_site_charge
  Cd  Cd1  1  0.274840  0.135430  0.881050  1.0  1.0407
  Cd  Cd2  1  0.274840  0.635430  0.381050  1.0  1.0407
  Cd  Cd3  1  0.225160  0.864570  0.881050  1.0  1.0389
  Cd  Cd4  1  0.225160  0.364570  0.381050  1.0  1.0389
  Cd  Cd5  1  0.725160  0.864570  0.118950  1.0  1.0392
  Cd  Cd6  1  0.725160  0.364570  0.618950  1.0  1.0392
  Cd  Cd7  1  0.774840  0.135430  0.118950  1.0  1.0407
  Cd  Cd8  1  0.774840  0.635430  0.618950  1.0  1.0407
  Ni  Ni9  1  0.250000  0.000000  0.374400  1.0  0.0797
  Ni  Ni10  1  0.250000  0.500000  0.874400  1.0  0.0797
  Ni  Ni11  1  0.750000  0.000000  0.625600  1.0  0.0795
  Ni  Ni12  1  0.750000  0.500000  0.125600  1.0  0.0795
  Ni  Ni13  1  0.500000  0.250000  0.250000  1.0  0.3693
  Ni  Ni14  1  0.000000  0.750000  0.250000  1.0  0.3693
  Ni  Ni15  1  0.500000  0.750000  0.750000  1.0  0.3693
  Ni  Ni16  1  0.000000  0.250000  0.750000  1.0  0.3693
  C  C17  1  0.252100  0.049300  0.202300  1.0  0.169
  C  C18  1  0.249400  0.048600  0.549600  1.0  0.1582
  C  C19  1  0.391800  0.218800  0.153000  1.0  0.1689
  C  C20  1  0.075400  0.198300  0.825900  1.0  0.162
  C  C21  1  0.419300  0.191100  0.627000  1.0  0.1524
  C  C22  1  0.474200  0.157400  0.695000  1.0  0.1763
  C  C23  1  0.579400  0.157400  0.656000  1.0  0.0266
  C  C24  1  0.252100  0.549300  0.702300  1.0  0.169
  C  C25  1  0.249400  0.548600  0.049600  1.0  0.1582
  C  C26  1  0.391800  0.718800  0.653000  1.0  0.1689
  C  C27  1  0.075400  0.698300  0.325900  1.0  0.162
  C  C28  1  0.419300  0.691100  0.127000  1.0  0.1524
  C  C29  1  0.474200  0.657400  0.195000  1.0  0.1763
  C  C30  1  0.579400  0.657400  0.156000  1.0  0.0266
  C  C31  1  0.247900  0.950700  0.202300  1.0  0.1695
  C  C32  1  0.250600  0.951400  0.549600  1.0  0.1588
  C  C33  1  0.108200  0.781200  0.153000  1.0  0.1692
  C  C34  1  0.424600  0.801700  0.825900  1.0  0.1607
  C  C35  1  0.080700  0.808900  0.627000  1.0  0.1541
  C  C36  1  0.025800  0.842600  0.695000  1.0  0.1767
  C  C37  1  0.920600  0.842600  0.656000  1.0  0.0301
  C  C38  1  0.247900  0.450700  0.702300  1.0  0.1695
  C  C39  1  0.250600  0.451400  0.049600  1.0  0.1588
  C  C40  1  0.108200  0.281200  0.653000  1.0  0.1692
  C  C41  1  0.424600  0.301700  0.325900  1.0  0.1607
  C  C42  1  0.080700  0.308900  0.127000  1.0  0.1541
  C  C43  1  0.025800  0.342600  0.195000  1.0  0.1767
  C  C44  1  0.920600  0.342600  0.156000  1.0  0.0301
  C  C45  1  0.747900  0.950700  0.797700  1.0  0.1691
  C  C46  1  0.750600  0.951400  0.450400  1.0  0.1599
  C  C47  1  0.608200  0.781200  0.847000  1.0  0.1696
  C  C48  1  0.924600  0.801700  0.174100  1.0  0.16
  C  C49  1  0.580700  0.808900  0.373000  1.0  0.1537
  C  C50  1  0.525800  0.842600  0.305000  1.0  0.1767
  C  C51  1  0.420600  0.842600  0.344000  1.0  0.0297
  C  C52  1  0.747900  0.450700  0.297700  1.0  0.1691
  C  C53  1  0.750600  0.451400  0.950400  1.0  0.1599
  C  C54  1  0.608200  0.281200  0.347000  1.0  0.1696
  C  C55  1  0.924600  0.301700  0.674100  1.0  0.16
  C  C56  1  0.580700  0.308900  0.873000  1.0  0.1537
  C  C57  1  0.525800  0.342600  0.805000  1.0  0.1767
  C  C58  1  0.420600  0.342600  0.844000  1.0  0.0297
  C  C59  1  0.752100  0.049300  0.797700  1.0  0.168
  C  C60  1  0.749400  0.048600  0.450400  1.0  0.1589
  C  C61  1  0.891800  0.218800  0.847000  1.0  0.1685
  C  C62  1  0.575400  0.198300  0.174100  1.0  0.1613
  C  C63  1  0.919300  0.191100  0.373000  1.0  0.1521
  C  C64  1  0.974200  0.157400  0.305000  1.0  0.1765
  C  C65  1  0.079400  0.157400  0.344000  1.0  0.0263
  C  C66  1  0.752100  0.549300  0.297700  1.0  0.168
  C  C67  1  0.749400  0.548600  0.950400  1.0  0.1589
  C  C68  1  0.891800  0.718800  0.347000  1.0  0.1685
  C  C69  1  0.575400  0.698300  0.674100  1.0  0.1613
  C  C70  1  0.919300  0.691100  0.873000  1.0  0.1521
  C  C71  1  0.974200  0.657400  0.805000  1.0  0.1765
  C  C72  1  0.079400  0.657400  0.844000  1.0  0.0263
  N  N73  1  0.254400  0.079600  0.099000  1.0  -0.4068
  N  N74  1  0.249100  0.078000  0.655400  1.0  -0.4083
  N  N75  1  0.325900  0.199900  0.089900  1.0  -0.4587
  N  N76  1  0.123300  0.168000  0.871400  1.0  -0.4165
  N  N77  1  0.317600  0.192600  0.652500  1.0  -0.297
  N  N78  1  0.441000  0.125700  0.837000  1.0  -0.2939
  N  N79  1  0.254400  0.579600  0.599000  1.0  -0.4068
  N  N80  1  0.249100  0.578000  0.155400  1.0  -0.4083
  N  N81  1  0.325900  0.699900  0.589900  1.0  -0.4587
  N  N82  1  0.123300  0.668000  0.371400  1.0  -0.4165
  N  N83  1  0.317600  0.692600  0.152500  1.0  -0.297
  N  N84  1  0.441000  0.625700  0.337000  1.0  -0.2939
  N  N85  1  0.245600  0.920400  0.099000  1.0  -0.4036
  N  N86  1  0.250900  0.922000  0.655400  1.0  -0.4065
  N  N87  1  0.174100  0.800100  0.089900  1.0  -0.4572
  N  N88  1  0.376700  0.832000  0.871400  1.0  -0.4199
  N  N89  1  0.182400  0.807400  0.652500  1.0  -0.2956
  N  N90  1  0.059000  0.874300  0.837000  1.0  -0.2978
  N  N91  1  0.245600  0.420400  0.599000  1.0  -0.4036
  N  N92  1  0.250900  0.422000  0.155400  1.0  -0.4065
  N  N93  1  0.174100  0.300100  0.589900  1.0  -0.4572
  N  N94  1  0.376700  0.332000  0.371400  1.0  -0.4199
  N  N95  1  0.182400  0.307400  0.152500  1.0  -0.2956
  N  N96  1  0.059000  0.374300  0.337000  1.0  -0.2978
  N  N97  1  0.745600  0.920400  0.901000  1.0  -0.4044
  N  N98  1  0.750900  0.922000  0.344600  1.0  -0.4049
  N  N99  1  0.674100  0.800100  0.910100  1.0  -0.4571
  N  N100  1  0.876700  0.832000  0.128600  1.0  -0.4187
  N  N101  1  0.682400  0.807400  0.347500  1.0  -0.2956
  N  N102  1  0.559000  0.874300  0.163000  1.0  -0.2981
  N  N103  1  0.745600  0.420400  0.401000  1.0  -0.4044
  N  N104  1  0.750900  0.422000  0.844600  1.0  -0.4049
  N  N105  1  0.674100  0.300100  0.410100  1.0  -0.4571
  N  N106  1  0.876700  0.332000  0.628600  1.0  -0.4187
  N  N107  1  0.682400  0.307400  0.847500  1.0  -0.2956
  N  N108  1  0.559000  0.374300  0.663000  1.0  -0.2981
  N  N109  1  0.754400  0.079600  0.901000  1.0  -0.4073
  N  N110  1  0.749100  0.078000  0.344600  1.0  -0.4071
  N  N111  1  0.825900  0.199900  0.910100  1.0  -0.4586
  N  N112  1  0.623300  0.168000  0.128600  1.0  -0.4157
  N  N113  1  0.817600  0.192600  0.347500  1.0  -0.2969
  N  N114  1  0.941000  0.125700  0.163000  1.0  -0.2942
  N  N115  1  0.754400  0.579600  0.401000  1.0  -0.4073
  N  N116  1  0.749100  0.578000  0.844600  1.0  -0.4071
  N  N117  1  0.825900  0.699900  0.410100  1.0  -0.4586
  N  N118  1  0.623300  0.668000  0.628600  1.0  -0.4157
  N  N119  1  0.817600  0.692600  0.847500  1.0  -0.2969
  N  N120  1  0.941000  0.625700  0.663000  1.0  -0.2942
