# generated using pymatgen
data_CdNiC7N6
_symmetry_space_group_name_H-M   'P 1'
_cell_length_a   13.98700000
_cell_length_b   26.97100000
_cell_length_c   7.59500000
_cell_angle_alpha   90.00000000
_cell_angle_beta   90.00000000
_cell_angle_gamma   91.74000000
_symmetry_Int_Tables_number   1
_chemical_formula_structural   CdNiC7N6
_chemical_formula_sum   'Cd8 Ni8 C56 N48'
_cell_volume   2863.84233746
_cell_formula_units_Z   8
loop_
 _symmetry_equiv_pos_site_id
 _symmetry_equiv_pos_as_xyz
  1  'x, y, z'
loop_
 _atom_site_type_symbol
 _atom_site_label
 _atom_site_symmetry_multiplicity
 _atom_site_fract_x
 _atom_site_fract_y
 _atom_site_fract_z
 _atom_site_occupancy
 _atom_site_charge
  Cd  Cd1  1  0.275570  0.135240  0.879100  1.0  1.0268
  Cd  Cd2  1  0.275570  0.635240  0.379100  1.0  1.0268
  Cd  Cd3  1  0.224430  0.864760  0.879100  1.0  1.0255
  Cd  Cd4  1  0.224430  0.364760  0.379100  1.0  1.0255
  Cd  Cd5  1  0.724430  0.864760  0.120900  1.0  1.0253
  Cd  Cd6  1  0.724430  0.364760  0.620900  1.0  1.0253
  Cd  Cd7  1  0.775570  0.135240  0.120900  1.0  1.0266
  Cd  Cd8  1  0.775570  0.635240  0.620900  1.0  1.0266
  Ni  Ni9  1  0.250000  0.000000  0.372200  1.0  0.0894
  Ni  Ni10  1  0.250000  0.500000  0.872200  1.0  0.0894
  Ni  Ni11  1  0.750000  0.000000  0.627800  1.0  0.0893
  Ni  Ni12  1  0.750000  0.500000  0.127800  1.0  0.0893
  Ni  Ni13  1  0.000000  0.750000  0.250000  1.0  0.3791
  Ni  Ni14  1  0.500000  0.250000  0.250000  1.0  0.3791
  Ni  Ni15  1  0.000000  0.250000  0.750000  1.0  0.3791
  Ni  Ni16  1  0.500000  0.750000  0.750000  1.0  0.3791
  C  C17  1  0.252100  0.049200  0.199200  1.0  0.1605
  C  C18  1  0.250000  0.048800  0.546100  1.0  0.1525
  C  C19  1  0.108400  0.781200  0.151500  1.0  0.1557
  C  C20  1  0.924300  0.801400  0.175300  1.0  0.1602
  C  C21  1  0.420100  0.189900  0.622000  1.0  0.1765
  C  C22  1  0.476000  0.159200  0.699000  1.0  0.2475
  C  C23  1  0.581600  0.158300  0.656000  1.0  0.0115
  C  C24  1  0.252100  0.549200  0.699200  1.0  0.1605
  C  C25  1  0.250000  0.548800  0.046100  1.0  0.1525
  C  C26  1  0.108400  0.281200  0.651500  1.0  0.1557
  C  C27  1  0.924300  0.301400  0.675300  1.0  0.1602
  C  C28  1  0.420100  0.689900  0.122000  1.0  0.1765
  C  C29  1  0.476000  0.659200  0.199000  1.0  0.2475
  C  C30  1  0.581600  0.658300  0.156000  1.0  0.0115
  C  C31  1  0.247900  0.950800  0.199200  1.0  0.1592
  C  C32  1  0.250000  0.951200  0.546100  1.0  0.1554
  C  C33  1  0.391600  0.218800  0.151500  1.0  0.1547
  C  C34  1  0.575700  0.198600  0.175300  1.0  0.1618
  C  C35  1  0.079900  0.810100  0.622000  1.0  0.1772
  C  C36  1  0.024000  0.840800  0.699000  1.0  0.2469
  C  C37  1  0.918400  0.841700  0.656000  1.0  0.0146
  C  C38  1  0.247900  0.450800  0.699200  1.0  0.1592
  C  C39  1  0.250000  0.451200  0.046100  1.0  0.1554
  C  C40  1  0.391600  0.718800  0.651500  1.0  0.1547
  C  C41  1  0.575700  0.698600  0.675300  1.0  0.1618
  C  C42  1  0.079900  0.310100  0.122000  1.0  0.1772
  C  C43  1  0.024000  0.340800  0.199000  1.0  0.2469
  C  C44  1  0.918400  0.341700  0.156000  1.0  0.0146
  C  C45  1  0.747900  0.950800  0.800800  1.0  0.1585
  C  C46  1  0.750000  0.951200  0.453900  1.0  0.1565
  C  C47  1  0.891600  0.218800  0.848500  1.0  0.155
  C  C48  1  0.075700  0.198600  0.824700  1.0  0.1613
  C  C49  1  0.579900  0.810100  0.378000  1.0  0.176
  C  C50  1  0.524000  0.840800  0.301000  1.0  0.2467
  C  C51  1  0.418400  0.841700  0.344000  1.0  0.0149
  C  C52  1  0.747900  0.450800  0.300800  1.0  0.1585
  C  C53  1  0.750000  0.451200  0.953900  1.0  0.1567
  C  C54  1  0.891600  0.718800  0.348500  1.0  0.155
  C  C55  1  0.075700  0.698600  0.324700  1.0  0.1613
  C  C56  1  0.579900  0.310100  0.878000  1.0  0.176
  C  C57  1  0.524000  0.340800  0.801000  1.0  0.2467
  C  C58  1  0.418400  0.341700  0.844000  1.0  0.0149
  C  C59  1  0.752100  0.049200  0.800800  1.0  0.1601
  C  C60  1  0.750000  0.048800  0.453900  1.0  0.155
  C  C61  1  0.608400  0.781200  0.848500  1.0  0.1556
  C  C62  1  0.424300  0.801400  0.824700  1.0  0.1603
  C  C63  1  0.920100  0.189900  0.378000  1.0  0.1755
  C  C64  1  0.976000  0.159200  0.301000  1.0  0.2474
  C  C65  1  0.081600  0.158300  0.344000  1.0  0.0118
  C  C66  1  0.752100  0.549200  0.300800  1.0  0.1601
  C  C67  1  0.750000  0.548800  0.953900  1.0  0.1543
  C  C68  1  0.608400  0.281200  0.348500  1.0  0.1556
  C  C69  1  0.424300  0.301400  0.324700  1.0  0.1603
  C  C70  1  0.920100  0.689900  0.878000  1.0  0.1755
  C  C71  1  0.976000  0.659200  0.801000  1.0  0.2474
  C  C72  1  0.081600  0.658300  0.844000  1.0  0.0118
  N  N73  1  0.254900  0.079900  0.095800  1.0  -0.4118
  N  N74  1  0.250000  0.921700  0.653600  1.0  -0.4265
  N  N75  1  0.173900  0.800400  0.089200  1.0  -0.4482
  N  N76  1  0.875800  0.832300  0.131200  1.0  -0.4528
  N  N77  1  0.318200  0.193000  0.652100  1.0  -0.2985
  N  N78  1  0.442500  0.125600  0.836300  1.0  -0.2922
  N  N79  1  0.254900  0.579900  0.595800  1.0  -0.4118
  N  N80  1  0.250000  0.421700  0.153600  1.0  -0.4265
  N  N81  1  0.173900  0.300400  0.589200  1.0  -0.4482
  N  N82  1  0.875800  0.332300  0.631200  1.0  -0.4528
  N  N83  1  0.318200  0.693000  0.152100  1.0  -0.2985
  N  N84  1  0.442500  0.625600  0.336300  1.0  -0.2922
  N  N85  1  0.245100  0.920100  0.095800  1.0  -0.4106
  N  N86  1  0.250000  0.078300  0.653600  1.0  -0.4261
  N  N87  1  0.326100  0.199600  0.089200  1.0  -0.4487
  N  N88  1  0.624200  0.167700  0.131200  1.0  -0.4499
  N  N89  1  0.181800  0.807000  0.652100  1.0  -0.2973
  N  N90  1  0.057500  0.874400  0.836300  1.0  -0.2943
  N  N91  1  0.245100  0.420100  0.595800  1.0  -0.4106
  N  N92  1  0.250000  0.578300  0.153600  1.0  -0.4261
  N  N93  1  0.326100  0.699600  0.589200  1.0  -0.4487
  N  N94  1  0.624200  0.667700  0.631200  1.0  -0.4499
  N  N95  1  0.181800  0.307000  0.152100  1.0  -0.2973
  N  N96  1  0.057500  0.374400  0.336300  1.0  -0.2943
  N  N97  1  0.745100  0.920100  0.904200  1.0  -0.4108
  N  N98  1  0.750000  0.078300  0.346400  1.0  -0.425
  N  N99  1  0.826100  0.199600  0.910800  1.0  -0.4489
  N  N100  1  0.124200  0.167700  0.868800  1.0  -0.4502
  N  N101  1  0.681800  0.807000  0.347900  1.0  -0.2965
  N  N102  1  0.557500  0.874400  0.163700  1.0  -0.2938
  N  N103  1  0.745100  0.420100  0.404200  1.0  -0.4108
  N  N104  1  0.750000  0.578300  0.846400  1.0  -0.425
  N  N105  1  0.826100  0.699600  0.410800  1.0  -0.4489
  N  N106  1  0.124200  0.667700  0.368800  1.0  -0.4502
  N  N107  1  0.681800  0.307000  0.847900  1.0  -0.2965
  N  N108  1  0.557500  0.374400  0.663700  1.0  -0.2938
  N  N109  1  0.754900  0.079900  0.904200  1.0  -0.4115
  N  N110  1  0.750000  0.921700  0.346400  1.0  -0.4251
  N  N111  1  0.673900  0.800400  0.910800  1.0  -0.4481
  N  N112  1  0.375800  0.832300  0.868800  1.0  -0.4535
  N  N113  1  0.818200  0.193000  0.347900  1.0  -0.2977
  N  N114  1  0.942500  0.125600  0.163700  1.0  -0.2919
  N  N115  1  0.754900  0.579900  0.404200  1.0  -0.4115
  N  N116  1  0.750000  0.421700  0.846400  1.0  -0.4251
  N  N117  1  0.673900  0.300400  0.410800  1.0  -0.4481
  N  N118  1  0.375800  0.332300  0.368800  1.0  -0.4535
  N  N119  1  0.818200  0.693000  0.847900  1.0  -0.2977
  N  N120  1  0.942500  0.625600  0.663700  1.0  -0.2919
