# generated using pymatgen
data_CdNiC7N6
_symmetry_space_group_name_H-M   'P 1'
_cell_length_a   13.96100000
_cell_length_b   26.99800000
_cell_length_c   7.58900000
_cell_angle_alpha   90.00000000
_cell_angle_beta   90.00000000
_cell_angle_gamma   89.16000000
_symmetry_Int_Tables_number   1
_chemical_formula_structural   CdNiC7N6
_chemical_formula_sum   'Cd8 Ni8 C56 N48'
_cell_volume   2860.13147987
_cell_formula_units_Z   8
loop_
 _symmetry_equiv_pos_site_id
 _symmetry_equiv_pos_as_xyz
  1  'x, y, z'
loop_
 _atom_site_type_symbol
 _atom_site_label
 _atom_site_symmetry_multiplicity
 _atom_site_fract_x
 _atom_site_fract_y
 _atom_site_fract_z
 _atom_site_occupancy
 _atom_site_charge
  Cd  Cd1  1  0.286250  0.134550  0.876670  1.0  1.0802
  Cd  Cd2  1  0.286250  0.634550  0.376670  1.0  1.0802
  Cd  Cd3  1  0.213750  0.865450  0.876670  1.0  1.0793
  Cd  Cd4  1  0.213750  0.365450  0.376670  1.0  1.0793
  Cd  Cd5  1  0.713750  0.865450  0.123330  1.0  1.0789
  Cd  Cd6  1  0.713750  0.365450  0.623330  1.0  1.0789
  Cd  Cd7  1  0.786250  0.134550  0.123330  1.0  1.0799
  Cd  Cd8  1  0.786250  0.634550  0.623330  1.0  1.0799
  Ni  Ni9  1  0.250000  0.000000  0.367900  1.0  0.1592
  Ni  Ni10  1  0.250000  0.500000  0.867900  1.0  0.1592
  Ni  Ni11  1  0.750000  0.000000  0.632100  1.0  0.1592
  Ni  Ni12  1  0.750000  0.500000  0.132100  1.0  0.1592
  Ni  Ni13  1  0.500000  0.250000  0.250000  1.0  0.3621
  Ni  Ni14  1  0.000000  0.750000  0.250000  1.0  0.3621
  Ni  Ni15  1  0.500000  0.750000  0.750000  1.0  0.3621
  Ni  Ni16  1  0.000000  0.250000  0.750000  1.0  0.3621
  C  C17  1  0.257700  0.048700  0.195000  1.0  0.1715
  C  C18  1  0.257500  0.048500  0.542000  1.0  0.1596
  C  C19  1  0.395500  0.218100  0.151000  1.0  0.1795
  C  C20  1  0.081300  0.199000  0.826000  1.0  0.1915
  C  C21  1  0.428500  0.192000  0.628000  1.0  0.0983
  C  C22  1  0.482300  0.152900  0.685000  1.0  0.1462
  C  C23  1  0.590300  0.155200  0.652000  1.0  -0.0115
  C  C24  1  0.257700  0.548700  0.695000  1.0  0.1715
  C  C25  1  0.257500  0.548500  0.042000  1.0  0.1596
  C  C26  1  0.395500  0.718100  0.651000  1.0  0.1795
  C  C27  1  0.081300  0.699000  0.326000  1.0  0.1915
  C  C28  1  0.428500  0.692000  0.128000  1.0  0.0983
  C  C29  1  0.482300  0.652900  0.185000  1.0  0.1462
  C  C30  1  0.590300  0.655200  0.152000  1.0  -0.0115
  C  C31  1  0.242300  0.951300  0.195000  1.0  0.1717
  C  C32  1  0.242500  0.951500  0.542000  1.0  0.1601
  C  C33  1  0.104500  0.781900  0.151000  1.0  0.1796
  C  C34  1  0.418700  0.801000  0.826000  1.0  0.19
  C  C35  1  0.071500  0.808000  0.628000  1.0  0.098
  C  C36  1  0.017700  0.847100  0.685000  1.0  0.1466
  C  C37  1  0.909700  0.844800  0.652000  1.0  -0.0097
  C  C38  1  0.242300  0.451300  0.695000  1.0  0.1717
  C  C39  1  0.242500  0.451500  0.042000  1.0  0.1601
  C  C40  1  0.104500  0.281900  0.651000  1.0  0.1796
  C  C41  1  0.418700  0.301000  0.326000  1.0  0.19
  C  C42  1  0.071500  0.308000  0.128000  1.0  0.098
  C  C43  1  0.017700  0.347100  0.185000  1.0  0.1466
  C  C44  1  0.909700  0.344800  0.152000  1.0  -0.0097
  C  C45  1  0.742300  0.951300  0.805000  1.0  0.1707
  C  C46  1  0.742500  0.951500  0.458000  1.0  0.1614
  C  C47  1  0.604500  0.781900  0.849000  1.0  0.1798
  C  C48  1  0.918700  0.801000  0.174000  1.0  0.1899
  C  C49  1  0.571500  0.808000  0.372000  1.0  0.0969
  C  C50  1  0.517700  0.847100  0.315000  1.0  0.1469
  C  C51  1  0.409700  0.844800  0.348000  1.0  -0.0096
  C  C52  1  0.742300  0.451300  0.305000  1.0  0.1707
  C  C53  1  0.742500  0.451500  0.958000  1.0  0.1614
  C  C54  1  0.604500  0.281900  0.349000  1.0  0.1798
  C  C55  1  0.918700  0.301000  0.674000  1.0  0.1899
  C  C56  1  0.571500  0.308000  0.872000  1.0  0.0969
  C  C57  1  0.517700  0.347100  0.815000  1.0  0.1469
  C  C58  1  0.409700  0.344800  0.848000  1.0  -0.0096
  C  C59  1  0.757700  0.048700  0.805000  1.0  0.1706
  C  C60  1  0.757500  0.048500  0.458000  1.0  0.1606
  C  C61  1  0.895500  0.218100  0.849000  1.0  0.1794
  C  C62  1  0.581300  0.199000  0.174000  1.0  0.1914
  C  C63  1  0.928500  0.192000  0.372000  1.0  0.0974
  C  C64  1  0.982300  0.152900  0.315000  1.0  0.1467
  C  C65  1  0.090300  0.155200  0.348000  1.0  -0.0115
  C  C66  1  0.757700  0.548700  0.305000  1.0  0.1706
  C  C67  1  0.757500  0.548500  0.958000  1.0  0.1606
  C  C68  1  0.895500  0.718100  0.349000  1.0  0.1794
  C  C69  1  0.581300  0.699000  0.674000  1.0  0.1914
  C  C70  1  0.928500  0.692000  0.872000  1.0  0.0974
  C  C71  1  0.982300  0.652900  0.815000  1.0  0.1467
  C  C72  1  0.090300  0.655200  0.848000  1.0  -0.0115
  N  N73  1  0.263400  0.078900  0.090400  1.0  -0.4104
  N  N74  1  0.262000  0.078000  0.649200  1.0  -0.4343
  N  N75  1  0.332400  0.198600  0.087000  1.0  -0.4505
  N  N76  1  0.133000  0.168800  0.870000  1.0  -0.4154
  N  N77  1  0.324400  0.192200  0.648000  1.0  -0.264
  N  N78  1  0.452900  0.124600  0.833800  1.0  -0.3013
  N  N79  1  0.263400  0.578900  0.590400  1.0  -0.4104
  N  N80  1  0.262000  0.578000  0.149200  1.0  -0.4343
  N  N81  1  0.332400  0.698600  0.587000  1.0  -0.4505
  N  N82  1  0.133000  0.668800  0.370000  1.0  -0.4154
  N  N83  1  0.324400  0.692200  0.148000  1.0  -0.264
  N  N84  1  0.452900  0.624600  0.333800  1.0  -0.3013
  N  N85  1  0.236600  0.921100  0.090400  1.0  -0.4085
  N  N86  1  0.238000  0.922000  0.649200  1.0  -0.4342
  N  N87  1  0.167600  0.801400  0.087000  1.0  -0.4509
  N  N88  1  0.367000  0.831200  0.870000  1.0  -0.4173
  N  N89  1  0.175600  0.807800  0.648000  1.0  -0.2632
  N  N90  1  0.047100  0.875400  0.833800  1.0  -0.3033
  N  N91  1  0.236600  0.421100  0.590400  1.0  -0.4085
  N  N92  1  0.238000  0.422000  0.149200  1.0  -0.4342
  N  N93  1  0.167600  0.301400  0.587000  1.0  -0.4509
  N  N94  1  0.367000  0.331200  0.370000  1.0  -0.4173
  N  N95  1  0.175600  0.307800  0.148000  1.0  -0.2632
  N  N96  1  0.047100  0.375400  0.333800  1.0  -0.3033
  N  N97  1  0.736600  0.921100  0.909600  1.0  -0.4088
  N  N98  1  0.738000  0.922000  0.350800  1.0  -0.4335
  N  N99  1  0.667600  0.801400  0.913000  1.0  -0.451
  N  N100  1  0.867000  0.831200  0.130000  1.0  -0.4169
  N  N101  1  0.675600  0.807800  0.352000  1.0  -0.2634
  N  N102  1  0.547100  0.875400  0.166200  1.0  -0.303
  N  N103  1  0.736600  0.421100  0.409600  1.0  -0.4088
  N  N104  1  0.738000  0.422000  0.850800  1.0  -0.4335
  N  N105  1  0.667600  0.301400  0.413000  1.0  -0.451
  N  N106  1  0.867000  0.331200  0.630000  1.0  -0.4169
  N  N107  1  0.675600  0.307800  0.852000  1.0  -0.2634
  N  N108  1  0.547100  0.375400  0.666200  1.0  -0.303
  N  N109  1  0.763400  0.078900  0.909600  1.0  -0.4101
  N  N110  1  0.762000  0.078000  0.350800  1.0  -0.4336
  N  N111  1  0.832400  0.198600  0.913000  1.0  -0.4506
  N  N112  1  0.633000  0.168800  0.130000  1.0  -0.4147
  N  N113  1  0.824400  0.192200  0.352000  1.0  -0.2641
  N  N114  1  0.952900  0.124600  0.166200  1.0  -0.3
  N  N115  1  0.763400  0.578900  0.409600  1.0  -0.4101
  N  N116  1  0.762000  0.578000  0.850800  1.0  -0.4336
  N  N117  1  0.832400  0.698600  0.413000  1.0  -0.4506
  N  N118  1  0.633000  0.668800  0.630000  1.0  -0.4147
  N  N119  1  0.824400  0.692200  0.852000  1.0  -0.2641
  N  N120  1  0.952900  0.624600  0.666200  1.0  -0.3
