# generated using pymatgen
data_CdNiC7N6
_symmetry_space_group_name_H-M   'P 1'
_cell_length_a   14.15700000
_cell_length_b   26.69900000
_cell_length_c   7.58600000
_cell_angle_alpha   90.00000000
_cell_angle_beta   90.00000000
_cell_angle_gamma   90.00000000
_symmetry_Int_Tables_number   1
_chemical_formula_structural   CdNiC7N6
_chemical_formula_sum   'Cd8 Ni8 C56 N48'
_cell_volume   2867.33915840
_cell_formula_units_Z   8
loop_
 _symmetry_equiv_pos_site_id
 _symmetry_equiv_pos_as_xyz
  1  'x, y, z'
loop_
 _atom_site_type_symbol
 _atom_site_label
 _atom_site_symmetry_multiplicity
 _atom_site_fract_x
 _atom_site_fract_y
 _atom_site_fract_z
 _atom_site_occupancy
 _atom_site_charge
  Cd  Cd1  1  0.218940  0.114140  0.130750  1.0  1.0489
  Cd  Cd2  1  0.281060  0.885860  0.630750  1.0  1.0503
  Cd  Cd3  1  0.781060  0.614140  0.869250  1.0  1.0495
  Cd  Cd4  1  0.718940  0.385860  0.369250  1.0  1.0499
  Cd  Cd5  1  0.781060  0.885860  0.869250  1.0  1.0504
  Cd  Cd6  1  0.718940  0.114140  0.369250  1.0  1.049
  Cd  Cd7  1  0.218940  0.385860  0.130750  1.0  1.0497
  Cd  Cd8  1  0.281060  0.614140  0.630750  1.0  1.0495
  Ni  Ni9  1  0.248900  0.250000  0.624100  1.0  0.0523
  Ni  Ni10  1  0.251100  0.750000  0.124100  1.0  0.0524
  Ni  Ni11  1  0.751100  0.750000  0.375900  1.0  0.0525
  Ni  Ni12  1  0.748900  0.250000  0.875900  1.0  0.0523
  Ni  Ni13  1  0.000000  0.000000  0.500000  1.0  0.3065
  Ni  Ni14  1  0.500000  0.000000  0.000000  1.0  0.3065
  Ni  Ni15  1  0.000000  0.500000  0.500000  1.0  0.3065
  Ni  Ni16  1  0.500000  0.500000  0.000000  1.0  0.3065
  C  C17  1  0.249000  0.201400  0.798000  1.0  0.1661
  C  C18  1  0.246500  0.200800  0.451300  1.0  0.1703
  C  C19  1  0.104300  0.031600  0.401000  1.0  0.1542
  C  C20  1  0.420100  0.050200  0.080700  1.0  0.1568
  C  C21  1  0.075300  0.060400  0.877000  1.0  0.1491
  C  C22  1  0.025500  0.098600  0.936000  1.0  0.2173
  C  C23  1  0.920400  0.100500  0.896000  1.0  0.013
  C  C24  1  0.251000  0.798600  0.298000  1.0  0.1649
  C  C25  1  0.253500  0.799200  0.951300  1.0  0.1703
  C  C26  1  0.395700  0.968400  0.901000  1.0  0.1539
  C  C27  1  0.079900  0.949800  0.580700  1.0  0.1587
  C  C28  1  0.424700  0.939600  0.377000  1.0  0.149
  C  C29  1  0.474500  0.901400  0.436000  1.0  0.216
  C  C30  1  0.579600  0.899500  0.396000  1.0  0.0104
  C  C31  1  0.751000  0.701400  0.202000  1.0  0.1666
  C  C32  1  0.753500  0.700800  0.548700  1.0  0.1705
  C  C33  1  0.895700  0.531600  0.599000  1.0  0.1543
  C  C34  1  0.579900  0.550200  0.919300  1.0  0.1569
  C  C35  1  0.924700  0.560400  0.123000  1.0  0.1485
  C  C36  1  0.974500  0.598600  0.064000  1.0  0.2163
  C  C37  1  0.079600  0.600500  0.104000  1.0  0.0098
  C  C38  1  0.749000  0.298600  0.702000  1.0  0.1662
  C  C39  1  0.746500  0.299200  0.048700  1.0  0.1702
  C  C40  1  0.604300  0.468400  0.099000  1.0  0.155
  C  C41  1  0.920100  0.449800  0.419300  1.0  0.1584
  C  C42  1  0.575300  0.439600  0.623000  1.0  0.1483
  C  C43  1  0.525500  0.401400  0.564000  1.0  0.217
  C  C44  1  0.420400  0.399500  0.604000  1.0  0.0125
  C  C45  1  0.751000  0.798600  0.202000  1.0  0.166
  C  C46  1  0.753500  0.799200  0.548700  1.0  0.1702
  C  C47  1  0.895700  0.968400  0.599000  1.0  0.1546
  C  C48  1  0.579900  0.949800  0.919300  1.0  0.1586
  C  C49  1  0.924700  0.939600  0.123000  1.0  0.1482
  C  C50  1  0.974500  0.901400  0.064000  1.0  0.2159
  C  C51  1  0.079600  0.899500  0.104000  1.0  0.01
  C  C52  1  0.749000  0.201400  0.702000  1.0  0.1671
  C  C53  1  0.746500  0.200800  0.048700  1.0  0.1701
  C  C54  1  0.604300  0.031600  0.099000  1.0  0.1549
  C  C55  1  0.920100  0.050200  0.419300  1.0  0.1569
  C  C56  1  0.575300  0.060400  0.623000  1.0  0.1481
  C  C57  1  0.525500  0.098600  0.564000  1.0  0.2173
  C  C58  1  0.420400  0.100500  0.604000  1.0  0.0122
  C  C59  1  0.249000  0.298600  0.798000  1.0  0.1654
  C  C60  1  0.246500  0.299200  0.451300  1.0  0.1699
  C  C61  1  0.104300  0.468400  0.401000  1.0  0.1545
  C  C62  1  0.420100  0.449800  0.080700  1.0  0.1584
  C  C63  1  0.075300  0.439600  0.877000  1.0  0.1492
  C  C64  1  0.025500  0.401400  0.936000  1.0  0.217
  C  C65  1  0.920400  0.399500  0.896000  1.0  0.013
  C  C66  1  0.251000  0.701400  0.298000  1.0  0.1659
  C  C67  1  0.253500  0.700800  0.951300  1.0  0.1703
  C  C68  1  0.395700  0.531600  0.901000  1.0  0.1537
  C  C69  1  0.079900  0.550200  0.580700  1.0  0.1569
  C  C70  1  0.424700  0.560400  0.377000  1.0  0.149
  C  C71  1  0.474500  0.598600  0.436000  1.0  0.2164
  C  C72  1  0.579600  0.600500  0.396000  1.0  0.0106
  N  N73  1  0.249000  0.171400  0.905000  1.0  -0.3876
  N  N74  1  0.242100  0.170700  0.345200  1.0  -0.4194
  N  N75  1  0.167000  0.051500  0.338000  1.0  -0.4215
  N  N76  1  0.369600  0.080300  0.126000  1.0  -0.4302
  N  N77  1  0.176500  0.057000  0.901000  1.0  -0.3006
  N  N78  1  0.056300  0.129500  0.080000  1.0  -0.2975
  N  N79  1  0.251000  0.828600  0.405000  1.0  -0.3882
  N  N80  1  0.257900  0.829300  0.845200  1.0  -0.4206
  N  N81  1  0.333000  0.948500  0.838000  1.0  -0.4218
  N  N82  1  0.130400  0.919700  0.626000  1.0  -0.4264
  N  N83  1  0.323500  0.943000  0.401000  1.0  -0.3019
  N  N84  1  0.443700  0.870500  0.580000  1.0  -0.2955
  N  N85  1  0.751000  0.671400  0.095000  1.0  -0.3864
  N  N86  1  0.757900  0.670700  0.654800  1.0  -0.4197
  N  N87  1  0.833000  0.551500  0.662000  1.0  -0.422
  N  N88  1  0.630400  0.580300  0.874000  1.0  -0.4285
  N  N89  1  0.823500  0.557000  0.099000  1.0  -0.3007
  N  N90  1  0.943700  0.629500  0.920000  1.0  -0.2979
  N  N91  1  0.749000  0.328600  0.595000  1.0  -0.386
  N  N92  1  0.742100  0.329300  0.154800  1.0  -0.4204
  N  N93  1  0.667000  0.448500  0.162000  1.0  -0.4218
  N  N94  1  0.869600  0.419700  0.374000  1.0  -0.4266
  N  N95  1  0.676500  0.443000  0.599000  1.0  -0.3004
  N  N96  1  0.556300  0.370500  0.420000  1.0  -0.2951
  N  N97  1  0.751000  0.828600  0.095000  1.0  -0.3867
  N  N98  1  0.757900  0.829300  0.654800  1.0  -0.4204
  N  N99  1  0.833000  0.948500  0.662000  1.0  -0.422
  N  N100  1  0.630400  0.919700  0.874000  1.0  -0.4259
  N  N101  1  0.823500  0.943000  0.099000  1.0  -0.3006
  N  N102  1  0.943700  0.870500  0.920000  1.0  -0.2952
  N  N103  1  0.749000  0.171400  0.595000  1.0  -0.3859
  N  N104  1  0.742100  0.170700  0.154800  1.0  -0.4196
  N  N105  1  0.667000  0.051500  0.162000  1.0  -0.4216
  N  N106  1  0.869600  0.080300  0.374000  1.0  -0.4291
  N  N107  1  0.676500  0.057000  0.599000  1.0  -0.3002
  N  N108  1  0.556300  0.129500  0.420000  1.0  -0.2981
  N  N109  1  0.249000  0.328600  0.905000  1.0  -0.3875
  N  N110  1  0.242100  0.329300  0.345200  1.0  -0.4207
  N  N111  1  0.167000  0.448500  0.338000  1.0  -0.4217
  N  N112  1  0.369600  0.419700  0.126000  1.0  -0.4275
  N  N113  1  0.176500  0.443000  0.901000  1.0  -0.301
  N  N114  1  0.056300  0.370500  0.080000  1.0  -0.295
  N  N115  1  0.251000  0.671400  0.405000  1.0  -0.388
  N  N116  1  0.257900  0.670700  0.845200  1.0  -0.4194
  N  N117  1  0.333000  0.551500  0.838000  1.0  -0.4218
  N  N118  1  0.130400  0.580300  0.626000  1.0  -0.4292
  N  N119  1  0.323500  0.557000  0.401000  1.0  -0.3018
  N  N120  1  0.443700  0.629500  0.580000  1.0  -0.2978
