# generated using pymatgen
data_CdNiC7N6
_symmetry_space_group_name_H-M   'P 1'
_cell_length_a   14.10400000
_cell_length_b   26.79900000
_cell_length_c   7.65700000
_cell_angle_alpha   90.00000000
_cell_angle_beta   90.00000000
_cell_angle_gamma   90.00000000
_symmetry_Int_Tables_number   1
_chemical_formula_structural   CdNiC7N6
_chemical_formula_sum   'Cd8 Ni8 C56 N48'
_cell_volume   2894.13999607
_cell_formula_units_Z   8
loop_
 _symmetry_equiv_pos_site_id
 _symmetry_equiv_pos_as_xyz
  1  'x, y, z'
loop_
 _atom_site_type_symbol
 _atom_site_label
 _atom_site_symmetry_multiplicity
 _atom_site_fract_x
 _atom_site_fract_y
 _atom_site_fract_z
 _atom_site_occupancy
 _atom_site_charge
  Cd  Cd1  1  0.216400  0.115070  0.123400  1.0  1.0551
  Cd  Cd2  1  0.283600  0.884930  0.623400  1.0  1.0565
  Cd  Cd3  1  0.783600  0.615070  0.876600  1.0  1.056
  Cd  Cd4  1  0.716400  0.384930  0.376600  1.0  1.0556
  Cd  Cd5  1  0.783600  0.884930  0.876600  1.0  1.0566
  Cd  Cd6  1  0.716400  0.115070  0.376600  1.0  1.0551
  Cd  Cd7  1  0.216400  0.384930  0.123400  1.0  1.0555
  Cd  Cd8  1  0.283600  0.615070  0.623400  1.0  1.0561
  Ni  Ni9  1  0.246400  0.250000  0.614500  1.0  0.083
  Ni  Ni10  1  0.253600  0.750000  0.114500  1.0  0.0833
  Ni  Ni11  1  0.753600  0.750000  0.385500  1.0  0.0834
  Ni  Ni12  1  0.746400  0.250000  0.885500  1.0  0.0831
  Ni  Ni13  1  0.000000  0.000000  0.500000  1.0  0.3338
  Ni  Ni14  1  0.500000  0.000000  0.000000  1.0  0.3338
  Ni  Ni15  1  0.000000  0.500000  0.500000  1.0  0.3338
  Ni  Ni16  1  0.500000  0.500000  0.000000  1.0  0.3338
  C  C17  1  0.243500  0.200900  0.787000  1.0  0.1456
  C  C18  1  0.245400  0.201300  0.442000  1.0  0.1675
  C  C19  1  0.104100  0.032900  0.401000  1.0  0.1572
  C  C20  1  0.418300  0.050200  0.075000  1.0  0.1724
  C  C21  1  0.074000  0.059700  0.874000  1.0  0.1708
  C  C22  1  0.020000  0.094000  0.939000  1.0  0.2064
  C  C23  1  0.913100  0.094300  0.908000  1.0  -0.003
  C  C24  1  0.256500  0.799100  0.287000  1.0  0.1446
  C  C25  1  0.254600  0.798700  0.942000  1.0  0.167
  C  C26  1  0.395900  0.967100  0.901000  1.0  0.1568
  C  C27  1  0.081700  0.949800  0.575000  1.0  0.174
  C  C28  1  0.426000  0.940300  0.374000  1.0  0.1697
  C  C29  1  0.480000  0.906000  0.439000  1.0  0.2041
  C  C30  1  0.586900  0.905700  0.408000  1.0  -0.0051
  C  C31  1  0.756500  0.700900  0.213000  1.0  0.1457
  C  C32  1  0.754600  0.701300  0.558000  1.0  0.1665
  C  C33  1  0.895900  0.532900  0.599000  1.0  0.1568
  C  C34  1  0.581700  0.550200  0.925000  1.0  0.1732
  C  C35  1  0.926000  0.559700  0.126000  1.0  0.1697
  C  C36  1  0.980000  0.594000  0.061000  1.0  0.205
  C  C37  1  0.086900  0.594300  0.092000  1.0  -0.0051
  C  C38  1  0.743500  0.299100  0.713000  1.0  0.1459
  C  C39  1  0.745400  0.298700  0.058000  1.0  0.1658
  C  C40  1  0.604100  0.467100  0.099000  1.0  0.1571
  C  C41  1  0.918300  0.449800  0.425000  1.0  0.1735
  C  C42  1  0.574000  0.440300  0.626000  1.0  0.1692
  C  C43  1  0.520000  0.406000  0.561000  1.0  0.2053
  C  C44  1  0.413100  0.405700  0.592000  1.0  -0.0023
  C  C45  1  0.756500  0.799100  0.213000  1.0  0.1455
  C  C46  1  0.754600  0.798700  0.558000  1.0  0.1658
  C  C47  1  0.895900  0.967100  0.599000  1.0  0.157
  C  C48  1  0.581700  0.949800  0.925000  1.0  0.1742
  C  C49  1  0.926000  0.940300  0.126000  1.0  0.1692
  C  C50  1  0.980000  0.906000  0.061000  1.0  0.2041
  C  C51  1  0.086900  0.905700  0.092000  1.0  -0.0054
  C  C52  1  0.743500  0.200900  0.713000  1.0  0.1463
  C  C53  1  0.745400  0.201300  0.058000  1.0  0.1665
  C  C54  1  0.604100  0.032900  0.099000  1.0  0.1568
  C  C55  1  0.918300  0.050200  0.425000  1.0  0.1727
  C  C56  1  0.574000  0.059700  0.626000  1.0  0.1698
  C  C57  1  0.520000  0.094000  0.561000  1.0  0.2063
  C  C58  1  0.413100  0.094300  0.592000  1.0  -0.0033
  C  C59  1  0.243500  0.299100  0.787000  1.0  0.1452
  C  C60  1  0.245400  0.298700  0.442000  1.0  0.167
  C  C61  1  0.104100  0.467100  0.401000  1.0  0.1573
  C  C62  1  0.418300  0.449800  0.075000  1.0  0.1732
  C  C63  1  0.074000  0.440300  0.874000  1.0  0.1698
  C  C64  1  0.020000  0.406000  0.939000  1.0  0.2053
  C  C65  1  0.913100  0.405700  0.908000  1.0  -0.0033
  C  C66  1  0.256500  0.700900  0.287000  1.0  0.1452
  C  C67  1  0.254600  0.701300  0.942000  1.0  0.1676
  C  C68  1  0.395900  0.532900  0.901000  1.0  0.1567
  C  C69  1  0.081700  0.550200  0.575000  1.0  0.1729
  C  C70  1  0.426000  0.559700  0.374000  1.0  0.1707
  C  C71  1  0.480000  0.594000  0.439000  1.0  0.2051
  C  C72  1  0.586900  0.594300  0.408000  1.0  -0.0059
  N  N73  1  0.241000  0.171600  0.897000  1.0  -0.4043
  N  N74  1  0.241400  0.171100  0.335000  1.0  -0.4393
  N  N75  1  0.165400  0.052700  0.336000  1.0  -0.4319
  N  N76  1  0.368600  0.080700  0.119000  1.0  -0.4452
  N  N77  1  0.175600  0.056000  0.903000  1.0  -0.2701
  N  N78  1  0.052100  0.127500  0.078000  1.0  -0.2893
  N  N79  1  0.259000  0.828400  0.397000  1.0  -0.4038
  N  N80  1  0.258600  0.828900  0.835000  1.0  -0.4403
  N  N81  1  0.334600  0.947300  0.836000  1.0  -0.4321
  N  N82  1  0.131400  0.919300  0.619000  1.0  -0.4417
  N  N83  1  0.324400  0.944000  0.403000  1.0  -0.2718
  N  N84  1  0.447900  0.872500  0.578000  1.0  -0.2871
  N  N85  1  0.759000  0.671600  0.103000  1.0  -0.4019
  N  N86  1  0.758600  0.671100  0.665000  1.0  -0.4403
  N  N87  1  0.834600  0.552700  0.664000  1.0  -0.4327
  N  N88  1  0.631400  0.580700  0.881000  1.0  -0.4435
  N  N89  1  0.824400  0.556000  0.097000  1.0  -0.2722
  N  N90  1  0.947900  0.627500  0.922000  1.0  -0.2881
  N  N91  1  0.741000  0.328400  0.603000  1.0  -0.4024
  N  N92  1  0.741400  0.328900  0.165000  1.0  -0.4407
  N  N93  1  0.665400  0.447300  0.164000  1.0  -0.432
  N  N94  1  0.868600  0.419300  0.381000  1.0  -0.4421
  N  N95  1  0.675600  0.444000  0.597000  1.0  -0.2694
  N  N96  1  0.552100  0.372500  0.422000  1.0  -0.2881
  N  N97  1  0.759000  0.828400  0.103000  1.0  -0.4022
  N  N98  1  0.758600  0.828900  0.665000  1.0  -0.4407
  N  N99  1  0.834600  0.947300  0.664000  1.0  -0.4324
  N  N100  1  0.631400  0.919300  0.881000  1.0  -0.4412
  N  N101  1  0.824400  0.944000  0.097000  1.0  -0.2716
  N  N102  1  0.947900  0.872500  0.922000  1.0  -0.2872
  N  N103  1  0.741000  0.171600  0.603000  1.0  -0.4023
  N  N104  1  0.741400  0.171100  0.165000  1.0  -0.4403
  N  N105  1  0.665400  0.052700  0.164000  1.0  -0.4321
  N  N106  1  0.868600  0.080700  0.381000  1.0  -0.4442
  N  N107  1  0.675600  0.056000  0.597000  1.0  -0.27
  N  N108  1  0.552100  0.127500  0.422000  1.0  -0.2891
  N  N109  1  0.241000  0.328400  0.897000  1.0  -0.4042
  N  N110  1  0.241400  0.328900  0.335000  1.0  -0.4403
  N  N111  1  0.165400  0.447300  0.336000  1.0  -0.4318
  N  N112  1  0.368600  0.419300  0.119000  1.0  -0.4427
  N  N113  1  0.175600  0.444000  0.903000  1.0  -0.2695
  N  N114  1  0.052100  0.372500  0.078000  1.0  -0.288
  N  N115  1  0.259000  0.671600  0.397000  1.0  -0.4038
  N  N116  1  0.258600  0.671100  0.835000  1.0  -0.4394
  N  N117  1  0.334600  0.552700  0.836000  1.0  -0.4325
  N  N118  1  0.131400  0.580700  0.619000  1.0  -0.4443
  N  N119  1  0.324400  0.556000  0.403000  1.0  -0.2725
  N  N120  1  0.447900  0.627500  0.578000  1.0  -0.2883
