# generated using pymatgen
data_Cd2Ni2(C5N4)3
_symmetry_space_group_name_H-M   'P 1'
_cell_length_a   14.06100000
_cell_length_b   27.19200000
_cell_length_c   7.59000000
_cell_angle_alpha   90.00000000
_cell_angle_beta   90.00000000
_cell_angle_gamma   90.00000000
_symmetry_Int_Tables_number   1
_chemical_formula_structural   Cd2Ni2(C5N4)3
_chemical_formula_sum   'Cd8 Ni8 C60 N48'
_cell_volume   2902.01154408
_cell_formula_units_Z   4
loop_
 _symmetry_equiv_pos_site_id
 _symmetry_equiv_pos_as_xyz
  1  'x, y, z'
loop_
 _atom_site_type_symbol
 _atom_site_label
 _atom_site_symmetry_multiplicity
 _atom_site_fract_x
 _atom_site_fract_y
 _atom_site_fract_z
 _atom_site_occupancy
 _atom_site_charge
  Cd  Cd1  1  0.214730  0.115920  0.121400  1.0  1.0601
  Cd  Cd2  1  0.285270  0.884080  0.621400  1.0  1.0616
  Cd  Cd3  1  0.785270  0.615920  0.878600  1.0  1.061
  Cd  Cd4  1  0.714730  0.384080  0.378600  1.0  1.0607
  Cd  Cd5  1  0.785270  0.884080  0.878600  1.0  1.0617
  Cd  Cd6  1  0.714730  0.115920  0.378600  1.0  1.0601
  Cd  Cd7  1  0.214730  0.384080  0.121400  1.0  1.0607
  Cd  Cd8  1  0.285270  0.615920  0.621400  1.0  1.061
  Ni  Ni9  1  0.250100  0.250000  0.610400  1.0  0.6825
  Ni  Ni10  1  0.249900  0.750000  0.110400  1.0  0.68
  Ni  Ni11  1  0.749900  0.750000  0.389600  1.0  0.6776
  Ni  Ni12  1  0.750100  0.250000  0.889600  1.0  0.6802
  Ni  Ni13  1  0.000000  0.000000  0.500000  1.0  0.3166
  Ni  Ni14  1  0.500000  0.000000  0.000000  1.0  0.3166
  Ni  Ni15  1  0.000000  0.500000  0.500000  1.0  0.3166
  Ni  Ni16  1  0.500000  0.500000  0.000000  1.0  0.3166
  C  C17  1  0.243000  0.201800  0.786000  1.0  0.1947
  C  C18  1  0.252000  0.201300  0.435000  1.0  0.1767
  C  C19  1  0.101000  0.035600  0.403000  1.0  0.1408
  C  C20  1  0.414000  0.048600  0.072000  1.0  0.1494
  C  C21  1  0.073000  0.058000  0.878000  1.0  0.156
  C  C22  1  0.016000  0.092000  0.939000  1.0  0.13
  C  C23  1  0.910000  0.092600  0.909000  1.0  -0.0077
  C  C24  1  0.257000  0.798200  0.286000  1.0  0.1929
  C  C25  1  0.248000  0.798700  0.935000  1.0  0.1748
  C  C26  1  0.399000  0.964400  0.903000  1.0  0.1394
  C  C27  1  0.086000  0.951400  0.572000  1.0  0.1509
  C  C28  1  0.427000  0.942000  0.378000  1.0  0.1542
  C  C29  1  0.484000  0.908000  0.439000  1.0  0.1301
  C  C30  1  0.590000  0.907400  0.409000  1.0  -0.011
  C  C31  1  0.757000  0.701800  0.214000  1.0  0.1949
  C  C32  1  0.748000  0.701300  0.565000  1.0  0.1782
  C  C33  1  0.899000  0.535600  0.597000  1.0  0.1403
  C  C34  1  0.586000  0.548600  0.928000  1.0  0.1503
  C  C35  1  0.927000  0.558000  0.122000  1.0  0.1558
  C  C36  1  0.984000  0.592000  0.061000  1.0  0.1296
  C  C37  1  0.090000  0.592600  0.091000  1.0  -0.011
  C  C38  1  0.743000  0.298200  0.714000  1.0  0.1934
  C  C39  1  0.752000  0.298700  0.065000  1.0  0.1748
  C  C40  1  0.601000  0.464400  0.097000  1.0  0.1412
  C  C41  1  0.914000  0.451400  0.428000  1.0  0.1501
  C  C42  1  0.573000  0.442000  0.622000  1.0  0.1537
  C  C43  1  0.516000  0.408000  0.561000  1.0  0.1304
  C  C44  1  0.410000  0.407400  0.591000  1.0  -0.0072
  C  C45  1  0.757000  0.798200  0.214000  1.0  0.1932
  C  C46  1  0.748000  0.798700  0.565000  1.0  0.1758
  C  C47  1  0.899000  0.964400  0.597000  1.0  0.1399
  C  C48  1  0.586000  0.951400  0.928000  1.0  0.1509
  C  C49  1  0.927000  0.942000  0.122000  1.0  0.154
  C  C50  1  0.984000  0.908000  0.061000  1.0  0.1301
  C  C51  1  0.090000  0.907400  0.091000  1.0  -0.0109
  C  C52  1  0.743000  0.201800  0.714000  1.0  0.1955
  C  C53  1  0.752000  0.201300  0.065000  1.0  0.1775
  C  C54  1  0.601000  0.035600  0.097000  1.0  0.1413
  C  C55  1  0.914000  0.048600  0.428000  1.0  0.1496
  C  C56  1  0.573000  0.058000  0.622000  1.0  0.1556
  C  C57  1  0.516000  0.092000  0.561000  1.0  0.13
  C  C58  1  0.410000  0.092600  0.591000  1.0  -0.0076
  C  C59  1  0.243000  0.298200  0.786000  1.0  0.1934
  C  C60  1  0.252000  0.298700  0.435000  1.0  0.1739
  C  C61  1  0.101000  0.464400  0.403000  1.0  0.1404
  C  C62  1  0.414000  0.451400  0.072000  1.0  0.1503
  C  C63  1  0.073000  0.442000  0.878000  1.0  0.1539
  C  C64  1  0.016000  0.408000  0.939000  1.0  0.1303
  C  C65  1  0.910000  0.407400  0.909000  1.0  -0.0074
  C  C66  1  0.257000  0.701800  0.286000  1.0  0.1945
  C  C67  1  0.248000  0.701300  0.935000  1.0  0.1773
  C  C68  1  0.399000  0.535600  0.903000  1.0  0.1396
  C  C69  1  0.086000  0.548600  0.572000  1.0  0.1502
  C  C70  1  0.427000  0.558000  0.378000  1.0  0.1563
  C  C71  1  0.484000  0.592000  0.439000  1.0  0.1297
  C  C72  1  0.590000  0.592600  0.409000  1.0  -0.011
  C  C73  1  0.130000  0.250000  0.560000  1.0  -0.0746
  C  C74  1  0.370000  0.750000  0.060000  1.0  -0.0745
  C  C75  1  0.870000  0.750000  0.440000  1.0  -0.0745
  C  C76  1  0.630000  0.250000  0.940000  1.0  -0.0742
  N  N77  1  0.240000  0.172000  0.893000  1.0  -0.4362
  N  N78  1  0.247000  0.172500  0.328000  1.0  -0.4709
  N  N79  1  0.160000  0.056700  0.338000  1.0  -0.4299
  N  N80  1  0.361000  0.077000  0.117000  1.0  -0.4923
  N  N81  1  0.172000  0.057000  0.899000  1.0  -0.3231
  N  N82  1  0.051000  0.127200  0.075000  1.0  -0.307
  N  N83  1  0.260000  0.828000  0.393000  1.0  -0.4359
  N  N84  1  0.253000  0.827500  0.828000  1.0  -0.472
  N  N85  1  0.340000  0.943300  0.838000  1.0  -0.4313
  N  N86  1  0.139000  0.923000  0.617000  1.0  -0.488
  N  N87  1  0.328000  0.943000  0.399000  1.0  -0.3257
  N  N88  1  0.449000  0.872800  0.575000  1.0  -0.3057
  N  N89  1  0.760000  0.672000  0.107000  1.0  -0.4369
  N  N90  1  0.753000  0.672500  0.672000  1.0  -0.4704
  N  N91  1  0.840000  0.556700  0.662000  1.0  -0.4319
  N  N92  1  0.639000  0.577000  0.883000  1.0  -0.491
  N  N93  1  0.828000  0.557000  0.101000  1.0  -0.3257
  N  N94  1  0.949000  0.627200  0.925000  1.0  -0.3069
  N  N95  1  0.740000  0.328000  0.607000  1.0  -0.4356
  N  N96  1  0.747000  0.327500  0.172000  1.0  -0.4706
  N  N97  1  0.660000  0.443300  0.162000  1.0  -0.43
  N  N98  1  0.861000  0.423000  0.383000  1.0  -0.4873
  N  N99  1  0.672000  0.443000  0.601000  1.0  -0.325
  N  N100  1  0.551000  0.372800  0.425000  1.0  -0.3067
  N  N101  1  0.760000  0.828000  0.107000  1.0  -0.4362
  N  N102  1  0.753000  0.827500  0.672000  1.0  -0.4702
  N  N103  1  0.840000  0.943300  0.662000  1.0  -0.4316
  N  N104  1  0.639000  0.923000  0.883000  1.0  -0.4877
  N  N105  1  0.828000  0.943000  0.101000  1.0  -0.3265
  N  N106  1  0.949000  0.872800  0.925000  1.0  -0.3064
  N  N107  1  0.740000  0.172000  0.607000  1.0  -0.4363
  N  N108  1  0.747000  0.172500  0.172000  1.0  -0.4686
  N  N109  1  0.660000  0.056700  0.162000  1.0  -0.4304
  N  N110  1  0.861000  0.077000  0.383000  1.0  -0.4906
  N  N111  1  0.672000  0.057000  0.601000  1.0  -0.3243
  N  N112  1  0.551000  0.127200  0.425000  1.0  -0.3077
  N  N113  1  0.240000  0.328000  0.893000  1.0  -0.4356
  N  N114  1  0.247000  0.327500  0.328000  1.0  -0.4706
  N  N115  1  0.160000  0.443300  0.338000  1.0  -0.4296
  N  N116  1  0.361000  0.423000  0.117000  1.0  -0.4886
  N  N117  1  0.172000  0.443000  0.899000  1.0  -0.3237
  N  N118  1  0.051000  0.372800  0.075000  1.0  -0.306
  N  N119  1  0.260000  0.672000  0.393000  1.0  -0.4365
  N  N120  1  0.253000  0.672500  0.828000  1.0  -0.4704
  N  N121  1  0.340000  0.556700  0.838000  1.0  -0.4315
  N  N122  1  0.139000  0.577000  0.617000  1.0  -0.4917
  N  N123  1  0.328000  0.557000  0.399000  1.0  -0.3252
  N  N124  1  0.449000  0.627200  0.575000  1.0  -0.306
