# generated using pymatgen
data_CdNiC7N6
_symmetry_space_group_name_H-M   'P 1'
_cell_length_a   14.18300000
_cell_length_b   26.98300000
_cell_length_c   7.61500000
_cell_angle_alpha   90.00000000
_cell_angle_beta   90.00000000
_cell_angle_gamma   90.00000000
_symmetry_Int_Tables_number   1
_chemical_formula_structural   CdNiC7N6
_chemical_formula_sum   'Cd8 Ni8 C56 N48'
_cell_volume   2914.25965473
_cell_formula_units_Z   8
loop_
 _symmetry_equiv_pos_site_id
 _symmetry_equiv_pos_as_xyz
  1  'x, y, z'
loop_
 _atom_site_type_symbol
 _atom_site_label
 _atom_site_symmetry_multiplicity
 _atom_site_fract_x
 _atom_site_fract_y
 _atom_site_fract_z
 _atom_site_occupancy
 _atom_site_charge
  Cd  Cd1  1  0.217210  0.114900  0.123330  1.0  1.0715
  Cd  Cd2  1  0.782790  0.614900  0.876670  1.0  1.0729
  Cd  Cd3  1  0.782790  0.885100  0.876670  1.0  1.0737
  Cd  Cd4  1  0.217210  0.385100  0.123330  1.0  1.0722
  Cd  Cd5  1  0.282790  0.885100  0.623330  1.0  1.0738
  Cd  Cd6  1  0.717210  0.385100  0.376670  1.0  1.0726
  Cd  Cd7  1  0.717210  0.114900  0.376670  1.0  1.0717
  Cd  Cd8  1  0.282790  0.614900  0.623330  1.0  1.0731
  Ni  Ni9  1  0.245800  0.250000  0.613900  1.0  0.1245
  Ni  Ni10  1  0.754200  0.750000  0.386100  1.0  0.1249
  Ni  Ni11  1  0.500000  0.000000  0.000000  1.0  0.349
  Ni  Ni12  1  0.500000  0.500000  0.000000  1.0  0.349
  Ni  Ni13  1  0.254200  0.750000  0.113900  1.0  0.1246
  Ni  Ni14  1  0.745800  0.250000  0.886100  1.0  0.1248
  Ni  Ni15  1  0.000000  0.000000  0.500000  1.0  0.349
  Ni  Ni16  1  0.000000  0.500000  0.500000  1.0  0.349
  C  C17  1  0.240700  0.200900  0.789000  1.0  0.1514
  C  C18  1  0.246500  0.201100  0.441000  1.0  0.1658
  C  C19  1  0.418300  0.050000  0.074000  1.0  0.1576
  C  C20  1  0.075000  0.057800  0.876000  1.0  0.1795
  C  C21  1  0.022000  0.094200  0.938000  1.0  0.1845
  C  C22  1  0.915100  0.092900  0.906000  1.0  -0.0018
  C  C23  1  0.396800  0.967000  0.901000  1.0  0.1449
  C  C24  1  0.759300  0.700900  0.211000  1.0  0.1522
  C  C25  1  0.753500  0.701100  0.559000  1.0  0.1653
  C  C26  1  0.581700  0.550000  0.926000  1.0  0.1575
  C  C27  1  0.925000  0.557800  0.124000  1.0  0.1802
  C  C28  1  0.978000  0.594200  0.062000  1.0  0.1839
  C  C29  1  0.084900  0.592900  0.094000  1.0  -0.0041
  C  C30  1  0.603200  0.467000  0.099000  1.0  0.1451
  C  C31  1  0.759300  0.799100  0.211000  1.0  0.1517
  C  C32  1  0.753500  0.798900  0.559000  1.0  0.1654
  C  C33  1  0.581700  0.950000  0.926000  1.0  0.1586
  C  C34  1  0.925000  0.942200  0.124000  1.0  0.1799
  C  C35  1  0.978000  0.905800  0.062000  1.0  0.1837
  C  C36  1  0.084900  0.907100  0.094000  1.0  -0.0042
  C  C37  1  0.603200  0.033000  0.099000  1.0  0.1444
  C  C38  1  0.240700  0.299100  0.789000  1.0  0.1509
  C  C39  1  0.246500  0.298900  0.441000  1.0  0.166
  C  C40  1  0.418300  0.450000  0.074000  1.0  0.1587
  C  C41  1  0.075000  0.442200  0.876000  1.0  0.1794
  C  C42  1  0.022000  0.405800  0.938000  1.0  0.1842
  C  C43  1  0.915100  0.407100  0.906000  1.0  -0.0017
  C  C44  1  0.396800  0.533000  0.901000  1.0  0.1446
  C  C45  1  0.103200  0.033000  0.401000  1.0  0.1447
  C  C46  1  0.259300  0.799100  0.289000  1.0  0.1504
  C  C47  1  0.253500  0.798900  0.941000  1.0  0.1657
  C  C48  1  0.081700  0.950000  0.574000  1.0  0.1586
  C  C49  1  0.425000  0.942200  0.376000  1.0  0.1799
  C  C50  1  0.478000  0.905800  0.438000  1.0  0.184
  C  C51  1  0.584900  0.907100  0.406000  1.0  -0.0041
  C  C52  1  0.896800  0.533000  0.599000  1.0  0.1445
  C  C53  1  0.740700  0.299100  0.711000  1.0  0.1519
  C  C54  1  0.746500  0.298900  0.059000  1.0  0.1654
  C  C55  1  0.918300  0.450000  0.426000  1.0  0.1587
  C  C56  1  0.575000  0.442200  0.624000  1.0  0.1796
  C  C57  1  0.522000  0.405800  0.562000  1.0  0.1838
  C  C58  1  0.415100  0.407100  0.594000  1.0  -0.0016
  C  C59  1  0.896800  0.967000  0.599000  1.0  0.145
  C  C60  1  0.740700  0.200900  0.711000  1.0  0.1525
  C  C61  1  0.746500  0.201100  0.059000  1.0  0.1655
  C  C62  1  0.918300  0.050000  0.426000  1.0  0.1577
  C  C63  1  0.575000  0.057800  0.624000  1.0  0.18
  C  C64  1  0.522000  0.094200  0.562000  1.0  0.1842
  C  C65  1  0.415100  0.092900  0.594000  1.0  -0.0018
  C  C66  1  0.103200  0.467000  0.401000  1.0  0.1451
  C  C67  1  0.259300  0.700900  0.289000  1.0  0.1512
  C  C68  1  0.253500  0.701100  0.941000  1.0  0.1658
  C  C69  1  0.081700  0.550000  0.574000  1.0  0.1575
  C  C70  1  0.425000  0.557800  0.376000  1.0  0.18
  C  C71  1  0.478000  0.594200  0.438000  1.0  0.1841
  C  C72  1  0.584900  0.592900  0.406000  1.0  -0.0039
  N  N73  1  0.240000  0.171100  0.894000  1.0  -0.4085
  N  N74  1  0.243700  0.171200  0.335000  1.0  -0.4266
  N  N75  1  0.366800  0.079600  0.117000  1.0  -0.4334
  N  N76  1  0.175300  0.056200  0.903000  1.0  -0.2867
  N  N77  1  0.052600  0.126500  0.079000  1.0  -0.2967
  N  N78  1  0.334500  0.946900  0.839000  1.0  -0.4409
  N  N79  1  0.760000  0.671100  0.106000  1.0  -0.407
  N  N80  1  0.756300  0.671200  0.665000  1.0  -0.427
  N  N81  1  0.633200  0.579600  0.883000  1.0  -0.4325
  N  N82  1  0.824700  0.556200  0.097000  1.0  -0.289
  N  N83  1  0.947400  0.626500  0.921000  1.0  -0.2941
  N  N84  1  0.665500  0.446900  0.161000  1.0  -0.4412
  N  N85  1  0.760000  0.828900  0.106000  1.0  -0.4087
  N  N86  1  0.756300  0.828800  0.665000  1.0  -0.4276
  N  N87  1  0.633200  0.920400  0.883000  1.0  -0.4297
  N  N88  1  0.824700  0.943800  0.097000  1.0  -0.289
  N  N89  1  0.947400  0.873500  0.921000  1.0  -0.2922
  N  N90  1  0.665500  0.053100  0.161000  1.0  -0.4412
  N  N91  1  0.240000  0.328900  0.894000  1.0  -0.4099
  N  N92  1  0.243700  0.328800  0.335000  1.0  -0.4273
  N  N93  1  0.366800  0.420400  0.117000  1.0  -0.4305
  N  N94  1  0.175300  0.443800  0.903000  1.0  -0.2869
  N  N95  1  0.052600  0.373500  0.079000  1.0  -0.2939
  N  N96  1  0.334500  0.553100  0.839000  1.0  -0.4411
  N  N97  1  0.165500  0.053100  0.339000  1.0  -0.4409
  N  N98  1  0.260000  0.828900  0.394000  1.0  -0.4099
  N  N99  1  0.256300  0.828800  0.835000  1.0  -0.4277
  N  N100  1  0.133200  0.920400  0.617000  1.0  -0.431
  N  N101  1  0.324700  0.943800  0.403000  1.0  -0.2888
  N  N102  1  0.447400  0.873500  0.579000  1.0  -0.2938
  N  N103  1  0.834500  0.553100  0.661000  1.0  -0.4414
  N  N104  1  0.740000  0.328900  0.606000  1.0  -0.4085
  N  N105  1  0.743700  0.328800  0.165000  1.0  -0.4271
  N  N106  1  0.866800  0.420400  0.383000  1.0  -0.43
  N  N107  1  0.675300  0.443800  0.597000  1.0  -0.2872
  N  N108  1  0.552600  0.373500  0.421000  1.0  -0.2921
  N  N109  1  0.834500  0.946900  0.661000  1.0  -0.4413
  N  N110  1  0.740000  0.171100  0.606000  1.0  -0.4069
  N  N111  1  0.743700  0.171200  0.165000  1.0  -0.4266
  N  N112  1  0.866800  0.079600  0.383000  1.0  -0.4325
  N  N113  1  0.675300  0.056200  0.597000  1.0  -0.287
  N  N114  1  0.552600  0.126500  0.421000  1.0  -0.2945
  N  N115  1  0.165500  0.446900  0.339000  1.0  -0.4408
  N  N116  1  0.260000  0.671100  0.394000  1.0  -0.4083
  N  N117  1  0.256300  0.671200  0.835000  1.0  -0.4269
  N  N118  1  0.133200  0.579600  0.617000  1.0  -0.4342
  N  N119  1  0.324700  0.556200  0.403000  1.0  -0.2888
  N  N120  1  0.447400  0.626500  0.579000  1.0  -0.2962
