# generated using pymatgen
data_CdNiC7N6
_symmetry_space_group_name_H-M   'P 1'
_cell_length_a   14.06100000
_cell_length_b   27.19200000
_cell_length_c   7.59000000
_cell_angle_alpha   90.00000000
_cell_angle_beta   90.00000000
_cell_angle_gamma   90.00000000
_symmetry_Int_Tables_number   1
_chemical_formula_structural   CdNiC7N6
_chemical_formula_sum   'Cd8 Ni8 C56 N48'
_cell_volume   2902.01154408
_cell_formula_units_Z   8
loop_
 _symmetry_equiv_pos_site_id
 _symmetry_equiv_pos_as_xyz
  1  'x, y, z'
loop_
 _atom_site_type_symbol
 _atom_site_label
 _atom_site_symmetry_multiplicity
 _atom_site_fract_x
 _atom_site_fract_y
 _atom_site_fract_z
 _atom_site_occupancy
 _atom_site_charge
  Cd  Cd1  1  0.214730  0.115920  0.121500  1.0  1.0828
  Cd  Cd2  1  0.285270  0.884080  0.621500  1.0  1.0841
  Cd  Cd3  1  0.785270  0.615920  0.878500  1.0  1.0832
  Cd  Cd4  1  0.714730  0.384080  0.378500  1.0  1.0838
  Cd  Cd5  1  0.785270  0.884080  0.878500  1.0  1.0842
  Cd  Cd6  1  0.714730  0.115920  0.378500  1.0  1.0828
  Cd  Cd7  1  0.214730  0.384080  0.121500  1.0  1.0837
  Cd  Cd8  1  0.285270  0.615920  0.621500  1.0  1.0833
  Ni  Ni9  1  0.250100  0.250000  0.610400  1.0  0.1296
  Ni  Ni10  1  0.249900  0.750000  0.110400  1.0  0.1299
  Ni  Ni11  1  0.749900  0.750000  0.389600  1.0  0.13
  Ni  Ni12  1  0.750100  0.250000  0.889600  1.0  0.1296
  Ni  Ni13  1  0.000000  0.000000  0.500000  1.0  0.3423
  Ni  Ni14  1  0.500000  0.000000  0.000000  1.0  0.3423
  Ni  Ni15  1  0.000000  0.500000  0.500000  1.0  0.3423
  Ni  Ni16  1  0.500000  0.500000  0.000000  1.0  0.3423
  C  C17  1  0.243000  0.201900  0.786000  1.0  0.1346
  C  C18  1  0.251000  0.201400  0.436000  1.0  0.1617
  C  C19  1  0.101000  0.035500  0.403000  1.0  0.1621
  C  C20  1  0.415000  0.048500  0.072000  1.0  0.1754
  C  C21  1  0.073000  0.057000  0.880000  1.0  0.1875
  C  C22  1  0.016000  0.091000  0.941000  1.0  0.1341
  C  C23  1  0.910000  0.092200  0.909000  1.0  -0.0148
  C  C24  1  0.257000  0.798100  0.286000  1.0  0.134
  C  C25  1  0.249000  0.798600  0.936000  1.0  0.1615
  C  C26  1  0.399000  0.964500  0.903000  1.0  0.161
  C  C27  1  0.085000  0.951500  0.572000  1.0  0.1774
  C  C28  1  0.427000  0.943000  0.380000  1.0  0.1875
  C  C29  1  0.484000  0.909000  0.441000  1.0  0.1343
  C  C30  1  0.590000  0.907800  0.409000  1.0  -0.0164
  C  C31  1  0.757000  0.701900  0.214000  1.0  0.135
  C  C32  1  0.749000  0.701400  0.564000  1.0  0.1609
  C  C33  1  0.899000  0.535500  0.597000  1.0  0.1618
  C  C34  1  0.585000  0.548500  0.928000  1.0  0.1761
  C  C35  1  0.927000  0.557000  0.120000  1.0  0.1875
  C  C36  1  0.984000  0.591000  0.059000  1.0  0.1337
  C  C37  1  0.090000  0.592200  0.091000  1.0  -0.0162
  C  C38  1  0.743000  0.298100  0.714000  1.0  0.1352
  C  C39  1  0.751000  0.298600  0.064000  1.0  0.161
  C  C40  1  0.601000  0.464500  0.097000  1.0  0.1628
  C  C41  1  0.915000  0.451500  0.428000  1.0  0.1763
  C  C42  1  0.573000  0.443000  0.620000  1.0  0.1872
  C  C43  1  0.516000  0.409000  0.559000  1.0  0.134
  C  C44  1  0.410000  0.407800  0.591000  1.0  -0.0145
  C  C45  1  0.757000  0.798100  0.214000  1.0  0.1347
  C  C46  1  0.749000  0.798600  0.564000  1.0  0.1609
  C  C47  1  0.899000  0.964500  0.597000  1.0  0.1614
  C  C48  1  0.585000  0.951500  0.928000  1.0  0.1773
  C  C49  1  0.927000  0.943000  0.120000  1.0  0.1874
  C  C50  1  0.984000  0.909000  0.059000  1.0  0.1341
  C  C51  1  0.090000  0.907800  0.091000  1.0  -0.0162
  C  C52  1  0.743000  0.201900  0.714000  1.0  0.1353
  C  C53  1  0.751000  0.201400  0.064000  1.0  0.1611
  C  C54  1  0.601000  0.035500  0.097000  1.0  0.1629
  C  C55  1  0.915000  0.048500  0.428000  1.0  0.1754
  C  C56  1  0.573000  0.057000  0.620000  1.0  0.1867
  C  C57  1  0.516000  0.091000  0.559000  1.0  0.1338
  C  C58  1  0.410000  0.092200  0.591000  1.0  -0.0146
  C  C59  1  0.243000  0.298100  0.786000  1.0  0.1343
  C  C60  1  0.251000  0.298600  0.436000  1.0  0.1618
  C  C61  1  0.101000  0.464500  0.403000  1.0  0.1619
  C  C62  1  0.415000  0.451500  0.072000  1.0  0.1765
  C  C63  1  0.073000  0.443000  0.880000  1.0  0.1873
  C  C64  1  0.016000  0.409000  0.941000  1.0  0.1343
  C  C65  1  0.910000  0.407800  0.909000  1.0  -0.0148
  C  C66  1  0.257000  0.701900  0.286000  1.0  0.1343
  C  C67  1  0.249000  0.701400  0.936000  1.0  0.1617
  C  C68  1  0.399000  0.535500  0.903000  1.0  0.1613
  C  C69  1  0.085000  0.548500  0.572000  1.0  0.1762
  C  C70  1  0.427000  0.557000  0.380000  1.0  0.1877
  C  C71  1  0.484000  0.591000  0.441000  1.0  0.1341
  C  C72  1  0.590000  0.592200  0.409000  1.0  -0.0162
  N  N73  1  0.240000  0.172000  0.893000  1.0  -0.4066
  N  N74  1  0.247000  0.172400  0.329000  1.0  -0.4369
  N  N75  1  0.160000  0.056700  0.339000  1.0  -0.4043
  N  N76  1  0.361000  0.076900  0.116000  1.0  -0.4549
  N  N77  1  0.172000  0.056900  0.900000  1.0  -0.2981
  N  N78  1  0.051000  0.127100  0.075000  1.0  -0.2584
  N  N79  1  0.260000  0.828000  0.393000  1.0  -0.4082
  N  N80  1  0.253000  0.827600  0.829000  1.0  -0.4384
  N  N81  1  0.340000  0.943300  0.839000  1.0  -0.4048
  N  N82  1  0.139000  0.923100  0.616000  1.0  -0.4517
  N  N83  1  0.328000  0.943100  0.400000  1.0  -0.2999
  N  N84  1  0.449000  0.872900  0.575000  1.0  -0.2579
  N  N85  1  0.760000  0.672000  0.107000  1.0  -0.4059
  N  N86  1  0.753000  0.672400  0.671000  1.0  -0.4373
  N  N87  1  0.840000  0.556700  0.661000  1.0  -0.4051
  N  N88  1  0.639000  0.576900  0.884000  1.0  -0.453
  N  N89  1  0.828000  0.556900  0.100000  1.0  -0.3001
  N  N90  1  0.949000  0.627100  0.925000  1.0  -0.2583
  N  N91  1  0.740000  0.328000  0.607000  1.0  -0.4074
  N  N92  1  0.747000  0.327600  0.171000  1.0  -0.4379
  N  N93  1  0.660000  0.443300  0.161000  1.0  -0.4048
  N  N94  1  0.861000  0.423100  0.384000  1.0  -0.4521
  N  N95  1  0.672000  0.443100  0.600000  1.0  -0.2995
  N  N96  1  0.551000  0.372900  0.425000  1.0  -0.2572
  N  N97  1  0.760000  0.828000  0.107000  1.0  -0.4076
  N  N98  1  0.753000  0.827600  0.671000  1.0  -0.4381
  N  N99  1  0.840000  0.943300  0.661000  1.0  -0.4053
  N  N100  1  0.639000  0.923100  0.884000  1.0  -0.4512
  N  N101  1  0.828000  0.943100  0.100000  1.0  -0.3006
  N  N102  1  0.949000  0.872900  0.925000  1.0  -0.2573
  N  N103  1  0.740000  0.172000  0.607000  1.0  -0.4057
  N  N104  1  0.747000  0.172400  0.171000  1.0  -0.4372
  N  N105  1  0.660000  0.056700  0.161000  1.0  -0.4048
  N  N106  1  0.861000  0.076900  0.384000  1.0  -0.4537
  N  N107  1  0.672000  0.056900  0.600000  1.0  -0.2992
  N  N108  1  0.551000  0.127100  0.425000  1.0  -0.2585
  N  N109  1  0.240000  0.328000  0.893000  1.0  -0.408
  N  N110  1  0.247000  0.327600  0.329000  1.0  -0.4382
  N  N111  1  0.160000  0.443300  0.339000  1.0  -0.4042
  N  N112  1  0.361000  0.423100  0.116000  1.0  -0.4529
  N  N113  1  0.172000  0.443100  0.900000  1.0  -0.2985
  N  N114  1  0.051000  0.372900  0.075000  1.0  -0.2577
  N  N115  1  0.260000  0.672000  0.393000  1.0  -0.4068
  N  N116  1  0.253000  0.672400  0.829000  1.0  -0.437
  N  N117  1  0.340000  0.556700  0.839000  1.0  -0.4048
  N  N118  1  0.139000  0.576900  0.616000  1.0  -0.4539
  N  N119  1  0.328000  0.556900  0.400000  1.0  -0.2995
  N  N120  1  0.449000  0.627100  0.575000  1.0  -0.2582
