# generated using pymatgen
data_Cd2H24(C11O4)3
_symmetry_space_group_name_H-M   'P 1'
_cell_length_a   17.95720000
_cell_length_b   17.95720000
_cell_length_c   17.95720000
_cell_angle_alpha   96.28130000
_cell_angle_beta   96.28130000
_cell_angle_gamma   96.28130000
_symmetry_Int_Tables_number   1
_chemical_formula_structural   Cd2H24(C11O4)3
_chemical_formula_sum   'Cd12 H144 C198 O72'
_cell_volume   5677.84470095
_cell_formula_units_Z   6
loop_
 _symmetry_equiv_pos_site_id
 _symmetry_equiv_pos_as_xyz
  1  'x, y, z'
loop_
 _atom_site_type_symbol
 _atom_site_label
 _atom_site_symmetry_multiplicity
 _atom_site_fract_x
 _atom_site_fract_y
 _atom_site_fract_z
 _atom_site_occupancy
 _atom_site_charge
  Cd  Cd1  1  0.975490  0.494380  0.687990  1.0  1.022
  Cd  Cd2  1  0.125970  0.125970  0.125970  1.0  0.8854
  Cd  Cd3  1  0.024510  0.505620  0.312010  1.0  1.0241
  Cd  Cd4  1  0.494380  0.687990  0.975490  1.0  1.03
  Cd  Cd5  1  0.000000  0.500000  0.500000  1.0  1.1234
  Cd  Cd6  1  0.505620  0.312010  0.024510  1.0  1.0313
  Cd  Cd7  1  0.687990  0.975490  0.494380  1.0  1.0261
  Cd  Cd8  1  0.312010  0.024510  0.505620  1.0  1.0239
  Cd  Cd9  1  0.000000  0.000000  0.000000  1.0  1.0873
  Cd  Cd10  1  0.500000  0.500000  0.000000  1.0  1.1234
  Cd  Cd11  1  0.874030  0.874030  0.874030  1.0  0.8792
  Cd  Cd12  1  0.500000  0.000000  0.500000  1.0  1.1234
  H  H13  1  0.368100  0.470900  0.617100  1.0  0.1342
  H  H14  1  0.924500  0.920100  0.158700  1.0  0.1033
  H  H15  1  0.506500  0.627900  0.567000  1.0  0.1024
  H  H16  1  0.269400  0.969100  0.745900  1.0  0.1071
  H  H17  1  0.289300  0.829800  0.664600  1.0  0.1297
  H  H18  1  0.640400  0.766800  0.356400  1.0  0.0742
  H  H19  1  0.898300  0.601600  0.147500  1.0  0.1454
  H  H20  1  0.627900  0.567000  0.506500  1.0  0.1026
  H  H21  1  0.631900  0.529100  0.382900  1.0  0.1341
  H  H22  1  0.323100  0.793600  0.378900  1.0  0.0708
  H  H23  1  0.147500  0.898300  0.601600  1.0  0.1451
  H  H24  1  0.733800  0.031600  0.771900  1.0  0.1451
  H  H25  1  0.601600  0.147500  0.898300  1.0  0.1453
  H  H26  1  0.621100  0.676900  0.206400  1.0  0.0691
  H  H27  1  0.968400  0.228100  0.266200  1.0  0.1451
  H  H28  1  0.771900  0.733800  0.031600  1.0  0.1435
  H  H29  1  0.178700  0.860300  0.378900  1.0  0.0875
  H  H30  1  0.730600  0.030900  0.254100  1.0  0.1072
  H  H31  1  0.793600  0.378900  0.323100  1.0  0.0703
  H  H32  1  0.117000  0.192400  0.796800  1.0  0.1332
  H  H33  1  0.572900  0.885500  0.289600  1.0  0.0745
  H  H34  1  0.567000  0.506500  0.627900  1.0  0.1031
  H  H35  1  0.337200  0.490500  0.103300  1.0  0.1289
  H  H36  1  0.170200  0.335400  0.710700  1.0  0.1295
  H  H37  1  0.707000  0.084400  0.888400  1.0  0.1088
  H  H38  1  0.103300  0.337200  0.490500  1.0  0.1289
  H  H39  1  0.339800  0.687100  0.841400  1.0  0.0775
  H  H40  1  0.158600  0.660200  0.312900  1.0  0.0756
  H  H41  1  0.359600  0.233200  0.643600  1.0  0.0742
  H  H42  1  0.696600  0.794600  0.174300  1.0  0.0786
  H  H43  1  0.969100  0.745900  0.269400  1.0  0.1075
  H  H44  1  0.705600  0.170400  0.547100  1.0  0.0885
  H  H45  1  0.378900  0.323100  0.793600  1.0  0.0683
  H  H46  1  0.660200  0.312900  0.158600  1.0  0.0782
  H  H47  1  0.920100  0.158700  0.924500  1.0  0.1029
  H  H48  1  0.188700  0.695400  0.475300  1.0  0.0697
  H  H49  1  0.205400  0.825700  0.303400  1.0  0.0837
  H  H50  1  0.541900  0.094400  0.674500  1.0  0.1216
  H  H51  1  0.452900  0.294400  0.829600  1.0  0.0885
  H  H52  1  0.031600  0.771900  0.733800  1.0  0.1449
  H  H53  1  0.427100  0.114500  0.710400  1.0  0.0742
  H  H54  1  0.565200  0.173900  0.553800  1.0  0.1152
  H  H55  1  0.710700  0.170200  0.335400  1.0  0.13
  H  H56  1  0.829600  0.452900  0.294400  1.0  0.0888
  H  H57  1  0.475300  0.188700  0.695400  1.0  0.0696
  H  H58  1  0.101700  0.398400  0.852500  1.0  0.1441
  H  H59  1  0.794600  0.174300  0.696600  1.0  0.0828
  H  H60  1  0.509500  0.896700  0.662800  1.0  0.129
  H  H61  1  0.398400  0.852500  0.101700  1.0  0.1448
  H  H62  1  0.695400  0.475300  0.188700  1.0  0.0674
  H  H63  1  0.729900  0.780200  0.446400  1.0  0.1132
  H  H64  1  0.553600  0.270100  0.219800  1.0  0.1126
  H  H65  1  0.275700  0.449800  0.403000  1.0  0.1243
  H  H66  1  0.553800  0.565200  0.173900  1.0  0.1159
  H  H67  1  0.083600  0.732400  0.869000  1.0  0.1135
  H  H68  1  0.841300  0.075500  0.079900  1.0  0.1024
  H  H69  1  0.266200  0.968400  0.228100  1.0  0.1439
  H  H70  1  0.664600  0.289300  0.829800  1.0  0.1302
  H  H71  1  0.493500  0.372100  0.433000  1.0  0.103
  H  H72  1  0.446400  0.729900  0.780200  1.0  0.1124
  H  H73  1  0.403000  0.275700  0.449800  1.0  0.1264
  H  H74  1  0.158700  0.924500  0.920100  1.0  0.1024
  H  H75  1  0.203200  0.883000  0.807600  1.0  0.1329
  H  H76  1  0.687100  0.841400  0.339800  1.0  0.0763
  H  H77  1  0.449800  0.403000  0.275700  1.0  0.1258
  H  H78  1  0.382900  0.631900  0.529100  1.0  0.1336
  H  H79  1  0.643600  0.359600  0.233200  1.0  0.0736
  H  H80  1  0.335400  0.710700  0.170200  1.0  0.1296
  H  H81  1  0.732400  0.869000  0.083600  1.0  0.1122
  H  H82  1  0.860300  0.378900  0.178700  1.0  0.088
  H  H83  1  0.111600  0.293000  0.915600  1.0  0.1086
  H  H84  1  0.905600  0.325500  0.458100  1.0  0.1212
  H  H85  1  0.131000  0.916400  0.267600  1.0  0.1112
  H  H86  1  0.293000  0.915600  0.111600  1.0  0.1089
  H  H87  1  0.356400  0.640400  0.766800  1.0  0.0743
  H  H88  1  0.191800  0.255000  0.458400  1.0  0.1387
  H  H89  1  0.206400  0.621100  0.676900  1.0  0.0703
  H  H90  1  0.796800  0.117000  0.192400  1.0  0.1329
  H  H91  1  0.170400  0.547100  0.705600  1.0  0.0891
  H  H92  1  0.841400  0.339800  0.687100  1.0  0.0735
  H  H93  1  0.674500  0.541900  0.094400  1.0  0.1228
  H  H94  1  0.829800  0.664600  0.289300  1.0  0.1303
  H  H95  1  0.524700  0.811300  0.304600  1.0  0.069
  H  H96  1  0.294400  0.829600  0.452900  1.0  0.088
  H  H97  1  0.114500  0.710400  0.427100  1.0  0.0797
  H  H98  1  0.916400  0.267600  0.131000  1.0  0.1126
  H  H99  1  0.710400  0.427100  0.114500  1.0  0.0764
  H  H100  1  0.254100  0.730600  0.030900  1.0  0.1083
  H  H101  1  0.745000  0.541600  0.808200  1.0  0.1395
  H  H102  1  0.470900  0.617100  0.368100  1.0  0.1346
  H  H103  1  0.541600  0.808200  0.745000  1.0  0.1391
  H  H104  1  0.869000  0.083600  0.732400  1.0  0.1115
  H  H105  1  0.372100  0.433000  0.493500  1.0  0.1028
  H  H106  1  0.303400  0.205400  0.825700  1.0  0.0783
  H  H107  1  0.219800  0.553600  0.270100  1.0  0.1142
  H  H108  1  0.173900  0.553800  0.565200  1.0  0.1151
  H  H109  1  0.458100  0.905600  0.325500  1.0  0.1214
  H  H110  1  0.233200  0.643600  0.359600  1.0  0.0736
  H  H111  1  0.139700  0.621100  0.821300  1.0  0.0884
  H  H112  1  0.174300  0.696600  0.794600  1.0  0.081
  H  H113  1  0.079900  0.841300  0.075500  1.0  0.1023
  H  H114  1  0.662800  0.509500  0.896700  1.0  0.1289
  H  H115  1  0.255000  0.458400  0.191800  1.0  0.139
  H  H116  1  0.433000  0.493500  0.372100  1.0  0.1037
  H  H117  1  0.766800  0.356400  0.640400  1.0  0.0737
  H  H118  1  0.378900  0.178700  0.860300  1.0  0.0882
  H  H119  1  0.780200  0.446400  0.729900  1.0  0.114
  H  H120  1  0.821300  0.139700  0.621100  1.0  0.0884
  H  H121  1  0.888400  0.707000  0.084400  1.0  0.1085
  H  H122  1  0.825700  0.303400  0.205400  1.0  0.0803
  H  H123  1  0.075500  0.079900  0.841300  1.0  0.1031
  H  H124  1  0.228100  0.266200  0.968400  1.0  0.1442
  H  H125  1  0.617100  0.368100  0.470900  1.0  0.1345
  H  H126  1  0.304600  0.524700  0.811300  1.0  0.0681
  H  H127  1  0.434800  0.826100  0.446200  1.0  0.1155
  H  H128  1  0.094400  0.674500  0.541900  1.0  0.1204
  H  H129  1  0.312900  0.158600  0.660200  1.0  0.076
  H  H130  1  0.325500  0.458100  0.905600  1.0  0.1223
  H  H131  1  0.597000  0.724300  0.550200  1.0  0.1262
  H  H132  1  0.458400  0.191800  0.255000  1.0  0.1416
  H  H133  1  0.529100  0.382900  0.631900  1.0  0.1347
  H  H134  1  0.826100  0.446200  0.434800  1.0  0.1157
  H  H135  1  0.883000  0.807600  0.203200  1.0  0.1327
  H  H136  1  0.084400  0.888400  0.707000  1.0  0.1076
  H  H137  1  0.289600  0.572900  0.885500  1.0  0.077
  H  H138  1  0.270100  0.219800  0.553600  1.0  0.1128
  H  H139  1  0.676900  0.206400  0.621100  1.0  0.0702
  H  H140  1  0.446200  0.434800  0.826100  1.0  0.1161
  H  H141  1  0.547100  0.705600  0.170400  1.0  0.089
  H  H142  1  0.807600  0.203200  0.883000  1.0  0.1326
  H  H143  1  0.267600  0.131000  0.916400  1.0  0.1126
  H  H144  1  0.724300  0.550200  0.597000  1.0  0.1241
  H  H145  1  0.885500  0.289600  0.572900  1.0  0.0795
  H  H146  1  0.550200  0.597000  0.724300  1.0  0.1253
  H  H147  1  0.808200  0.745000  0.541600  1.0  0.139
  H  H148  1  0.915600  0.111600  0.293000  1.0  0.1065
  H  H149  1  0.621100  0.821300  0.139700  1.0  0.0889
  H  H150  1  0.852500  0.101700  0.398400  1.0  0.1449
  H  H151  1  0.896700  0.662800  0.509500  1.0  0.1284
  H  H152  1  0.811300  0.304600  0.524700  1.0  0.0699
  H  H153  1  0.745900  0.269400  0.969100  1.0  0.1082
  H  H154  1  0.490500  0.103300  0.337200  1.0  0.1296
  H  H155  1  0.192400  0.796800  0.117000  1.0  0.1324
  H  H156  1  0.030900  0.254100  0.730600  1.0  0.1077
  C  C157  1  0.148300  0.389700  0.875800  1.0  -0.2189
  C  C158  1  0.344800  0.177400  0.814400  1.0  0.1019
  C  C159  1  0.212000  0.439500  0.874500  1.0  0.3047
  C  C160  1  0.272000  0.640900  0.228400  1.0  0.295
  C  C161  1  0.679600  0.471800  0.865400  1.0  -0.0857
  C  C162  1  0.253700  0.081500  0.894300  1.0  -0.137
  C  C163  1  0.874500  0.212000  0.439500  1.0  0.3036
  C  C164  1  0.925400  0.603300  0.378900  1.0  0.5166
  C  C165  1  0.245600  0.614300  0.789100  1.0  -0.0146
  C  C166  1  0.342700  0.601700  0.129100  1.0  -0.0957
  C  C167  1  0.503100  0.474400  0.215200  1.0  -0.1368
  C  C168  1  0.398300  0.870900  0.657300  1.0  -0.0961
  C  C169  1  0.785900  0.470700  0.449300  1.0  -0.1043
  C  C170  1  0.957800  0.897000  0.189300  1.0  -0.0451
  C  C171  1  0.654500  0.027800  0.635700  1.0  0.5818
  C  C172  1  0.054200  0.999100  0.180400  1.0  0.7402
  C  C173  1  0.210900  0.754400  0.385700  1.0  -0.0173
  C  C174  1  0.944900  0.224200  0.309500  1.0  -0.1169
  C  C175  1  0.525600  0.784800  0.496900  1.0  -0.1364
  C  C176  1  0.031800  0.931200  0.210100  1.0  -0.0996
  C  C177  1  0.897000  0.189300  0.957800  1.0  -0.0487
  C  C178  1  0.532700  0.546600  0.725900  1.0  -0.0707
  C  C179  1  0.945800  0.000900  0.819600  1.0  0.7382
  C  C180  1  0.968200  0.068800  0.789900  1.0  -0.1012
  C  C181  1  0.214200  0.933200  0.828600  1.0  -0.1171
  C  C182  1  0.717500  0.575600  0.093000  1.0  -0.2107
  C  C183  1  0.851700  0.610300  0.124200  1.0  -0.2108
  C  C184  1  0.941600  0.174000  0.723900  1.0  0.2904
  C  C185  1  0.216600  0.581200  0.707500  1.0  0.0853
  C  C186  1  0.601700  0.129100  0.342700  1.0  -0.096
  C  C187  1  0.378900  0.925400  0.603300  1.0  0.518
  C  C188  1  0.849000  0.486300  0.580600  1.0  0.6597
  C  C189  1  0.984300  0.793100  0.255300  1.0  -0.1763
  C  C190  1  0.513700  0.419400  0.151000  1.0  0.6624
  C  C191  1  0.345500  0.972200  0.364300  1.0  0.5833
  C  C192  1  0.826000  0.276100  0.058400  1.0  0.2901
  C  C193  1  0.766400  0.749500  0.434300  1.0  -0.1772
  C  C194  1  0.551600  0.834900  0.267600  1.0  0.0665
  C  C195  1  0.729400  0.480400  0.396800  1.0  0.2697
  C  C196  1  0.385700  0.210900  0.754400  1.0  -0.0165
  C  C197  1  0.309500  0.944900  0.224200  1.0  -0.1164
  C  C198  1  0.434300  0.766400  0.749500  1.0  -0.1711
  C  C199  1  0.655200  0.822600  0.185600  1.0  0.1023
  C  C200  1  0.657300  0.398300  0.870900  1.0  -0.0962
  C  C201  1  0.058400  0.826000  0.276100  1.0  0.2896
  C  C202  1  0.638900  0.059400  0.711500  1.0  -0.1226
  C  C203  1  0.812000  0.728300  0.491500  1.0  -0.1355
  C  C204  1  0.419400  0.151000  0.513700  1.0  0.6618
  C  C205  1  0.580600  0.849000  0.486300  1.0  0.6598
  C  C206  1  0.674300  0.087400  0.845200  1.0  -0.1211
  C  C207  1  0.449300  0.785900  0.470700  1.0  -0.1067
  C  C208  1  0.581200  0.707500  0.216600  1.0  0.0813
  C  C209  1  0.508000  0.331600  0.456900  1.0  -0.0565
  C  C210  1  0.093000  0.717500  0.575600  1.0  -0.2074
  C  C211  1  0.508500  0.188000  0.271700  1.0  -0.1384
  C  C212  1  0.448400  0.165100  0.732400  1.0  0.0656
  C  C213  1  0.543100  0.492000  0.668400  1.0  -0.0575
  C  C214  1  0.074600  0.396700  0.621100  1.0  0.5185
  C  C215  1  0.822600  0.185600  0.655200  1.0  0.105
  C  C216  1  0.151000  0.513700  0.419400  1.0  0.6585
  C  C217  1  0.470700  0.449300  0.785900  1.0  -0.1043
  C  C218  1  0.529300  0.550700  0.214100  1.0  -0.1054
  C  C219  1  0.491500  0.812000  0.728300  1.0  -0.1387
  C  C220  1  0.174000  0.723900  0.941600  1.0  0.289
  C  C221  1  0.319700  0.660500  0.174900  1.0  -0.1214
  C  C222  1  0.418800  0.292500  0.783400  1.0  0.0816
  C  C223  1  0.667400  0.789900  0.319200  1.0  0.0759
  C  C224  1  0.154800  0.325700  0.912600  1.0  -0.1204
  C  C225  1  0.267600  0.551600  0.834900  1.0  0.0737
  C  C226  1  0.206900  0.744700  0.015700  1.0  -0.174
  C  C227  1  0.171400  0.785800  0.066800  1.0  -0.1096
  C  C228  1  0.274100  0.467300  0.453400  1.0  -0.0664
  C  C229  1  0.621100  0.074600  0.396700  1.0  0.517
  C  C230  1  0.789900  0.968200  0.068800  1.0  -0.1025
  C  C231  1  0.467300  0.453400  0.274100  1.0  -0.0727
  C  C232  1  0.389700  0.875800  0.148300  1.0  -0.214
  C  C233  1  0.125500  0.788000  0.560500  1.0  0.2882
  C  C234  1  0.680800  0.332600  0.210100  1.0  0.0819
  C  C235  1  0.614300  0.789100  0.245600  1.0  -0.0168
  C  C236  1  0.129100  0.342700  0.601700  1.0  -0.0966
  C  C237  1  0.775800  0.690500  0.055100  1.0  -0.1092
  C  C238  1  0.339500  0.825100  0.680300  1.0  -0.1187
  C  C239  1  0.749500  0.434300  0.766400  1.0  -0.1775
  C  C240  1  0.825100  0.680300  0.339500  1.0  -0.1182
  C  C241  1  0.789100  0.245600  0.614300  1.0  -0.0164
  C  C242  1  0.728300  0.491500  0.812000  1.0  -0.1305
  C  C243  1  0.288500  0.361100  0.940600  1.0  -0.1231
  C  C244  1  0.668400  0.543100  0.492000  1.0  -0.0577
  C  C245  1  0.560500  0.125500  0.788000  1.0  0.306
  C  C246  1  0.396800  0.729400  0.480400  1.0  0.2702
  C  C247  1  0.810700  0.042200  0.103000  1.0  -0.0476
  C  C248  1  0.255300  0.984300  0.793100  1.0  -0.1731
  C  C249  1  0.492000  0.668400  0.543100  1.0  -0.0554
  C  C250  1  0.189300  0.957800  0.897000  1.0  -0.0489
  C  C251  1  0.690500  0.055100  0.775800  1.0  -0.1132
  C  C252  1  0.771600  0.728000  0.359100  1.0  0.2973
  C  C253  1  0.471800  0.865400  0.679600  1.0  -0.0883
  C  C254  1  0.361100  0.940600  0.288500  1.0  -0.1249
  C  C255  1  0.271700  0.508500  0.188000  1.0  -0.132
  C  C256  1  0.000900  0.819600  0.945800  1.0  0.7402
  C  C257  1  0.918500  0.105700  0.746300  1.0  -0.1369
  C  C258  1  0.224200  0.309500  0.944900  1.0  -0.1129
  C  C259  1  0.933200  0.828600  0.214200  1.0  -0.1164
  C  C260  1  0.250500  0.565700  0.233600  1.0  -0.1774
  C  C261  1  0.785800  0.066800  0.171400  1.0  -0.1184
  C  C262  1  0.081500  0.894300  0.253700  1.0  -0.1342
  C  C263  1  0.669800  0.519700  0.418900  1.0  -0.2103
  C  C264  1  0.744700  0.015700  0.206900  1.0  -0.1723
  C  C265  1  0.931200  0.210100  0.031800  1.0  -0.1062
  C  C266  1  0.550700  0.214100  0.529300  1.0  -0.1054
  C  C267  1  0.424400  0.907000  0.282500  1.0  -0.2058
  C  C268  1  0.124200  0.851700  0.610300  1.0  -0.2178
  C  C269  1  0.725900  0.532700  0.546600  1.0  -0.0678
  C  C270  1  0.453400  0.274100  0.467300  1.0  -0.0678
  C  C271  1  0.660500  0.174900  0.319700  1.0  -0.1196
  C  C272  1  0.319200  0.667400  0.789900  1.0  0.0829
  C  C273  1  0.819600  0.945800  0.000900  1.0  0.7484
  C  C274  1  0.320400  0.528200  0.134600  1.0  -0.0862
  C  C275  1  0.359100  0.771600  0.728000  1.0  0.2965
  C  C276  1  0.814400  0.344800  0.177400  1.0  0.0986
  C  C277  1  0.603200  0.270600  0.519600  1.0  0.2697
  C  C278  1  0.180400  0.054200  0.999100  1.0  0.7498
  C  C279  1  0.865400  0.679600  0.471800  1.0  -0.0826
  C  C280  1  0.728000  0.359100  0.771600  1.0  0.2961
  C  C281  1  0.894300  0.253700  0.081500  1.0  -0.1387
  C  C282  1  0.396700  0.621100  0.074600  1.0  0.5202
  C  C283  1  0.456900  0.508000  0.331600  1.0  -0.0563
  C  C284  1  0.210100  0.031800  0.931200  1.0  -0.1041
  C  C285  1  0.331600  0.456900  0.508000  1.0  -0.0559
  C  C286  1  0.480300  0.581100  0.330200  1.0  -0.2102
  C  C287  1  0.185600  0.655200  0.822600  1.0  0.0998
  C  C288  1  0.565700  0.233600  0.250500  1.0  -0.174
  C  C289  1  0.474400  0.215200  0.503100  1.0  -0.1389
  C  C290  1  0.732400  0.448400  0.165100  1.0  0.0735
  C  C291  1  0.332600  0.210100  0.680800  1.0  0.0758
  C  C292  1  0.610300  0.124200  0.851700  1.0  -0.2165
  C  C293  1  0.711500  0.638900  0.059400  1.0  -0.1256
  C  C294  1  0.068800  0.789900  0.968200  1.0  -0.1057
  C  C295  1  0.055100  0.775800  0.690500  1.0  -0.1192
  C  C296  1  0.907000  0.282500  0.424400  1.0  -0.2062
  C  C297  1  0.103000  0.810700  0.042200  1.0  -0.0512
  C  C298  1  0.228400  0.272000  0.640900  1.0  0.2974
  C  C299  1  0.066800  0.171400  0.785800  1.0  -0.1179
  C  C300  1  0.027800  0.635700  0.654500  1.0  0.5861
  C  C301  1  0.793100  0.255300  0.984300  1.0  -0.1766
  C  C302  1  0.784800  0.496900  0.525600  1.0  -0.1334
  C  C303  1  0.270600  0.519600  0.603200  1.0  0.2695
  C  C304  1  0.330200  0.480300  0.581100  1.0  -0.2047
  C  C305  1  0.834900  0.267600  0.551600  1.0  0.0714
  C  C306  1  0.680300  0.339500  0.825100  1.0  -0.1196
  C  C307  1  0.418900  0.669800  0.519700  1.0  -0.2148
  C  C308  1  0.875800  0.148300  0.389700  1.0  -0.2169
  C  C309  1  0.575600  0.093000  0.717500  1.0  -0.2063
  C  C310  1  0.828600  0.214200  0.933200  1.0  -0.1103
  C  C311  1  0.134600  0.320400  0.528200  1.0  -0.0799
  C  C312  1  0.789900  0.319200  0.667400  1.0  0.0784
  C  C313  1  0.546600  0.725900  0.532700  1.0  -0.0699
  C  C314  1  0.640900  0.228400  0.272000  1.0  0.2956
  C  C315  1  0.707500  0.216600  0.581200  1.0  0.0887
  C  C316  1  0.519700  0.418900  0.669800  1.0  -0.2049
  C  C317  1  0.746300  0.918500  0.105700  1.0  -0.1368
  C  C318  1  0.870900  0.657300  0.398300  1.0  -0.0981
  C  C319  1  0.059400  0.711500  0.638900  1.0  -0.1266
  C  C320  1  0.177400  0.814400  0.344800  1.0  0.1045
  C  C321  1  0.972200  0.364300  0.345500  1.0  0.5865
  C  C322  1  0.783400  0.418800  0.292500  1.0  0.0859
  C  C323  1  0.105700  0.746300  0.918500  1.0  -0.1382
  C  C324  1  0.486300  0.580600  0.849000  1.0  0.6618
  C  C325  1  0.214100  0.529300  0.550700  1.0  -0.1036
  C  C326  1  0.912600  0.154800  0.325700  1.0  -0.1209
  C  C327  1  0.042200  0.103000  0.810700  1.0  -0.0457
  C  C328  1  0.282500  0.424400  0.907000  1.0  -0.2097
  C  C329  1  0.940600  0.288500  0.361100  1.0  -0.1261
  C  C330  1  0.188000  0.271700  0.508500  1.0  -0.1303
  C  C331  1  0.439500  0.874500  0.212000  1.0  0.3081
  C  C332  1  0.276100  0.058400  0.826000  1.0  0.2886
  C  C333  1  0.845200  0.674300  0.087400  1.0  -0.1174
  C  C334  1  0.754400  0.385700  0.210900  1.0  -0.0162
  C  C335  1  0.723900  0.941600  0.174000  1.0  0.289
  C  C336  1  0.215200  0.503100  0.474400  1.0  -0.1334
  C  C337  1  0.233600  0.250500  0.565700  1.0  -0.1769
  C  C338  1  0.999100  0.180400  0.054200  1.0  0.7416
  C  C339  1  0.788000  0.560500  0.125500  1.0  0.3054
  C  C340  1  0.364300  0.345500  0.972200  1.0  0.5891
  C  C341  1  0.528200  0.134600  0.320400  1.0  -0.0826
  C  C342  1  0.165100  0.732400  0.448400  1.0  0.0728
  C  C343  1  0.015700  0.206900  0.744700  1.0  -0.1743
  C  C344  1  0.519600  0.603200  0.270600  1.0  0.2699
  C  C345  1  0.496900  0.525600  0.784800  1.0  -0.1359
  C  C346  1  0.480400  0.396800  0.729400  1.0  0.2691
  C  C347  1  0.603300  0.378900  0.925400  1.0  0.5182
  C  C348  1  0.174900  0.319700  0.660500  1.0  -0.118
  C  C349  1  0.087400  0.845200  0.674300  1.0  -0.1193
  C  C350  1  0.581100  0.330200  0.480300  1.0  -0.2047
  C  C351  1  0.635700  0.654500  0.027800  1.0  0.5867
  C  C352  1  0.325700  0.912600  0.154800  1.0  -0.1173
  C  C353  1  0.292500  0.783400  0.418800  1.0  0.0884
  C  C354  1  0.210100  0.680800  0.332600  1.0  0.0802
  O  O355  1  0.215900  0.683100  0.899100  1.0  -0.2528
  O  O356  1  0.679400  0.053000  0.404400  1.0  -0.5504
  O  O357  1  0.987800  0.376400  0.283000  1.0  -0.5929
  O  O358  1  0.351400  0.148100  0.487700  1.0  -0.639
  O  O359  1  0.424600  0.388300  0.961500  1.0  -0.6902
  O  O360  1  0.899100  0.215900  0.683100  1.0  -0.2558
  O  O361  1  0.128400  0.012900  0.022800  1.0  -0.6751
  O  O362  1  0.902900  0.452400  0.560300  1.0  -0.6784
  O  O363  1  0.097100  0.547600  0.439700  1.0  -0.6795
  O  O364  1  0.022800  0.128400  0.012900  1.0  -0.6728
  O  O365  1  0.301000  0.727500  0.748300  1.0  -0.247
  O  O366  1  0.871600  0.987100  0.977200  1.0  -0.6739
  O  O367  1  0.798600  0.498800  0.161900  1.0  -0.258
  O  O368  1  0.717000  0.012200  0.623600  1.0  -0.5929
  O  O369  1  0.046700  0.410400  0.548600  1.0  -0.6011
  O  O370  1  0.410400  0.548600  0.046700  1.0  -0.6032
  O  O371  1  0.683100  0.899100  0.215900  1.0  -0.2528
  O  O372  1  0.161900  0.798600  0.498800  1.0  -0.2584
  O  O373  1  0.451400  0.953300  0.589600  1.0  -0.6024
  O  O374  1  0.838100  0.201400  0.501200  1.0  -0.2591
  O  O375  1  0.458600  0.319600  0.724900  1.0  -0.2567
  O  O376  1  0.272500  0.251700  0.699000  1.0  -0.2463
  O  O377  1  0.452400  0.560300  0.902900  1.0  -0.6805
  O  O378  1  0.251700  0.699000  0.272500  1.0  -0.2466
  O  O379  1  0.012200  0.623600  0.717000  1.0  -0.5948
  O  O380  1  0.784100  0.316900  0.100900  1.0  -0.2536
  O  O381  1  0.388300  0.961500  0.424600  1.0  -0.6929
  O  O382  1  0.148100  0.487700  0.351400  1.0  -0.6431
  O  O383  1  0.541400  0.680400  0.275100  1.0  -0.2551
  O  O384  1  0.560300  0.902900  0.452400  1.0  -0.6822
  O  O385  1  0.204800  0.119600  0.035300  1.0  -0.6425
  O  O386  1  0.119600  0.035300  0.204800  1.0  -0.6433
  O  O387  1  0.795200  0.880400  0.964700  1.0  -0.6427
  O  O388  1  0.319600  0.724900  0.458600  1.0  -0.2566
  O  O389  1  0.053000  0.404400  0.679400  1.0  -0.5554
  O  O390  1  0.947000  0.595600  0.320600  1.0  -0.5526
  O  O391  1  0.404400  0.679400  0.053000  1.0  -0.5485
  O  O392  1  0.595600  0.320600  0.947000  1.0  -0.5491
  O  O393  1  0.376400  0.283000  0.987800  1.0  -0.5916
  O  O394  1  0.977200  0.871600  0.987100  1.0  -0.6741
  O  O395  1  0.680400  0.275100  0.541400  1.0  -0.2568
  O  O396  1  0.283000  0.987800  0.376400  1.0  -0.5959
  O  O397  1  0.100900  0.784100  0.316900  1.0  -0.255
  O  O398  1  0.498800  0.161900  0.798600  1.0  -0.2606
  O  O399  1  0.589600  0.451400  0.953300  1.0  -0.603
  O  O400  1  0.623600  0.717000  0.012200  1.0  -0.5927
  O  O401  1  0.320600  0.947000  0.595600  1.0  -0.5542
  O  O402  1  0.724900  0.458600  0.319600  1.0  -0.2571
  O  O403  1  0.851900  0.512300  0.648600  1.0  -0.6393
  O  O404  1  0.961500  0.424600  0.388300  1.0  -0.6924
  O  O405  1  0.275100  0.541400  0.680400  1.0  -0.2565
  O  O406  1  0.439700  0.097100  0.547600  1.0  -0.6823
  O  O407  1  0.699000  0.272500  0.251700  1.0  -0.2475
  O  O408  1  0.748300  0.301000  0.727500  1.0  -0.2494
  O  O409  1  0.501200  0.838100  0.201400  1.0  -0.2583
  O  O410  1  0.964700  0.795200  0.880400  1.0  -0.643
  O  O411  1  0.648600  0.851900  0.512300  1.0  -0.6378
  O  O412  1  0.035300  0.204800  0.119600  1.0  -0.644
  O  O413  1  0.487700  0.351400  0.148100  1.0  -0.6355
  O  O414  1  0.987100  0.977200  0.871600  1.0  -0.675
  O  O415  1  0.547600  0.439700  0.097100  1.0  -0.6818
  O  O416  1  0.316900  0.100900  0.784100  1.0  -0.2516
  O  O417  1  0.611700  0.038500  0.575400  1.0  -0.6939
  O  O418  1  0.012900  0.022800  0.128400  1.0  -0.6752
  O  O419  1  0.038500  0.575400  0.611700  1.0  -0.6909
  O  O420  1  0.201400  0.501200  0.838100  1.0  -0.2605
  O  O421  1  0.548600  0.046700  0.410400  1.0  -0.6019
  O  O422  1  0.575400  0.611700  0.038500  1.0  -0.6904
  O  O423  1  0.880400  0.964700  0.795200  1.0  -0.6441
  O  O424  1  0.953300  0.589600  0.451400  1.0  -0.6025
  O  O425  1  0.512300  0.648600  0.851900  1.0  -0.6359
  O  O426  1  0.727500  0.748300  0.301000  1.0  -0.2474
