# generated using pymatgen
data_Cu3H18(C11N4)2
_symmetry_space_group_name_H-M   'P 1'
_cell_length_a   16.27170000
_cell_length_b   12.66840000
_cell_length_c   17.60210000
_cell_angle_alpha   90.00000000
_cell_angle_beta   112.52300000
_cell_angle_gamma   90.00000000
_symmetry_Int_Tables_number   1
_chemical_formula_structural   Cu3H18(C11N4)2
_chemical_formula_sum   'Cu12 H72 C88 N32'
_cell_volume   3351.67787343
_cell_formula_units_Z   4
loop_
 _symmetry_equiv_pos_site_id
 _symmetry_equiv_pos_as_xyz
  1  'x, y, z'
loop_
 _atom_site_type_symbol
 _atom_site_label
 _atom_site_symmetry_multiplicity
 _atom_site_fract_x
 _atom_site_fract_y
 _atom_site_fract_z
 _atom_site_occupancy
 _atom_site_charge
  Cu  Cu1  1  0.525280  0.171990  0.450940  1.0  0.4538
  Cu  Cu2  1  0.613660  0.104090  0.367080  1.0  0.3734
  Cu  Cu3  1  0.080080  0.112890  0.441430  1.0  0.323
  Cu  Cu4  1  0.474720  0.671990  0.049060  1.0  0.4531
  Cu  Cu5  1  0.386340  0.604090  0.132920  1.0  0.3726
  Cu  Cu6  1  0.919920  0.612890  0.058570  1.0  0.3244
  Cu  Cu7  1  0.474720  0.828010  0.549060  1.0  0.4532
  Cu  Cu8  1  0.386340  0.895910  0.632920  1.0  0.3726
  Cu  Cu9  1  0.919920  0.887110  0.558570  1.0  0.3299
  Cu  Cu10  1  0.525280  0.328010  0.950940  1.0  0.4526
  Cu  Cu11  1  0.613660  0.395910  0.867080  1.0  0.3732
  Cu  Cu12  1  0.080080  0.387110  0.941430  1.0  0.3285
  H  H13  1  0.267700  0.138800  0.536700  1.0  0.0582
  H  H14  1  0.399000  0.125900  0.519600  1.0  0.0961
  H  H15  1  0.261000  0.041900  0.285100  1.0  0.1009
  H  H16  1  0.134500  0.055800  0.310100  1.0  0.0589
  H  H17  1  0.385900  0.979000  0.299700  1.0  0.0859
  H  H18  1  0.616100  0.768700  0.203300  1.0  0.0572
  H  H19  1  0.626500  0.886600  0.305600  1.0  0.104
  H  H20  1  0.379000  0.984100  0.167800  1.0  0.0976
  H  H21  1  0.377800  0.866200  0.069200  1.0  0.0588
  H  H22  1  0.504200  0.351700  0.687400  1.0  0.0451
  H  H23  1  0.510500  0.287800  0.568700  1.0  0.1037
  H  H24  1  0.757800  0.186100  0.699800  1.0  0.103
  H  H25  1  0.742800  0.254300  0.813700  1.0  0.0409
  H  H26  1  0.765000  0.192500  0.580400  1.0  0.0779
  H  H27  1  0.908500  0.010700  0.369900  1.0  0.0559
  H  H28  1  0.772400  0.018900  0.378900  1.0  0.0926
  H  H29  1  0.865800  0.250700  0.544000  1.0  0.1038
  H  H30  1  0.001000  0.229200  0.534200  1.0  0.0556
  H  H31  1  0.732300  0.638800  0.963300  1.0  0.0579
  H  H32  1  0.601000  0.625900  0.980400  1.0  0.0968
  H  H33  1  0.739000  0.541900  0.214900  1.0  0.1017
  H  H34  1  0.865500  0.555800  0.189900  1.0  0.0583
  H  H35  1  0.614100  0.479000  0.200300  1.0  0.0854
  H  H36  1  0.383900  0.268700  0.296700  1.0  0.0561
  H  H37  1  0.373500  0.386600  0.194400  1.0  0.103
  H  H38  1  0.621000  0.484100  0.332200  1.0  0.0979
  H  H39  1  0.622200  0.366200  0.430800  1.0  0.0593
  H  H40  1  0.495800  0.851700  0.812600  1.0  0.0459
  H  H41  1  0.489500  0.787800  0.931300  1.0  0.1047
  H  H42  1  0.242200  0.686100  0.800200  1.0  0.1025
  H  H43  1  0.257200  0.754300  0.686300  1.0  0.0394
  H  H44  1  0.235000  0.692500  0.919600  1.0  0.0776
  H  H45  1  0.091500  0.510700  0.130100  1.0  0.0561
  H  H46  1  0.227600  0.518900  0.121100  1.0  0.0933
  H  H47  1  0.134200  0.750700  0.956000  1.0  0.1037
  H  H48  1  0.999000  0.729200  0.965800  1.0  0.0566
  H  H49  1  0.732300  0.861200  0.463300  1.0  0.058
  H  H50  1  0.601000  0.874100  0.480400  1.0  0.0966
  H  H51  1  0.739000  0.958100  0.714900  1.0  0.1017
  H  H52  1  0.865500  0.944200  0.689900  1.0  0.0585
  H  H53  1  0.614100  0.021000  0.700300  1.0  0.085
  H  H54  1  0.383900  0.231300  0.796700  1.0  0.0564
  H  H55  1  0.373500  0.113400  0.694400  1.0  0.1032
  H  H56  1  0.621000  0.015900  0.832200  1.0  0.098
  H  H57  1  0.622200  0.133800  0.930800  1.0  0.0591
  H  H58  1  0.495800  0.648300  0.312600  1.0  0.0459
  H  H59  1  0.489500  0.712200  0.431300  1.0  0.1046
  H  H60  1  0.242200  0.813900  0.300200  1.0  0.1037
  H  H61  1  0.257200  0.745700  0.186300  1.0  0.0405
  H  H62  1  0.235000  0.807500  0.419600  1.0  0.0776
  H  H63  1  0.091500  0.989300  0.630100  1.0  0.0558
  H  H64  1  0.227600  0.981100  0.621100  1.0  0.0933
  H  H65  1  0.134200  0.749300  0.456000  1.0  0.1037
  H  H66  1  0.999000  0.770800  0.465800  1.0  0.0576
  H  H67  1  0.267700  0.361200  0.036700  1.0  0.058
  H  H68  1  0.399000  0.374100  0.019600  1.0  0.0963
  H  H69  1  0.261000  0.458100  0.785100  1.0  0.1009
  H  H70  1  0.134500  0.444200  0.810100  1.0  0.0594
  H  H71  1  0.385900  0.521000  0.799700  1.0  0.0859
  H  H72  1  0.616100  0.731300  0.703300  1.0  0.0567
  H  H73  1  0.626500  0.613400  0.805600  1.0  0.104
  H  H74  1  0.379000  0.515900  0.667800  1.0  0.0972
  H  H75  1  0.377800  0.633800  0.569200  1.0  0.0591
  H  H76  1  0.504200  0.148300  0.187400  1.0  0.0455
  H  H77  1  0.510500  0.212200  0.068700  1.0  0.1034
  H  H78  1  0.757800  0.313900  0.199800  1.0  0.1043
  H  H79  1  0.742800  0.245700  0.313700  1.0  0.0414
  H  H80  1  0.765000  0.307500  0.080400  1.0  0.0781
  H  H81  1  0.908500  0.489300  0.869900  1.0  0.0556
  H  H82  1  0.772400  0.481100  0.878900  1.0  0.0935
  H  H83  1  0.865800  0.249300  0.044000  1.0  0.1047
  H  H84  1  0.001000  0.270800  0.034200  1.0  0.0576
  C  C85  1  0.266500  0.119000  0.485400  1.0  0.1653
  C  C86  1  0.345980  0.111300  0.475700  1.0  -0.229
  C  C87  1  0.347280  0.081500  0.400060  1.0  0.2185
  C  C88  1  0.264410  0.061400  0.337110  1.0  -0.2202
  C  C89  1  0.188600  0.070600  0.352700  1.0  0.1312
  C  C90  1  0.434560  0.019700  0.331380  1.0  0.1613
  C  C91  1  0.568000  0.812800  0.196350  1.0  0.1243
  C  C92  1  0.574510  0.882900  0.258670  1.0  -0.2008
  C  C93  1  0.502640  0.947700  0.250570  1.0  0.1778
  C  C94  1  0.428060  0.940900  0.176830  1.0  -0.2599
  C  C95  1  0.427900  0.869700  0.117850  1.0  0.1578
  C  C96  1  0.556390  0.319200  0.689950  1.0  0.161
  C  C97  1  0.559630  0.280400  0.617760  1.0  -0.2292
  C  C98  1  0.635530  0.230700  0.618060  1.0  0.204
  C  C99  1  0.705510  0.220400  0.694930  1.0  -0.2604
  C  C100  1  0.695610  0.262100  0.763300  1.0  0.1577
  C  C101  1  0.712550  0.177400  0.535890  1.0  0.1544
  C  C102  1  0.900200  0.059100  0.406100  1.0  0.1306
  C  C103  1  0.817670  0.063500  0.411240  1.0  -0.2562
  C  C104  1  0.802000  0.134500  0.464620  1.0  0.1997
  C  C105  1  0.872700  0.199400  0.509100  1.0  -0.2779
  C  C106  1  0.953700  0.187500  0.501400  1.0  0.1349
  C  C107  1  0.733500  0.619000  0.014600  1.0  0.1655
  C  C108  1  0.654020  0.611300  0.024300  1.0  -0.2262
  C  C109  1  0.652720  0.581500  0.099940  1.0  0.2185
  C  C110  1  0.735590  0.561400  0.162890  1.0  -0.2191
  C  C111  1  0.811400  0.570600  0.147300  1.0  0.1339
  C  C112  1  0.565440  0.519700  0.168620  1.0  0.1599
  C  C113  1  0.432000  0.312800  0.303650  1.0  0.123
  C  C114  1  0.425490  0.382900  0.241330  1.0  -0.2001
  C  C115  1  0.497360  0.447700  0.249430  1.0  0.1787
  C  C116  1  0.571940  0.440900  0.323170  1.0  -0.261
  C  C117  1  0.572100  0.369700  0.382150  1.0  0.1565
  C  C118  1  0.443610  0.819200  0.810050  1.0  0.1607
  C  C119  1  0.440370  0.780400  0.882240  1.0  -0.2292
  C  C120  1  0.364470  0.730700  0.881940  1.0  0.2037
  C  C121  1  0.294490  0.720400  0.805070  1.0  -0.2613
  C  C122  1  0.304390  0.762100  0.736700  1.0  0.1582
  C  C123  1  0.287450  0.677400  0.964110  1.0  0.155
  C  C124  1  0.099800  0.559100  0.093900  1.0  0.1285
  C  C125  1  0.182330  0.563500  0.088760  1.0  -0.2561
  C  C126  1  0.198000  0.634500  0.035380  1.0  0.1988
  C  C127  1  0.127300  0.699400  0.990900  1.0  -0.2762
  C  C128  1  0.046300  0.687500  0.998600  1.0  0.1337
  C  C129  1  0.733500  0.881000  0.514600  1.0  0.1654
  C  C130  1  0.654020  0.888700  0.524300  1.0  -0.2265
  C  C131  1  0.652720  0.918500  0.599940  1.0  0.2178
  C  C132  1  0.735590  0.938600  0.662890  1.0  -0.2197
  C  C133  1  0.811400  0.929400  0.647300  1.0  0.1337
  C  C134  1  0.565440  0.980300  0.668620  1.0  0.1595
  C  C135  1  0.432000  0.187200  0.803650  1.0  0.123
  C  C136  1  0.425490  0.117100  0.741330  1.0  -0.1997
  C  C137  1  0.497360  0.052300  0.749430  1.0  0.1789
  C  C138  1  0.571940  0.059100  0.823170  1.0  -0.2605
  C  C139  1  0.572100  0.130300  0.882150  1.0  0.1563
  C  C140  1  0.443610  0.680800  0.310050  1.0  0.1598
  C  C141  1  0.440370  0.719600  0.382240  1.0  -0.2286
  C  C142  1  0.364470  0.769300  0.381940  1.0  0.2038
  C  C143  1  0.294490  0.779600  0.305070  1.0  -0.2613
  C  C144  1  0.304390  0.737900  0.236700  1.0  0.1584
  C  C145  1  0.287450  0.822600  0.464110  1.0  0.1551
  C  C146  1  0.099800  0.940900  0.593900  1.0  0.1287
  C  C147  1  0.182330  0.936500  0.588760  1.0  -0.2581
  C  C148  1  0.198000  0.865500  0.535380  1.0  0.1985
  C  C149  1  0.127300  0.800600  0.490900  1.0  -0.2749
  C  C150  1  0.046300  0.812500  0.498600  1.0  0.1361
  C  C151  1  0.266500  0.381000  0.985400  1.0  0.1653
  C  C152  1  0.345980  0.388700  0.975700  1.0  -0.2281
  C  C153  1  0.347280  0.418500  0.900060  1.0  0.218
  C  C154  1  0.264410  0.438600  0.837110  1.0  -0.2185
  C  C155  1  0.188600  0.429400  0.852700  1.0  0.1312
  C  C156  1  0.434560  0.480300  0.831380  1.0  0.1613
  C  C157  1  0.568000  0.687200  0.696350  1.0  0.1249
  C  C158  1  0.574510  0.617100  0.758670  1.0  -0.2008
  C  C159  1  0.502640  0.552300  0.750570  1.0  0.1779
  C  C160  1  0.428060  0.559100  0.676830  1.0  -0.2606
  C  C161  1  0.427900  0.630300  0.617850  1.0  0.1578
  C  C162  1  0.556390  0.180800  0.189950  1.0  0.1607
  C  C163  1  0.559630  0.219600  0.117760  1.0  -0.2294
  C  C164  1  0.635530  0.269300  0.118060  1.0  0.204
  C  C165  1  0.705510  0.279600  0.194930  1.0  -0.2605
  C  C166  1  0.695610  0.237900  0.263300  1.0  0.1576
  C  C167  1  0.712550  0.322600  0.035890  1.0  0.1543
  C  C168  1  0.900200  0.440900  0.906100  1.0  0.1312
  C  C169  1  0.817670  0.436500  0.911240  1.0  -0.2583
  C  C170  1  0.802000  0.365500  0.964620  1.0  0.1993
  C  C171  1  0.872700  0.300600  0.009100  1.0  -0.2763
  C  C172  1  0.953700  0.312500  0.001400  1.0  0.137
  N  N173  1  0.187220  0.099700  0.425500  1.0  -0.3219
  N  N174  1  0.427860  0.078950  0.390370  1.0  -0.3922
  N  N175  1  0.507370  0.015500  0.315390  1.0  -0.3872
  N  N176  1  0.495990  0.805200  0.126620  1.0  -0.3651
  N  N177  1  0.623270  0.312900  0.762670  1.0  -0.3595
  N  N178  1  0.636140  0.193780  0.543300  1.0  -0.3916
  N  N179  1  0.717720  0.140000  0.467130  1.0  -0.376
  N  N180  1  0.967710  0.119300  0.449320  1.0  -0.3045
  N  N181  1  0.812780  0.599700  0.074500  1.0  -0.3219
  N  N182  1  0.572140  0.578950  0.109630  1.0  -0.3901
  N  N183  1  0.492630  0.515500  0.184610  1.0  -0.3865
  N  N184  1  0.504010  0.305200  0.373380  1.0  -0.3639
  N  N185  1  0.376730  0.812900  0.737330  1.0  -0.359
  N  N186  1  0.363860  0.693780  0.956700  1.0  -0.3918
  N  N187  1  0.282280  0.640000  0.032870  1.0  -0.3759
  N  N188  1  0.032290  0.619300  0.050680  1.0  -0.3051
  N  N189  1  0.812780  0.900300  0.574500  1.0  -0.3222
  N  N190  1  0.572140  0.921050  0.609630  1.0  -0.3905
  N  N191  1  0.492630  0.984500  0.684610  1.0  -0.387
  N  N192  1  0.504010  0.194800  0.873380  1.0  -0.3647
  N  N193  1  0.376730  0.687100  0.237330  1.0  -0.3592
  N  N194  1  0.363860  0.806220  0.456700  1.0  -0.3914
  N  N195  1  0.282280  0.860000  0.532870  1.0  -0.376
  N  N196  1  0.032290  0.880700  0.550680  1.0  -0.3057
  N  N197  1  0.187220  0.400300  0.925500  1.0  -0.3242
  N  N198  1  0.427860  0.421050  0.890370  1.0  -0.3919
  N  N199  1  0.507370  0.484500  0.815390  1.0  -0.3873
  N  N200  1  0.495990  0.694800  0.626620  1.0  -0.3647
  N  N201  1  0.623270  0.187100  0.262670  1.0  -0.358
  N  N202  1  0.636140  0.306220  0.043300  1.0  -0.3915
  N  N203  1  0.717720  0.360000  0.967130  1.0  -0.3761
  N  N204  1  0.967710  0.380700  0.949320  1.0  -0.3044
