# generated using pymatgen
data_Mn2Mo(CN)8
_symmetry_space_group_name_H-M   'P 1'
_cell_length_a   13.06990000
_cell_length_b   13.75920000
_cell_length_c   13.89640000
_cell_angle_alpha   113.72800000
_cell_angle_beta   111.88300000
_cell_angle_gamma   101.36500000
_symmetry_Int_Tables_number   1
_chemical_formula_structural   Mn2Mo(CN)8
_chemical_formula_sum   'Mn8 Mo4 C32 N32'
_cell_volume   1937.69509445
_cell_formula_units_Z   4
loop_
 _symmetry_equiv_pos_site_id
 _symmetry_equiv_pos_as_xyz
  1  'x, y, z'
loop_
 _atom_site_type_symbol
 _atom_site_label
 _atom_site_symmetry_multiplicity
 _atom_site_fract_x
 _atom_site_fract_y
 _atom_site_fract_z
 _atom_site_occupancy
 _atom_site_charge
  Mn  Mn1  1  0.486670  0.730290  0.868760  1.0  1.14
  Mn  Mn2  1  0.877490  0.448330  0.645200  1.0  1.0673
  Mn  Mn3  1  0.122510  0.551670  0.354800  1.0  1.0663
  Mn  Mn4  1  0.513330  0.269710  0.131240  1.0  1.1405
  Mn  Mn5  1  0.882090  0.138470  0.868760  1.0  1.1379
  Mn  Mn6  1  0.267710  0.196870  0.645200  1.0  1.0673
  Mn  Mn7  1  0.732290  0.803130  0.354800  1.0  1.0656
  Mn  Mn8  1  0.117910  0.861530  0.131240  1.0  1.1398
  Mo  Mo9  1  0.120710  0.870710  0.741420  1.0  -0.2256
  Mo  Mo10  1  0.730830  0.480830  0.961660  1.0  -0.1926
  Mo  Mo11  1  0.879290  0.129290  0.258580  1.0  -0.2238
  Mo  Mo12  1  0.269170  0.519170  0.038340  1.0  -0.1893
  C  C13  1  0.759600  0.449700  0.811800  1.0  0.19
  C  C14  1  0.029300  0.975100  0.800000  1.0  0.2066
  C  C15  1  0.873870  0.129670  0.101540  1.0  0.218
  C  C16  1  0.119600  0.369900  0.979600  1.0  0.1848
  C  C17  1  0.880400  0.630100  0.020400  1.0  0.1844
  C  C18  1  0.117300  0.495100  0.884200  1.0  0.1672
  C  C19  1  0.243500  0.678200  0.102000  1.0  0.1956
  C  C20  1  0.824700  0.013300  0.314000  1.0  0.2279
  C  C21  1  0.733100  0.610900  0.115800  1.0  0.1699
  C  C22  1  0.010700  0.699300  0.686000  1.0  0.2212
  C  C23  1  0.989300  0.300700  0.314000  1.0  0.2254
  C  C24  1  0.272330  0.028130  0.898460  1.0  0.2163
  C  C25  1  0.727670  0.971870  0.101540  1.0  0.2173
  C  C26  1  0.552200  0.362100  0.811800  1.0  0.1926
  C  C27  1  0.270700  0.824900  0.800000  1.0  0.2067
  C  C28  1  0.044050  0.175550  0.416900  1.0  0.2106
  C  C29  1  0.127150  0.758650  0.583100  1.0  0.2098
  C  C30  1  0.640000  0.390300  0.020400  1.0  0.1848
  C  C31  1  0.882700  0.504900  0.115800  1.0  0.1681
  C  C32  1  0.358500  0.423800  0.102000  1.0  0.1928
  C  C33  1  0.126130  0.870330  0.898460  1.0  0.2225
  C  C34  1  0.970700  0.024900  0.200000  1.0  0.208
  C  C35  1  0.872850  0.241350  0.416900  1.0  0.2112
  C  C36  1  0.756500  0.321800  0.898000  1.0  0.197
  C  C37  1  0.240400  0.550300  0.188200  1.0  0.1885
  C  C38  1  0.266900  0.389100  0.884200  1.0  0.1699
  C  C39  1  0.175300  0.986700  0.686000  1.0  0.2223
  C  C40  1  0.729300  0.175100  0.200000  1.0  0.206
  C  C41  1  0.641500  0.576200  0.898000  1.0  0.1942
  C  C42  1  0.955950  0.824450  0.583100  1.0  0.2101
  C  C43  1  0.447800  0.637900  0.188200  1.0  0.1914
  C  C44  1  0.360000  0.609700  0.979600  1.0  0.1803
  N  N45  1  0.955520  0.606930  0.659300  1.0  -0.4496
  N  N46  1  0.355750  0.109930  0.979400  1.0  -0.4322
  N  N47  1  0.871920  0.804620  0.499240  1.0  -0.4261
  N  N48  1  0.042080  0.290650  0.953600  1.0  -0.4363
  N  N49  1  0.229070  0.762310  0.134960  1.0  -0.5162
  N  N50  1  0.647860  0.197500  0.170380  1.0  -0.4302
  N  N51  1  0.957920  0.709350  0.046400  1.0  -0.438
  N  N52  1  0.770930  0.237690  0.865040  1.0  -0.5129
  N  N53  1  0.796220  0.947630  0.340700  1.0  -0.4473
  N  N54  1  0.220900  0.565600  0.265000  1.0  -0.4662
  N  N55  1  0.455900  0.300600  0.735000  1.0  -0.4648
  N  N56  1  0.127320  0.694620  0.499240  1.0  -0.4296
  N  N57  1  0.405890  0.372650  0.134960  1.0  -0.5087
  N  N58  1  0.044480  0.393070  0.340700  1.0  -0.4554
  N  N59  1  0.544100  0.699400  0.265000  1.0  -0.4665
  N  N60  1  0.123650  0.869470  0.979400  1.0  -0.4316
  N  N61  1  0.644250  0.890070  0.020600  1.0  -0.4315
  N  N62  1  0.738660  0.679840  0.202340  1.0  -0.4418
  N  N63  1  0.203780  0.052370  0.659300  1.0  -0.451
  N  N64  1  0.261340  0.320160  0.797660  1.0  -0.4423
  N  N65  1  0.411520  0.662950  0.953600  1.0  -0.4366
  N  N66  1  0.022520  0.972880  0.170380  1.0  -0.4306
  N  N67  1  0.977480  0.027120  0.829620  1.0  -0.4302
  N  N68  1  0.779100  0.434400  0.735000  1.0  -0.4659
  N  N69  1  0.128080  0.195380  0.500760  1.0  -0.4285
  N  N70  1  0.588480  0.337050  0.046400  1.0  -0.4357
  N  N71  1  0.594110  0.627350  0.865040  1.0  -0.5077
  N  N72  1  0.352140  0.802500  0.829620  1.0  -0.43
  N  N73  1  0.963680  0.522500  0.202340  1.0  -0.4392
  N  N74  1  0.872680  0.305380  0.500760  1.0  -0.4286
  N  N75  1  0.876350  0.130530  0.020600  1.0  -0.433
  N  N76  1  0.036320  0.477500  0.797660  1.0  -0.4404
