# generated using pymatgen
data_Mn2W(CN)8
_symmetry_space_group_name_H-M   'P 1'
_cell_length_a   13.13000000
_cell_length_b   13.76190000
_cell_length_c   13.85920000
_cell_angle_alpha   114.00200000
_cell_angle_beta   112.31200000
_cell_angle_gamma   100.91900000
_symmetry_Int_Tables_number   1
_chemical_formula_structural   Mn2W(CN)8
_chemical_formula_sum   'Mn8 W4 C32 N32'
_cell_volume   1933.35624371
_cell_formula_units_Z   4
loop_
 _symmetry_equiv_pos_site_id
 _symmetry_equiv_pos_as_xyz
  1  'x, y, z'
loop_
 _atom_site_type_symbol
 _atom_site_label
 _atom_site_symmetry_multiplicity
 _atom_site_fract_x
 _atom_site_fract_y
 _atom_site_fract_z
 _atom_site_occupancy
 _atom_site_charge
  Mn  Mn1  1  0.385080  0.140730  0.870460  1.0  1.1196
  Mn  Mn2  1  0.232900  0.804740  0.354540  1.0  1.087
  Mn  Mn3  1  0.378360  0.450200  0.645460  1.0  1.086
  Mn  Mn4  1  0.767100  0.195260  0.645460  1.0  1.0846
  Mn  Mn5  1  0.985380  0.729730  0.870460  1.0  1.1199
  Mn  Mn6  1  0.014620  0.270270  0.129540  1.0  1.1226
  Mn  Mn7  1  0.621640  0.549800  0.354540  1.0  1.0842
  Mn  Mn8  1  0.614920  0.859270  0.129540  1.0  1.1216
  W  W9  1  0.771040  0.521040  0.042080  1.0  -0.048
  W  W10  1  0.379070  0.129070  0.258140  1.0  -0.069
  W  W11  1  0.620930  0.870930  0.741860  1.0  -0.0713
  W  W12  1  0.228960  0.478960  0.957920  1.0  -0.052
  C  C13  1  0.229160  0.175640  0.199000  1.0  0.2034
  C  C14  1  0.530160  0.976640  0.801000  1.0  0.2066
  C  C15  1  0.487090  0.300670  0.313560  1.0  0.2076
  C  C16  1  0.257410  0.447710  0.807240  1.0  0.1886
  C  C17  1  0.770840  0.824360  0.801000  1.0  0.2048
  C  C18  1  0.372460  0.241320  0.418580  1.0  0.1921
  C  C19  1  0.744530  0.680230  0.106660  1.0  0.1705
  C  C20  1  0.617360  0.496340  0.886720  1.0  0.1549
  C  C21  1  0.950170  0.640470  0.192760  1.0  0.1881
  C  C22  1  0.137840  0.387470  0.015420  1.0  0.169
  C  C23  1  0.626580  0.870520  0.899440  1.0  0.2118
  C  C24  1  0.742590  0.552290  0.192760  1.0  0.1888
  C  C25  1  0.862160  0.612530  0.984580  1.0  0.1678
  C  C26  1  0.862130  0.426430  0.106660  1.0  0.1709
  C  C27  1  0.622420  0.372050  0.984580  1.0  0.1698
  C  C28  1  0.373420  0.129480  0.100560  1.0  0.2116
  C  C29  1  0.627540  0.758680  0.581420  1.0  0.1906
  C  C30  1  0.453880  0.822740  0.581420  1.0  0.1913
  C  C31  1  0.227140  0.971080  0.100560  1.0  0.2099
  C  C32  1  0.769360  0.390380  0.886720  1.0  0.1582
  C  C33  1  0.377580  0.627950  0.015420  1.0  0.1699
  C  C34  1  0.546120  0.177260  0.418580  1.0  0.1918
  C  C35  1  0.512910  0.699330  0.686440  1.0  0.2079
  C  C36  1  0.382640  0.503660  0.113280  1.0  0.1563
  C  C37  1  0.772860  0.028920  0.899440  1.0  0.2087
  C  C38  1  0.255470  0.319770  0.893340  1.0  0.1721
  C  C39  1  0.469840  0.023360  0.199000  1.0  0.2062
  C  C40  1  0.230640  0.609620  0.113280  1.0  0.1567
  C  C41  1  0.049830  0.359530  0.807240  1.0  0.1906
  C  C42  1  0.137870  0.573570  0.893340  1.0  0.1693
  C  C43  1  0.673530  0.987110  0.686440  1.0  0.207
  C  C44  1  0.326470  0.012890  0.313560  1.0  0.2123
  N  N45  1  0.463690  0.521050  0.199760  1.0  -0.4406
  N  N46  1  0.047570  0.703620  0.270020  1.0  -0.4654
  N  N47  1  0.481610  0.032380  0.831380  1.0  -0.4408
  N  N48  1  0.536310  0.478950  0.800240  1.0  -0.4409
  N  N49  1  0.702540  0.053280  0.661820  1.0  -0.4495
  N  N50  1  0.729530  0.763710  0.139640  1.0  -0.5015
  N  N51  1  0.150230  0.201000  0.168620  1.0  -0.4402
  N  N52  1  0.540720  0.391460  0.338180  1.0  -0.4525
  N  N53  1  0.459280  0.608540  0.661820  1.0  -0.4486
  N  N54  1  0.371560  0.304010  0.502280  1.0  -0.4664
  N  N55  1  0.910110  0.375930  0.139640  1.0  -0.4929
  N  N56  1  0.277550  0.433600  0.729980  1.0  -0.4654
  N  N57  1  0.143990  0.888460  0.017820  1.0  -0.455
  N  N58  1  0.086530  0.336410  0.042820  1.0  -0.4288
  N  N59  1  0.628440  0.695990  0.497720  1.0  -0.4674
  N  N60  1  0.089890  0.624070  0.860360  1.0  -0.4926
  N  N61  1  0.456290  0.706410  0.042820  1.0  -0.4324
  N  N62  1  0.626170  0.870640  0.982180  1.0  -0.4555
  N  N63  1  0.913470  0.663590  0.957180  1.0  -0.4319
  N  N64  1  0.722450  0.566400  0.270020  1.0  -0.4667
  N  N65  1  0.763930  0.321290  0.800240  1.0  -0.4426
  N  N66  1  0.373830  0.129360  0.017820  1.0  -0.4568
  N  N67  1  0.518390  0.967620  0.168620  1.0  -0.4424
  N  N68  1  0.952430  0.296380  0.729980  1.0  -0.4646
  N  N69  1  0.236070  0.678710  0.199760  1.0  -0.4453
  N  N70  1  0.543710  0.293590  0.957180  1.0  -0.4281
  N  N71  1  0.369280  0.801730  0.497720  1.0  -0.464
  N  N72  1  0.849770  0.799000  0.831380  1.0  -0.4422
  N  N73  1  0.856010  0.111540  0.982180  1.0  -0.4576
  N  N74  1  0.630720  0.198270  0.502280  1.0  -0.4653
  N  N75  1  0.270470  0.236290  0.860360  1.0  -0.4981
  N  N76  1  0.297460  0.946720  0.338180  1.0  -0.448
