# generated using pymatgen
data_Cd2H48C70N6O5
_symmetry_space_group_name_H-M   'P 1'
_cell_length_a   21.11460000
_cell_length_b   21.58040000
_cell_length_c   28.25140000
_cell_angle_alpha   80.92780000
_cell_angle_beta   71.19700000
_cell_angle_gamma   60.71150000
_symmetry_Int_Tables_number   1
_chemical_formula_structural   Cd2H48C70N6O5
_chemical_formula_sum   'Cd8 H192 C280 N24 O20'
_cell_volume   10628.29426659
_cell_formula_units_Z   4
loop_
 _symmetry_equiv_pos_site_id
 _symmetry_equiv_pos_as_xyz
  1  'x, y, z'
loop_
 _atom_site_type_symbol
 _atom_site_label
 _atom_site_symmetry_multiplicity
 _atom_site_fract_x
 _atom_site_fract_y
 _atom_site_fract_z
 _atom_site_occupancy
 _atom_site_charge
  Cd  Cd1  1  0.096220  0.504680  0.715990  1.0  0.9265
  Cd  Cd2  1  0.903780  0.495320  0.284010  1.0  0.9284
  Cd  Cd3  1  0.597310  0.487650  0.719970  1.0  0.5547
  Cd  Cd4  1  0.084960  0.512350  0.219970  1.0  0.5545
  Cd  Cd5  1  0.399100  0.504680  0.784010  1.0  0.9285
  Cd  Cd6  1  0.402690  0.512350  0.280030  1.0  0.5509
  Cd  Cd7  1  0.915040  0.487650  0.780030  1.0  0.5518
  Cd  Cd8  1  0.600900  0.495320  0.215990  1.0  0.926
  H  H9  1  0.713300  0.034400  0.901200  1.0  0.1094
  H  H10  1  0.134100  0.341200  0.723900  1.0  0.0818
  H  H11  1  0.377800  0.768800  0.925300  1.0  0.1124
  H  H12  1  0.848600  0.491400  0.130900  1.0  0.0896
  H  H13  1  0.275700  0.336400  0.316900  1.0  0.1246
  H  H14  1  0.178900  0.040400  0.551000  1.0  0.1233
  H  H15  1  0.470000  0.652400  0.731200  1.0  0.0704
  H  H16  1  0.109200  0.041000  0.420600  1.0  0.1137
  H  H17  1  0.676300  0.360600  0.365600  1.0  0.1
  H  H18  1  0.671700  0.956000  0.665100  1.0  0.0942
  H  H19  1  0.637300  0.558800  0.788200  1.0  0.0796
  H  H20  1  0.608600  0.883000  0.110300  1.0  0.1068
  H  H21  1  0.207800  0.232200  0.751300  1.0  0.1206
  H  H22  1  0.340000  0.508600  0.630900  1.0  0.0893
  H  H23  1  0.777100  0.977200  0.135400  1.0  0.1033
  H  H24  1  0.364300  0.953400  0.436900  1.0  0.1111
  H  H25  1  0.361700  0.432000  0.714300  1.0  0.0712
  H  H26  1  0.635700  0.046600  0.563100  1.0  0.1105
  H  H27  1  0.564100  0.051000  0.515700  1.0  0.1038
  H  H28  1  0.718900  0.674200  0.182800  1.0  0.1094
  H  H29  1  0.146600  0.231200  0.425300  1.0  0.112
  H  H30  1  0.877600  0.652400  0.768800  1.0  0.0686
  H  H31  1  0.242700  0.152800  0.312900  1.0  0.0999
  H  H32  1  0.245700  0.977200  0.364600  1.0  0.1033
  H  H33  1  0.803900  0.558800  0.711800  1.0  0.0792
  H  H34  1  0.438800  0.971000  0.268600  1.0  0.1031
  H  H35  1  0.751200  0.686800  0.032700  1.0  0.1276
  H  H36  1  0.122400  0.347600  0.231200  1.0  0.069
  H  H37  1  0.747700  0.965600  0.401200  1.0  0.1092
  H  H38  1  0.286700  0.965600  0.098800  1.0  0.1095
  H  H39  1  0.929400  0.771800  0.042700  1.0  0.0994
  H  H40  1  0.014500  0.229600  0.332000  1.0  0.1161
  H  H41  1  0.530000  0.347600  0.268800  1.0  0.0688
  H  H42  1  0.747300  0.122000  0.504700  1.0  0.1122
  H  H43  1  0.619600  0.767600  0.694900  1.0  0.1009
  H  H44  1  0.440500  0.576000  0.358100  1.0  0.065
  H  H45  1  0.469000  0.123000  0.322200  1.0  0.1125
  H  H46  1  0.219300  0.959600  0.051000  1.0  0.1237
  H  H47  1  0.326000  0.357200  0.914800  1.0  0.0995
  H  H48  1  0.545100  0.546800  0.618700  1.0  0.0933
  H  H49  1  0.206300  0.432000  0.785700  1.0  0.0705
  H  H50  1  0.606900  0.674200  0.317200  1.0  0.1096
  H  H51  1  0.674000  0.642800  0.085200  1.0  0.1001
  H  H52  1  0.612100  0.663600  0.816900  1.0  0.1244
  H  H53  1  0.435900  0.949000  0.484300  1.0  0.1046
  H  H54  1  0.782200  0.875600  0.543100  1.0  0.1141
  H  H55  1  0.568300  0.571600  0.535000  1.0  0.1045
  H  H56  1  0.431700  0.428400  0.465000  1.0  0.1049
  H  H57  1  0.561800  0.433800  0.137200  1.0  0.0742
  H  H58  1  0.711600  0.332400  0.208200  1.0  0.0785
  H  H59  1  0.683200  0.642800  0.414800  1.0  0.1001
  H  H60  1  0.252300  0.034400  0.598800  1.0  0.1094
  H  H61  1  0.531000  0.877000  0.677800  1.0  0.1124
  H  H62  1  0.508400  0.883000  0.389700  1.0  0.1051
  H  H63  1  0.780700  0.040400  0.949000  1.0  0.1228
  H  H64  1  0.562000  0.686800  0.467300  1.0  0.1268
  H  H65  1  0.969300  0.780400  0.178400  1.0  0.1119
  H  H66  1  0.849800  0.041000  0.079400  1.0  0.1141
  H  H67  1  0.438200  0.566200  0.862800  1.0  0.0744
  H  H68  1  0.384900  0.051000  0.984300  1.0  0.1048
  H  H69  1  0.627700  0.044000  0.165100  1.0  0.0951
  H  H70  1  0.800600  0.760200  0.741900  1.0  0.1189
  H  H71  1  0.362700  0.441200  0.211800  1.0  0.0805
  H  H72  1  0.638300  0.568000  0.285700  1.0  0.0705
  H  H73  1  0.842100  0.870600  0.172900  1.0  0.1035
  H  H74  1  0.425900  0.073400  0.423900  1.0  0.1145
  H  H75  1  0.397100  0.665000  0.907100  1.0  0.121
  H  H76  1  0.535400  0.774200  0.365700  1.0  0.1041
  H  H77  1  0.592000  0.877000  0.822200  1.0  0.1124
  H  H78  1  0.439200  0.760200  0.758100  1.0  0.1187
  H  H79  1  0.376600  0.940000  0.129700  1.0  0.1106
  H  H80  1  0.217800  0.124400  0.456900  1.0  0.1139
  H  H81  1  0.655000  0.333600  0.449900  1.0  0.1169
  H  H82  1  0.865900  0.658800  0.276100  1.0  0.0814
  H  H83  1  0.016500  0.424000  0.858100  1.0  0.0648
  H  H84  1  0.070600  0.228200  0.957300  1.0  0.1003
  H  H85  1  0.500700  0.073400  0.076100  1.0  0.1157
  H  H86  1  0.869300  0.878000  0.004700  1.0  0.1124
  H  H87  1  0.288400  0.667600  0.791800  1.0  0.0789
  H  H88  1  0.316800  0.357200  0.585200  1.0  0.0998
  H  H89  1  0.151400  0.508600  0.869100  1.0  0.0894
  H  H90  1  0.309600  0.225800  0.865700  1.0  0.104
  H  H91  1  0.454900  0.453200  0.381300  1.0  0.0931
  H  H92  1  0.657800  0.124400  0.043100  1.0  0.1146
  H  H93  1  0.757300  0.847200  0.687100  1.0  0.1009
  H  H94  1  0.342200  0.875600  0.956900  1.0  0.1137
  H  H95  1  0.539300  0.137200  0.752800  1.0  0.104
  H  H96  1  0.499600  0.923000  0.534300  1.0  0.1123
  H  H97  1  0.091900  0.453200  0.118700  1.0  0.0932
  H  H98  1  0.749700  0.219600  0.678400  1.0  0.1124
  H  H99  1  0.793700  0.568000  0.214300  1.0  0.0707
  H  H100  1  0.451900  0.938400  0.173200  1.0  0.0913
  H  H101  1  0.186600  0.852600  0.887400  1.0  0.1051
  H  H102  1  0.390300  0.061600  0.673200  1.0  0.0913
  H  H103  1  0.316600  0.060000  0.629700  1.0  0.1101
  H  H104  1  0.960800  0.852600  0.612600  1.0  0.1063
  H  H105  1  0.328300  0.044000  0.334900  1.0  0.0944
  H  H106  1  0.682300  0.953400  0.063100  1.0  0.1104
  H  H107  1  0.724300  0.663600  0.683100  1.0  0.1233
  H  H108  1  0.599800  0.322400  0.600800  1.0  0.1188
  H  H109  1  0.157900  0.129400  0.827100  1.0  0.1029
  H  H110  1  0.524700  0.341200  0.776100  1.0  0.0814
  H  H111  1  0.676500  0.862800  0.252800  1.0  0.104
  H  H112  1  0.792200  0.767800  0.248700  1.0  0.1206
  H  H113  1  0.380400  0.232400  0.305100  1.0  0.1004
  H  H114  1  0.072300  0.469000  0.926500  1.0  0.1113
  H  H115  1  0.988600  0.666400  0.949900  1.0  0.1157
  H  H116  1  0.604500  0.152800  0.187100  1.0  0.1008
  H  H117  1  0.615100  0.949000  0.015700  1.0  0.104
  H  H118  1  0.541300  0.531000  0.426500  1.0  0.1115
  H  H119  1  0.475300  0.658800  0.223900  1.0  0.0819
  H  H120  1  0.033600  0.674600  0.215100  1.0  0.0835
  H  H121  1  0.966400  0.325400  0.784900  1.0  0.0834
  H  H122  1  0.291800  0.674600  0.284900  1.0  0.083
  H  H123  1  0.561200  0.029000  0.731400  1.0  0.1035
  H  H124  1  0.252700  0.878000  0.495300  1.0  0.1129
  H  H125  1  0.287300  0.870600  0.327100  1.0  0.103
  H  H126  1  0.393100  0.325800  0.682800  1.0  0.1087
  H  H127  1  0.937900  0.665000  0.592900  1.0  0.1197
  H  H128  1  0.499300  0.926600  0.923900  1.0  0.1149
  H  H129  1  0.985500  0.770400  0.668000  1.0  0.1159
  H  H130  1  0.222900  0.022800  0.864600  1.0  0.1029
  H  H131  1  0.609700  0.938400  0.326800  1.0  0.0918
  H  H132  1  0.612800  0.767600  0.805100  1.0  0.1011
  H  H133  1  0.701200  0.228200  0.542700  1.0  0.0994
  H  H134  1  0.400200  0.677600  0.399200  1.0  0.1191
  H  H135  1  0.660000  0.491400  0.369100  1.0  0.0893
  H  H136  1  0.391400  0.117000  0.889700  1.0  0.1049
  H  H137  1  0.708200  0.325400  0.715100  1.0  0.0835
  H  H138  1  0.281100  0.325800  0.817200  1.0  0.109
  H  H139  1  0.754300  0.022800  0.635400  1.0  0.103
  H  H140  1  0.030700  0.219600  0.821600  1.0  0.112
  H  H141  1  0.755900  0.229600  0.168000  1.0  0.117
  H  H142  1  0.491600  0.117000  0.610300  1.0  0.1065
  H  H143  1  0.623400  0.060000  0.870300  1.0  0.1109
  H  H144  1  0.408000  0.123000  0.177800  1.0  0.1122
  H  H145  1  0.690400  0.774200  0.134300  1.0  0.1033
  H  H146  1  0.927700  0.531000  0.073500  1.0  0.1119
  H  H147  1  0.458700  0.469000  0.573500  1.0  0.1118
  H  H148  1  0.464600  0.225800  0.634300  1.0  0.1034
  H  H149  1  0.559500  0.424000  0.641900  1.0  0.0663
  H  H150  1  0.199400  0.239800  0.258100  1.0  0.1176
  H  H151  1  0.139900  0.428400  0.035000  1.0  0.1045
  H  H152  1  0.438000  0.313200  0.532700  1.0  0.1269
  H  H153  1  0.387200  0.232400  0.194900  1.0  0.1017
  H  H154  1  0.460700  0.862800  0.247200  1.0  0.1046
  H  H155  1  0.860100  0.571600  0.965000  1.0  0.1045
  H  H156  1  0.995600  0.566200  0.637200  1.0  0.0735
  H  H157  1  0.908100  0.546800  0.881300  1.0  0.0934
  H  H158  1  0.044000  0.667600  0.708200  1.0  0.0794
  H  H159  1  0.250300  0.780400  0.321600  1.0  0.1123
  H  H160  1  0.560000  0.232200  0.748700  1.0  0.1207
  H  H161  1  0.244100  0.770400  0.832000  1.0  0.1152
  H  H162  1  0.500400  0.077000  0.465700  1.0  0.1124
  H  H163  1  0.395500  0.847200  0.812900  1.0  0.1004
  H  H164  1  0.712700  0.129400  0.672900  1.0  0.1033
  H  H165  1  0.821100  0.959600  0.449000  1.0  0.1224
  H  H166  1  0.004400  0.433800  0.362800  1.0  0.0744
  H  H167  1  0.323700  0.639400  0.634400  1.0  0.1009
  H  H168  1  0.196100  0.441200  0.288200  1.0  0.08
  H  H169  1  0.387900  0.336400  0.183100  1.0  0.1239
  H  H170  1  0.372300  0.956000  0.834900  1.0  0.0947
  H  H171  1  0.590200  0.971000  0.231400  1.0  0.103
  H  H172  1  0.150200  0.959000  0.920600  1.0  0.1146
  H  H173  1  0.036900  0.639400  0.865600  1.0  0.1003
  H  H174  1  0.548100  0.061600  0.826800  1.0  0.0921
  H  H175  1  0.440000  0.767800  0.251300  1.0  0.1209
  H  H176  1  0.062100  0.335000  0.407100  1.0  0.1207
  H  H177  1  0.574100  0.926600  0.576100  1.0  0.1154
  H  H178  1  0.298800  0.771800  0.457300  1.0  0.1003
  H  H179  1  0.130700  0.122000  0.995300  1.0  0.1124
  H  H180  1  0.248800  0.313200  0.967300  1.0  0.127
  H  H181  1  0.813400  0.147400  0.112600  1.0  0.1058
  H  H182  1  0.577400  0.923000  0.965700  1.0  0.1121
  H  H183  1  0.890800  0.959000  0.579400  1.0  0.114
  H  H184  1  0.683400  0.940000  0.370300  1.0  0.1105
  H  H185  1  0.956000  0.332400  0.291800  1.0  0.0799
  H  H186  1  0.409800  0.029000  0.768600  1.0  0.1033
  H  H187  1  0.077800  0.322400  0.899200  1.0  0.1189
  H  H188  1  0.922200  0.677600  0.100800  1.0  0.1189
  H  H189  1  0.622200  0.231200  0.074700  1.0  0.1113
  H  H190  1  0.602900  0.335000  0.092900  1.0  0.1202
  H  H191  1  0.317700  0.046600  0.936900  1.0  0.1112
  H  H192  1  0.345000  0.666400  0.550100  1.0  0.1167
  H  H193  1  0.011400  0.333600  0.050100  1.0  0.1162
  H  H194  1  0.963100  0.360600  0.134400  1.0  0.1014
  H  H195  1  0.323500  0.137200  0.747200  1.0  0.1045
  H  H196  1  0.039200  0.147400  0.387400  1.0  0.1066
  H  H197  1  0.853400  0.768800  0.574700  1.0  0.1109
  H  H198  1  0.983500  0.576000  0.141900  1.0  0.0657
  H  H199  1  0.422600  0.077000  0.034300  1.0  0.1128
  H  H200  1  0.560800  0.239800  0.241900  1.0  0.1188
  C  C201  1  0.200140  0.280260  0.264910  1.0  -0.2133
  C  C202  1  0.658940  0.029320  0.530560  1.0  -0.2308
  C  C203  1  0.603430  0.392340  0.142320  1.0  0.1666
  C  C204  1  0.920160  0.621040  0.966720  1.0  0.2782
  C  C205  1  0.044410  0.269180  0.376190  1.0  0.0651
  C  C206  1  0.262680  0.000840  0.989040  1.0  0.1146
  C  C207  1  0.297450  0.465900  0.852130  1.0  0.7179
  C  C208  1  0.345520  0.379540  0.583620  1.0  -0.0476
  C  C209  1  0.182040  0.128720  0.442420  1.0  -0.1746
  C  C210  1  0.648190  0.968020  0.001750  1.0  -0.1144
  C  C211  1  0.389700  0.068380  0.788540  1.0  -0.2071
  C  C212  1  0.971800  0.739200  0.169800  1.0  -0.1492
  C  C213  1  0.421370  0.918460  0.828090  1.0  -0.1976
  C  C214  1  0.074710  0.430060  0.104970  1.0  -0.0581
  C  C215  1  0.015100  0.564540  0.811620  1.0  0.6645
  C  C216  1  0.294120  0.981360  0.065870  1.0  -0.1236
  C  C217  1  0.515210  0.813820  0.346100  1.0  -0.1066
  C  C218  1  0.914070  0.798860  0.598870  1.0  0.0366
  C  C219  1  0.255480  0.264720  0.787000  1.0  0.0978
  C  C220  1  0.063190  0.257620  0.864640  1.0  0.1128
  C  C221  1  0.725060  0.620460  0.083620  1.0  -0.0489
  C  C222  1  0.341060  0.970680  0.469440  1.0  -0.2291
  C  C223  1  0.420540  0.327200  0.702280  1.0  -0.2001
  C  C224  1  0.757060  0.060480  0.566090  1.0  0.2029
  C  C225  1  0.208760  0.272000  0.759040  1.0  -0.2109
  C  C226  1  0.769010  0.977780  0.462810  1.0  -0.2184
  C  C227  1  0.716980  0.271040  0.159940  1.0  -0.2079
  C  C228  1  0.153620  0.345680  0.248890  1.0  0.1871
  C  C229  1  0.577120  0.871160  0.678840  1.0  -0.1937
  C  C230  1  0.704960  0.190280  0.610770  1.0  0.0869
  C  C231  1  0.499300  0.654320  0.748890  1.0  0.1871
  C  C232  1  0.598540  0.032520  0.881540  1.0  -0.1222
  C  C233  1  0.614340  0.358400  0.436420  1.0  -0.2206
  C  C234  1  0.377510  0.678980  0.375530  1.0  -0.1896
  C  C235  1  0.286490  0.813220  0.438300  1.0  -0.1302
  C  C236  1  0.740370  0.122860  0.538860  1.0  -0.1831
  C  C237  1  0.236650  0.465900  0.647870  1.0  0.7171
  C  C238  1  0.552980  0.033640  0.855360  1.0  -0.191
  C  C239  1  0.979100  0.587960  0.864530  1.0  -0.1588
  C  C240  1  0.981880  0.617640  0.148690  1.0  0.1852
  C  C241  1  0.527170  0.061060  0.669450  1.0  0.1856
  C  C242  1  0.018120  0.382360  0.851310  1.0  0.1854
  C  C243  1  0.499730  0.121140  0.639820  1.0  -0.1852
  C  C244  1  0.280160  0.871880  0.361240  1.0  -0.1484
  C  C245  1  0.153580  0.387160  0.951310  1.0  0.2642
  C  C246  1  0.599520  0.382360  0.648690  1.0  0.185
  C  C247  1  0.579640  0.435460  0.311620  1.0  0.664
  C  C248  1  0.579460  0.672800  0.297720  1.0  -0.2003
  C  C249  1  0.860550  0.807500  0.576670  1.0  -0.1111
  C  C250  1  0.458080  0.931620  0.288540  1.0  -0.2029
  C  C251  1  0.591790  0.929020  0.669030  1.0  0.1839
  C  C252  1  0.028200  0.260800  0.830200  1.0  -0.1484
  C  C253  1  0.435680  0.194040  0.190000  1.0  -0.1215
  C  C254  1  0.972740  0.641600  0.936420  1.0  -0.2139
  C  C255  1  0.835760  0.662140  0.257030  1.0  0.1744
  C  C256  1  0.564320  0.805960  0.810000  1.0  -0.1203
  C  C257  1  0.497900  0.337860  0.757030  1.0  0.1746
  C  C258  1  0.104760  0.190280  0.889230  1.0  0.086
  C  C259  1  0.521900  0.725660  0.790830  1.0  0.0929
  C  C260  1  0.679190  0.257620  0.635360  1.0  0.1138
  C  C261  1  0.493600  0.204200  0.194090  1.0  0.044
  C  C262  1  0.809060  0.936280  0.116110  1.0  -0.1705
  C  C263  1  0.056490  0.321020  0.875530  1.0  -0.1899
  C  C264  1  0.578630  0.081540  0.171910  1.0  -0.1985
  C  C265  1  0.259630  0.877140  0.461140  1.0  -0.182
  C  C266  1  0.827470  0.929060  0.559660  1.0  0.1539
  C  C267  1  0.500270  0.878860  0.360180  1.0  -0.1863
  C  C268  1  0.085930  0.201140  0.401130  1.0  0.0389
  C  C269  1  0.396570  0.607660  0.857680  1.0  0.1662
  C  C270  1  0.752440  0.725660  0.709170  1.0  0.093
  C  C271  1  0.528390  0.133540  0.724310  1.0  -0.1028
  C  C272  1  0.391980  0.008040  0.076240  1.0  0.0261
  C  C273  1  0.372930  0.667540  0.884060  1.0  -0.2194
  C  C274  1  0.379130  0.121140  0.860180  1.0  -0.1864
  C  C275  1  0.661930  0.866460  0.224310  1.0  -0.1032
  C  C276  1  0.476810  0.952180  0.562130  1.0  -0.1159
  C  C277  1  0.331950  0.807500  0.923330  1.0  -0.1112
  C  C278  1  0.079840  0.378960  0.033280  1.0  0.2786
  C  C279  1  0.616210  0.031980  0.501750  1.0  -0.1142
  C  C280  1  0.586620  0.966360  0.355360  1.0  -0.1901
  C  C281  1  0.631060  0.967480  0.381540  1.0  -0.1223
  C  C282  1  0.689240  0.128720  0.057580  1.0  -0.1736
  C  C283  1  0.345250  0.007700  0.046760  1.0  0.0215
  C  C284  1  0.252260  0.327200  0.797720  1.0  -0.2005
  C  C285  1  0.478100  0.274340  0.209170  1.0  0.093
  C  C286  1  0.274940  0.379540  0.916380  1.0  -0.0467
  C  C287  1  0.351810  0.031980  0.998250  1.0  -0.1189
  C  C288  1  0.509610  0.005380  0.370480  1.0  0.1692
  C  C289  1  0.413380  0.033640  0.644640  1.0  -0.1912
  C  C290  1  0.172530  0.070940  0.440340  1.0  0.1526
  C  C291  1  0.876040  0.554380  0.076750  1.0  -0.1827
  C  C292  1  0.685800  0.324800  0.691780  1.0  0.1518
  C  C293  1  0.099710  0.186780  0.938300  1.0  -0.1312
  C  C294  1  0.475420  0.046360  0.087570  1.0  -0.191
  C  C295  1  0.417670  0.353360  0.551850  1.0  -0.1854
  C  C296  1  0.771030  0.646640  0.051850  1.0  -0.1854
  C  C297  1  0.254660  0.936280  0.383890  1.0  -0.1713
  C  C298  1  0.448280  0.128840  0.178840  1.0  -0.1928
  C  C299  1  0.118050  0.079100  0.420760  1.0  -0.1879
  C  C300  1  0.385660  0.641600  0.563580  1.0  -0.2134
  C  C301  1  0.244970  0.336860  0.299450  1.0  -0.2341
  C  C302  1  0.817960  0.871280  0.557580  1.0  -0.1729
  C  C303  1  0.314200  0.675200  0.308220  1.0  0.1513
  C  C304  1  0.989400  0.324800  0.808220  1.0  0.1515
  C  C305  1  0.403550  0.399900  0.218000  1.0  0.1585
  C  C306  1  0.896000  0.585080  0.945210  1.0  -0.2225
  C  C307  1  0.847960  0.871880  0.138760  1.0  -0.1463
  C  C308  1  0.622490  0.321020  0.624470  1.0  -0.1882
  C  C309  1  0.641440  0.529780  0.389710  1.0  -0.04
  C  C310  1  0.571010  0.952180  0.937870  1.0  -0.1163
  C  C311  1  0.302200  0.204200  0.305910  1.0  0.0449
  C  C312  1  0.688260  0.970680  0.030560  1.0  -0.2392
  C  C313  1  0.400020  0.991960  0.576240  1.0  0.0257
  C  C314  1  0.693150  0.805720  0.195990  1.0  0.011
  C  C315  1  0.490390  0.994620  0.629520  1.0  0.1684
  C  C316  1  0.955590  0.730820  0.623810  1.0  0.0621
  C  C317  1  0.608020  0.991960  0.923760  1.0  0.0255
  C  C318  1  0.458800  0.621040  0.533280  1.0  0.2798
  C  C319  1  0.182460  0.060480  0.933910  1.0  0.2031
  C  C320  1  0.472830  0.938940  0.330550  1.0  0.1858
  C  C321  1  0.422880  0.128840  0.321160  1.0  -0.1911
  C  C322  1  0.506400  0.795800  0.805910  1.0  0.0449
  C  C323  1  0.197150  0.920900  0.920760  1.0  -0.1876
  C  C324  1  0.697800  0.795800  0.694090  1.0  0.0435
  C  C325  1  0.567060  0.412040  0.364530  1.0  -0.1582
  C  C326  1  0.747740  0.672800  0.202280  1.0  -0.1999
  C  C327  1  0.287070  0.798860  0.901130  1.0  0.0379
  C  C328  1  0.524580  0.953640  0.912430  1.0  -0.1899
  C  C329  1  0.480760  0.728000  0.259040  1.0  -0.2112
  C  C330  1  0.459260  0.387160  0.548690  1.0  0.2651
  C  C331  1  0.196550  0.399900  0.282000  1.0  0.1595
  C  C332  1  0.925290  0.569940  0.895030  1.0  -0.0542
  C  C333  1  0.736480  0.000840  0.510960  1.0  0.1171
  C  C334  1  0.724520  0.981360  0.434130  1.0  -0.1244
  C  C335  1  0.551720  0.871160  0.821160  1.0  -0.1966
  C  C336  1  0.711880  0.852840  0.684770  1.0  -0.1075
  C  C337  1  0.520810  0.070980  0.169030  1.0  0.1844
  C  C338  1  0.243470  0.929060  0.940340  1.0  0.1518
  C  C339  1  0.310760  0.871280  0.942420  1.0  -0.1748
  C  C340  1  0.519600  0.280260  0.235090  1.0  -0.2152
  C  C341  1  0.447020  0.966360  0.144640  1.0  -0.1885
  C  C342  1  0.519240  0.272000  0.740960  1.0  -0.214
  C  C343  1  0.685610  0.561360  0.386530  1.0  -0.1606
  C  C344  1  0.504770  0.569940  0.604970  1.0  -0.0533
  C  C345  1  0.763350  0.534100  0.352130  1.0  0.7178
  C  C346  1  0.263520  0.999160  0.489040  1.0  0.1147
  C  C347  1  0.514990  0.994620  0.870480  1.0  0.1689
  C  C348  1  0.626990  0.374740  0.385750  1.0  -0.0703
  C  C349  1  0.828780  0.529780  0.110290  1.0  -0.0385
  C  C350  1  0.582330  0.646640  0.448150  1.0  -0.1869
  C  C351  1  0.190940  0.063720  0.883890  1.0  -0.172
  C  C352  1  0.660170  0.918460  0.671910  1.0  -0.1985
  C  C353  1  0.780970  0.143260  0.098910  1.0  -0.1621
  C  C354  1  0.755030  0.663140  0.700550  1.0  -0.2313
  C  C355  1  0.793950  0.608840  0.220720  1.0  0.174
  C  C356  1  0.998270  0.374740  0.114250  1.0  -0.0713
  C  C357  1  0.479190  0.929020  0.830970  1.0  0.1843
  C  C358  1  0.654750  0.992300  0.953240  1.0  0.0208
  C  C359  1  0.647050  0.007700  0.453240  1.0  0.0209
  C  C360  1  0.228970  0.353360  0.948150  1.0  -0.1844
  C  C361  1  0.599980  0.008040  0.423760  1.0  0.0257
  C  C362  1  0.520200  0.735280  0.287000  1.0  0.0976
  C  C363  1  0.995770  0.607660  0.642320  1.0  0.1665
  C  C364  1  0.881950  0.920900  0.579240  1.0  -0.187
  C  C365  1  0.480400  0.719740  0.764910  1.0  -0.2138
  C  C366  1  0.368940  0.032520  0.618460  1.0  -0.1235
  C  C367  1  0.502100  0.662140  0.242970  1.0  0.1751
  C  C368  1  0.712930  0.201140  0.098870  1.0  0.0367
  C  C369  1  0.746790  0.022220  0.962810  1.0  -0.2177
  C  C370  1  0.541200  0.378960  0.466720  1.0  0.2781
  C  C371  1  0.521780  0.953640  0.587570  1.0  -0.1904
  C  C372  1  0.610300  0.931620  0.211460  1.0  -0.2067
  C  C373  1  0.435280  0.852840  0.815230  1.0  -0.1054
  C  C374  1  0.745340  0.063720  0.616110  1.0  -0.1717
  C  C375  1  0.803450  0.600100  0.718000  1.0  0.1612
  C  C376  1  0.352950  0.992300  0.546760  1.0  0.0213
  C  C377  1  0.370280  0.194040  0.310000  1.0  -0.1199
  C  C378  1  0.597210  0.608840  0.279280  1.0  0.1738
  C  C379  1  0.206050  0.391160  0.779280  1.0  0.1734
  C  C380  1  0.686410  0.269180  0.123810  1.0  0.0625
  C  C381  1  0.713510  0.186780  0.561700  1.0  -0.1309
  C  C382  1  0.936810  0.742380  0.135360  1.0  0.1136
  C  C383  1  0.690210  0.333380  0.183830  1.0  0.1618
  C  C384  1  0.283020  0.728960  0.840060  1.0  -0.2095
  C  C385  1  0.306850  0.194280  0.804010  1.0  0.011
  C  C386  1  0.498870  0.194280  0.695990  1.0  0.0113
  C  C387  1  0.420360  0.564540  0.688380  1.0  0.6638
  C  C388  1  0.253210  0.977780  0.037190  1.0  -0.2191
  C  C389  1  0.988020  0.728960  0.659940  1.0  -0.2076
  C  C390  1  0.711000  0.260800  0.669800  1.0  -0.1503
  C  C391  1  0.627070  0.332460  0.115940  1.0  -0.2174
  C  C392  1  0.959530  0.667540  0.615940  1.0  -0.2167
  C  C393  1  0.501130  0.805720  0.304010  1.0  0.0107
  C  C394  1  0.670970  0.813820  0.153900  1.0  -0.1068
  C  C395  1  0.314390  0.438640  0.613470  1.0  -0.1577
  C  C396  1  0.408210  0.070980  0.330970  1.0  0.1851
  C  C397  1  0.924230  0.856740  0.598910  1.0  -0.1621
  C  C398  1  0.484790  0.186180  0.653900  1.0  -0.1073
  C  C399  1  0.596450  0.600100  0.782000  1.0  0.1603
  C  C400  1  0.001730  0.625260  0.885750  1.0  -0.0701
  C  C401  1  0.541920  0.068380  0.711460  1.0  -0.2034
  C  C402  1  0.430420  0.445620  0.576750  1.0  -0.1835
  C  C403  1  0.702550  0.534100  0.147870  1.0  0.7174
  C  C404  1  0.744520  0.735280  0.213000  1.0  0.0983
  C  C405  1  0.540740  0.612840  0.451310  1.0  0.2566
  C  C406  1  0.020900  0.412040  0.135470  1.0  -0.1589
  C  C407  1  0.295040  0.809720  0.389230  1.0  0.086
  C  C408  1  0.309790  0.666667  0.816170  1.0  0.1621
  C  C409  1  0.500700  0.345680  0.251110  1.0  0.1864
  C  C410  1  0.518920  0.585080  0.554790  1.0  -0.223
  C  C411  1  0.313590  0.730820  0.876190  1.0  0.0645
  C  C412  1  0.219030  0.856740  0.901090  1.0  -0.1623
  C  C413  1  0.320810  0.742380  0.364640  1.0  0.1128
  C  C414  1  0.668050  0.192500  0.076670  1.0  -0.1099
  C  C415  1  0.756530  0.070940  0.059660  1.0  0.1542
  C  C416  1  0.040470  0.332460  0.384060  1.0  -0.2195
  C  C417  1  0.400480  0.617640  0.351310  1.0  0.1853
  C  C418  1  0.588230  0.938940  0.169450  1.0  0.1859
  C  C419  1  0.719840  0.128120  0.638760  1.0  -0.147
  C  C420  1  0.428990  0.047820  0.062130  1.0  -0.1149
  C  C421  1  0.411770  0.061060  0.830550  1.0  0.1854
  C  C422  1  0.654480  0.620460  0.416380  1.0  -0.0466
  C  C423  1  0.481080  0.414920  0.445210  1.0  -0.2232
  C  C424  1  0.495230  0.430060  0.395030  1.0  -0.0537
  C  C425  1  0.152040  0.128120  0.861240  1.0  -0.147
  C  C426  1  0.075770  0.143260  0.401090  1.0  -0.1629
  C  C427  1  0.846420  0.612840  0.048690  1.0  0.265
  C  C428  1  0.010600  0.675200  0.191780  1.0  0.1521
  C  C429  1  0.311740  0.029320  0.969440  1.0  -0.2378
  C  C430  1  0.401460  0.967480  0.118460  1.0  -0.1222
  C  C431  1  0.737320  0.999160  0.010960  1.0  0.1171
  C  C432  1  0.275480  0.018640  0.565870  1.0  -0.1247
  C  C433  1  0.123960  0.445620  0.923250  1.0  -0.1824
  C  C434  1  0.900290  0.813220  0.061700  1.0  -0.1312
  C  C435  1  0.171220  0.470220  0.889710  1.0  -0.0405
  C  C436  1  0.791240  0.728000  0.240960  1.0  -0.2137
  C  C437  1  0.136770  0.122860  0.961140  1.0  -0.1809
  C  C438  1  0.569580  0.554380  0.423250  1.0  -0.1814
  C  C439  1  0.023590  0.666667  0.683830  1.0  0.1589
  C  C440  1  0.164240  0.337860  0.742970  1.0  0.1752
  C  C441  1  0.011980  0.271040  0.340060  1.0  -0.2087
  C  C442  1  0.247560  0.274340  0.290830  1.0  0.093
  C  C443  1  0.027260  0.358400  0.063580  1.0  -0.2148
  C  C444  1  0.478220  0.046360  0.412430  1.0  -0.1916
  C  C445  1  0.799860  0.719740  0.735090  1.0  -0.2152
  C  C446  1  0.402790  0.391160  0.720720  1.0  0.1738
  C  C447  1  0.230990  0.022220  0.537190  1.0  -0.2186
  C  C448  1  0.620870  0.878860  0.139820  1.0  -0.1832
  C  C449  1  0.471610  0.866460  0.275690  1.0  -0.1022
  C  C450  1  0.943510  0.678980  0.124470  1.0  -0.1881
  C  C451  1  0.004230  0.392340  0.357680  1.0  0.1659
  C  C452  1  0.339830  0.081540  0.328090  1.0  -0.1977
  C  C453  1  0.581830  0.663140  0.799450  1.0  -0.2331
  C  C454  1  0.418170  0.336860  0.200550  1.0  -0.2338
  C  C455  1  0.242940  0.939520  0.433910  1.0  0.2027
  C  C456  1  0.863230  0.877140  0.038860  1.0  -0.1835
  C  C457  1  0.329030  0.186180  0.846100  1.0  -0.1063
  C  C458  1  0.817540  0.939520  0.066090  1.0  0.203
  C  C459  1  0.705880  0.018640  0.934130  1.0  -0.1247
  C  C460  1  0.564720  0.147160  0.184770  1.0  -0.1076
  C  C461  1  0.895240  0.809720  0.110770  1.0  0.0868
  C  C462  1  0.373010  0.625260  0.614250  1.0  -0.0681
  C  C463  1  0.246970  0.438640  0.886530  1.0  -0.1611
  C  C464  1  0.984900  0.435460  0.188380  1.0  0.6635
  C  C465  1  0.753030  0.561360  0.113470  1.0  -0.1586
  C  C466  1  0.383790  0.968020  0.498250  1.0  -0.1167
  C  C467  1  0.485010  0.005380  0.129520  1.0  0.1686
  C  C468  1  0.846380  0.654320  0.751110  1.0  0.1862
  C  C469  1  0.523190  0.047820  0.437870  1.0  -0.1164
  C  C470  1  0.976410  0.333380  0.316170  1.0  0.163
  C  C471  1  0.338070  0.133540  0.775690  1.0  -0.1018
  C  C472  1  0.358560  0.470220  0.610290  1.0  -0.0377
  C  C473  1  0.629720  0.805960  0.690000  1.0  -0.1219
  C  C474  1  0.288120  0.147160  0.315230  1.0  -0.1054
  C  C475  1  0.139450  0.192500  0.423330  1.0  -0.1114
  C  C476  1  0.104000  0.414920  0.054790  1.0  -0.2218
  C  C477  1  0.289000  0.739200  0.330200  1.0  -0.1497
  C  C478  1  0.432940  0.587960  0.635470  1.0  -0.1597
  C  C479  1  0.802850  0.079100  0.079240  1.0  -0.1872
  C  C480  1  0.479800  0.264720  0.713000  1.0  0.0985
  N  N481  1  0.463010  0.004900  0.343660  1.0  -0.165
  N  N482  1  0.780790  0.997120  0.541920  1.0  -0.1775
  N  N483  1  0.368610  0.614960  0.319030  1.0  -0.2894
  N  N484  1  0.631390  0.385040  0.680970  1.0  -0.2899
  N  N485  1  0.219210  0.002880  0.458080  1.0  -0.1795
  N  N486  1  0.016430  0.614960  0.180970  1.0  -0.2877
  N  N487  1  0.150300  0.405880  0.256850  1.0  -0.3417
  N  N488  1  0.558960  0.602620  0.253090  1.0  -0.3291
  N  N489  1  0.364270  0.605180  0.825960  1.0  -0.3278
  N  N490  1  0.838420  0.602620  0.246910  1.0  -0.3272
  N  N491  1  0.030550  0.605180  0.674040  1.0  -0.327
  N  N492  1  0.849700  0.594120  0.743150  1.0  -0.3394
  N  N493  1  0.532090  0.004900  0.156340  1.0  -0.1648
  N  N494  1  0.777910  0.002880  0.041920  1.0  -0.1774
  N  N495  1  0.222090  0.997120  0.958080  1.0  -0.1796
  N  N496  1  0.441040  0.397380  0.746910  1.0  -0.3278
  N  N497  1  0.635730  0.394820  0.174040  1.0  -0.3285
  N  N498  1  0.983570  0.385040  0.819030  1.0  -0.2894
  N  N499  1  0.161580  0.397380  0.753090  1.0  -0.328
  N  N500  1  0.443820  0.405880  0.243150  1.0  -0.3404
  N  N501  1  0.536990  0.995100  0.656340  1.0  -0.165
  N  N502  1  0.556180  0.594120  0.756850  1.0  -0.3397
  N  N503  1  0.467910  0.995100  0.843660  1.0  -0.1649
  N  N504  1  0.969450  0.394820  0.325960  1.0  -0.3274
  O  O505  1  0.723860  0.491360  0.181540  1.0  -0.6043
  O  O506  1  0.215220  0.508640  0.681540  1.0  -0.6057
  O  O507  1  0.361640  0.444440  0.857580  1.0  -0.6407
  O  O508  1  0.010020  0.465820  0.206880  1.0  -0.7725
  O  O509  1  0.276140  0.508640  0.818460  1.0  -0.6058
  O  O510  1  0.989980  0.534180  0.793120  1.0  -0.7728
  O  O511  1  0.929080  0.427060  0.214380  1.0  -0.633
  O  O512  1  0.466430  0.638740  0.483630  1.0  -0.2819
  O  O513  1  0.894830  0.638740  0.016370  1.0  -0.2807
  O  O514  1  0.533570  0.361260  0.516370  1.0  -0.2806
  O  O515  1  0.638360  0.555560  0.142420  1.0  -0.6404
  O  O516  1  0.105170  0.361260  0.983630  1.0  -0.2833
  O  O517  1  0.806080  0.555560  0.357580  1.0  -0.6405
  O  O518  1  0.193920  0.444440  0.642420  1.0  -0.6411
  O  O519  1  0.524160  0.465820  0.293120  1.0  -0.7726
  O  O520  1  0.356140  0.572940  0.714380  1.0  -0.6334
  O  O521  1  0.475840  0.534180  0.706880  1.0  -0.7727
  O  O522  1  0.784780  0.491360  0.318460  1.0  -0.6059
  O  O523  1  0.643860  0.427060  0.285620  1.0  -0.6345
  O  O524  1  0.070920  0.572940  0.785620  1.0  -0.6336
