# generated using pymatgen
data_CdH28C37(N2O3)2
_symmetry_space_group_name_H-M   'P 1'
_cell_length_a   10.47590000
_cell_length_b   33.01700000
_cell_length_c   28.54800000
_cell_angle_alpha   90.00000000
_cell_angle_beta   97.28800000
_cell_angle_gamma   90.00000000
_symmetry_Int_Tables_number   1
_chemical_formula_structural   CdH28C37(N2O3)2
_chemical_formula_sum   'Cd8 H224 C296 N32 O48'
_cell_volume   9794.48806329
_cell_formula_units_Z   8
loop_
 _symmetry_equiv_pos_site_id
 _symmetry_equiv_pos_as_xyz
  1  'x, y, z'
loop_
 _atom_site_type_symbol
 _atom_site_label
 _atom_site_symmetry_multiplicity
 _atom_site_fract_x
 _atom_site_fract_y
 _atom_site_fract_z
 _atom_site_occupancy
 _atom_site_charge
  Cd  Cd1  1  0.094640  0.412820  0.196760  1.0  0.953
  Cd  Cd2  1  0.917290  0.344890  0.674900  1.0  0.998
  Cd  Cd3  1  0.905360  0.912820  0.303240  1.0  0.9549
  Cd  Cd4  1  0.082710  0.844890  0.825100  1.0  0.9973
  Cd  Cd5  1  0.905360  0.587180  0.803240  1.0  0.955
  Cd  Cd6  1  0.082710  0.655110  0.325100  1.0  0.9967
  Cd  Cd7  1  0.094640  0.087180  0.696760  1.0  0.9531
  Cd  Cd8  1  0.917290  0.155110  0.174900  1.0  0.9978
  H  H9  1  0.205900  0.398300  0.353600  1.0  0.3822
  H  H10  1  0.738000  0.392400  0.539400  1.0  0.3815
  H  H11  1  0.170200  0.357800  0.062800  1.0  0.3838
  H  H12  1  0.093100  0.360200  0.808800  1.0  0.3554
  H  H13  1  0.484900  0.356800  0.265500  1.0  0.097
  H  H14  1  0.713700  0.337600  0.280200  1.0  0.1026
  H  H15  1  0.906300  0.341000  0.330600  1.0  0.1122
  H  H16  1  0.900000  0.350900  0.410100  1.0  0.1028
  H  H17  1  0.717000  0.370300  0.438100  1.0  0.0937
  H  H18  1  0.388600  0.402300  0.446400  1.0  0.1108
  H  H19  1  0.535300  0.412800  0.452400  1.0  0.1158
  H  H20  1  0.563500  0.280800  0.578900  1.0  0.0881
  H  H21  1  0.367300  0.243400  0.547900  1.0  0.098
  H  H22  1  0.188100  0.236800  0.494600  1.0  0.1112
  H  H23  1  0.143900  0.283900  0.436200  1.0  0.094
  H  H24  1  0.276900  0.338100  0.428100  1.0  0.0971
  H  H25  1  0.913300  0.461800  0.046300  1.0  0.1016
  H  H26  1  0.798700  0.499300  0.978400  1.0  0.1389
  H  H27  1  0.755900  0.505600  0.895900  1.0  0.1034
  H  H28  1  0.848400  0.462500  0.847200  1.0  0.0941
  H  H29  1  0.979100  0.411600  0.875300  1.0  0.0854
  H  H30  1  0.169400  0.340800  0.955300  1.0  0.1116
  H  H31  1  0.165000  0.373500  0.915600  1.0  0.109
  H  H32  1  0.798700  0.270300  0.817500  1.0  0.0967
  H  H33  1  0.985100  0.312800  0.990900  1.0  0.0875
  H  H34  1  0.849400  0.266500  0.017100  1.0  0.0998
  H  H35  1  0.716200  0.228300  0.965000  1.0  0.1164
  H  H36  1  0.717300  0.237700  0.884300  1.0  0.096
  H  H37  1  0.006700  0.455300  0.294800  1.0  0.0917
  H  H38  1  0.825700  0.542700  0.224000  1.0  0.1206
  H  H39  1  0.919300  0.498800  0.169100  1.0  0.0949
  H  H40  1  0.890200  0.549300  0.319500  1.0  0.1042
  H  H41  1  0.918900  0.507500  0.344700  1.0  0.1073
  H  H42  1  0.729100  0.457900  0.330500  1.0  0.0734
  H  H43  1  0.512600  0.447800  0.329700  1.0  0.1021
  H  H44  1  0.469000  0.564300  0.318000  1.0  0.0809
  H  H45  1  0.679900  0.572000  0.310900  1.0  0.0982
  H  H46  1  0.294400  0.474900  0.312200  1.0  0.1129
  H  H47  1  0.310100  0.495700  0.362000  1.0  0.1239
  H  H48  1  0.228200  0.569500  0.366400  1.0  0.0946
  H  H49  1  0.118000  0.589300  0.232600  1.0  0.089
  H  H50  1  0.222000  0.524300  0.237600  1.0  0.1277
  H  H51  1  0.110700  0.269200  0.712700  1.0  0.1008
  H  H52  1  0.980400  0.285600  0.579400  1.0  0.1043
  H  H53  1  0.109300  0.223800  0.585000  1.0  0.1231
  H  H54  1  0.188700  0.176500  0.665500  1.0  0.1038
  H  H55  1  0.219700  0.202000  0.712000  1.0  0.108
  H  H56  1  0.364400  0.157900  0.628500  1.0  0.0925
  H  H57  1  0.569800  0.163800  0.613300  1.0  0.121
  H  H58  1  0.612300  0.262100  0.693100  1.0  0.1002
  H  H59  1  0.402900  0.256000  0.708300  1.0  0.1189
  H  H60  1  0.756700  0.211000  0.609000  1.0  0.0997
  H  H61  1  0.777100  0.246200  0.646100  1.0  0.107
  H  H62  1  0.866300  0.144100  0.632900  1.0  0.1048
  H  H63  1  0.011500  0.167900  0.761500  1.0  0.1009
  H  H64  1  0.874400  0.224000  0.735200  1.0  0.122
  H  H65  1  0.794100  0.898300  0.146400  1.0  0.3843
  H  H66  1  0.262000  0.892400  0.960600  1.0  0.3808
  H  H67  1  0.829800  0.857800  0.437200  1.0  0.3832
  H  H68  1  0.906900  0.860200  0.691200  1.0  0.3542
  H  H69  1  0.515100  0.856800  0.234500  1.0  0.0962
  H  H70  1  0.286300  0.837600  0.219800  1.0  0.1025
  H  H71  1  0.093700  0.841000  0.169400  1.0  0.1117
  H  H72  1  0.100000  0.850900  0.089900  1.0  0.1042
  H  H73  1  0.283000  0.870300  0.061900  1.0  0.0941
  H  H74  1  0.611400  0.902300  0.053600  1.0  0.1116
  H  H75  1  0.464700  0.912800  0.047600  1.0  0.1162
  H  H76  1  0.436500  0.780800  0.921100  1.0  0.0886
  H  H77  1  0.632700  0.743400  0.952100  1.0  0.0988
  H  H78  1  0.811900  0.736800  0.005400  1.0  0.1113
  H  H79  1  0.856100  0.783900  0.063800  1.0  0.0952
  H  H80  1  0.723100  0.838100  0.071900  1.0  0.0966
  H  H81  1  0.086700  0.961800  0.453700  1.0  0.1023
  H  H82  1  0.201300  0.999300  0.521600  1.0  0.1388
  H  H83  1  0.244100  0.005600  0.604100  1.0  0.1026
  H  H84  1  0.151600  0.962500  0.652800  1.0  0.0933
  H  H85  1  0.020900  0.911600  0.624700  1.0  0.0853
  H  H86  1  0.830600  0.840800  0.544700  1.0  0.1125
  H  H87  1  0.835000  0.873500  0.584400  1.0  0.1083
  H  H88  1  0.201300  0.770300  0.682500  1.0  0.0967
  H  H89  1  0.014900  0.812800  0.509100  1.0  0.0872
  H  H90  1  0.150600  0.766500  0.482900  1.0  0.0998
  H  H91  1  0.283800  0.728300  0.535000  1.0  0.117
  H  H92  1  0.282700  0.737700  0.615700  1.0  0.0949
  H  H93  1  0.993300  0.955300  0.205200  1.0  0.0917
  H  H94  1  0.174300  0.042700  0.276000  1.0  0.12
  H  H95  1  0.080700  0.998800  0.330900  1.0  0.0953
  H  H96  1  0.109800  0.049300  0.180500  1.0  0.1045
  H  H97  1  0.081100  0.007500  0.155300  1.0  0.1061
  H  H98  1  0.270900  0.957900  0.169500  1.0  0.0731
  H  H99  1  0.487400  0.947800  0.170300  1.0  0.1025
  H  H100  1  0.531000  0.064300  0.182000  1.0  0.0813
  H  H101  1  0.320100  0.072000  0.189100  1.0  0.0981
  H  H102  1  0.705600  0.974900  0.187800  1.0  0.1129
  H  H103  1  0.689900  0.995700  0.138000  1.0  0.122
  H  H104  1  0.771800  0.069500  0.133600  1.0  0.0949
  H  H105  1  0.882000  0.089300  0.267400  1.0  0.089
  H  H106  1  0.778000  0.024300  0.262400  1.0  0.1272
  H  H107  1  0.889300  0.769200  0.787300  1.0  0.1017
  H  H108  1  0.019600  0.785600  0.920600  1.0  0.1043
  H  H109  1  0.890700  0.723800  0.915000  1.0  0.1234
  H  H110  1  0.811300  0.676500  0.834500  1.0  0.1039
  H  H111  1  0.780300  0.702000  0.788000  1.0  0.1074
  H  H112  1  0.635600  0.657900  0.871500  1.0  0.0931
  H  H113  1  0.430200  0.663800  0.886700  1.0  0.1218
  H  H114  1  0.387700  0.762100  0.806900  1.0  0.0999
  H  H115  1  0.597100  0.756000  0.791700  1.0  0.1191
  H  H116  1  0.243300  0.711000  0.891000  1.0  0.0997
  H  H117  1  0.222900  0.746200  0.853900  1.0  0.1064
  H  H118  1  0.133700  0.644100  0.867100  1.0  0.1039
  H  H119  1  0.988500  0.667900  0.738500  1.0  0.1014
  H  H120  1  0.125600  0.724000  0.764800  1.0  0.1228
  H  H121  1  0.794100  0.601700  0.646400  1.0  0.3842
  H  H122  1  0.262000  0.607600  0.460600  1.0  0.3793
  H  H123  1  0.829800  0.642200  0.937200  1.0  0.383
  H  H124  1  0.906900  0.639800  0.191200  1.0  0.3541
  H  H125  1  0.515100  0.643200  0.734500  1.0  0.096
  H  H126  1  0.286300  0.662400  0.719800  1.0  0.1024
  H  H127  1  0.093700  0.659000  0.669400  1.0  0.112
  H  H128  1  0.100000  0.649100  0.589900  1.0  0.1039
  H  H129  1  0.283000  0.629700  0.561900  1.0  0.0943
  H  H130  1  0.611400  0.597700  0.553600  1.0  0.1113
  H  H131  1  0.464700  0.587200  0.547600  1.0  0.1162
  H  H132  1  0.436500  0.719200  0.421100  1.0  0.0883
  H  H133  1  0.632700  0.756600  0.452100  1.0  0.0987
  H  H134  1  0.811900  0.763200  0.505400  1.0  0.1111
  H  H135  1  0.856100  0.716100  0.563800  1.0  0.0951
  H  H136  1  0.723100  0.661900  0.571900  1.0  0.0971
  H  H137  1  0.086700  0.538200  0.953700  1.0  0.1016
  H  H138  1  0.201300  0.500700  0.021600  1.0  0.1388
  H  H139  1  0.244100  0.494400  0.104100  1.0  0.1025
  H  H140  1  0.151600  0.537500  0.152800  1.0  0.0938
  H  H141  1  0.020900  0.588400  0.124700  1.0  0.0853
  H  H142  1  0.830600  0.659200  0.044700  1.0  0.1125
  H  H143  1  0.835000  0.626500  0.084400  1.0  0.1087
  H  H144  1  0.201300  0.729700  0.182500  1.0  0.0968
  H  H145  1  0.014900  0.687200  0.009100  1.0  0.0871
  H  H146  1  0.150600  0.733500  0.982900  1.0  0.0998
  H  H147  1  0.283800  0.771700  0.035000  1.0  0.1165
  H  H148  1  0.282700  0.762300  0.115700  1.0  0.0949
  H  H149  1  0.993300  0.544700  0.705200  1.0  0.0921
  H  H150  1  0.174300  0.457300  0.776000  1.0  0.1199
  H  H151  1  0.080700  0.501200  0.830900  1.0  0.0956
  H  H152  1  0.109800  0.450700  0.680500  1.0  0.1029
  H  H153  1  0.081100  0.492500  0.655300  1.0  0.1064
  H  H154  1  0.270900  0.542100  0.669500  1.0  0.0734
  H  H155  1  0.487400  0.552200  0.670300  1.0  0.1025
  H  H156  1  0.531000  0.435700  0.682000  1.0  0.0805
  H  H157  1  0.320100  0.428000  0.689100  1.0  0.098
  H  H158  1  0.705600  0.525100  0.687800  1.0  0.1127
  H  H159  1  0.689900  0.504300  0.638000  1.0  0.1222
  H  H160  1  0.771800  0.430500  0.633600  1.0  0.0949
  H  H161  1  0.882000  0.410700  0.767400  1.0  0.0897
  H  H162  1  0.778000  0.475700  0.762400  1.0  0.1275
  H  H163  1  0.889300  0.730800  0.287300  1.0  0.102
  H  H164  1  0.019600  0.714400  0.420600  1.0  0.1043
  H  H165  1  0.890700  0.776200  0.415000  1.0  0.1229
  H  H166  1  0.811300  0.823500  0.334500  1.0  0.1032
  H  H167  1  0.780300  0.798000  0.288000  1.0  0.107
  H  H168  1  0.635600  0.842100  0.371500  1.0  0.0934
  H  H169  1  0.430200  0.836200  0.386700  1.0  0.121
  H  H170  1  0.387700  0.737900  0.306900  1.0  0.0998
  H  H171  1  0.597100  0.744000  0.291700  1.0  0.1188
  H  H172  1  0.243300  0.789000  0.391000  1.0  0.0994
  H  H173  1  0.222900  0.753800  0.353900  1.0  0.1055
  H  H174  1  0.133700  0.855900  0.367100  1.0  0.1038
  H  H175  1  0.988500  0.832100  0.238500  1.0  0.1009
  H  H176  1  0.125600  0.776000  0.264800  1.0  0.1217
  H  H177  1  0.205900  0.101700  0.853600  1.0  0.3821
  H  H178  1  0.738000  0.107600  0.039400  1.0  0.3803
  H  H179  1  0.170200  0.142200  0.562800  1.0  0.3837
  H  H180  1  0.093100  0.139800  0.308800  1.0  0.3555
  H  H181  1  0.484900  0.143200  0.765500  1.0  0.0969
  H  H182  1  0.713700  0.162400  0.780200  1.0  0.1024
  H  H183  1  0.906300  0.159000  0.830600  1.0  0.1123
  H  H184  1  0.900000  0.149100  0.910100  1.0  0.1028
  H  H185  1  0.717000  0.129700  0.938100  1.0  0.0937
  H  H186  1  0.388600  0.097700  0.946400  1.0  0.1118
  H  H187  1  0.535300  0.087200  0.952400  1.0  0.1167
  H  H188  1  0.563500  0.219200  0.078900  1.0  0.0876
  H  H189  1  0.367300  0.256600  0.047900  1.0  0.0975
  H  H190  1  0.188100  0.263200  0.994600  1.0  0.1109
  H  H191  1  0.143900  0.216100  0.936200  1.0  0.0939
  H  H192  1  0.276900  0.161900  0.928100  1.0  0.0974
  H  H193  1  0.913300  0.038200  0.546300  1.0  0.1012
  H  H194  1  0.798700  0.000700  0.478400  1.0  0.1387
  H  H195  1  0.755900  0.994400  0.395900  1.0  0.1032
  H  H196  1  0.848400  0.037500  0.347200  1.0  0.0947
  H  H197  1  0.979100  0.088400  0.375300  1.0  0.0855
  H  H198  1  0.169400  0.159200  0.455300  1.0  0.1114
  H  H199  1  0.165000  0.126500  0.415600  1.0  0.1091
  H  H200  1  0.798700  0.229700  0.317500  1.0  0.097
  H  H201  1  0.985100  0.187200  0.490900  1.0  0.0879
  H  H202  1  0.849400  0.233500  0.517100  1.0  0.0998
  H  H203  1  0.716200  0.271700  0.465000  1.0  0.1167
  H  H204  1  0.717300  0.262300  0.384300  1.0  0.0958
  H  H205  1  0.006700  0.044700  0.794800  1.0  0.0913
  H  H206  1  0.825700  0.957300  0.724000  1.0  0.1203
  H  H207  1  0.919300  0.001200  0.669100  1.0  0.0952
  H  H208  1  0.890200  0.950700  0.819500  1.0  0.1037
  H  H209  1  0.918900  0.992500  0.844700  1.0  0.1072
  H  H210  1  0.729100  0.042100  0.830500  1.0  0.0729
  H  H211  1  0.512600  0.052200  0.829700  1.0  0.1022
  H  H212  1  0.469000  0.935700  0.818000  1.0  0.0804
  H  H213  1  0.679900  0.928000  0.810900  1.0  0.0981
  H  H214  1  0.294400  0.025100  0.812200  1.0  0.1133
  H  H215  1  0.310100  0.004300  0.862000  1.0  0.1238
  H  H216  1  0.228200  0.930500  0.866400  1.0  0.0944
  H  H217  1  0.118000  0.910700  0.732600  1.0  0.0892
  H  H218  1  0.222000  0.975700  0.737600  1.0  0.128
  H  H219  1  0.110700  0.230800  0.212700  1.0  0.1009
  H  H220  1  0.980400  0.214400  0.079400  1.0  0.104
  H  H221  1  0.109300  0.276200  0.085000  1.0  0.1222
  H  H222  1  0.188700  0.323500  0.165500  1.0  0.1035
  H  H223  1  0.219700  0.298000  0.212000  1.0  0.1081
  H  H224  1  0.364400  0.342100  0.128500  1.0  0.0931
  H  H225  1  0.569800  0.336200  0.113300  1.0  0.1211
  H  H226  1  0.612300  0.237900  0.193100  1.0  0.1002
  H  H227  1  0.402900  0.244000  0.208300  1.0  0.1193
  H  H228  1  0.756700  0.289000  0.109000  1.0  0.1002
  H  H229  1  0.777100  0.253800  0.146100  1.0  0.1063
  H  H230  1  0.866300  0.355900  0.132900  1.0  0.1042
  H  H231  1  0.011500  0.332100  0.261500  1.0  0.1005
  H  H232  1  0.874400  0.276000  0.235200  1.0  0.1219
  C  C233  1  0.929600  0.319000  0.769200  1.0  0.7091
  C  C234  1  0.933600  0.312500  0.821100  1.0  -0.1293
  C  C235  1  0.020300  0.335600  0.854300  1.0  0.1922
  C  C236  1  0.018200  0.332100  0.903000  1.0  0.0087
  C  C237  1  0.257800  0.384000  0.276300  1.0  0.692
  C  C238  1  0.730700  0.338980  0.594400  1.0  0.684
  C  C239  1  0.484100  0.362470  0.297300  1.0  -0.0837
  C  C240  1  0.373600  0.375070  0.312300  1.0  -0.122
  C  C241  1  0.370800  0.382890  0.361100  1.0  0.2382
  C  C242  1  0.480300  0.378940  0.393700  1.0  0.0225
  C  C243  1  0.594700  0.365900  0.377100  1.0  0.0246
  C  C244  1  0.595600  0.357800  0.328000  1.0  0.0255
  C  C245  1  0.713800  0.345600  0.311500  1.0  -0.1025
  C  C246  1  0.828300  0.345800  0.342000  1.0  -0.1081
  C  C247  1  0.824700  0.353300  0.389300  1.0  -0.1328
  C  C248  1  0.714100  0.364000  0.406200  1.0  -0.1282
  C  C249  1  0.473500  0.391180  0.444400  1.0  -0.2423
  C  C250  1  0.545300  0.300000  0.555100  1.0  -0.0593
  C  C251  1  0.624300  0.333333  0.554700  1.0  -0.2293
  C  C252  1  0.602100  0.361360  0.517020  1.0  0.2569
  C  C253  1  0.499400  0.357390  0.482300  1.0  0.0287
  C  C254  1  0.414300  0.325200  0.484100  1.0  -0.0427
  C  C255  1  0.440100  0.294200  0.521500  1.0  -0.0253
  C  C256  1  0.351400  0.262400  0.523900  1.0  -0.1126
  C  C257  1  0.243900  0.258500  0.492500  1.0  -0.1142
  C  C258  1  0.218300  0.286800  0.457500  1.0  -0.1079
  C  C259  1  0.298600  0.319600  0.452300  1.0  -0.2255
  C  C260  1  0.062700  0.411600  0.098000  1.0  0.705
  C  C261  1  0.948300  0.443860  0.026400  1.0  -0.0733
  C  C262  1  0.028200  0.413920  0.045800  1.0  -0.2032
  C  C263  1  0.082400  0.385000  0.014700  1.0  0.1226
  C  C264  1  0.054800  0.387600  0.965500  1.0  0.0236
  C  C265  1  0.972300  0.420100  0.946200  1.0  0.0072
  C  C266  1  0.917100  0.448540  0.977300  1.0  0.0155
  C  C267  1  0.834400  0.481300  0.958500  1.0  -0.1324
  C  C268  1  0.810000  0.485100  0.909100  1.0  -0.0878
  C  C269  1  0.865300  0.458900  0.879700  1.0  -0.0903
  C  C270  1  0.943200  0.428100  0.896600  1.0  -0.1433
  C  C271  1  0.112500  0.358500  0.935200  1.0  -0.2053
  C  C272  1  0.854300  0.285700  0.838400  1.0  -0.0936
  C  C273  1  0.853700  0.280500  0.888300  1.0  -0.0062
  C  C274  1  0.935400  0.304300  0.919300  1.0  0.0772
  C  C275  1  0.931300  0.297700  0.969100  1.0  -0.1315
  C  C276  1  0.850200  0.269900  0.984800  1.0  -0.1035
  C  C277  1  0.770900  0.247300  0.954100  1.0  -0.1403
  C  C278  1  0.772500  0.252900  0.905500  1.0  -0.0844
  C  C279  1  0.972800  0.471700  0.269800  1.0  0.1602
  C  C280  1  0.874100  0.519500  0.231800  1.0  -0.1548
  C  C281  1  0.925800  0.495060  0.201600  1.0  -0.0098
  C  C282  1  0.869000  0.520700  0.318000  1.0  -0.0169
  C  C283  1  0.730100  0.515800  0.322200  1.0  0.217
  C  C284  1  0.675600  0.480500  0.327200  1.0  -0.0909
  C  C285  1  0.544200  0.474000  0.328000  1.0  -0.2006
  C  C286  1  0.465000  0.505260  0.326500  1.0  0.1461
  C  C287  1  0.520900  0.541400  0.320300  1.0  -0.1554
  C  C288  1  0.649300  0.546300  0.317000  1.0  -0.1545
  C  C289  1  0.323300  0.499320  0.329200  1.0  -0.0898
  C  C290  1  0.212400  0.566830  0.333800  1.0  0.1205
  C  C291  1  0.154000  0.576910  0.260500  1.0  0.0398
  C  C292  1  0.209700  0.541170  0.262700  1.0  -0.1631
  C  C293  1  0.095200  0.265880  0.680100  1.0  0.1347
  C  C294  1  0.023500  0.274780  0.607100  1.0  0.0389
  C  C295  1  0.094500  0.240560  0.609900  1.0  -0.1328
  C  C296  1  0.222500  0.202210  0.678100  1.0  -0.0565
  C  C297  1  0.359400  0.206480  0.668800  1.0  0.0476
  C  C298  1  0.413600  0.179500  0.641500  1.0  -0.1325
  C  C299  1  0.537100  0.182900  0.632500  1.0  -0.148
  C  C300  1  0.615300  0.213940  0.651000  1.0  0.089
  C  C301  1  0.562200  0.240900  0.679500  1.0  -0.1334
  C  C302  1  0.436100  0.237400  0.688600  1.0  -0.1006
  C  C303  1  0.751000  0.218100  0.641700  1.0  -0.0854
  C  C304  1  0.885200  0.156930  0.661900  1.0  0.1337
  C  C305  1  0.963700  0.170040  0.731900  1.0  0.0491
  C  C306  1  0.889500  0.201130  0.717800  1.0  -0.1357
  C  C307  1  0.070400  0.819000  0.730800  1.0  0.7082
  C  C308  1  0.066400  0.812500  0.678900  1.0  -0.1296
  C  C309  1  0.979700  0.835600  0.645700  1.0  0.19
  C  C310  1  0.981800  0.832100  0.597000  1.0  0.0075
  C  C311  1  0.742200  0.884000  0.223700  1.0  0.6936
  C  C312  1  0.269300  0.838980  0.905600  1.0  0.6839
  C  C313  1  0.515900  0.862470  0.202700  1.0  -0.0867
  C  C314  1  0.626400  0.875070  0.187700  1.0  -0.1213
  C  C315  1  0.629200  0.882890  0.138900  1.0  0.2386
  C  C316  1  0.519700  0.878940  0.106300  1.0  0.0224
  C  C317  1  0.405300  0.865900  0.122900  1.0  0.0249
  C  C318  1  0.404400  0.857800  0.172000  1.0  0.0265
  C  C319  1  0.286200  0.845600  0.188500  1.0  -0.1028
  C  C320  1  0.171700  0.845800  0.158000  1.0  -0.1075
  C  C321  1  0.175300  0.853300  0.110700  1.0  -0.137
  C  C322  1  0.285900  0.864000  0.093800  1.0  -0.1277
  C  C323  1  0.526500  0.891180  0.055600  1.0  -0.2407
  C  C324  1  0.454700  0.800000  0.944900  1.0  -0.0577
  C  C325  1  0.375700  0.833300  0.945300  1.0  -0.2288
  C  C326  1  0.397900  0.861360  0.982980  1.0  0.2545
  C  C327  1  0.500600  0.857390  0.017700  1.0  0.0288
  C  C328  1  0.585700  0.825200  0.015900  1.0  -0.0412
  C  C329  1  0.559900  0.794200  0.978500  1.0  -0.0245
  C  C330  1  0.648600  0.762400  0.976100  1.0  -0.1132
  C  C331  1  0.756100  0.758500  0.007500  1.0  -0.1145
  C  C332  1  0.781700  0.786800  0.042500  1.0  -0.106
  C  C333  1  0.701400  0.819600  0.047700  1.0  -0.2263
  C  C334  1  0.937300  0.911600  0.402000  1.0  0.7051
  C  C335  1  0.051700  0.943860  0.473600  1.0  -0.0727
  C  C336  1  0.971800  0.913920  0.454200  1.0  -0.2042
  C  C337  1  0.917600  0.885000  0.485300  1.0  0.1214
  C  C338  1  0.945200  0.887600  0.534500  1.0  0.0239
  C  C339  1  0.027700  0.920100  0.553800  1.0  0.0066
  C  C340  1  0.082900  0.948540  0.522700  1.0  0.0164
  C  C341  1  0.165600  0.981300  0.541500  1.0  -0.1312
  C  C342  1  0.190000  0.985100  0.590900  1.0  -0.0876
  C  C343  1  0.134700  0.958900  0.620300  1.0  -0.088
  C  C344  1  0.056800  0.928100  0.603400  1.0  -0.143
  C  C345  1  0.887500  0.858500  0.564800  1.0  -0.2075
  C  C346  1  0.145700  0.785700  0.661600  1.0  -0.0942
  C  C347  1  0.146300  0.780500  0.611700  1.0  -0.0072
  C  C348  1  0.064600  0.804300  0.580700  1.0  0.0772
  C  C349  1  0.068700  0.797700  0.530900  1.0  -0.132
  C  C350  1  0.149800  0.769900  0.515200  1.0  -0.1013
  C  C351  1  0.229100  0.747300  0.545900  1.0  -0.1401
  C  C352  1  0.227500  0.752900  0.594500  1.0  -0.0832
  C  C353  1  0.027200  0.971700  0.230200  1.0  0.1605
  C  C354  1  0.125900  0.019500  0.268200  1.0  -0.1529
  C  C355  1  0.074200  0.995060  0.298400  1.0  -0.0102
  C  C356  1  0.131000  0.020700  0.182000  1.0  -0.0179
  C  C357  1  0.269900  0.015800  0.177800  1.0  0.2155
  C  C358  1  0.324400  0.980500  0.172800  1.0  -0.0914
  C  C359  1  0.455800  0.974000  0.172000  1.0  -0.2008
  C  C360  1  0.535000  0.005260  0.173500  1.0  0.1456
  C  C361  1  0.479100  0.041400  0.179700  1.0  -0.1556
  C  C362  1  0.350700  0.046300  0.183000  1.0  -0.1558
  C  C363  1  0.676700  0.999320  0.170800  1.0  -0.0903
  C  C364  1  0.787600  0.066830  0.166200  1.0  0.121
  C  C365  1  0.846000  0.076910  0.239500  1.0  0.0404
  C  C366  1  0.790300  0.041170  0.237300  1.0  -0.1621
  C  C367  1  0.904800  0.765880  0.819900  1.0  0.1348
  C  C368  1  0.976500  0.774780  0.892900  1.0  0.0392
  C  C369  1  0.905500  0.740560  0.890100  1.0  -0.1326
  C  C370  1  0.777500  0.702210  0.821900  1.0  -0.0569
  C  C371  1  0.640600  0.706480  0.831200  1.0  0.0476
  C  C372  1  0.586400  0.679500  0.858500  1.0  -0.1328
  C  C373  1  0.462900  0.682900  0.867500  1.0  -0.1445
  C  C374  1  0.384700  0.713940  0.849000  1.0  0.0899
  C  C375  1  0.437800  0.740900  0.820500  1.0  -0.1352
  C  C376  1  0.563900  0.737400  0.811400  1.0  -0.1021
  C  C377  1  0.249000  0.718100  0.858300  1.0  -0.0855
  C  C378  1  0.114800  0.656930  0.838100  1.0  0.1341
  C  C379  1  0.036300  0.670040  0.768100  1.0  0.0477
  C  C380  1  0.110500  0.701130  0.782200  1.0  -0.1372
  C  C381  1  0.070400  0.681000  0.230800  1.0  0.7083
  C  C382  1  0.066400  0.687500  0.178900  1.0  -0.1295
  C  C383  1  0.979700  0.664400  0.145700  1.0  0.1905
  C  C384  1  0.981800  0.667900  0.097000  1.0  0.0085
  C  C385  1  0.742200  0.616000  0.723700  1.0  0.6937
  C  C386  1  0.269300  0.661020  0.405600  1.0  0.6842
  C  C387  1  0.515900  0.637530  0.702700  1.0  -0.0852
  C  C388  1  0.626400  0.624930  0.687700  1.0  -0.1206
  C  C389  1  0.629200  0.617110  0.638900  1.0  0.2385
  C  C390  1  0.519700  0.621060  0.606300  1.0  0.0227
  C  C391  1  0.405300  0.634100  0.622900  1.0  0.0252
  C  C392  1  0.404400  0.642200  0.672000  1.0  0.0266
  C  C393  1  0.286200  0.654400  0.688500  1.0  -0.1028
  C  C394  1  0.171700  0.654200  0.658000  1.0  -0.1076
  C  C395  1  0.175300  0.646700  0.610700  1.0  -0.1362
  C  C396  1  0.285900  0.636000  0.593800  1.0  -0.1273
  C  C397  1  0.526500  0.608820  0.555600  1.0  -0.241
  C  C398  1  0.454700  0.700000  0.444900  1.0  -0.0588
  C  C399  1  0.375700  0.666667  0.445300  1.0  -0.2287
  C  C400  1  0.397900  0.638640  0.482980  1.0  0.254
  C  C401  1  0.500600  0.642610  0.517700  1.0  0.0293
  C  C402  1  0.585700  0.674800  0.515900  1.0  -0.0417
  C  C403  1  0.559900  0.705800  0.478500  1.0  -0.0243
  C  C404  1  0.648600  0.737600  0.476100  1.0  -0.1127
  C  C405  1  0.756100  0.741500  0.507500  1.0  -0.1149
  C  C406  1  0.781700  0.713200  0.542500  1.0  -0.106
  C  C407  1  0.701400  0.680400  0.547700  1.0  -0.2264
  C  C408  1  0.937300  0.588400  0.902000  1.0  0.7053
  C  C409  1  0.051700  0.556140  0.973600  1.0  -0.0719
  C  C410  1  0.971800  0.586080  0.954200  1.0  -0.204
  C  C411  1  0.917600  0.615000  0.985300  1.0  0.1208
  C  C412  1  0.945200  0.612400  0.034500  1.0  0.0243
  C  C413  1  0.027700  0.579900  0.053800  1.0  0.0068
  C  C414  1  0.082900  0.551460  0.022700  1.0  0.0167
  C  C415  1  0.165600  0.518700  0.041500  1.0  -0.1293
  C  C416  1  0.190000  0.514900  0.090900  1.0  -0.0877
  C  C417  1  0.134700  0.541100  0.120300  1.0  -0.0878
  C  C418  1  0.056800  0.571900  0.103400  1.0  -0.1427
  C  C419  1  0.887500  0.641500  0.064800  1.0  -0.2069
  C  C420  1  0.145700  0.714300  0.161600  1.0  -0.094
  C  C421  1  0.146300  0.719500  0.111700  1.0  -0.007
  C  C422  1  0.064600  0.695700  0.080700  1.0  0.0773
  C  C423  1  0.068700  0.702300  0.030900  1.0  -0.1318
  C  C424  1  0.149800  0.730100  0.015200  1.0  -0.1009
  C  C425  1  0.229100  0.752700  0.045900  1.0  -0.14
  C  C426  1  0.227500  0.747100  0.094500  1.0  -0.0821
  C  C427  1  0.027200  0.528300  0.730200  1.0  0.1607
  C  C428  1  0.125900  0.480500  0.768200  1.0  -0.152
  C  C429  1  0.074200  0.504940  0.798400  1.0  -0.0108
  C  C430  1  0.131000  0.479300  0.682000  1.0  -0.0181
  C  C431  1  0.269900  0.484200  0.677800  1.0  0.2156
  C  C432  1  0.324400  0.519500  0.672800  1.0  -0.0909
  C  C433  1  0.455800  0.526000  0.672000  1.0  -0.2017
  C  C434  1  0.535000  0.494740  0.673500  1.0  0.1457
  C  C435  1  0.479100  0.458600  0.679700  1.0  -0.1565
  C  C436  1  0.350700  0.453700  0.683000  1.0  -0.16
  C  C437  1  0.676700  0.500680  0.670800  1.0  -0.0894
  C  C438  1  0.787600  0.433170  0.666200  1.0  0.1214
  C  C439  1  0.846000  0.423090  0.739500  1.0  0.0391
  C  C440  1  0.790300  0.458830  0.737300  1.0  -0.162
  C  C441  1  0.904800  0.734120  0.319900  1.0  0.1336
  C  C442  1  0.976500  0.725220  0.392900  1.0  0.0384
  C  C443  1  0.905500  0.759440  0.390100  1.0  -0.1324
  C  C444  1  0.777500  0.797790  0.321900  1.0  -0.0563
  C  C445  1  0.640600  0.793520  0.331200  1.0  0.0474
  C  C446  1  0.586400  0.820500  0.358500  1.0  -0.1314
  C  C447  1  0.462900  0.817100  0.367500  1.0  -0.1448
  C  C448  1  0.384700  0.786060  0.349000  1.0  0.0897
  C  C449  1  0.437800  0.759100  0.320500  1.0  -0.1359
  C  C450  1  0.563900  0.762600  0.311400  1.0  -0.1022
  C  C451  1  0.249000  0.781900  0.358300  1.0  -0.0866
  C  C452  1  0.114800  0.843070  0.338100  1.0  0.1344
  C  C453  1  0.036300  0.829960  0.268100  1.0  0.048
  C  C454  1  0.110500  0.798870  0.282200  1.0  -0.1368
  C  C455  1  0.929600  0.181000  0.269200  1.0  0.7093
  C  C456  1  0.933600  0.187500  0.321100  1.0  -0.1295
  C  C457  1  0.020300  0.164400  0.354300  1.0  0.1932
  C  C458  1  0.018200  0.167900  0.403000  1.0  0.0098
  C  C459  1  0.257800  0.116000  0.776300  1.0  0.6915
  C  C460  1  0.730700  0.161020  0.094400  1.0  0.6843
  C  C461  1  0.484100  0.137530  0.797300  1.0  -0.0849
  C  C462  1  0.373600  0.124930  0.812300  1.0  -0.1209
  C  C463  1  0.370800  0.117110  0.861100  1.0  0.238
  C  C464  1  0.480300  0.121060  0.893700  1.0  0.023
  C  C465  1  0.594700  0.134100  0.877100  1.0  0.025
  C  C466  1  0.595600  0.142200  0.828000  1.0  0.0264
  C  C467  1  0.713800  0.154400  0.811500  1.0  -0.1032
  C  C468  1  0.828300  0.154200  0.842000  1.0  -0.1081
  C  C469  1  0.824700  0.146700  0.889300  1.0  -0.1322
  C  C470  1  0.714100  0.136000  0.906200  1.0  -0.1288
  C  C471  1  0.473500  0.108820  0.944400  1.0  -0.2397
  C  C472  1  0.545300  0.200000  0.055100  1.0  -0.0585
  C  C473  1  0.624300  0.166700  0.054700  1.0  -0.2283
  C  C474  1  0.602100  0.138640  0.017020  1.0  0.2556
  C  C475  1  0.499400  0.142610  0.982300  1.0  0.0284
  C  C476  1  0.414300  0.174800  0.984100  1.0  -0.0432
  C  C477  1  0.440100  0.205800  0.021500  1.0  -0.0251
  C  C478  1  0.351400  0.237600  0.023900  1.0  -0.1127
  C  C479  1  0.243900  0.241500  0.992500  1.0  -0.114
  C  C480  1  0.218300  0.213200  0.957500  1.0  -0.1079
  C  C481  1  0.298600  0.180400  0.952300  1.0  -0.2256
  C  C482  1  0.062700  0.088400  0.598000  1.0  0.7054
  C  C483  1  0.948300  0.056140  0.526400  1.0  -0.0729
  C  C484  1  0.028200  0.086080  0.545800  1.0  -0.203
  C  C485  1  0.082400  0.115000  0.514700  1.0  0.122
  C  C486  1  0.054800  0.112400  0.465500  1.0  0.024
  C  C487  1  0.972300  0.079900  0.446200  1.0  0.0074
  C  C488  1  0.917100  0.051460  0.477300  1.0  0.016
  C  C489  1  0.834400  0.018700  0.458500  1.0  -0.1307
  C  C490  1  0.810000  0.014900  0.409100  1.0  -0.0881
  C  C491  1  0.865300  0.041100  0.379700  1.0  -0.0904
  C  C492  1  0.943200  0.071900  0.396600  1.0  -0.1427
  C  C493  1  0.112500  0.141500  0.435200  1.0  -0.2052
  C  C494  1  0.854300  0.214300  0.338400  1.0  -0.0939
  C  C495  1  0.853700  0.219500  0.388300  1.0  -0.006
  C  C496  1  0.935400  0.195700  0.419300  1.0  0.0774
  C  C497  1  0.931300  0.202300  0.469100  1.0  -0.132
  C  C498  1  0.850200  0.230100  0.484800  1.0  -0.1032
  C  C499  1  0.770900  0.252700  0.454100  1.0  -0.1398
  C  C500  1  0.772500  0.247100  0.405500  1.0  -0.0834
  C  C501  1  0.972800  0.028300  0.769800  1.0  0.161
  C  C502  1  0.874100  0.980500  0.731800  1.0  -0.1543
  C  C503  1  0.925800  0.004940  0.701600  1.0  -0.0104
  C  C504  1  0.869000  0.979300  0.818000  1.0  -0.0175
  C  C505  1  0.730100  0.984200  0.822200  1.0  0.2174
  C  C506  1  0.675600  0.019500  0.827200  1.0  -0.0904
  C  C507  1  0.544200  0.026000  0.828000  1.0  -0.2015
  C  C508  1  0.465000  0.994740  0.826500  1.0  0.1463
  C  C509  1  0.520900  0.958600  0.820300  1.0  -0.1563
  C  C510  1  0.649300  0.953700  0.817000  1.0  -0.1587
  C  C511  1  0.323300  0.000680  0.829200  1.0  -0.0885
  C  C512  1  0.212400  0.933170  0.833800  1.0  0.1203
  C  C513  1  0.154000  0.923090  0.760500  1.0  0.0377
  C  C514  1  0.209700  0.958830  0.762700  1.0  -0.1629
  C  C515  1  0.095200  0.234120  0.180100  1.0  0.1343
  C  C516  1  0.023500  0.225220  0.107100  1.0  0.0381
  C  C517  1  0.094500  0.259440  0.109900  1.0  -0.1331
  C  C518  1  0.222500  0.297790  0.178100  1.0  -0.0561
  C  C519  1  0.359400  0.293520  0.168800  1.0  0.0475
  C  C520  1  0.413600  0.320500  0.141500  1.0  -0.1328
  C  C521  1  0.537100  0.317100  0.132500  1.0  -0.1468
  C  C522  1  0.615300  0.286060  0.151000  1.0  0.0886
  C  C523  1  0.562200  0.259100  0.179500  1.0  -0.1347
  C  C524  1  0.436100  0.262600  0.188600  1.0  -0.1012
  C  C525  1  0.751000  0.281900  0.141700  1.0  -0.0847
  C  C526  1  0.885200  0.343070  0.161900  1.0  0.1347
  C  C527  1  0.963700  0.329960  0.231900  1.0  0.0493
  C  C528  1  0.889500  0.298870  0.217800  1.0  -0.1361
  N  N529  1  0.988300  0.464390  0.225490  1.0  -0.4076
  N  N530  1  0.905100  0.504220  0.275200  1.0  0.0753
  N  N531  1  0.245400  0.533960  0.309350  1.0  0.0777
  N  N532  1  0.155900  0.593890  0.305660  1.0  -0.3754
  N  N533  1  0.024800  0.291040  0.651160  1.0  -0.3984
  N  N534  1  0.140800  0.235310  0.656740  1.0  0.0477
  N  N535  1  0.839200  0.192780  0.672210  1.0  0.0518
  N  N536  1  0.961400  0.141870  0.698010  1.0  -0.4019
  N  N537  1  0.011700  0.964390  0.274510  1.0  -0.4093
  N  N538  1  0.094900  0.004220  0.224800  1.0  0.075
  N  N539  1  0.754600  0.033960  0.190650  1.0  0.0773
  N  N540  1  0.844100  0.093890  0.194340  1.0  -0.3746
  N  N541  1  0.975200  0.791040  0.848840  1.0  -0.4007
  N  N542  1  0.859200  0.735310  0.843260  1.0  0.0472
  N  N543  1  0.160800  0.692780  0.827790  1.0  0.0521
  N  N544  1  0.038600  0.641870  0.801990  1.0  -0.4016
  N  N545  1  0.011700  0.535610  0.774510  1.0  -0.4081
  N  N546  1  0.094900  0.495780  0.724800  1.0  0.0752
  N  N547  1  0.754600  0.466040  0.690650  1.0  0.0774
  N  N548  1  0.844100  0.406110  0.694340  1.0  -0.3733
  N  N549  1  0.975200  0.708960  0.348840  1.0  -0.3986
  N  N550  1  0.859200  0.764690  0.343260  1.0  0.0463
  N  N551  1  0.160800  0.807220  0.327790  1.0  0.0514
  N  N552  1  0.038600  0.858130  0.301990  1.0  -0.4024
  N  N553  1  0.988300  0.035610  0.725490  1.0  -0.4075
  N  N554  1  0.905100  0.995780  0.775200  1.0  0.0754
  N  N555  1  0.245400  0.966040  0.809350  1.0  0.0774
  N  N556  1  0.155900  0.906110  0.805660  1.0  -0.3745
  N  N557  1  0.024800  0.208960  0.151160  1.0  -0.3988
  N  N558  1  0.140800  0.264690  0.156740  1.0  0.0474
  N  N559  1  0.839200  0.307220  0.172210  1.0  0.0514
  N  N560  1  0.961400  0.358130  0.198010  1.0  -0.4034
  O  O561  1  0.842000  0.303470  0.741690  1.0  -0.6176
  O  O562  1  0.015700  0.340830  0.755120  1.0  -0.6458
  O  O563  1  0.262300  0.376080  0.234370  1.0  -0.6019
  O  O564  1  0.161400  0.400080  0.291590  1.0  -0.6484
  O  O565  1  0.816500  0.365540  0.590370  1.0  -0.6416
  O  O566  1  0.733300  0.318880  0.631030  1.0  -0.6052
  O  O567  1  0.263200  0.397130  0.375970  1.0  -0.5321
  O  O568  1  0.682300  0.393540  0.516480  1.0  -0.5198
  O  O569  1  0.005000  0.433790  0.122490  1.0  -0.5875
  O  O570  1  0.146200  0.386300  0.114750  1.0  -0.6479
  O  O571  1  0.161800  0.355730  0.034000  1.0  -0.5242
  O  O572  1  0.102800  0.361050  0.837720  1.0  -0.5273
  O  O573  1  0.158000  0.803470  0.758310  1.0  -0.617
  O  O574  1  0.984300  0.840830  0.744880  1.0  -0.6467
  O  O575  1  0.737700  0.876080  0.265630  1.0  -0.6035
  O  O576  1  0.838600  0.900080  0.208410  1.0  -0.6487
  O  O577  1  0.183500  0.865540  0.909630  1.0  -0.6424
  O  O578  1  0.266700  0.818880  0.868970  1.0  -0.6033
  O  O579  1  0.736800  0.897130  0.124030  1.0  -0.5318
  O  O580  1  0.317700  0.893540  0.983520  1.0  -0.5186
  O  O581  1  0.995000  0.933790  0.377510  1.0  -0.5877
  O  O582  1  0.853800  0.886300  0.385250  1.0  -0.6476
  O  O583  1  0.838200  0.855730  0.466000  1.0  -0.5249
  O  O584  1  0.897200  0.861050  0.662280  1.0  -0.5261
  O  O585  1  0.158000  0.696530  0.258310  1.0  -0.6174
  O  O586  1  0.984300  0.659170  0.244880  1.0  -0.6469
  O  O587  1  0.737700  0.623920  0.765630  1.0  -0.6035
  O  O588  1  0.838600  0.599920  0.708410  1.0  -0.648
  O  O589  1  0.183500  0.634460  0.409630  1.0  -0.6411
  O  O590  1  0.266700  0.681120  0.368970  1.0  -0.6033
  O  O591  1  0.736800  0.602870  0.624030  1.0  -0.5318
  O  O592  1  0.317700  0.606460  0.483520  1.0  -0.5197
  O  O593  1  0.995000  0.566210  0.877510  1.0  -0.589
  O  O594  1  0.853800  0.613700  0.885250  1.0  -0.6484
  O  O595  1  0.838200  0.644270  0.966000  1.0  -0.5249
  O  O596  1  0.897200  0.638950  0.162280  1.0  -0.5262
  O  O597  1  0.842000  0.196530  0.241690  1.0  -0.6173
  O  O598  1  0.015700  0.159170  0.255120  1.0  -0.6461
  O  O599  1  0.262300  0.123920  0.734370  1.0  -0.6028
  O  O600  1  0.161400  0.099920  0.791590  1.0  -0.6476
  O  O601  1  0.816500  0.134460  0.090370  1.0  -0.6412
  O  O602  1  0.733300  0.181120  0.131030  1.0  -0.6041
  O  O603  1  0.263200  0.102870  0.875970  1.0  -0.5325
  O  O604  1  0.682300  0.106460  0.016480  1.0  -0.521
  O  O605  1  0.005000  0.066210  0.622490  1.0  -0.5883
  O  O606  1  0.146200  0.113700  0.614750  1.0  -0.6489
  O  O607  1  0.161800  0.144270  0.534000  1.0  -0.5246
  O  O608  1  0.102800  0.138950  0.337720  1.0  -0.527
