# generated using pymatgen
data_Cd2H22C27(N5O3)2
_symmetry_space_group_name_H-M   'P 1'
_cell_length_a   36.87300000
_cell_length_b   9.31520000
_cell_length_c   10.92880000
_cell_angle_alpha   90.00000000
_cell_angle_beta   93.64300000
_cell_angle_gamma   90.00000000
_symmetry_Int_Tables_number   1
_chemical_formula_structural   Cd2H22C27(N5O3)2
_chemical_formula_sum   'Cd8 H88 C108 N40 O24'
_cell_volume   3746.23208444
_cell_formula_units_Z   4
loop_
 _symmetry_equiv_pos_site_id
 _symmetry_equiv_pos_as_xyz
  1  'x, y, z'
loop_
 _atom_site_type_symbol
 _atom_site_label
 _atom_site_symmetry_multiplicity
 _atom_site_fract_x
 _atom_site_fract_y
 _atom_site_fract_z
 _atom_site_occupancy
 _atom_site_charge
  Cd  Cd1  1  0.207490  0.806080  0.395790  1.0  0.9085
  Cd  Cd2  1  0.707490  0.306080  0.395790  1.0  0.9085
  Cd  Cd3  1  0.792510  0.806080  0.104210  1.0  0.908
  Cd  Cd4  1  0.292510  0.306080  0.104210  1.0  0.908
  Cd  Cd5  1  0.792510  0.193920  0.604210  1.0  0.9082
  Cd  Cd6  1  0.292510  0.693920  0.604210  1.0  0.9082
  Cd  Cd7  1  0.207490  0.193920  0.895790  1.0  0.908
  Cd  Cd8  1  0.707490  0.693920  0.895790  1.0  0.908
  H  H9  1  0.179600  0.898900  0.997700  1.0  0.3593
  H  H10  1  0.173000  0.832900  0.118500  1.0  0.3347
  H  H11  1  0.276800  0.193100  0.378100  1.0  0.3093
  H  H12  1  0.256400  0.077300  0.437900  1.0  0.341
  H  H13  1  0.090300  0.994700  0.399500  1.0  0.371
  H  H14  1  0.111000  0.656400  0.136900  1.0  0.1009
  H  H15  1  0.976700  0.843600  0.043900  1.0  0.108
  H  H16  1  0.974300  0.695200  0.878600  1.0  0.0957
  H  H17  1  0.020500  0.539500  0.839600  1.0  0.1115
  H  H18  1  0.075400  0.556700  0.958400  1.0  0.1048
  H  H19  1  0.008300  0.035200  0.317800  1.0  0.1037
  H  H20  1  0.679600  0.398900  0.997700  1.0  0.3593
  H  H21  1  0.673000  0.332900  0.118500  1.0  0.3347
  H  H22  1  0.776800  0.693100  0.378100  1.0  0.3093
  H  H23  1  0.756400  0.577300  0.437900  1.0  0.341
  H  H24  1  0.590300  0.494700  0.399500  1.0  0.371
  H  H25  1  0.611000  0.156400  0.136900  1.0  0.1009
  H  H26  1  0.476700  0.343600  0.043900  1.0  0.108
  H  H27  1  0.474300  0.195200  0.878600  1.0  0.0957
  H  H28  1  0.520500  0.039500  0.839600  1.0  0.1115
  H  H29  1  0.575400  0.056700  0.958400  1.0  0.1048
  H  H30  1  0.508300  0.535200  0.317800  1.0  0.1037
  H  H31  1  0.820400  0.898900  0.502300  1.0  0.3598
  H  H32  1  0.827000  0.832900  0.381500  1.0  0.3387
  H  H33  1  0.723200  0.193100  0.121900  1.0  0.3099
  H  H34  1  0.743600  0.077300  0.062100  1.0  0.341
  H  H35  1  0.909700  0.994700  0.100500  1.0  0.3733
  H  H36  1  0.889000  0.656400  0.363100  1.0  0.1003
  H  H37  1  0.023300  0.843600  0.456100  1.0  0.1085
  H  H38  1  0.025700  0.695200  0.621400  1.0  0.0946
  H  H39  1  0.979500  0.539500  0.660400  1.0  0.1118
  H  H40  1  0.924600  0.556700  0.541600  1.0  0.1051
  H  H41  1  0.991700  0.035200  0.182200  1.0  0.104
  H  H42  1  0.320400  0.398900  0.502300  1.0  0.3598
  H  H43  1  0.327000  0.332900  0.381500  1.0  0.3387
  H  H44  1  0.223200  0.693100  0.121900  1.0  0.3099
  H  H45  1  0.243600  0.577300  0.062100  1.0  0.341
  H  H46  1  0.409700  0.494700  0.100500  1.0  0.3733
  H  H47  1  0.389000  0.156400  0.363100  1.0  0.1003
  H  H48  1  0.523300  0.343600  0.456100  1.0  0.1085
  H  H49  1  0.525700  0.195200  0.621400  1.0  0.0946
  H  H50  1  0.479500  0.039500  0.660400  1.0  0.1118
  H  H51  1  0.424600  0.056700  0.541600  1.0  0.1051
  H  H52  1  0.491700  0.535200  0.182200  1.0  0.104
  H  H53  1  0.820400  0.101100  0.002300  1.0  0.3597
  H  H54  1  0.827000  0.167100  0.881500  1.0  0.3361
  H  H55  1  0.723200  0.806900  0.621900  1.0  0.3092
  H  H56  1  0.743600  0.922700  0.562100  1.0  0.3407
  H  H57  1  0.909700  0.005300  0.600500  1.0  0.3722
  H  H58  1  0.889000  0.343600  0.863100  1.0  0.1009
  H  H59  1  0.023300  0.156400  0.956100  1.0  0.1089
  H  H60  1  0.025700  0.304800  0.121400  1.0  0.0945
  H  H61  1  0.979500  0.460500  0.160400  1.0  0.1115
  H  H62  1  0.924600  0.443300  0.041600  1.0  0.1053
  H  H63  1  0.991700  0.964800  0.682200  1.0  0.1033
  H  H64  1  0.320400  0.601100  0.002300  1.0  0.3597
  H  H65  1  0.327000  0.667100  0.881500  1.0  0.3361
  H  H66  1  0.223200  0.306900  0.621900  1.0  0.3092
  H  H67  1  0.243600  0.422700  0.562100  1.0  0.3407
  H  H68  1  0.409700  0.505300  0.600500  1.0  0.3722
  H  H69  1  0.389000  0.843600  0.863100  1.0  0.1009
  H  H70  1  0.523300  0.656400  0.956100  1.0  0.1089
  H  H71  1  0.525700  0.804800  0.121400  1.0  0.0945
  H  H72  1  0.479500  0.960500  0.160400  1.0  0.1115
  H  H73  1  0.424600  0.943300  0.041600  1.0  0.1053
  H  H74  1  0.491700  0.464800  0.682200  1.0  0.1033
  H  H75  1  0.179600  0.101100  0.497700  1.0  0.3593
  H  H76  1  0.173000  0.167100  0.618500  1.0  0.3341
  H  H77  1  0.276800  0.806900  0.878100  1.0  0.3082
  H  H78  1  0.256400  0.922700  0.937900  1.0  0.3398
  H  H79  1  0.090300  0.005300  0.899500  1.0  0.371
  H  H80  1  0.111000  0.343600  0.636900  1.0  0.1012
  H  H81  1  0.976700  0.156400  0.543900  1.0  0.1082
  H  H82  1  0.974300  0.304800  0.378600  1.0  0.096
  H  H83  1  0.020500  0.460500  0.339600  1.0  0.1116
  H  H84  1  0.075400  0.443300  0.458400  1.0  0.1053
  H  H85  1  0.008300  0.964800  0.817800  1.0  0.1039
  H  H86  1  0.679600  0.601100  0.497700  1.0  0.3593
  H  H87  1  0.673000  0.667100  0.618500  1.0  0.3341
  H  H88  1  0.776800  0.306900  0.878100  1.0  0.3082
  H  H89  1  0.756400  0.422700  0.937900  1.0  0.3398
  H  H90  1  0.590300  0.505300  0.899500  1.0  0.371
  H  H91  1  0.611000  0.843600  0.636900  1.0  0.1012
  H  H92  1  0.476700  0.656400  0.543900  1.0  0.1082
  H  H93  1  0.474300  0.804800  0.378600  1.0  0.096
  H  H94  1  0.520500  0.960500  0.339600  1.0  0.1116
  H  H95  1  0.575400  0.943300  0.458400  1.0  0.1053
  H  H96  1  0.508300  0.464800  0.817800  1.0  0.1039
  C  C97  1  0.132200  0.827000  0.310300  1.0  0.6599
  C  C98  1  0.032500  0.881000  0.210600  1.0  -0.0274
  C  C99  1  0.065400  0.900000  0.272600  1.0  0.1473
  C  C100  1  0.095600  0.815000  0.245300  1.0  -0.2239
  C  C101  1  0.091900  0.717000  0.152000  1.0  -0.061
  C  C102  1  0.058900  0.709000  0.078100  1.0  0.0173
  C  C103  1  0.028900  0.793000  0.107400  1.0  0.0089
  C  C104  1  0.996600  0.787000  0.028600  1.0  -0.1731
  C  C105  1  0.995300  0.696000  0.930600  1.0  -0.1102
  C  C106  1  0.023200  0.605000  0.903900  1.0  -0.167
  C  C107  1  0.055700  0.614000  0.976600  1.0  -0.0895
  C  C108  1  0.208700  0.986100  0.131800  1.0  0.5987
  C  C109  1  0.244700  0.088200  0.262600  1.0  0.614
  C  C110  1  0.632200  0.327000  0.310300  1.0  0.6599
  C  C111  1  0.532500  0.381000  0.210600  1.0  -0.0274
  C  C112  1  0.565400  0.400000  0.272600  1.0  0.1473
  C  C113  1  0.595600  0.315000  0.245300  1.0  -0.2239
  C  C114  1  0.591900  0.217000  0.152000  1.0  -0.061
  C  C115  1  0.558900  0.209000  0.078100  1.0  0.0173
  C  C116  1  0.528900  0.293000  0.107400  1.0  0.0089
  C  C117  1  0.496600  0.287000  0.028600  1.0  -0.1731
  C  C118  1  0.495300  0.196000  0.930600  1.0  -0.1102
  C  C119  1  0.523200  0.105000  0.903900  1.0  -0.167
  C  C120  1  0.555700  0.114000  0.976600  1.0  -0.0895
  C  C121  1  0.708700  0.486100  0.131800  1.0  0.5987
  C  C122  1  0.744700  0.588200  0.262600  1.0  0.614
  C  C123  1  0.867800  0.827000  0.189700  1.0  0.6607
  C  C124  1  0.967500  0.881000  0.289400  1.0  -0.0279
  C  C125  1  0.934600  0.900000  0.227400  1.0  0.1462
  C  C126  1  0.904400  0.815000  0.254700  1.0  -0.2223
  C  C127  1  0.908100  0.717000  0.348000  1.0  -0.0633
  C  C128  1  0.941100  0.709000  0.421900  1.0  0.0176
  C  C129  1  0.971100  0.793000  0.392600  1.0  0.0086
  C  C130  1  0.003400  0.787000  0.471400  1.0  -0.1742
  C  C131  1  0.004700  0.696000  0.569400  1.0  -0.1095
  C  C132  1  0.976800  0.605000  0.596100  1.0  -0.1666
  C  C133  1  0.944300  0.614000  0.523400  1.0  -0.0923
  C  C134  1  0.791300  0.986100  0.368200  1.0  0.5993
  C  C135  1  0.755300  0.088200  0.237400  1.0  0.6133
  C  C136  1  0.367800  0.327000  0.189700  1.0  0.6607
  C  C137  1  0.467500  0.381000  0.289400  1.0  -0.0279
  C  C138  1  0.434600  0.400000  0.227400  1.0  0.1462
  C  C139  1  0.404400  0.315000  0.254700  1.0  -0.2223
  C  C140  1  0.408100  0.217000  0.348000  1.0  -0.0633
  C  C141  1  0.441100  0.209000  0.421900  1.0  0.0176
  C  C142  1  0.471100  0.293000  0.392600  1.0  0.0086
  C  C143  1  0.503400  0.287000  0.471400  1.0  -0.1742
  C  C144  1  0.504700  0.196000  0.569400  1.0  -0.1095
  C  C145  1  0.476800  0.105000  0.596100  1.0  -0.1666
  C  C146  1  0.444300  0.114000  0.523400  1.0  -0.0923
  C  C147  1  0.291300  0.486100  0.368200  1.0  0.5993
  C  C148  1  0.255300  0.588200  0.237400  1.0  0.6133
  C  C149  1  0.867800  0.173000  0.689700  1.0  0.6607
  C  C150  1  0.967500  0.119000  0.789400  1.0  -0.0281
  C  C151  1  0.934600  0.100000  0.727400  1.0  0.1467
  C  C152  1  0.904400  0.185000  0.754700  1.0  -0.2227
  C  C153  1  0.908100  0.283000  0.848000  1.0  -0.0656
  C  C154  1  0.941100  0.291000  0.921900  1.0  0.0181
  C  C155  1  0.971100  0.207000  0.892600  1.0  0.0088
  C  C156  1  0.003400  0.213000  0.971400  1.0  -0.1739
  C  C157  1  0.004700  0.304000  0.069400  1.0  -0.1099
  C  C158  1  0.976800  0.395000  0.096100  1.0  -0.1658
  C  C159  1  0.944300  0.386000  0.023400  1.0  -0.0925
  C  C160  1  0.791300  0.013900  0.868200  1.0  0.5977
  C  C161  1  0.755300  0.911800  0.737400  1.0  0.6133
  C  C162  1  0.367800  0.673000  0.689700  1.0  0.6607
  C  C163  1  0.467500  0.619000  0.789400  1.0  -0.0281
  C  C164  1  0.434600  0.600000  0.727400  1.0  0.1467
  C  C165  1  0.404400  0.685000  0.754700  1.0  -0.2227
  C  C166  1  0.408100  0.783000  0.848000  1.0  -0.0656
  C  C167  1  0.441100  0.791000  0.921900  1.0  0.0181
  C  C168  1  0.471100  0.707000  0.892600  1.0  0.0088
  C  C169  1  0.503400  0.713000  0.971400  1.0  -0.1739
  C  C170  1  0.504700  0.804000  0.069400  1.0  -0.1099
  C  C171  1  0.476800  0.895000  0.096100  1.0  -0.1658
  C  C172  1  0.444300  0.886000  0.023400  1.0  -0.0925
  C  C173  1  0.291300  0.513900  0.868200  1.0  0.5977
  C  C174  1  0.255300  0.411800  0.737400  1.0  0.6133
  C  C175  1  0.132200  0.173000  0.810300  1.0  0.6605
  C  C176  1  0.032500  0.119000  0.710600  1.0  -0.0275
  C  C177  1  0.065400  0.100000  0.772600  1.0  0.1479
  C  C178  1  0.095600  0.185000  0.745300  1.0  -0.2242
  C  C179  1  0.091900  0.283000  0.652000  1.0  -0.0627
  C  C180  1  0.058900  0.291000  0.578100  1.0  0.0178
  C  C181  1  0.028900  0.207000  0.607400  1.0  0.0091
  C  C182  1  0.996600  0.213000  0.528600  1.0  -0.1726
  C  C183  1  0.995300  0.304000  0.430600  1.0  -0.1104
  C  C184  1  0.023200  0.395000  0.403900  1.0  -0.1664
  C  C185  1  0.055700  0.386000  0.476600  1.0  -0.0892
  C  C186  1  0.208700  0.013900  0.631800  1.0  0.597
  C  C187  1  0.244700  0.911800  0.762600  1.0  0.614
  C  C188  1  0.632200  0.673000  0.810300  1.0  0.6605
  C  C189  1  0.532500  0.619000  0.710600  1.0  -0.0275
  C  C190  1  0.565400  0.600000  0.772600  1.0  0.1479
  C  C191  1  0.595600  0.685000  0.745300  1.0  -0.2242
  C  C192  1  0.591900  0.783000  0.652000  1.0  -0.0627
  C  C193  1  0.558900  0.791000  0.578100  1.0  0.0178
  C  C194  1  0.528900  0.707000  0.607400  1.0  0.0091
  C  C195  1  0.496600  0.713000  0.528600  1.0  -0.1726
  C  C196  1  0.495300  0.804000  0.430600  1.0  -0.1104
  C  C197  1  0.523200  0.895000  0.403900  1.0  -0.1664
  C  C198  1  0.555700  0.886000  0.476600  1.0  -0.0892
  C  C199  1  0.708700  0.513900  0.631800  1.0  0.597
  C  C200  1  0.744700  0.411800  0.762600  1.0  0.614
  C  C201  1  0.000000  0.974000  0.250000  1.0  -0.1954
  C  C202  1  0.500000  0.474000  0.250000  1.0  -0.1954
  C  C203  1  0.000000  0.026000  0.750000  1.0  -0.1959
  C  C204  1  0.500000  0.526000  0.750000  1.0  -0.1959
  N  N205  1  0.219400  0.981800  0.250000  1.0  -0.4765
  N  N206  1  0.226200  0.082100  0.070400  1.0  -0.2824
  N  N207  1  0.250400  0.152800  0.157100  1.0  -0.3935
  N  N208  1  0.184100  0.894700  0.075800  1.0  -0.6529
  N  N209  1  0.261400  0.123900  0.373100  1.0  -0.7344
  N  N210  1  0.719400  0.481800  0.250000  1.0  -0.4765
  N  N211  1  0.726200  0.582100  0.070400  1.0  -0.2824
  N  N212  1  0.750400  0.652800  0.157100  1.0  -0.3935
  N  N213  1  0.684100  0.394700  0.075800  1.0  -0.6529
  N  N214  1  0.761400  0.623900  0.373100  1.0  -0.7344
  N  N215  1  0.780600  0.981800  0.250000  1.0  -0.478
  N  N216  1  0.773800  0.082100  0.429600  1.0  -0.2816
  N  N217  1  0.749600  0.152800  0.342900  1.0  -0.3944
  N  N218  1  0.815900  0.894700  0.424200  1.0  -0.6542
  N  N219  1  0.738600  0.123900  0.126900  1.0  -0.7336
  N  N220  1  0.280600  0.481800  0.250000  1.0  -0.478
  N  N221  1  0.273800  0.582100  0.429600  1.0  -0.2816
  N  N222  1  0.249600  0.652800  0.342900  1.0  -0.3944
  N  N223  1  0.315900  0.394700  0.424200  1.0  -0.6542
  N  N224  1  0.238600  0.623900  0.126900  1.0  -0.7336
  N  N225  1  0.780600  0.018200  0.750000  1.0  -0.4771
  N  N226  1  0.773800  0.917900  0.929600  1.0  -0.2801
  N  N227  1  0.749600  0.847200  0.842900  1.0  -0.3945
  N  N228  1  0.815900  0.105300  0.924200  1.0  -0.6543
  N  N229  1  0.738600  0.876100  0.626900  1.0  -0.7338
  N  N230  1  0.280600  0.518200  0.750000  1.0  -0.4771
  N  N231  1  0.273800  0.417900  0.929600  1.0  -0.2801
  N  N232  1  0.249600  0.347200  0.842900  1.0  -0.3945
  N  N233  1  0.315900  0.605300  0.924200  1.0  -0.6543
  N  N234  1  0.238600  0.376100  0.626900  1.0  -0.7338
  N  N235  1  0.219400  0.018200  0.750000  1.0  -0.4765
  N  N236  1  0.226200  0.917900  0.570400  1.0  -0.2824
  N  N237  1  0.250400  0.847200  0.657100  1.0  -0.3932
  N  N238  1  0.184100  0.105300  0.575800  1.0  -0.6528
  N  N239  1  0.261400  0.876100  0.873100  1.0  -0.7344
  N  N240  1  0.719400  0.518200  0.750000  1.0  -0.4765
  N  N241  1  0.726200  0.417900  0.570400  1.0  -0.2824
  N  N242  1  0.750400  0.347200  0.657100  1.0  -0.3932
  N  N243  1  0.684100  0.605300  0.575800  1.0  -0.6528
  N  N244  1  0.761400  0.376100  0.873100  1.0  -0.7344
  O  O245  1  0.157700  0.746900  0.282400  1.0  -0.6131
  O  O246  1  0.137300  0.922600  0.394200  1.0  -0.653
  O  O247  1  0.069100  0.994600  0.371600  1.0  -0.5338
  O  O248  1  0.657700  0.246900  0.282400  1.0  -0.6131
  O  O249  1  0.637300  0.422600  0.394200  1.0  -0.653
  O  O250  1  0.569100  0.494600  0.371600  1.0  -0.5338
  O  O251  1  0.842300  0.746900  0.217600  1.0  -0.6135
  O  O252  1  0.862700  0.922600  0.105800  1.0  -0.6532
  O  O253  1  0.930900  0.994600  0.128400  1.0  -0.5353
  O  O254  1  0.342300  0.246900  0.217600  1.0  -0.6135
  O  O255  1  0.362700  0.422600  0.105800  1.0  -0.6532
  O  O256  1  0.430900  0.494600  0.128400  1.0  -0.5353
  O  O257  1  0.842300  0.253100  0.717600  1.0  -0.6146
  O  O258  1  0.862700  0.077400  0.605800  1.0  -0.6549
  O  O259  1  0.930900  0.005400  0.628400  1.0  -0.5361
  O  O260  1  0.342300  0.753100  0.717600  1.0  -0.6146
  O  O261  1  0.362700  0.577400  0.605800  1.0  -0.6549
  O  O262  1  0.430900  0.505400  0.628400  1.0  -0.5361
  O  O263  1  0.157700  0.253100  0.782400  1.0  -0.6167
  O  O264  1  0.137300  0.077400  0.894200  1.0  -0.654
  O  O265  1  0.069100  0.005400  0.871600  1.0  -0.5347
  O  O266  1  0.657700  0.753100  0.782400  1.0  -0.6167
  O  O267  1  0.637300  0.577400  0.894200  1.0  -0.654
  O  O268  1  0.569100  0.505400  0.871600  1.0  -0.5347
