# generated using pymatgen
data_Zn6H88C123(N2O3)10
_symmetry_space_group_name_H-M   'P 1'
_cell_length_a   18.11580000
_cell_length_b   22.15200000
_cell_length_c   30.71800000
_cell_angle_alpha   82.20820000
_cell_angle_beta   72.85010000
_cell_angle_gamma   65.86440000
_symmetry_Int_Tables_number   1
_chemical_formula_structural   Zn6H88C123(N2O3)10
_chemical_formula_sum   'Zn12 H176 C246 N40 O60'
_cell_volume   10747.74910251
_cell_formula_units_Z   2
loop_
 _symmetry_equiv_pos_site_id
 _symmetry_equiv_pos_as_xyz
  1  'x, y, z'
loop_
 _atom_site_type_symbol
 _atom_site_label
 _atom_site_symmetry_multiplicity
 _atom_site_fract_x
 _atom_site_fract_y
 _atom_site_fract_z
 _atom_site_occupancy
 _atom_site_charge
  Zn  Zn1  1  0.009910  0.285080  0.311300  1.0  0.7447
  Zn  Zn2  1  0.486240  0.733820  0.694320  1.0  0.8687
  Zn  Zn3  1  0.606290  0.214920  0.188700  1.0  0.7416
  Zn  Zn4  1  0.128070  0.912690  0.705460  1.0  0.8783
  Zn  Zn5  1  0.393710  0.785080  0.811300  1.0  0.7415
  Zn  Zn6  1  0.871930  0.087310  0.294540  1.0  0.8774
  Zn  Zn7  1  0.914380  0.766180  0.805680  1.0  0.87
  Zn  Zn8  1  0.746220  0.587310  0.794540  1.0  0.8777
  Zn  Zn9  1  0.085620  0.233820  0.194320  1.0  0.8707
  Zn  Zn10  1  0.513760  0.266180  0.305680  1.0  0.868
  Zn  Zn11  1  0.253780  0.412690  0.205460  1.0  0.8782
  Zn  Zn12  1  0.990090  0.714920  0.688700  1.0  0.7456
  H  H13  1  0.187600  0.687800  0.456600  1.0  0.117
  H  H14  1  0.000900  0.862400  0.125200  1.0  0.1147
  H  H15  1  0.265500  0.253000  0.422400  1.0  0.3784
  H  H16  1  0.328300  0.295700  0.516100  1.0  0.1048
  H  H17  1  0.916500  0.525800  0.095000  1.0  0.1051
  H  H18  1  0.668000  0.187800  0.956600  1.0  0.1162
  H  H19  1  0.824400  0.316800  0.885000  1.0  0.1051
  H  H20  1  0.531000  0.355000  0.437200  1.0  0.3773
  H  H21  1  0.083500  0.474200  0.905000  1.0  0.1045
  H  H22  1  0.087000  0.804400  0.324000  1.0  0.1038
  H  H23  1  0.865500  0.901200  0.108000  1.0  0.1177
  H  H24  1  0.059100  0.753000  0.922400  1.0  0.3804
  H  H25  1  0.432000  0.456300  0.517700  1.0  0.1265
  H  H26  1  0.175600  0.683200  0.115000  1.0  0.1053
  H  H27  1  0.231300  0.919900  0.471100  1.0  0.118
  H  H28  1  0.713100  0.434400  0.113800  1.0  0.1141
  H  H29  1  0.514500  0.728900  0.867700  1.0  0.3327
  H  H30  1  0.286900  0.565600  0.886200  1.0  0.1134
  H  H31  1  0.190100  0.192000  0.513000  1.0  0.1209
  H  H32  1  0.036200  0.133000  0.183200  1.0  0.2685
  H  H33  1  0.776900  0.230700  0.727100  1.0  0.1106
  H  H34  1  0.874300  0.635600  0.677800  1.0  0.3268
  H  H35  1  0.895200  0.083400  0.709400  1.0  0.3881
  H  H36  1  0.379600  0.457500  0.898100  1.0  0.1292
  H  H37  1  0.276400  0.605800  0.491800  1.0  0.1009
  H  H38  1  0.406000  0.043700  0.982300  1.0  0.1267
  H  H39  1  0.241100  0.125900  0.445500  1.0  0.107
  H  H40  1  0.723600  0.394200  0.508200  1.0  0.1006
  H  H41  1  0.816600  0.962100  0.847700  1.0  0.0978
  H  H42  1  0.851000  0.511500  0.045700  1.0  0.1179
  H  H43  1  0.749000  0.368600  0.416400  1.0  0.3988
  H  H44  1  0.466000  0.868600  0.916400  1.0  0.398
  H  H45  1  0.778300  0.823700  0.442900  1.0  0.1232
  H  H46  1  0.622300  0.580100  0.028900  1.0  0.1176
  H  H47  1  0.377700  0.419900  0.971100  1.0  0.1177
  H  H48  1  0.537300  0.974200  0.405000  1.0  0.1027
  H  H49  1  0.734200  0.873800  0.009200  1.0  0.1051
  H  H50  1  0.111100  0.771100  0.632300  1.0  0.3324
  H  H51  1  0.099400  0.514100  0.625500  1.0  0.1114
  H  H52  1  0.215400  0.695600  0.176000  1.0  0.1034
  H  H53  1  0.352400  0.367000  0.316800  1.0  0.2673
  H  H54  1  0.394300  0.533500  0.512900  1.0  0.1279
  H  H55  1  0.152800  0.919600  0.793000  1.0  0.3073
  H  H56  1  0.898600  0.439100  0.685100  1.0  0.1124
  H  H57  1  0.186300  0.331000  0.135200  1.0  0.3247
  H  H58  1  0.955100  0.323700  0.942900  1.0  0.1225
  H  H59  1  0.239000  0.985900  0.874500  1.0  0.113
  H  H60  1  0.688000  0.416600  0.790600  1.0  0.3915
  H  H61  1  0.053900  0.841300  0.811100  1.0  0.3302
  H  H62  1  0.784600  0.304400  0.824000  1.0  0.1035
  H  H63  1  0.265800  0.126200  0.990800  1.0  0.1049
  H  H64  1  0.470400  0.857000  0.578800  1.0  0.1179
  H  H65  1  0.859900  0.795700  0.016100  1.0  0.1035
  H  H66  1  0.134600  0.419600  0.293000  1.0  0.3107
  H  H67  1  0.591800  0.011500  0.545700  1.0  0.1186
  H  H68  1  0.400400  0.319500  0.136500  1.0  0.3338
  H  H69  1  0.529600  0.143000  0.421200  1.0  0.1177
  H  H70  1  0.858100  0.567600  0.976600  1.0  0.1062
  H  H71  1  0.440700  0.966500  0.987100  1.0  0.1294
  H  H72  1  0.534000  0.131400  0.083600  1.0  0.3995
  H  H73  1  0.134500  0.098800  0.892000  1.0  0.1172
  H  H74  1  0.647600  0.633000  0.683200  1.0  0.2667
  H  H75  1  0.251000  0.631400  0.583600  1.0  0.3988
  H  H76  1  0.166700  0.667800  0.392000  1.0  0.0925
  H  H77  1  0.265300  0.730700  0.227100  1.0  0.1105
  H  H78  1  0.988200  0.094700  0.208700  1.0  0.2408
  H  H79  1  0.101400  0.560900  0.314900  1.0  0.1118
  H  H80  1  0.973800  0.816800  0.385000  1.0  0.1049
  H  H81  1  0.044900  0.676300  0.057100  1.0  0.1233
  H  H82  1  0.735200  0.042500  0.601900  1.0  0.129
  H  H83  1  0.469000  0.645000  0.562800  1.0  0.3781
  H  H84  1  0.874700  0.598800  0.392000  1.0  0.1163
  H  H85  1  0.568000  0.543700  0.482300  1.0  0.1266
  H  H86  1  0.223100  0.769300  0.272900  1.0  0.1112
  H  H87  1  0.652500  0.169000  0.364800  1.0  0.3273
  H  H88  1  0.074800  0.264000  0.592200  1.0  0.0924
  H  H89  1  0.940900  0.247000  0.077600  1.0  0.3785
  H  H90  1  0.847200  0.080400  0.207000  1.0  0.3113
  H  H91  1  0.140100  0.204300  0.983900  1.0  0.1035
  H  H92  1  0.742500  0.425300  0.650100  1.0  0.1333
  H  H93  1  0.261300  0.065600  0.386200  1.0  0.1134
  H  H94  1  0.688100  0.571200  0.946000  1.0  0.1192
  H  H95  1  0.187700  0.864400  0.822200  1.0  0.3276
  H  H96  1  0.773500  0.167800  0.892000  1.0  0.0902
  H  H97  1  0.408200  0.988500  0.454300  1.0  0.1168
  H  H98  1  0.620400  0.542500  0.101900  1.0  0.1296
  H  H99  1  0.734700  0.269300  0.772900  1.0  0.1094
  H  H100  1  0.906200  0.643000  0.921200  1.0  0.1189
  H  H101  1  0.022800  0.060900  0.814900  1.0  0.1118
  H  H102  1  0.904800  0.419000  0.863000  1.0  0.371
  H  H103  1  0.796300  0.692800  0.432800  1.0  0.1097
  H  H104  1  0.559300  0.033500  0.012900  1.0  0.1302
  H  H105  1  0.264800  0.957500  0.398100  1.0  0.1278
  H  H106  1  0.768700  0.080100  0.528900  1.0  0.1179
  H  H107  1  0.671700  0.704300  0.483900  1.0  0.1038
  H  H108  1  0.026200  0.183200  0.615000  1.0  0.1047
  H  H109  1  0.597700  0.067600  0.476600  1.0  0.1056
  H  H110  1  0.187500  0.625900  0.945500  1.0  0.105
  H  H111  1  0.226500  0.832200  0.108000  1.0  0.0906
  H  H112  1  0.143600  0.819500  0.636500  1.0  0.3345
  H  H113  1  0.812300  0.135600  0.177800  1.0  0.3275
  H  H114  1  0.402300  0.932400  0.523400  1.0  0.1055
  H  H115  1  0.758900  0.874100  0.554500  1.0  0.1068
  H  H116  1  0.817900  0.074700  0.849900  1.0  0.1338
  H  H117  1  0.977200  0.939100  0.185100  1.0  0.113
  H  H118  1  0.676800  0.855000  0.937200  1.0  0.3784
  H  H119  1  0.205300  0.928800  0.554000  1.0  0.1193
  H  H120  1  0.946100  0.158700  0.188900  1.0  0.3305
  H  H121  1  0.931000  0.236000  0.907800  1.0  0.0942
  H  H122  1  0.812500  0.374100  0.054500  1.0  0.1046
  H  H123  1  0.921900  0.807200  0.067200  1.0  0.1099
  H  H124  1  0.374000  0.894200  0.008200  1.0  0.1009
  H  H125  1  0.183400  0.037900  0.152300  1.0  0.0978
  H  H126  1  0.262900  0.319800  0.147000  1.0  0.3293
  H  H127  1  0.599600  0.680500  0.863500  1.0  0.3333
  H  H128  1  0.221700  0.176300  0.557100  1.0  0.1243
  H  H129  1  0.339800  0.087800  0.574800  1.0  0.1155
  H  H130  1  0.738700  0.934400  0.613800  1.0  0.1139
  H  H131  1  0.332000  0.812200  0.043400  1.0  0.118
  H  H132  1  0.104900  0.692000  0.013000  1.0  0.1204
  H  H133  1  0.617200  0.626200  0.490800  1.0  0.1052
  H  H134  1  0.149000  0.488500  0.954300  1.0  0.1165
  H  H135  1  0.270300  0.819800  0.647000  1.0  0.3258
  H  H136  1  0.594000  0.956300  0.017700  1.0  0.1274
  H  H137  1  0.257500  0.574700  0.349900  1.0  0.1331
  H  H138  1  0.462700  0.025800  0.595000  1.0  0.1058
  H  H139  1  0.856400  0.180500  0.363500  1.0  0.3347
  H  H140  1  0.708400  0.594700  0.708700  1.0  0.2417
  H  H141  1  0.895100  0.308000  0.987000  1.0  0.1216
  H  H142  1  0.605700  0.466500  0.487100  1.0  0.129
  H  H143  1  0.093800  0.357000  0.078800  1.0  0.1192
  H  H144  1  0.813700  0.669000  0.864800  1.0  0.3262
  H  H145  1  0.293700  0.341300  0.311100  1.0  0.3286
  H  H146  1  0.813200  0.919000  0.363000  1.0  0.3711
  H  H147  1  0.626400  0.537900  0.652300  1.0  0.0991
  H  H148  1  0.812400  0.312200  0.543400  1.0  0.1184
  H  H149  1  0.323200  0.145000  0.062800  1.0  0.3784
  H  H150  1  0.203700  0.307200  0.567200  1.0  0.1089
  H  H151  1  0.888900  0.228900  0.367700  1.0  0.3346
  H  H152  1  0.182100  0.925300  0.150100  1.0  0.132
  H  H153  1  0.865400  0.580400  0.707000  1.0  0.3102
  H  H154  1  0.125700  0.364400  0.322200  1.0  0.3282
  H  H155  1  0.761000  0.014100  0.125500  1.0  0.1127
  H  H156  1  0.291600  0.405300  0.291300  1.0  0.2399
  H  H157  1  0.002400  0.412200  0.925200  1.0  0.1165
  H  H158  1  0.125300  0.401200  0.608000  1.0  0.1168
  H  H159  1  0.011500  0.362400  0.625200  1.0  0.1142
  H  H160  1  0.999100  0.137600  0.874800  1.0  0.1143
  H  H161  1  0.485500  0.271100  0.132300  1.0  0.3316
  H  H162  1  0.078100  0.192800  0.932800  1.0  0.1097
  H  H163  1  0.925200  0.736000  0.407800  1.0  0.0934
  H  H164  1  0.988500  0.637600  0.374800  1.0  0.1137
  H  H165  1  0.737100  0.680200  0.853000  1.0  0.3246
  H  H166  1  0.311900  0.428800  0.054000  1.0  0.1177
  H  H167  1  0.141900  0.432400  0.023400  1.0  0.1058
  H  H168  1  0.913000  0.195600  0.676000  1.0  0.1026
  H  H169  1  0.833300  0.332200  0.608000  1.0  0.0906
  H  H170  1  0.809900  0.808000  0.487000  1.0  0.121
  H  H171  1  0.997600  0.587800  0.074800  1.0  0.1157
  H  H172  1  0.963800  0.867000  0.816800  1.0  0.2674
  H  H173  1  0.312000  0.583400  0.209400  1.0  0.3899
  H  H174  1  0.186800  0.081000  0.637000  1.0  0.3715
  H  H175  1  0.011800  0.905300  0.791300  1.0  0.2405
  H  H176  1  0.069000  0.764000  0.092200  1.0  0.094
  H  H177  1  0.626000  0.105800  0.991800  1.0  0.1012
  H  H178  1  0.794700  0.071200  0.446000  1.0  0.1183
  H  H179  1  0.373600  0.462100  0.347700  1.0  0.0987
  H  H180  1  0.729700  0.180200  0.353000  1.0  0.3271
  H  H181  1  0.347500  0.831000  0.635200  1.0  0.3265
  H  H182  1  0.382800  0.373800  0.509200  1.0  0.1051
  H  H183  1  0.095200  0.581000  0.137000  1.0  0.3722
  H  H184  1  0.734500  0.747000  0.577600  1.0  0.3784
  H  H185  1  0.706300  0.658700  0.688900  1.0  0.3244
  H  H186  1  0.900600  0.485900  0.374500  1.0  0.1118
  H  H187  1  0.660200  0.912200  0.425200  1.0  0.1157
  H  H188  1  0.104800  0.916600  0.290600  1.0  0.3904
  C  C189  1  0.777880  0.905640  0.467200  1.0  -0.0014
  C  C190  1  0.209900  0.636100  0.403100  1.0  -0.1071
  C  C191  1  0.721400  0.943200  0.052600  1.0  0.08
  C  C192  1  0.822840  0.682780  0.803340  1.0  0.4489
  C  C193  1  0.253500  0.047700  0.415500  1.0  -0.1223
  C  C194  1  0.317900  0.158610  0.498790  1.0  0.0317
  C  C195  1  0.874800  0.379200  0.370800  1.0  0.7098
  C  C196  1  0.822100  0.440000  0.398800  1.0  -0.1376
  C  C197  1  0.522590  0.851950  0.559070  1.0  -0.0663
  C  C198  1  0.329230  0.538540  0.440200  1.0  0.0313
  C  C199  1  0.738300  0.420100  0.621500  1.0  -0.1298
  C  C200  1  0.150130  0.568040  0.077500  1.0  0.2096
  C  C201  1  0.232130  0.059940  0.496200  1.0  -0.0318
  C  C202  1  0.212700  0.750000  0.250000  1.0  -0.1953
  C  C203  1  0.688110  0.933880  0.936300  1.0  0.2248
  C  C204  1  0.250700  0.969200  0.101600  1.0  -0.0056
  C  C205  1  0.472730  0.113040  0.483100  1.0  0.0409
  C  C206  1  0.298000  0.333700  0.533500  1.0  -0.0815
  C  C207  1  0.258300  0.551900  0.570900  1.0  0.1715
  C  C208  1  0.741700  0.448100  0.429100  1.0  0.1706
  C  C209  1  0.786890  0.519720  0.867300  1.0  0.6794
  C  C210  1  0.272530  0.470130  0.049010  1.0  -0.0808
  C  C211  1  0.336500  0.900800  0.037000  1.0  -0.1618
  C  C212  1  0.223590  0.632820  0.252600  1.0  0.2
  C  C213  1  0.872500  0.841000  0.063400  1.0  -0.1312
  C  C214  1  0.765200  0.947700  0.082500  1.0  0.051
  C  C215  1  0.021030  0.694630  0.958910  1.0  0.2645
  C  C216  1  0.692030  0.038540  0.940200  1.0  0.0315
  C  C217  1  0.744390  0.142150  0.236870  1.0  0.4777
  C  C218  1  0.465300  0.046700  0.566500  1.0  -0.0985
  C  C219  1  0.308960  0.817220  0.696660  1.0  0.447
  C  C220  1  0.545720  0.072260  0.496300  1.0  -0.0758
  C  C221  1  0.618900  0.051900  0.070900  1.0  0.1705
  C  C222  1  0.612870  0.511760  0.539500  1.0  0.0212
  C  C223  1  0.780600  0.353100  0.557100  1.0  -0.1115
  C  C224  1  0.746500  0.016600  0.577400  1.0  -0.1272
  C  C225  1  0.957080  0.082490  0.768150  1.0  -0.2253
  C  C226  1  0.691040  0.182780  0.303340  1.0  0.4479
  C  C227  1  0.381100  0.948100  0.929100  1.0  0.1724
  C  C228  1  0.807720  0.417510  0.731850  1.0  -0.2249
  C  C229  1  0.253500  0.983400  0.422600  1.0  -0.1343
  C  C230  1  0.224800  0.138000  0.132200  1.0  0.689
  C  C231  1  0.114280  0.427740  0.003700  1.0  -0.071
  C  C232  1  0.725700  0.400800  0.537000  1.0  -0.1608
  C  C233  1  0.307970  0.961460  0.059800  1.0  0.0278
  C  C234  1  0.767460  0.839780  0.472900  1.0  -0.1648
  C  C235  1  0.788270  0.440060  0.003800  1.0  -0.0343
  C  C236  1  0.619670  0.665250  0.741010  1.0  0.4129
  C  C237  1  0.230790  0.520050  0.244570  1.0  0.6571
  C  C238  1  0.727470  0.529870  0.950990  1.0  -0.0864
  C  C239  1  0.161100  0.103300  0.912300  1.0  -0.0959
  C  C240  1  0.438080  0.422740  0.392700  1.0  -0.0677
  C  C241  1  0.339100  0.940000  0.898800  1.0  -0.1379
  C  C242  1  0.919600  0.343900  0.673100  1.0  0.0071
  C  C243  1  0.042920  0.917510  0.231850  1.0  -0.2256
  C  C244  1  0.886760  0.292580  0.691300  1.0  -0.0042
  C  C245  1  0.776420  0.969360  0.875600  1.0  -0.0534
  C  C246  1  0.678500  0.469200  0.601600  1.0  -0.0078
  C  C247  1  0.375200  0.879200  0.870800  1.0  0.7128
  C  C248  1  0.239500  0.118800  0.971400  1.0  -0.1471
  C  C249  1  0.043700  0.829900  0.136300  1.0  -0.1233
  C  C250  1  0.457300  0.961200  0.462400  1.0  -0.099
  C  C251  1  0.477410  0.148050  0.440930  1.0  -0.0654
  C  C252  1  0.787300  0.250000  0.750000  1.0  -0.18
  C  C253  1  0.147800  0.722900  0.130500  1.0  -0.1144
  C  C254  1  0.760500  0.881200  0.028600  1.0  -0.1472
  C  C255  1  0.325430  0.194630  0.458910  1.0  0.2633
  C  C256  1  0.385170  0.493860  0.510600  1.0  -0.2715
  C  C257  1  0.885720  0.572260  0.996300  1.0  -0.0759
  C  C258  1  0.878180  0.405990  0.695250  1.0  -0.0451
  C  C259  1  0.226340  0.995620  0.503700  1.0  0.0331
  C  C260  1  0.165200  0.166300  0.966500  1.0  -0.0856
  C  C261  1  0.975300  0.341390  0.001210  1.0  0.0305
  C  C262  1  0.610370  0.993860  0.010600  1.0  -0.2741
  C  C263  1  0.321500  0.530800  0.398400  1.0  -0.0072
  C  C264  1  0.232540  0.160220  0.527100  1.0  -0.1674
  C  C265  1  0.590800  0.771500  0.613900  1.0  0.7245
  C  C266  1  0.779900  0.079900  0.878500  1.0  -0.1283
  C  C267  1  0.769210  0.479950  0.755430  1.0  0.6585
  C  C268  1  0.757800  0.916700  0.548700  1.0  -0.1423
  C  C269  1  0.278600  0.056800  0.947400  1.0  0.0806
  C  C270  1  0.222120  0.094360  0.532800  1.0  -0.0018
  C  C271  1  0.236500  0.960400  0.466000  1.0  -0.0652
  C  C272  1  0.084500  0.771600  0.116600  1.0  -0.0993
  C  C273  1  0.171880  0.730240  0.166800  1.0  -0.1671
  C  C274  1  0.393220  0.118760  0.512200  1.0  0.036
  C  C275  1  0.441710  0.433880  0.436300  1.0  0.2269
  C  C276  1  0.670300  0.618800  0.471400  1.0  -0.1463
  C  C277  1  0.150320  0.804060  0.227900  1.0  0.0021
  C  C278  1  0.027300  0.271600  0.616600  1.0  -0.1
  C  C279  1  0.020580  0.905990  0.195250  1.0  -0.049
  C  C280  1  0.662900  0.539600  0.034000  1.0  -0.0659
  C  C281  1  0.834800  0.833700  0.033500  1.0  -0.084
  C  C282  1  0.119100  0.461200  0.962400  1.0  -0.1022
  C  C283  1  0.204600  0.447700  0.582500  1.0  0.0507
  C  C284  1  0.195410  0.006660  0.585320  1.0  -0.2131
  C  C285  1  0.255610  0.857850  0.763130  1.0  0.4796
  C  C286  1  0.795670  0.931960  0.422500  1.0  0.2103
  C  C287  1  0.211730  0.559940  0.996200  1.0  -0.0327
  C  C288  1  0.335870  0.011760  0.039500  1.0  0.0223
  C  C289  1  0.173910  0.980280  0.632700  1.0  0.6795
  C  C290  1  0.763500  0.039600  0.534000  1.0  -0.0622
  C  C291  1  0.817720  0.304060  0.727900  1.0  -0.0005
  C  C292  1  0.776900  0.659000  0.436600  1.0  -0.1259
  C  C293  1  0.242200  0.083300  0.451300  1.0  -0.1425
  C  C294  1  0.004590  0.020050  0.744570  1.0  0.6582
  C  C295  1  0.213110  0.480280  0.132700  1.0  0.6792
  C  C296  1  0.852200  0.277100  0.869500  1.0  -0.1119
  C  C297  1  0.434670  0.309860  0.189400  1.0  0.5023
  C  C298  1  0.609080  0.915240  0.445200  1.0  -0.168
  C  C299  1  0.066390  0.351950  0.059070  1.0  -0.0672
  C  C300  1  0.915500  0.228400  0.883400  1.0  -0.1022
  C  C301  1  0.309200  0.853100  0.057100  1.0  -0.1102
  C  C302  1  0.192280  0.582490  0.268150  1.0  -0.2261
  C  C303  1  0.350240  0.003420  0.954100  1.0  0.0795
  C  C304  1  0.725660  0.504380  0.996300  1.0  0.0341
  C  C305  1  0.223100  0.341000  0.563400  1.0  -0.1292
  C  C306  1  0.750900  0.136100  0.903100  1.0  -0.1081
  C  C307  1  0.931080  0.230240  0.666800  1.0  -0.1664
  C  C308  1  0.998800  0.222900  0.630500  1.0  -0.1128
  C  C309  1  0.274300  0.599200  0.463000  1.0  -0.1614
  C  C310  1  0.274340  0.495620  0.003700  1.0  0.0333
  C  C311  1  0.674570  0.805370  0.541090  1.0  0.2632
  C  C312  1  0.931130  0.613040  0.983100  1.0  0.0437
  C  C313  1  0.283300  0.547700  0.915500  1.0  -0.1226
  C  C314  1  0.776800  0.416700  0.048700  1.0  -0.1452
  C  C315  1  0.933930  0.190140  0.310600  1.0  0.5059
  C  C316  1  0.659500  0.516600  0.077400  1.0  -0.1385
  C  C317  1  0.972700  0.728400  0.383400  1.0  -0.0998
  C  C318  1  0.823300  0.603300  0.412300  1.0  -0.0955
  C  C319  1  0.649760  0.996580  0.045900  1.0  0.0809
  C  C320  1  0.870640  0.207420  0.808700  1.0  -0.0048
  C  C321  1  0.182280  0.695940  0.272100  1.0  0.0005
  C  C322  1  0.380330  0.334750  0.258990  1.0  0.4101
  C  C323  1  0.337100  0.460400  0.966000  1.0  -0.0656
  C  C324  1  0.746500  0.952300  0.584500  1.0  -0.1234
  C  C325  1  0.023800  0.271500  0.113900  1.0  0.727
  C  C326  1  0.219400  0.646900  0.442900  1.0  -0.1043
  C  C327  1  0.150720  0.594360  0.032800  1.0  -0.0002
  C  C328  1  0.804590  0.993340  0.414680  1.0  -0.215
  C  C329  1  0.212610  0.506660  0.085320  1.0  -0.2122
  C  C330  1  0.495000  0.362000  0.367800  1.0  0.6844
  C  C331  1  0.220100  0.920100  0.121500  1.0  -0.13
  C  C332  1  0.177160  0.317220  0.196660  1.0  0.4479
  C  C333  1  0.933610  0.648050  0.940930  1.0  -0.0686
  C  C334  1  0.113240  0.707420  0.308700  1.0  -0.0042
  C  C335  1  0.828120  0.269760  0.833200  1.0  -0.1676
  C  C336  1  0.009900  0.670100  0.363700  1.0  -0.121
  C  C337  1  0.454280  0.927740  0.503700  1.0  -0.0748
  C  C338  1  0.253520  0.077260  0.107300  1.0  -0.0654
  C  C339  1  0.125200  0.620800  0.629200  1.0  0.7108
  C  C340  1  0.387130  0.488240  0.460500  1.0  0.0227
  C  C341  1  0.329700  0.381200  0.528600  1.0  -0.145
  C  C342  1  0.565330  0.690140  0.810600  1.0  0.5034
  C  C343  1  0.702000  0.666300  0.466500  1.0  -0.0813
  C  C344  1  0.121820  0.594010  0.304750  1.0  -0.0443
  C  C345  1  0.223200  0.583300  0.951300  1.0  -0.144
  C  C346  1  0.606780  0.881240  0.487800  1.0  0.0356
  C  C347  1  0.109010  0.867180  0.247400  1.0  0.202
  C  C348  1  0.978970  0.305370  0.041090  1.0  0.2695
  C  C349  1  0.849680  0.195940  0.772100  1.0  0.0005
  C  C350  1  0.561920  0.577260  0.607300  1.0  -0.0656
  C  C351  1  0.977250  0.690290  0.928610  1.0  -0.1777
  C  C352  1  0.063400  0.843900  0.173100  1.0  0.0076
  C  C353  1  0.791670  0.029870  0.450990  1.0  -0.0843
  C  C354  1  0.025930  0.834750  0.758990  1.0  0.4097
  C  C355  1  0.022750  0.309710  0.071390  1.0  -0.1782
  C  C356  1  0.746480  0.922740  0.892700  1.0  -0.0682
  C  C357  1  0.921500  0.546700  0.066500  1.0  -0.0898
  C  C358  1  0.690800  0.146900  0.942900  1.0  -0.109
  C  C359  1  0.024180  0.381240  0.987800  1.0  0.0338
  C  C360  1  0.773660  0.004380  0.496300  1.0  0.0338
  C  C361  1  0.876590  0.642150  0.736870  1.0  0.48
  C  C362  1  0.717200  0.556800  0.447400  1.0  0.0803
  C  C363  1  0.249100  0.863900  0.096900  1.0  -0.1076
  C  C364  1  0.068920  0.769760  0.333200  1.0  -0.1667
  C  C365  1  0.223580  0.030640  0.124400  1.0  -0.0547
  C  C366  1  0.919860  0.339780  0.972900  1.0  -0.1675
  C  C367  1  0.558290  0.566120  0.563700  1.0  0.2247
  C  C368  1  0.969520  0.584760  0.054800  1.0  -0.1636
  C  C369  1  0.624800  0.120800  0.129200  1.0  0.7137
  C  C370  1  0.282800  0.443200  0.552600  1.0  0.0796
  C  C371  1  0.311890  0.066120  0.063700  1.0  0.2252
  C  C372  1  0.151800  0.509200  0.606400  1.0  -0.0632
  C  C373  1  0.378620  0.469360  0.375600  1.0  -0.0516
  C  C374  1  0.078500  0.453300  0.933500  1.0  -0.0885
  C  C375  1  0.670770  0.461460  0.559800  1.0  0.0278
  C  C376  1  0.534700  0.953300  0.433500  1.0  -0.0914
  C  C377  1  0.775200  0.862000  0.867800  1.0  0.6879
  C  C378  1  0.340500  0.483400  0.922600  1.0  -0.1356
  C  C379  1  0.663500  0.099200  0.963000  1.0  -0.163
  C  C380  1  0.848200  0.490800  0.393600  1.0  -0.0625
  C  C381  1  0.732600  0.009200  0.106400  1.0  -0.0628
  C  C382  1  0.267400  0.990800  0.893600  1.0  -0.0656
  C  C383  1  0.990100  0.329900  0.636300  1.0  -0.1174
  C  C384  1  0.177900  0.560000  0.601200  1.0  -0.1359
  C  C385  1  0.409200  0.228500  0.386100  1.0  0.7245
  C  C386  1  0.660900  0.060000  0.101200  1.0  -0.135
  C  C387  1  0.403850  0.190290  0.428610  1.0  -0.1788
  C  C388  1  0.787390  0.493340  0.914680  1.0  -0.2129
  C  C389  1  0.001200  0.777100  0.369500  1.0  -0.1112
  C  C390  1  0.995410  0.979950  0.255430  1.0  0.6589
  C  C391  1  0.024700  0.658610  0.998790  1.0  0.0317
  C  C392  1  0.956300  0.170100  0.863700  1.0  -0.1237
  C  C393  1  0.621380  0.530640  0.624400  1.0  -0.0528
  C  C394  1  0.080140  0.660220  0.027100  1.0  -0.1681
  C  C395  1  0.390920  0.084760  0.554800  1.0  -0.175
  C  C396  1  0.176700  0.396700  0.587700  1.0  -0.0963
  C  C397  1  0.066070  0.809860  0.689400  1.0  0.5098
  C  C398  1  0.838900  0.896700  0.087700  1.0  -0.094
  C  C399  1  0.030480  0.415240  0.945200  1.0  -0.1626
  C  C400  1  0.542700  0.038800  0.537600  1.0  -0.0953
  C  C401  1  0.976200  0.728500  0.886100  1.0  0.7267
  C  C402  1  0.776410  0.367180  0.747400  1.0  0.1996
  C  C403  1  0.261700  0.579900  0.378500  1.0  -0.131
  C  C404  1  0.123410  0.357850  0.263130  1.0  0.4791
  C  C405  1  0.767870  0.940060  0.503800  1.0  -0.0328
  C  C406  1  0.068870  0.386960  0.016900  1.0  0.0417
  C  C407  1  0.692240  0.503420  0.454100  1.0  0.0775
  C  C408  1  0.204330  0.068040  0.577500  1.0  0.2095
  C  C409  1  0.127500  0.159000  0.936600  1.0  -0.127
  C  C410  1  0.880900  0.538800  0.037600  1.0  -0.0994
  C  C411  1  0.749300  0.030800  0.898400  1.0  -0.005
  C  C412  1  0.795400  0.552300  0.417500  1.0  0.0508
  C  C413  1  0.234800  0.052300  0.917500  1.0  0.0489
  C  C414  1  0.208330  0.970130  0.549010  1.0  -0.083
  C  C415  1  0.596150  0.809710  0.571390  1.0  -0.1785
  C  C416  1  0.790100  0.363900  0.596900  1.0  -0.1047
  C  C417  1  0.614830  0.506140  0.489400  1.0  -0.2748
  C  C418  1  0.890990  0.132820  0.752600  1.0  0.2001
  C  C419  1  0.307760  0.496580  0.545900  1.0  0.0802
  C  C420  1  0.716700  0.452300  0.084500  1.0  -0.1214
  C  C421  1  0.826090  0.019720  0.367300  1.0  0.6788
  C  C422  1  0.080400  0.656100  0.326900  1.0  0.0067
  C  C423  1  0.979420  0.094010  0.804750  1.0  -0.044
  C  C424  1  0.849870  0.431960  0.922500  1.0  0.2088
  C  C425  1  0.505000  0.638000  0.632200  1.0  0.6855
  C  C426  1  0.849280  0.405640  0.967200  1.0  -0.0012
  C  C427  1  0.527270  0.886960  0.516900  1.0  0.0465
  C  C428  1  0.682100  0.841390  0.501210  1.0  0.0305
  C  C429  1  0.664130  0.988240  0.960500  1.0  0.023
  C  C430  1  0.975820  0.618760  0.012200  1.0  0.0355
  C  C431  1  0.129360  0.792580  0.191300  1.0  -0.0044
  C  C432  1  0.936600  0.156100  0.826900  1.0  0.0085
  C  C433  1  0.389630  0.006140  0.989400  1.0  -0.2691
  C  C434  1  0.974070  0.165250  0.241010  1.0  0.4092
  N  N435  1  0.177850  0.362860  0.222840  1.0  -0.5198
  N  N436  1  0.545330  0.709740  0.741800  1.0  -0.3872
  N  N437  1  0.093260  0.313320  0.262760  1.0  -0.3281
  N  N438  1  0.127860  0.287980  0.218100  1.0  -0.2908
  N  N439  1  0.012740  0.864590  0.797930  1.0  -0.4262
  N  N440  1  0.633940  0.212020  0.281900  1.0  -0.2915
  N  N441  1  0.236450  0.862860  0.722840  1.0  -0.5215
  N  N442  1  0.220290  0.307110  0.152510  1.0  -0.6566
  N  N443  1  0.491700  0.273380  0.210820  1.0  -0.3216
  N  N444  1  0.366060  0.787980  0.718100  1.0  -0.2891
  N  N445  1  0.800520  0.107450  0.199510  1.0  -0.6452
  N  N446  1  0.024100  0.773380  0.710820  1.0  -0.3213
  N  N447  1  0.199480  0.892550  0.800490  1.0  -0.6442
  N  N448  1  0.987260  0.135410  0.202070  1.0  -0.4246
  N  N449  1  0.454670  0.290260  0.258200  1.0  -0.3857
  N  N450  1  0.763550  0.137140  0.277160  1.0  -0.5192
  N  N451  1  0.929360  0.150210  0.283070  1.0  -0.5112
  N  N452  1  0.892520  0.607450  0.699510  1.0  -0.6465
  N  N453  1  0.551410  0.689370  0.857010  1.0  -0.6635
  N  N454  1  0.070640  0.849790  0.716930  1.0  -0.5084
  N  N455  1  0.330660  0.813320  0.762760  1.0  -0.3255
  N  N456  1  0.320090  0.807110  0.652510  1.0  -0.6547
  N  N457  1  0.107480  0.392550  0.300490  1.0  -0.6484
  N  N458  1  0.872140  0.712020  0.781900  1.0  -0.2906
  N  N459  1  0.003130  0.209740  0.241800  1.0  -0.3862
  N  N460  1  0.324740  0.364590  0.297930  1.0  -0.4259
  N  N461  1  0.448590  0.310630  0.142990  1.0  -0.6654
  N  N462  1  0.362640  0.349790  0.216930  1.0  -0.5104
  N  N463  1  0.097790  0.810630  0.642990  1.0  -0.6665
  N  N464  1  0.902210  0.189370  0.357010  1.0  -0.6633
  N  N465  1  0.975900  0.226620  0.289180  1.0  -0.3211
  N  N466  1  0.508300  0.726620  0.789180  1.0  -0.3194
  N  N467  1  0.996870  0.790260  0.758200  1.0  -0.3857
  N  N468  1  0.822150  0.637140  0.777160  1.0  -0.5223
  N  N469  1  0.675260  0.635410  0.702070  1.0  -0.4258
  N  N470  1  0.637360  0.650210  0.783070  1.0  -0.5097
  N  N471  1  0.679910  0.192890  0.347490  1.0  -0.6525
  N  N472  1  0.779710  0.692890  0.847490  1.0  -0.655
  N  N473  1  0.906740  0.686680  0.737240  1.0  -0.3268
  N  N474  1  0.669340  0.186680  0.237240  1.0  -0.3308
  O  O475  1  0.170230  0.010050  0.665290  1.0  -0.5962
  O  O476  1  0.654160  0.726650  0.622230  1.0  -0.5859
  O  O477  1  0.665670  0.125200  0.153860  1.0  -0.5646
  O  O478  1  0.481190  0.353730  0.330690  1.0  -0.5978
  O  O479  1  0.801260  0.524240  0.742240  1.0  -0.6133
  O  O480  1  0.838550  0.073690  0.361810  1.0  -0.5895
  O  O481  1  0.829770  0.989950  0.334710  1.0  -0.5979
  O  O482  1  0.198740  0.475760  0.257760  1.0  -0.6149
  O  O483  1  0.165610  0.146270  0.169310  1.0  -0.5986
  O  O484  1  0.066090  0.733730  0.946490  1.0  -0.5017
  O  O485  1  0.154430  0.510050  0.165290  1.0  -0.5974
  O  O486  1  0.053050  0.287610  0.141690  1.0  -0.6024
  O  O487  1  0.546050  0.316630  0.385270  1.0  -0.5667
  O  O488  1  0.946950  0.712390  0.858310  1.0  -0.6025
  O  O489  1  0.342370  0.114950  0.044710  1.0  -0.5417
  O  O490  1  0.334330  0.874800  0.846140  1.0  -0.5633
  O  O491  1  0.345840  0.273350  0.377770  1.0  -0.5854
  O  O492  1  0.196640  0.101750  0.613370  1.0  -0.5401
  O  O493  1  0.557880  0.168640  0.124600  1.0  -0.593
  O  O494  1  0.932260  0.024240  0.242240  1.0  -0.6162
  O  O495  1  0.010340  0.991130  0.289590  1.0  -0.6279
  O  O496  1  0.933910  0.266270  0.053510  1.0  -0.503
  O  O497  1  0.517650  0.787610  0.641690  1.0  -0.5998
  O  O498  1  0.291060  0.508870  0.210410  1.0  -0.6265
  O  O499  1  0.545980  0.100880  0.066960  1.0  -0.5112
  O  O500  1  0.286180  0.600880  0.566960  1.0  -0.5098
  O  O501  1  0.708940  0.491130  0.789590  1.0  -0.626
  O  O502  1  0.161450  0.926310  0.638190  1.0  -0.5887
  O  O503  1  0.518810  0.646270  0.669310  1.0  -0.5997
  O  O504  1  0.055270  0.625200  0.653860  1.0  -0.5644
  O  O505  1  0.706130  0.378590  0.781950  1.0  -0.5195
  O  O506  1  0.996960  0.226650  0.122230  1.0  -0.5855
  O  O507  1  0.497970  0.614950  0.544710  1.0  -0.5348
  O  O508  1  0.482350  0.212390  0.358310  1.0  -0.5991
  O  O509  1  0.088240  0.601750  0.113370  1.0  -0.5384
  O  O510  1  0.003040  0.773350  0.877770  1.0  -0.5872
  O  O511  1  0.866670  0.121410  0.718050  1.0  -0.5202
  O  O512  1  0.502030  0.385050  0.455290  1.0  -0.5373
  O  O513  1  0.442120  0.831360  0.875400  1.0  -0.5925
  O  O514  1  0.834390  0.853730  0.830690  1.0  -0.5977
  O  O515  1  0.253690  0.233730  0.446490  1.0  -0.5001
  O  O516  1  0.845570  0.489950  0.834710  1.0  -0.5994
  O  O517  1  0.454020  0.899120  0.933040  1.0  -0.5106
  O  O518  1  0.944730  0.374800  0.346140  1.0  -0.5654
  O  O519  1  0.989660  0.008870  0.710410  1.0  -0.6291
  O  O520  1  0.274050  0.426310  0.138190  1.0  -0.5905
  O  O521  1  0.133330  0.878590  0.281950  1.0  -0.5202
  O  O522  1  0.746310  0.766270  0.553510  1.0  -0.5005
  O  O523  1  0.657630  0.885050  0.955290  1.0  -0.5385
  O  O524  1  0.851120  0.331360  0.375400  1.0  -0.5912
  O  O525  1  0.803360  0.898250  0.386630  1.0  -0.5437
  O  O526  1  0.293870  0.621410  0.218050  1.0  -0.5207
  O  O527  1  0.247950  0.183370  0.114730  1.0  -0.5674
  O  O528  1  0.148880  0.668640  0.624600  1.0  -0.5942
  O  O529  1  0.725950  0.573690  0.861810  1.0  -0.5899
  O  O530  1  0.752050  0.816630  0.885270  1.0  -0.565
  O  O531  1  0.713820  0.399120  0.433040  1.0  -0.5092
  O  O532  1  0.911760  0.398250  0.886630  1.0  -0.538
  O  O533  1  0.453950  0.683370  0.614730  1.0  -0.5691
  O  O534  1  0.067740  0.975760  0.757760  1.0  -0.6115
