# generated using pymatgen
data_LaH12(C3O2)3
_symmetry_space_group_name_H-M   'P 1'
_cell_length_a   9.23900000
_cell_length_b   9.79000000
_cell_length_c   10.70900000
_cell_angle_alpha   68.04000000
_cell_angle_beta   84.49000000
_cell_angle_gamma   62.01000000
_symmetry_Int_Tables_number   1
_chemical_formula_structural   LaH12(C3O2)3
_chemical_formula_sum   'La2 H24 C18 O12'
_cell_volume   789.52300814
_cell_formula_units_Z   2
loop_
 _symmetry_equiv_pos_site_id
 _symmetry_equiv_pos_as_xyz
  1  'x, y, z'
loop_
 _atom_site_type_symbol
 _atom_site_label
 _atom_site_symmetry_multiplicity
 _atom_site_fract_x
 _atom_site_fract_y
 _atom_site_fract_z
 _atom_site_occupancy
 _atom_site_charge
  La  La1  1  0.775300  0.456200  0.015900  1.0  2.161
  La  La2  1  0.224700  0.543800  0.984100  1.0  2.1613
  H  H3  1  0.113000  0.268000  0.436000  1.0  0.1201
  H  H4  1  0.170000  0.402000  0.348000  1.0  0.1207
  H  H5  1  0.867000  0.483000  0.468000  1.0  0.0699
  H  H6  1  0.915000  0.619000  0.371000  1.0  0.0729
  H  H7  1  0.361000  0.619000  0.374000  1.0  0.1005
  H  H8  1  0.538000  0.473000  0.374000  1.0  0.1161
  H  H9  1  0.634000  0.661000  0.248000  1.0  0.0723
  H  H10  1  0.577000  0.687000  0.386000  1.0  0.0645
  H  H11  1  0.381000  0.898000  0.128000  1.0  0.0723
  H  H12  1  0.325000  0.924000  0.263000  1.0  0.069
  H  H13  1  0.567000  0.958000  0.276000  1.0  0.1165
  H  H14  1  0.598000  0.957000  0.125000  1.0  0.1169
  H  H15  1  0.887000  0.732000  0.564000  1.0  0.1202
  H  H16  1  0.830000  0.598000  0.652000  1.0  0.1201
  H  H17  1  0.133000  0.517000  0.532000  1.0  0.0699
  H  H18  1  0.085000  0.381000  0.629000  1.0  0.071
  H  H19  1  0.639000  0.381000  0.626000  1.0  0.1006
  H  H20  1  0.462000  0.527000  0.626000  1.0  0.1218
  H  H21  1  0.366000  0.339000  0.752000  1.0  0.0751
  H  H22  1  0.423000  0.313000  0.614000  1.0  0.0651
  H  H23  1  0.619000  0.102000  0.872000  1.0  0.075
  H  H24  1  0.675000  0.076000  0.737000  1.0  0.0691
  H  H25  1  0.433000  0.042000  0.724000  1.0  0.1169
  H  H26  1  0.402000  0.043000  0.875000  1.0  0.1168
  C  C27  1  0.986700  0.405300  0.252000  1.0  0.7967
  C  C28  1  0.074600  0.383700  0.374800  1.0  -0.2957
  C  C29  1  0.957600  0.505200  0.439800  1.0  -0.0737
  C  C30  1  0.400200  0.588000  0.194800  1.0  0.8202
  C  C31  1  0.456400  0.588600  0.321900  1.0  -0.3486
  C  C32  1  0.537000  0.700600  0.295000  1.0  -0.076
  C  C33  1  0.422800  0.883900  0.215200  1.0  -0.0707
  C  C34  1  0.514600  0.985200  0.190500  1.0  -0.3128
  C  C35  1  0.407400  0.171200  0.125000  1.0  0.7319
  C  C36  1  0.013300  0.594700  0.748000  1.0  0.7964
  C  C37  1  0.925400  0.616300  0.625200  1.0  -0.3066
  C  C38  1  0.042400  0.494800  0.560200  1.0  -0.0732
  C  C39  1  0.599800  0.412000  0.805200  1.0  0.8197
  C  C40  1  0.543600  0.411400  0.678100  1.0  -0.3475
  C  C41  1  0.463000  0.299400  0.705000  1.0  -0.076
  C  C42  1  0.577200  0.116100  0.784800  1.0  -0.0714
  C  C43  1  0.485400  0.014800  0.809500  1.0  -0.3106
  C  C44  1  0.592600  0.828800  0.875000  1.0  0.7313
  O  O45  1  0.022000  0.468200  0.134600  1.0  -0.8072
  O  O46  1  0.872500  0.365800  0.266300  1.0  -0.7155
  O  O47  1  0.501000  0.551000  0.110200  1.0  -0.8108
  O  O48  1  0.422000  0.265600  0.173000  1.0  -0.7026
  O  O49  1  0.252400  0.622000  0.176800  1.0  -0.7219
  O  O50  1  0.308500  0.232900  0.022700  1.0  -0.6832
  O  O51  1  0.978000  0.531800  0.865400  1.0  -0.809
  O  O52  1  0.127500  0.634200  0.733700  1.0  -0.7177
  O  O53  1  0.499000  0.449000  0.889800  1.0  -0.8118
  O  O54  1  0.578000  0.734400  0.827000  1.0  -0.7022
  O  O55  1  0.747600  0.378000  0.823200  1.0  -0.7226
  O  O56  1  0.691500  0.767100  0.977300  1.0  -0.6847
