# generated using pymatgen
data_LaH12(C3O2)3
_symmetry_space_group_name_H-M   'P 1'
_cell_length_a   9.24900000
_cell_length_b   9.80700000
_cell_length_c   10.73000000
_cell_angle_alpha   68.00000000
_cell_angle_beta   84.47000000
_cell_angle_gamma   62.05000000
_symmetry_Int_Tables_number   1
_chemical_formula_structural   LaH12(C3O2)3
_chemical_formula_sum   'La2 H24 C18 O12'
_cell_volume   793.39987831
_cell_formula_units_Z   2
loop_
 _symmetry_equiv_pos_site_id
 _symmetry_equiv_pos_as_xyz
  1  'x, y, z'
loop_
 _atom_site_type_symbol
 _atom_site_label
 _atom_site_symmetry_multiplicity
 _atom_site_fract_x
 _atom_site_fract_y
 _atom_site_fract_z
 _atom_site_occupancy
 _atom_site_charge
  La  La1  1  0.224780  0.043740  0.984230  1.0  2.1645
  La  La2  1  0.775220  0.956260  0.015770  1.0  2.1645
  H  H3  1  0.362300  0.125900  0.371800  1.0  0.1132
  H  H4  1  0.533800  0.975600  0.377300  1.0  0.1311
  H  H5  1  0.632800  0.162100  0.246100  1.0  0.0737
  H  H6  1  0.576400  0.189100  0.381200  1.0  0.0665
  H  H7  1  0.328900  0.424700  0.264800  1.0  0.0676
  H  H8  1  0.382200  0.396700  0.129200  1.0  0.0736
  H  H9  1  0.600900  0.450300  0.133700  1.0  0.1192
  H  H10  1  0.565600  0.460300  0.276400  1.0  0.1116
  H  H11  1  0.831800  0.096100  0.651000  1.0  0.1228
  H  H12  1  0.886000  0.229200  0.560500  1.0  0.1275
  H  H13  1  0.086600  0.881700  0.626900  1.0  0.0719
  H  H14  1  0.133700  0.017800  0.531200  1.0  0.0688
  H  H15  1  0.637700  0.874100  0.628200  1.0  0.1109
  H  H16  1  0.466200  0.024400  0.622700  1.0  0.13
  H  H17  1  0.367200  0.837900  0.753900  1.0  0.0774
  H  H18  1  0.423600  0.810900  0.618800  1.0  0.0675
  H  H19  1  0.671100  0.575300  0.735200  1.0  0.0676
  H  H20  1  0.617800  0.603300  0.870800  1.0  0.0771
  H  H21  1  0.399100  0.549700  0.866300  1.0  0.1189
  H  H22  1  0.434400  0.539700  0.723600  1.0  0.1122
  H  H23  1  0.168200  0.903900  0.349000  1.0  0.1214
  H  H24  1  0.114000  0.770800  0.439500  1.0  0.129
  H  H25  1  0.913400  0.118300  0.373100  1.0  0.0718
  H  H26  1  0.866300  0.982200  0.468800  1.0  0.0697
  C  C27  1  0.400400  0.087800  0.195000  1.0  0.8217
  C  C28  1  0.456400  0.088600  0.321500  1.0  -0.3445
  C  C29  1  0.537800  0.200200  0.295300  1.0  -0.0793
  C  C30  1  0.422600  0.384100  0.215100  1.0  -0.0786
  C  C31  1  0.514100  0.485400  0.190600  1.0  -0.3412
  C  C32  1  0.407900  0.671400  0.125300  1.0  0.7466
  C  C33  1  0.013700  0.093800  0.748600  1.0  0.8
  C  C34  1  0.925800  0.115900  0.625200  1.0  -0.3527
  C  C35  1  0.042400  0.994300  0.560200  1.0  -0.0707
  C  C36  1  0.599600  0.912200  0.805000  1.0  0.8209
  C  C37  1  0.543600  0.911400  0.678500  1.0  -0.3459
  C  C38  1  0.462200  0.799800  0.704700  1.0  -0.0802
  C  C39  1  0.577400  0.615900  0.784900  1.0  -0.0778
  C  C40  1  0.485900  0.514600  0.809400  1.0  -0.3366
  C  C41  1  0.592100  0.328600  0.874700  1.0  0.7475
  C  C42  1  0.986300  0.906200  0.251400  1.0  0.7988
  C  C43  1  0.074200  0.884100  0.374800  1.0  -0.3512
  C  C44  1  0.957600  0.005700  0.439800  1.0  -0.0684
  O  O45  1  0.251900  0.122300  0.176400  1.0  -0.7239
  O  O46  1  0.500500  0.051000  0.109900  1.0  -0.8079
  O  O47  1  0.421700  0.765900  0.172700  1.0  -0.6914
  O  O48  1  0.308100  0.733700  0.022500  1.0  -0.6827
  O  O49  1  0.127400  0.133600  0.733800  1.0  -0.7124
  O  O50  1  0.977700  0.031700  0.865500  1.0  -0.8023
  O  O51  1  0.748100  0.877700  0.823600  1.0  -0.7245
  O  O52  1  0.499500  0.949000  0.890100  1.0  -0.8091
  O  O53  1  0.578300  0.234100  0.827300  1.0  -0.69
  O  O54  1  0.691900  0.266300  0.977500  1.0  -0.6832
  O  O55  1  0.872600  0.866400  0.266200  1.0  -0.7099
  O  O56  1  0.022300  0.968300  0.134500  1.0  -0.8011
