# generated using pymatgen
data_CdH12C10N7
_symmetry_space_group_name_H-M   'P 1'
_cell_length_a   11.99400000
_cell_length_b   12.36700000
_cell_length_c   12.55200000
_cell_angle_alpha   90.00000000
_cell_angle_beta   116.36000000
_cell_angle_gamma   90.00000000
_symmetry_Int_Tables_number   1
_chemical_formula_structural   CdH12C10N7
_chemical_formula_sum   'Cd4 H48 C40 N28'
_cell_volume   1668.24559773
_cell_formula_units_Z   4
loop_
 _symmetry_equiv_pos_site_id
 _symmetry_equiv_pos_as_xyz
  1  'x, y, z'
loop_
 _atom_site_type_symbol
 _atom_site_label
 _atom_site_symmetry_multiplicity
 _atom_site_fract_x
 _atom_site_fract_y
 _atom_site_fract_z
 _atom_site_occupancy
 _atom_site_charge
  Cd  Cd1  1  0.500000  0.000000  0.500000  1.0  0.8917
  Cd  Cd2  1  0.500000  0.500000  0.000000  1.0  0.8917
  Cd  Cd3  1  0.000000  0.000000  0.000000  1.0  0.8109
  Cd  Cd4  1  0.000000  0.500000  0.500000  1.0  0.8109
  H  H5  1  0.236700  0.932900  0.260500  1.0  0.0779
  H  H6  1  0.269200  0.067700  0.238000  1.0  0.0745
  H  H7  1  0.041000  0.885400  0.255400  1.0  0.0803
  H  H8  1  0.926700  0.985700  0.227100  1.0  0.0671
  H  H9  1  0.971200  0.174000  0.195200  1.0  0.0837
  H  H10  1  0.117600  0.207300  0.203100  1.0  0.0799
  H  H11  1  0.245300  0.978800  0.548900  1.0  0.0767
  H  H12  1  0.222100  0.881700  0.438100  1.0  0.0747
  H  H13  1  0.297800  0.203500  0.387100  1.0  0.077
  H  H14  1  0.287800  0.166200  0.518200  1.0  0.0772
  H  H15  1  0.957000  0.120100  0.374200  1.0  0.0815
  H  H16  1  0.092700  0.117900  0.510800  1.0  0.0792
  H  H17  1  0.763300  0.432900  0.239500  1.0  0.0793
  H  H18  1  0.730800  0.567700  0.262000  1.0  0.0742
  H  H19  1  0.959000  0.385400  0.244600  1.0  0.0806
  H  H20  1  0.073300  0.485700  0.272900  1.0  0.0699
  H  H21  1  0.028800  0.674000  0.304800  1.0  0.0819
  H  H22  1  0.882400  0.707300  0.296900  1.0  0.08
  H  H23  1  0.754700  0.478800  0.951100  1.0  0.077
  H  H24  1  0.777900  0.381700  0.061900  1.0  0.0751
  H  H25  1  0.702200  0.703500  0.112900  1.0  0.0769
  H  H26  1  0.712200  0.666200  0.981800  1.0  0.077
  H  H27  1  0.043000  0.620100  0.125800  1.0  0.0827
  H  H28  1  0.907300  0.617900  0.989200  1.0  0.079
  H  H29  1  0.763300  0.067100  0.739500  1.0  0.0782
  H  H30  1  0.730800  0.932300  0.762000  1.0  0.0747
  H  H31  1  0.959000  0.114600  0.744600  1.0  0.0808
  H  H32  1  0.073300  0.014300  0.772900  1.0  0.0697
  H  H33  1  0.028800  0.826000  0.804800  1.0  0.0818
  H  H34  1  0.882400  0.792700  0.796900  1.0  0.0812
  H  H35  1  0.754700  0.021200  0.451100  1.0  0.0768
  H  H36  1  0.777900  0.118300  0.561900  1.0  0.0749
  H  H37  1  0.702200  0.796500  0.612900  1.0  0.0772
  H  H38  1  0.712200  0.833800  0.481800  1.0  0.0766
  H  H39  1  0.043000  0.879900  0.625800  1.0  0.0824
  H  H40  1  0.907300  0.882100  0.489200  1.0  0.0785
  H  H41  1  0.236700  0.567100  0.760500  1.0  0.0783
  H  H42  1  0.269200  0.432300  0.738000  1.0  0.0745
  H  H43  1  0.041000  0.614600  0.755400  1.0  0.081
  H  H44  1  0.926700  0.514300  0.727100  1.0  0.067
  H  H45  1  0.971200  0.326000  0.695200  1.0  0.0827
  H  H46  1  0.117600  0.292700  0.703100  1.0  0.0798
  H  H47  1  0.245300  0.521200  0.048900  1.0  0.0761
  H  H48  1  0.222100  0.618300  0.938100  1.0  0.0752
  H  H49  1  0.297800  0.296500  0.887100  1.0  0.0765
  H  H50  1  0.287800  0.333800  0.018200  1.0  0.0776
  H  H51  1  0.957000  0.379900  0.874200  1.0  0.0818
  H  H52  1  0.092700  0.382100  0.010800  1.0  0.0796
  C  C53  1  0.378600  0.814800  0.138600  1.0  -0.1826
  C  C54  1  0.253900  0.846200  0.074500  1.0  0.3417
  C  C55  1  0.446400  0.865700  0.249400  1.0  0.3199
  C  C56  1  0.431200  0.731100  0.102100  1.0  0.3335
  C  C57  1  0.222400  0.016700  0.275300  1.0  0.0519
  C  C58  1  0.025400  0.969200  0.269200  1.0  0.0064
  C  C59  1  0.069400  0.155500  0.238200  1.0  0.0037
  C  C60  1  0.208700  0.965300  0.454300  1.0  0.0069
  C  C61  1  0.251700  0.151100  0.424000  1.0  0.0328
  C  C62  1  0.055600  0.103100  0.416400  1.0  0.0582
  C  C63  1  0.621400  0.314800  0.361400  1.0  -0.1819
  C  C64  1  0.746100  0.346200  0.425500  1.0  0.3403
  C  C65  1  0.553600  0.365700  0.250600  1.0  0.3197
  C  C66  1  0.568800  0.231100  0.397900  1.0  0.3331
  C  C67  1  0.777600  0.516700  0.224700  1.0  0.0542
  C  C68  1  0.974600  0.469200  0.230800  1.0  0.0052
  C  C69  1  0.930600  0.655500  0.261800  1.0  0.0039
  C  C70  1  0.791300  0.465300  0.045700  1.0  0.0064
  C  C71  1  0.748300  0.651100  0.076000  1.0  0.0335
  C  C72  1  0.944400  0.603100  0.083600  1.0  0.0574
  C  C73  1  0.621400  0.185200  0.861400  1.0  -0.1823
  C  C74  1  0.746100  0.153800  0.925500  1.0  0.34
  C  C75  1  0.553600  0.134300  0.750600  1.0  0.3197
  C  C76  1  0.568800  0.268900  0.897900  1.0  0.3329
  C  C77  1  0.777600  0.983300  0.724700  1.0  0.0543
  C  C78  1  0.974600  0.030800  0.730800  1.0  0.0065
  C  C79  1  0.930600  0.844500  0.761800  1.0  0.0044
  C  C80  1  0.791300  0.034700  0.545700  1.0  0.0073
  C  C81  1  0.748300  0.848900  0.576000  1.0  0.0334
  C  C82  1  0.944400  0.896900  0.583600  1.0  0.056
  C  C83  1  0.378600  0.685200  0.638600  1.0  -0.1828
  C  C84  1  0.253900  0.653800  0.574500  1.0  0.3411
  C  C85  1  0.446400  0.634300  0.749400  1.0  0.3199
  C  C86  1  0.431200  0.768900  0.602100  1.0  0.3329
  C  C87  1  0.222400  0.483300  0.775300  1.0  0.0518
  C  C88  1  0.025400  0.530800  0.769200  1.0  0.0068
  C  C89  1  0.069400  0.344500  0.738200  1.0  0.0042
  C  C90  1  0.208700  0.534700  0.954300  1.0  0.0066
  C  C91  1  0.251700  0.348900  0.924000  1.0  0.0326
  C  C92  1  0.055600  0.396900  0.916400  1.0  0.0583
  N  N93  1  0.153400  0.877000  0.030500  1.0  -0.5318
  N  N94  1  0.495200  0.912300  0.337200  1.0  -0.4904
  N  N95  1  0.475100  0.662300  0.071800  1.0  -0.5139
  N  N96  1  0.087700  0.039900  0.213400  1.0  -0.2557
  N  N97  1  0.278100  0.036200  0.405900  1.0  -0.261
  N  N98  1  0.074700  0.989400  0.397500  1.0  -0.3398
  N  N99  1  0.117800  0.175700  0.366400  1.0  -0.3607
  N  N100  1  0.846600  0.377000  0.469500  1.0  -0.5306
  N  N101  1  0.504800  0.412300  0.162800  1.0  -0.4908
  N  N102  1  0.524900  0.162300  0.428200  1.0  -0.5155
  N  N103  1  0.912300  0.539900  0.286600  1.0  -0.2587
  N  N104  1  0.721900  0.536200  0.094100  1.0  -0.2613
  N  N105  1  0.925300  0.489400  0.102500  1.0  -0.3412
  N  N106  1  0.882200  0.675700  0.133600  1.0  -0.3622
  N  N107  1  0.846600  0.123000  0.969500  1.0  -0.5302
  N  N108  1  0.504800  0.087700  0.662800  1.0  -0.4913
  N  N109  1  0.524900  0.337700  0.928200  1.0  -0.5121
  N  N110  1  0.912300  0.960100  0.786600  1.0  -0.2586
  N  N111  1  0.721900  0.963800  0.594100  1.0  -0.2611
  N  N112  1  0.925300  0.010600  0.602500  1.0  -0.3397
  N  N113  1  0.882200  0.824300  0.633600  1.0  -0.363
  N  N114  1  0.153400  0.623000  0.530500  1.0  -0.5321
  N  N115  1  0.495200  0.587700  0.837200  1.0  -0.4912
  N  N116  1  0.475100  0.837700  0.571800  1.0  -0.5102
  N  N117  1  0.087700  0.460100  0.713400  1.0  -0.2553
  N  N118  1  0.278100  0.463800  0.905900  1.0  -0.2609
  N  N119  1  0.074700  0.510600  0.897500  1.0  -0.3385
  N  N120  1  0.117800  0.324300  0.866400  1.0  -0.3619
