# generated using pymatgen
data_NdC7NO4
_symmetry_space_group_name_H-M   'P 1'
_cell_length_a   20.43500000
_cell_length_b   20.43500000
_cell_length_c   20.43500000
_cell_angle_alpha   90.00000000
_cell_angle_beta   90.00000000
_cell_angle_gamma   90.00000000
_symmetry_Int_Tables_number   1
_chemical_formula_structural   NdC7NO4
_chemical_formula_sum   'Nd24 C168 N24 O96'
_cell_volume   8533.43581287
_cell_formula_units_Z   24
loop_
 _symmetry_equiv_pos_site_id
 _symmetry_equiv_pos_as_xyz
  1  'x, y, z'
loop_
 _atom_site_type_symbol
 _atom_site_label
 _atom_site_symmetry_multiplicity
 _atom_site_fract_x
 _atom_site_fract_y
 _atom_site_fract_z
 _atom_site_occupancy
 _atom_site_charge
  Nd  Nd1  1  0.257680  0.356130  0.019980  1.0  2.1539
  Nd  Nd2  1  0.242320  0.643870  0.519980  1.0  2.1538
  Nd  Nd3  1  0.742320  0.856130  0.480020  1.0  2.1538
  Nd  Nd4  1  0.757680  0.143870  0.980020  1.0  2.1538
  Nd  Nd5  1  0.019980  0.257680  0.356130  1.0  2.1525
  Nd  Nd6  1  0.519980  0.242320  0.643870  1.0  2.1528
  Nd  Nd7  1  0.480020  0.742320  0.856130  1.0  2.1533
  Nd  Nd8  1  0.980020  0.757680  0.143870  1.0  2.1533
  Nd  Nd9  1  0.356130  0.019980  0.257680  1.0  2.1531
  Nd  Nd10  1  0.643870  0.519980  0.242320  1.0  2.1536
  Nd  Nd11  1  0.856130  0.480020  0.742320  1.0  2.1526
  Nd  Nd12  1  0.143870  0.980020  0.757680  1.0  2.1535
  Nd  Nd13  1  0.742320  0.643870  0.980020  1.0  2.1536
  Nd  Nd14  1  0.757680  0.356130  0.480020  1.0  2.1539
  Nd  Nd15  1  0.257680  0.143870  0.519980  1.0  2.1539
  Nd  Nd16  1  0.242320  0.856130  0.019980  1.0  2.1538
  Nd  Nd17  1  0.980020  0.742320  0.643870  1.0  2.1534
  Nd  Nd18  1  0.480020  0.757680  0.356130  1.0  2.1534
  Nd  Nd19  1  0.519980  0.257680  0.143870  1.0  2.1526
  Nd  Nd20  1  0.019980  0.242320  0.856130  1.0  2.1524
  Nd  Nd21  1  0.643870  0.980020  0.742320  1.0  2.1534
  Nd  Nd22  1  0.356130  0.480020  0.757680  1.0  2.1527
  Nd  Nd23  1  0.143870  0.519980  0.257680  1.0  2.1536
  Nd  Nd24  1  0.856130  0.019980  0.242320  1.0  2.153
  C  C25  1  0.370600  0.242600  0.059900  1.0  0.6417
  C  C26  1  0.322100  0.198700  0.027000  1.0  0.0839
  C  C27  1  0.328800  0.132300  0.022800  1.0  -0.0514
  C  C28  1  0.280100  0.095900  0.992600  1.0  0.0091
  C  C29  1  0.225600  0.128700  0.968600  1.0  -0.038
  C  C30  1  0.221600  0.195900  0.974700  1.0  0.0705
  C  C31  1  0.166300  0.236900  0.949800  1.0  0.6423
  C  C32  1  0.129400  0.757400  0.559900  1.0  0.6412
  C  C33  1  0.177900  0.801300  0.527000  1.0  0.0836
  C  C34  1  0.171200  0.867700  0.522800  1.0  -0.0503
  C  C35  1  0.219900  0.904100  0.492600  1.0  0.0096
  C  C36  1  0.274400  0.871300  0.468600  1.0  -0.0399
  C  C37  1  0.278400  0.804100  0.474700  1.0  0.0695
  C  C38  1  0.333700  0.763100  0.449800  1.0  0.6403
  C  C39  1  0.629400  0.742600  0.440100  1.0  0.641
  C  C40  1  0.677900  0.698700  0.473000  1.0  0.0835
  C  C41  1  0.671200  0.632300  0.477200  1.0  -0.0515
  C  C42  1  0.719900  0.595900  0.507400  1.0  0.0092
  C  C43  1  0.774400  0.628700  0.531400  1.0  -0.039
  C  C44  1  0.778400  0.695900  0.525300  1.0  0.0699
  C  C45  1  0.833700  0.736900  0.550200  1.0  0.6406
  C  C46  1  0.870600  0.257400  0.940100  1.0  0.6399
  C  C47  1  0.822100  0.301300  0.973000  1.0  0.0835
  C  C48  1  0.828800  0.367700  0.977200  1.0  -0.0535
  C  C49  1  0.780100  0.404100  0.007400  1.0  0.0095
  C  C50  1  0.725600  0.371300  0.031400  1.0  -0.0379
  C  C51  1  0.721600  0.304100  0.025300  1.0  0.0702
  C  C52  1  0.666300  0.263100  0.050200  1.0  0.6419
  C  C53  1  0.059900  0.370600  0.242600  1.0  0.6429
  C  C54  1  0.027000  0.322100  0.198700  1.0  0.0835
  C  C55  1  0.022800  0.328800  0.132300  1.0  -0.0472
  C  C56  1  0.992600  0.280100  0.095900  1.0  0.0094
  C  C57  1  0.968600  0.225600  0.128700  1.0  -0.0329
  C  C58  1  0.974700  0.221600  0.195900  1.0  0.0695
  C  C59  1  0.949800  0.166300  0.236900  1.0  0.6429
  C  C60  1  0.559900  0.129400  0.757400  1.0  0.6423
  C  C61  1  0.527000  0.177900  0.801300  1.0  0.0843
  C  C62  1  0.522800  0.171200  0.867700  1.0  -0.0457
  C  C63  1  0.492600  0.219900  0.904100  1.0  0.0064
  C  C64  1  0.468600  0.274400  0.871300  1.0  -0.0353
  C  C65  1  0.474700  0.278400  0.804100  1.0  0.069
  C  C66  1  0.449800  0.333700  0.763100  1.0  0.6427
  C  C67  1  0.440100  0.629400  0.742600  1.0  0.6421
  C  C68  1  0.473000  0.677900  0.698700  1.0  0.0837
  C  C69  1  0.477200  0.671200  0.632300  1.0  -0.046
  C  C70  1  0.507400  0.719900  0.595900  1.0  0.0094
  C  C71  1  0.531400  0.774400  0.628700  1.0  -0.0338
  C  C72  1  0.525300  0.778400  0.695900  1.0  0.069
  C  C73  1  0.550200  0.833700  0.736900  1.0  0.6438
  C  C74  1  0.940100  0.870600  0.257400  1.0  0.6423
  C  C75  1  0.973000  0.822100  0.301300  1.0  0.0829
  C  C76  1  0.977200  0.828800  0.367700  1.0  -0.046
  C  C77  1  0.007400  0.780100  0.404100  1.0  0.0061
  C  C78  1  0.031400  0.725600  0.371300  1.0  -0.0349
  C  C79  1  0.025300  0.721600  0.304100  1.0  0.0689
  C  C80  1  0.050200  0.666300  0.263100  1.0  0.6441
  C  C81  1  0.242600  0.059900  0.370600  1.0  0.6422
  C  C82  1  0.198700  0.027000  0.322100  1.0  0.0842
  C  C83  1  0.132300  0.022800  0.328800  1.0  -0.0508
  C  C84  1  0.095900  0.992600  0.280100  1.0  0.0046
  C  C85  1  0.128700  0.968600  0.225600  1.0  -0.0375
  C  C86  1  0.195900  0.974700  0.221600  1.0  0.0687
  C  C87  1  0.236900  0.949800  0.166300  1.0  0.6422
  C  C88  1  0.757400  0.559900  0.129400  1.0  0.6416
  C  C89  1  0.801300  0.527000  0.177900  1.0  0.0835
  C  C90  1  0.867700  0.522800  0.171200  1.0  -0.0525
  C  C91  1  0.904100  0.492600  0.219900  1.0  0.0091
  C  C92  1  0.871300  0.468600  0.274400  1.0  -0.0386
  C  C93  1  0.804100  0.474700  0.278400  1.0  0.0693
  C  C94  1  0.763100  0.449800  0.333700  1.0  0.6439
  C  C95  1  0.742600  0.440100  0.629400  1.0  0.6416
  C  C96  1  0.698700  0.473000  0.677900  1.0  0.0831
  C  C97  1  0.632300  0.477200  0.671200  1.0  -0.0527
  C  C98  1  0.595900  0.507400  0.719900  1.0  0.0052
  C  C99  1  0.628700  0.531400  0.774400  1.0  -0.037
  C  C100  1  0.695900  0.525300  0.778400  1.0  0.0692
  C  C101  1  0.736900  0.550200  0.833700  1.0  0.6427
  C  C102  1  0.257400  0.940100  0.870600  1.0  0.6412
  C  C103  1  0.301300  0.973000  0.822100  1.0  0.0854
  C  C104  1  0.367700  0.977200  0.828800  1.0  -0.0508
  C  C105  1  0.404100  0.007400  0.780100  1.0  0.0091
  C  C106  1  0.371300  0.031400  0.725600  1.0  -0.0383
  C  C107  1  0.304100  0.025300  0.721600  1.0  0.0686
  C  C108  1  0.263100  0.050200  0.666300  1.0  0.6426
  C  C109  1  0.629400  0.757400  0.940100  1.0  0.6407
  C  C110  1  0.677900  0.801300  0.973000  1.0  0.0833
  C  C111  1  0.671200  0.867700  0.977200  1.0  -0.0502
  C  C112  1  0.719900  0.904100  0.007400  1.0  0.0096
  C  C113  1  0.774400  0.871300  0.031400  1.0  -0.0396
  C  C114  1  0.778400  0.804100  0.025300  1.0  0.0692
  C  C115  1  0.833700  0.763100  0.050200  1.0  0.6408
  C  C116  1  0.870600  0.242600  0.440100  1.0  0.6407
  C  C117  1  0.822100  0.198700  0.473000  1.0  0.0839
  C  C118  1  0.828800  0.132300  0.477200  1.0  -0.0533
  C  C119  1  0.780100  0.095900  0.507400  1.0  0.0092
  C  C120  1  0.725600  0.128700  0.531400  1.0  -0.0379
  C  C121  1  0.721600  0.195900  0.525300  1.0  0.0707
  C  C122  1  0.666300  0.236900  0.550200  1.0  0.6426
  C  C123  1  0.370600  0.257400  0.559900  1.0  0.6414
  C  C124  1  0.322100  0.301300  0.527000  1.0  0.0836
  C  C125  1  0.328800  0.367700  0.522800  1.0  -0.0526
  C  C126  1  0.280100  0.404100  0.492600  1.0  0.0095
  C  C127  1  0.225600  0.371300  0.468600  1.0  -0.0381
  C  C128  1  0.221600  0.304100  0.474700  1.0  0.0701
  C  C129  1  0.166300  0.263100  0.449800  1.0  0.6426
  C  C130  1  0.129400  0.742600  0.059900  1.0  0.6413
  C  C131  1  0.177900  0.698700  0.027000  1.0  0.0837
  C  C132  1  0.171200  0.632300  0.022800  1.0  -0.0504
  C  C133  1  0.219900  0.595900  0.992600  1.0  0.0092
  C  C134  1  0.274400  0.628700  0.968600  1.0  -0.0392
  C  C135  1  0.278400  0.695900  0.974700  1.0  0.0701
  C  C136  1  0.333700  0.736900  0.949800  1.0  0.6415
  C  C137  1  0.940100  0.629400  0.757400  1.0  0.6422
  C  C138  1  0.973000  0.677900  0.801300  1.0  0.0838
  C  C139  1  0.977200  0.671200  0.867700  1.0  -0.046
  C  C140  1  0.007400  0.719900  0.904100  1.0  0.0063
  C  C141  1  0.031400  0.774400  0.871300  1.0  -0.0348
  C  C142  1  0.025300  0.778400  0.804100  1.0  0.0686
  C  C143  1  0.050200  0.833700  0.763100  1.0  0.6444
  C  C144  1  0.440100  0.870600  0.242600  1.0  0.6425
  C  C145  1  0.473000  0.822100  0.198700  1.0  0.0832
  C  C146  1  0.477200  0.828800  0.132300  1.0  -0.0464
  C  C147  1  0.507400  0.780100  0.095900  1.0  0.0096
  C  C148  1  0.531400  0.725600  0.128700  1.0  -0.0326
  C  C149  1  0.525300  0.721600  0.195900  1.0  0.0693
  C  C150  1  0.550200  0.666300  0.236900  1.0  0.6443
  C  C151  1  0.559900  0.370600  0.257400  1.0  0.6428
  C  C152  1  0.527000  0.322100  0.301300  1.0  0.0833
  C  C153  1  0.522800  0.328800  0.367700  1.0  -0.0456
  C  C154  1  0.492600  0.280100  0.404100  1.0  0.0063
  C  C155  1  0.468600  0.225600  0.371300  1.0  -0.0356
  C  C156  1  0.474700  0.221600  0.304100  1.0  0.0692
  C  C157  1  0.449800  0.166300  0.263100  1.0  0.6439
  C  C158  1  0.059900  0.129400  0.742600  1.0  0.6423
  C  C159  1  0.027000  0.177900  0.698700  1.0  0.0843
  C  C160  1  0.022800  0.171200  0.632300  1.0  -0.0471
  C  C161  1  0.992600  0.219900  0.595900  1.0  0.0092
  C  C162  1  0.968600  0.274400  0.628700  1.0  -0.034
  C  C163  1  0.974700  0.278400  0.695900  1.0  0.0694
  C  C164  1  0.949800  0.333700  0.736900  1.0  0.6432
  C  C165  1  0.757400  0.940100  0.629400  1.0  0.641
  C  C166  1  0.801300  0.973000  0.677900  1.0  0.0837
  C  C167  1  0.867700  0.977200  0.671200  1.0  -0.0525
  C  C168  1  0.904100  0.007400  0.719900  1.0  0.0094
  C  C169  1  0.871300  0.031400  0.774400  1.0  -0.0381
  C  C170  1  0.804100  0.025300  0.778400  1.0  0.0688
  C  C171  1  0.763100  0.050200  0.833700  1.0  0.644
  C  C172  1  0.242600  0.440100  0.870600  1.0  0.6419
  C  C173  1  0.198700  0.473000  0.822100  1.0  0.0849
  C  C174  1  0.132300  0.477200  0.828800  1.0  -0.0509
  C  C175  1  0.095900  0.507400  0.780100  1.0  0.0047
  C  C176  1  0.128700  0.531400  0.725600  1.0  -0.037
  C  C177  1  0.195900  0.525300  0.721600  1.0  0.0688
  C  C178  1  0.236900  0.550200  0.666300  1.0  0.6427
  C  C179  1  0.257400  0.559900  0.370600  1.0  0.6414
  C  C180  1  0.301300  0.527000  0.322100  1.0  0.0847
  C  C181  1  0.367700  0.522800  0.328800  1.0  -0.0513
  C  C182  1  0.404100  0.492600  0.280100  1.0  0.009
  C  C183  1  0.371300  0.468600  0.225600  1.0  -0.0391
  C  C184  1  0.304100  0.474700  0.221600  1.0  0.0686
  C  C185  1  0.263100  0.449800  0.166300  1.0  0.6436
  C  C186  1  0.742600  0.059900  0.129400  1.0  0.6424
  C  C187  1  0.698700  0.027000  0.177900  1.0  0.0829
  C  C188  1  0.632300  0.022800  0.171200  1.0  -0.0519
  C  C189  1  0.595900  0.992600  0.219900  1.0  0.0049
  C  C190  1  0.628700  0.968600  0.274400  1.0  -0.0376
  C  C191  1  0.695900  0.974700  0.278400  1.0  0.0692
  C  C192  1  0.736900  0.949800  0.333700  1.0  0.6438
  N  N193  1  0.269400  0.230800  0.004500  1.0  -0.5148
  N  N194  1  0.230600  0.769200  0.504500  1.0  -0.5139
  N  N195  1  0.730600  0.730800  0.495500  1.0  -0.5141
  N  N196  1  0.769400  0.269200  0.995500  1.0  -0.5139
  N  N197  1  0.004500  0.269400  0.230800  1.0  -0.5202
  N  N198  1  0.504500  0.230600  0.769200  1.0  -0.5194
  N  N199  1  0.495500  0.730600  0.730800  1.0  -0.5197
  N  N200  1  0.995500  0.769400  0.269200  1.0  -0.5195
  N  N201  1  0.230800  0.004500  0.269400  1.0  -0.5133
  N  N202  1  0.769200  0.504500  0.230600  1.0  -0.5154
  N  N203  1  0.730800  0.495500  0.730600  1.0  -0.5137
  N  N204  1  0.269200  0.995500  0.769400  1.0  -0.5151
  N  N205  1  0.730600  0.769200  0.995500  1.0  -0.5137
  N  N206  1  0.769400  0.230800  0.495500  1.0  -0.5144
  N  N207  1  0.269400  0.269200  0.504500  1.0  -0.514
  N  N208  1  0.230600  0.730800  0.004500  1.0  -0.5145
  N  N209  1  0.995500  0.730600  0.769200  1.0  -0.5193
  N  N210  1  0.495500  0.769400  0.230800  1.0  -0.52
  N  N211  1  0.504500  0.269400  0.269200  1.0  -0.5196
  N  N212  1  0.004500  0.230600  0.730800  1.0  -0.5199
  N  N213  1  0.769200  0.995500  0.730600  1.0  -0.5155
  N  N214  1  0.230800  0.495500  0.769400  1.0  -0.5133
  N  N215  1  0.269200  0.504500  0.269400  1.0  -0.5147
  N  N216  1  0.730800  0.004500  0.230600  1.0  -0.5139
  O  O217  1  0.355500  0.302800  0.064600  1.0  -0.7277
  O  O218  1  0.423100  0.218100  0.080100  1.0  -0.7656
  O  O219  1  0.123300  0.211400  0.914800  1.0  -0.7727
  O  O220  1  0.168000  0.297100  0.966200  1.0  -0.733
  O  O221  1  0.144500  0.697200  0.564600  1.0  -0.7274
  O  O222  1  0.076900  0.781900  0.580100  1.0  -0.766
  O  O223  1  0.376700  0.788600  0.414800  1.0  -0.7719
  O  O224  1  0.332000  0.702900  0.466200  1.0  -0.7319
  O  O225  1  0.644500  0.802800  0.435400  1.0  -0.729
  O  O226  1  0.576900  0.718100  0.419900  1.0  -0.7657
  O  O227  1  0.876700  0.711400  0.585200  1.0  -0.7724
  O  O228  1  0.832000  0.797100  0.533800  1.0  -0.7309
  O  O229  1  0.855500  0.197200  0.935400  1.0  -0.7288
  O  O230  1  0.923100  0.281900  0.919900  1.0  -0.7649
  O  O231  1  0.623300  0.288600  0.085200  1.0  -0.7729
  O  O232  1  0.668000  0.202900  0.033800  1.0  -0.7314
  O  O233  1  0.064600  0.355500  0.302800  1.0  -0.7268
  O  O234  1  0.080100  0.423100  0.218100  1.0  -0.763
  O  O235  1  0.914800  0.123300  0.211400  1.0  -0.7715
  O  O236  1  0.966200  0.168000  0.297100  1.0  -0.7325
  O  O237  1  0.564600  0.144500  0.697200  1.0  -0.7249
  O  O238  1  0.580100  0.076900  0.781900  1.0  -0.7622
  O  O239  1  0.414800  0.376700  0.788600  1.0  -0.7707
  O  O240  1  0.466200  0.332000  0.702900  1.0  -0.7346
  O  O241  1  0.435400  0.644500  0.802800  1.0  -0.7258
  O  O242  1  0.419900  0.576900  0.718100  1.0  -0.7635
  O  O243  1  0.585200  0.876700  0.711400  1.0  -0.77
  O  O244  1  0.533800  0.832000  0.797100  1.0  -0.734
  O  O245  1  0.935400  0.855500  0.197200  1.0  -0.7249
  O  O246  1  0.919900  0.923100  0.281900  1.0  -0.7615
  O  O247  1  0.085200  0.623300  0.288600  1.0  -0.7701
  O  O248  1  0.033800  0.668000  0.202900  1.0  -0.7332
  O  O249  1  0.302800  0.064600  0.355500  1.0  -0.7285
  O  O250  1  0.218100  0.080100  0.423100  1.0  -0.7644
  O  O251  1  0.211400  0.914800  0.123300  1.0  -0.7743
  O  O252  1  0.297100  0.966200  0.168000  1.0  -0.7331
  O  O253  1  0.697200  0.564600  0.144500  1.0  -0.7283
  O  O254  1  0.781900  0.580100  0.076900  1.0  -0.7627
  O  O255  1  0.788600  0.414800  0.376700  1.0  -0.773
  O  O256  1  0.702900  0.466200  0.332000  1.0  -0.7321
  O  O257  1  0.802800  0.435400  0.644500  1.0  -0.7281
  O  O258  1  0.718100  0.419900  0.576900  1.0  -0.7653
  O  O259  1  0.711400  0.585200  0.876700  1.0  -0.7746
  O  O260  1  0.797100  0.533800  0.832000  1.0  -0.7339
  O  O261  1  0.197200  0.935400  0.855500  1.0  -0.7283
  O  O262  1  0.281900  0.919900  0.923100  1.0  -0.7627
  O  O263  1  0.288600  0.085200  0.623300  1.0  -0.7732
  O  O264  1  0.202900  0.033800  0.668000  1.0  -0.7322
  O  O265  1  0.644500  0.697200  0.935400  1.0  -0.7282
  O  O266  1  0.576900  0.781900  0.919900  1.0  -0.7655
  O  O267  1  0.876700  0.788600  0.085200  1.0  -0.772
  O  O268  1  0.832000  0.702900  0.033800  1.0  -0.7316
  O  O269  1  0.855500  0.302800  0.435400  1.0  -0.7283
  O  O270  1  0.923100  0.218100  0.419900  1.0  -0.765
  O  O271  1  0.623300  0.211400  0.585200  1.0  -0.7722
  O  O272  1  0.668000  0.297100  0.533800  1.0  -0.7325
  O  O273  1  0.355500  0.197200  0.564600  1.0  -0.7282
  O  O274  1  0.423100  0.281900  0.580100  1.0  -0.7656
  O  O275  1  0.123300  0.288600  0.414800  1.0  -0.7722
  O  O276  1  0.168000  0.202900  0.466200  1.0  -0.7316
  O  O277  1  0.144500  0.802800  0.064600  1.0  -0.7284
  O  O278  1  0.076900  0.718100  0.080100  1.0  -0.7659
  O  O279  1  0.376700  0.711400  0.914800  1.0  -0.7715
  O  O280  1  0.332000  0.797100  0.966200  1.0  -0.7314
  O  O281  1  0.935400  0.644500  0.697200  1.0  -0.7248
  O  O282  1  0.919900  0.576900  0.781900  1.0  -0.7622
  O  O283  1  0.085200  0.876700  0.788600  1.0  -0.7695
  O  O284  1  0.033800  0.832000  0.702900  1.0  -0.7347
  O  O285  1  0.435400  0.855500  0.302800  1.0  -0.7265
  O  O286  1  0.419900  0.923100  0.218100  1.0  -0.7627
  O  O287  1  0.585200  0.623300  0.211400  1.0  -0.7703
  O  O288  1  0.533800  0.668000  0.297100  1.0  -0.7328
  O  O289  1  0.564600  0.355500  0.197200  1.0  -0.7249
  O  O290  1  0.580100  0.423100  0.281900  1.0  -0.7617
  O  O291  1  0.414800  0.123300  0.288600  1.0  -0.7706
  O  O292  1  0.466200  0.168000  0.202900  1.0  -0.7331
  O  O293  1  0.064600  0.144500  0.802800  1.0  -0.7263
  O  O294  1  0.080100  0.076900  0.718100  1.0  -0.7632
  O  O295  1  0.914800  0.376700  0.711400  1.0  -0.7705
  O  O296  1  0.966200  0.332000  0.797100  1.0  -0.7336
  O  O297  1  0.697200  0.935400  0.644500  1.0  -0.7281
  O  O298  1  0.781900  0.919900  0.576900  1.0  -0.7631
  O  O299  1  0.788600  0.085200  0.876700  1.0  -0.772
  O  O300  1  0.702900  0.033800  0.832000  1.0  -0.732
  O  O301  1  0.302800  0.435400  0.855500  1.0  -0.7283
  O  O302  1  0.218100  0.419900  0.923100  1.0  -0.7642
  O  O303  1  0.211400  0.585200  0.623300  1.0  -0.7743
  O  O304  1  0.297100  0.533800  0.668000  1.0  -0.7336
  O  O305  1  0.197200  0.564600  0.355500  1.0  -0.7289
  O  O306  1  0.281900  0.580100  0.423100  1.0  -0.7626
  O  O307  1  0.288600  0.414800  0.123300  1.0  -0.7727
  O  O308  1  0.202900  0.466200  0.168000  1.0  -0.7321
  O  O309  1  0.802800  0.064600  0.144500  1.0  -0.728
  O  O310  1  0.718100  0.080100  0.076900  1.0  -0.7652
  O  O311  1  0.711400  0.914800  0.376700  1.0  -0.7745
  O  O312  1  0.797100  0.966200  0.332000  1.0  -0.7336
