# generated using pymatgen
data_Sn4(PO4)3
_symmetry_space_group_name_H-M   'P 1'
_cell_length_a   9.41700000
_cell_length_b   9.75400000
_cell_length_c   11.00200000
_cell_angle_alpha   80.51000000
_cell_angle_beta   71.64000000
_cell_angle_gamma   61.68000000
_symmetry_Int_Tables_number   1
_chemical_formula_structural   Sn4(PO4)3
_chemical_formula_sum   'Sn8 P6 O24'
_cell_volume   844.18855660
_cell_formula_units_Z   2
loop_
 _symmetry_equiv_pos_site_id
 _symmetry_equiv_pos_as_xyz
  1  'x, y, z'
loop_
 _atom_site_type_symbol
 _atom_site_label
 _atom_site_symmetry_multiplicity
 _atom_site_fract_x
 _atom_site_fract_y
 _atom_site_fract_z
 _atom_site_occupancy
 _atom_site_charge
  Sn  Sn1  1  0.224000  0.395900  0.397300  1.0  0.8993
  Sn  Sn2  1  0.710800  0.275200  0.559400  1.0  0.8572
  Sn  Sn3  1  0.972100  0.299200  0.128400  1.0  0.7884
  Sn  Sn4  1  0.971900  0.913300  0.253000  1.0  0.991
  Sn  Sn5  1  0.776000  0.604100  0.602700  1.0  0.8986
  Sn  Sn6  1  0.289200  0.724800  0.440600  1.0  0.8583
  Sn  Sn7  1  0.027900  0.700800  0.871600  1.0  0.7895
  Sn  Sn8  1  0.028100  0.086700  0.747000  1.0  0.9925
  P  P9  1  0.628900  0.261300  0.284900  1.0  1.7544
  P  P10  1  0.010000  0.597000  0.173500  1.0  1.654
  P  P11  1  0.122800  0.119200  0.418500  1.0  1.8333
  P  P12  1  0.371100  0.738700  0.715100  1.0  1.7548
  P  P13  1  0.990000  0.403000  0.826500  1.0  1.6537
  P  P14  1  0.877200  0.880800  0.581500  1.0  1.8324
  O  O15  1  0.138500  0.547900  0.249900  1.0  -0.7083
  O  O16  1  0.189800  0.226000  0.329000  1.0  -0.6922
  O  O17  1  0.459300  0.319700  0.257200  1.0  -0.6998
  O  O18  1  0.594800  0.287600  0.425000  1.0  -0.7858
  O  O19  1  0.249700  0.951600  0.379000  1.0  -0.7697
  O  O20  1  0.951100  0.155900  0.404800  1.0  -0.8236
  O  O21  1  0.717500  0.352600  0.200300  1.0  -0.6885
  O  O22  1  0.906400  0.504300  0.216500  1.0  -0.6878
  O  O23  1  0.107900  0.565100  0.032000  1.0  -0.6932
  O  O24  1  0.108000  0.147700  0.556300  1.0  -0.8001
  O  O25  1  0.733700  0.089700  0.253400  1.0  -0.729
  O  O26  1  0.888100  0.771100  0.195600  1.0  -0.701
  O  O27  1  0.861500  0.452100  0.750100  1.0  -0.7095
  O  O28  1  0.810200  0.774000  0.671000  1.0  -0.6939
  O  O29  1  0.540700  0.680300  0.742800  1.0  -0.6987
  O  O30  1  0.405200  0.712400  0.575000  1.0  -0.7811
  O  O31  1  0.750300  0.048400  0.621000  1.0  -0.7721
  O  O32  1  0.048900  0.844100  0.595200  1.0  -0.825
  O  O33  1  0.282500  0.647400  0.799700  1.0  -0.6907
  O  O34  1  0.093600  0.495700  0.783500  1.0  -0.6877
  O  O35  1  0.892100  0.434900  0.968000  1.0  -0.6913
  O  O36  1  0.892000  0.852300  0.443700  1.0  -0.7985
  O  O37  1  0.266300  0.910300  0.746600  1.0  -0.7295
  O  O38  1  0.111900  0.228900  0.804400  1.0  -0.7006
