# generated using pymatgen
data_CeHC5O7
_symmetry_space_group_name_H-M   'P 1'
_cell_length_a   6.67300000
_cell_length_b   14.04400000
_cell_length_c   23.82500000
_cell_angle_alpha   90.00000000
_cell_angle_beta   90.00000000
_cell_angle_gamma   90.00000000
_symmetry_Int_Tables_number   1
_chemical_formula_structural   CeHC5O7
_chemical_formula_sum   'Ce8 H8 C40 O56'
_cell_volume   2232.77445590
_cell_formula_units_Z   8
loop_
 _symmetry_equiv_pos_site_id
 _symmetry_equiv_pos_as_xyz
  1  'x, y, z'
loop_
 _atom_site_type_symbol
 _atom_site_label
 _atom_site_symmetry_multiplicity
 _atom_site_fract_x
 _atom_site_fract_y
 _atom_site_fract_z
 _atom_site_occupancy
 _atom_site_charge
  Ce  Ce1  1  0.881440  0.705660  0.633920  1.0  2.1989
  Ce  Ce2  1  0.381440  0.794340  0.866080  1.0  2.1992
  Ce  Ce3  1  0.618560  0.705660  0.366080  1.0  2.1995
  Ce  Ce4  1  0.118560  0.794340  0.133920  1.0  2.199
  Ce  Ce5  1  0.118560  0.294340  0.366080  1.0  2.1992
  Ce  Ce6  1  0.618560  0.205660  0.133920  1.0  2.1992
  Ce  Ce7  1  0.381440  0.294340  0.633920  1.0  2.199
  Ce  Ce8  1  0.881440  0.205660  0.866080  1.0  2.1992
  H  H9  1  0.918000  0.916000  0.611000  1.0  0.4066
  H  H10  1  0.418000  0.584000  0.889000  1.0  0.4057
  H  H11  1  0.582000  0.916000  0.389000  1.0  0.406
  H  H12  1  0.082000  0.584000  0.111000  1.0  0.4066
  H  H13  1  0.082000  0.084000  0.389000  1.0  0.4069
  H  H14  1  0.582000  0.416000  0.111000  1.0  0.4075
  H  H15  1  0.418000  0.084000  0.611000  1.0  0.4083
  H  H16  1  0.918000  0.416000  0.889000  1.0  0.4073
  C  C17  1  0.022200  0.890600  0.732300  1.0  0.2847
  C  C18  1  0.055900  0.932800  0.787800  1.0  0.1905
  C  C19  1  0.013100  0.027200  0.766100  1.0  0.2498
  C  C20  1  0.988100  0.987200  0.709400  1.0  0.1411
  C  C21  1  0.861700  0.703900  0.491100  1.0  0.6043
  C  C22  1  0.522200  0.609400  0.767700  1.0  0.2833
  C  C23  1  0.555900  0.567200  0.712200  1.0  0.1902
  C  C24  1  0.513100  0.472800  0.733900  1.0  0.2504
  C  C25  1  0.488100  0.512800  0.790600  1.0  0.1411
  C  C26  1  0.361700  0.796100  0.008900  1.0  0.6041
  C  C27  1  0.477800  0.890600  0.267700  1.0  0.2847
  C  C28  1  0.444100  0.932800  0.212200  1.0  0.1906
  C  C29  1  0.486900  0.027200  0.233900  1.0  0.2505
  C  C30  1  0.511900  0.987200  0.290600  1.0  0.1404
  C  C31  1  0.638300  0.703900  0.508900  1.0  0.6055
  C  C32  1  0.977800  0.609400  0.232300  1.0  0.2836
  C  C33  1  0.944100  0.567200  0.287800  1.0  0.1903
  C  C34  1  0.986900  0.472800  0.266100  1.0  0.2504
  C  C35  1  0.011900  0.512800  0.209400  1.0  0.1409
  C  C36  1  0.138300  0.796100  0.991100  1.0  0.605
  C  C37  1  0.977800  0.109400  0.267700  1.0  0.2834
  C  C38  1  0.944100  0.067200  0.212200  1.0  0.1902
  C  C39  1  0.986900  0.972800  0.233900  1.0  0.2504
  C  C40  1  0.011900  0.012800  0.290600  1.0  0.1408
  C  C41  1  0.138300  0.296100  0.508900  1.0  0.6051
  C  C42  1  0.477800  0.390600  0.232300  1.0  0.2849
  C  C43  1  0.444100  0.432800  0.287800  1.0  0.1906
  C  C44  1  0.486900  0.527200  0.266100  1.0  0.2499
  C  C45  1  0.511900  0.487200  0.209400  1.0  0.1408
  C  C46  1  0.638300  0.203900  0.991100  1.0  0.6053
  C  C47  1  0.522200  0.109400  0.732300  1.0  0.2835
  C  C48  1  0.555900  0.067200  0.787800  1.0  0.1902
  C  C49  1  0.513100  0.972800  0.766100  1.0  0.2504
  C  C50  1  0.488100  0.012800  0.709400  1.0  0.141
  C  C51  1  0.361700  0.296100  0.491100  1.0  0.6039
  C  C52  1  0.022200  0.390600  0.767700  1.0  0.2846
  C  C53  1  0.055900  0.432800  0.712200  1.0  0.1906
  C  C54  1  0.013100  0.527200  0.733900  1.0  0.2504
  C  C55  1  0.988100  0.487200  0.790600  1.0  0.1408
  C  C56  1  0.861700  0.203900  0.008900  1.0  0.6046
  O  O57  1  0.024400  0.808200  0.713100  1.0  -0.5431
  O  O58  1  0.105800  0.903800  0.835600  1.0  -0.5775
  O  O59  1  0.004500  0.109900  0.785900  1.0  -0.5826
  O  O60  1  0.955800  0.020800  0.662200  1.0  -0.2671
  O  O61  1  0.987900  0.706600  0.529200  1.0  -0.6211
  O  O62  1  0.895300  0.699900  0.439300  1.0  -0.6499
  O  O63  1  0.879300  0.871800  0.595900  1.0  -0.837
  O  O64  1  0.524400  0.691800  0.786900  1.0  -0.5418
  O  O65  1  0.605800  0.596200  0.664400  1.0  -0.5769
  O  O66  1  0.504500  0.390100  0.714100  1.0  -0.584
  O  O67  1  0.455800  0.479200  0.837800  1.0  -0.269
  O  O68  1  0.487900  0.793400  0.970800  1.0  -0.6207
  O  O69  1  0.395300  0.800100  0.060700  1.0  -0.6493
  O  O70  1  0.379300  0.628200  0.904100  1.0  -0.8347
  O  O71  1  0.475600  0.808200  0.286900  1.0  -0.5434
  O  O72  1  0.394200  0.903800  0.164400  1.0  -0.5756
  O  O73  1  0.495500  0.109900  0.214100  1.0  -0.5843
  O  O74  1  0.544200  0.020800  0.337800  1.0  -0.2694
  O  O75  1  0.512100  0.706600  0.470800  1.0  -0.6188
  O  O76  1  0.604700  0.699900  0.560700  1.0  -0.6501
  O  O77  1  0.620700  0.871800  0.404100  1.0  -0.8341
  O  O78  1  0.975600  0.691800  0.213100  1.0  -0.5428
  O  O79  1  0.894200  0.596200  0.335600  1.0  -0.5778
  O  O80  1  0.995500  0.390100  0.285900  1.0  -0.5837
  O  O81  1  0.044200  0.479200  0.162200  1.0  -0.2662
  O  O82  1  0.012100  0.793400  0.029200  1.0  -0.6185
  O  O83  1  0.104700  0.800100  0.939300  1.0  -0.6506
  O  O84  1  0.120700  0.628200  0.095900  1.0  -0.8358
  O  O85  1  0.975600  0.191800  0.286900  1.0  -0.5427
  O  O86  1  0.894200  0.096200  0.164400  1.0  -0.5765
  O  O87  1  0.995500  0.890100  0.214100  1.0  -0.5846
  O  O88  1  0.044200  0.979200  0.337800  1.0  -0.269
  O  O89  1  0.012100  0.293400  0.470800  1.0  -0.6201
  O  O90  1  0.104700  0.300100  0.560700  1.0  -0.6505
  O  O91  1  0.120700  0.128200  0.404100  1.0  -0.8342
  O  O92  1  0.475600  0.308200  0.213100  1.0  -0.5437
  O  O93  1  0.394200  0.403800  0.335600  1.0  -0.5776
  O  O94  1  0.495500  0.609900  0.285900  1.0  -0.5833
  O  O95  1  0.544200  0.520800  0.162200  1.0  -0.2672
  O  O96  1  0.512100  0.206600  0.029200  1.0  -0.6198
  O  O97  1  0.604700  0.199900  0.939300  1.0  -0.6507
  O  O98  1  0.620700  0.371800  0.095900  1.0  -0.8361
  O  O99  1  0.524400  0.191800  0.713100  1.0  -0.5419
  O  O100  1  0.605800  0.096200  0.835600  1.0  -0.5778
  O  O101  1  0.504500  0.890100  0.785900  1.0  -0.5831
  O  O102  1  0.455800  0.979200  0.662200  1.0  -0.2663
  O  O103  1  0.487900  0.293400  0.529200  1.0  -0.6195
  O  O104  1  0.395300  0.300100  0.439300  1.0  -0.65
  O  O105  1  0.379300  0.128200  0.595900  1.0  -0.8361
  O  O106  1  0.024400  0.308200  0.786900  1.0  -0.5427
  O  O107  1  0.105800  0.403800  0.664400  1.0  -0.5759
  O  O108  1  0.004500  0.609900  0.714100  1.0  -0.5837
  O  O109  1  0.955800  0.520800  0.837800  1.0  -0.2692
  O  O110  1  0.987900  0.206600  0.970800  1.0  -0.6194
  O  O111  1  0.895300  0.199900  0.060700  1.0  -0.6488
  O  O112  1  0.879300  0.371800  0.904100  1.0  -0.8348
