# generated using pymatgen
data_LiCo(CN)6
_symmetry_space_group_name_H-M   'P 1'
_cell_length_a   9.25710000
_cell_length_b   11.82300000
_cell_length_c   16.86100000
_cell_angle_alpha   90.00000000
_cell_angle_beta   90.00000000
_cell_angle_gamma   90.00000000
_symmetry_Int_Tables_number   1
_chemical_formula_structural   LiCo(CN)6
_chemical_formula_sum   'Li4 Co4 C24 N24'
_cell_volume   1845.38069573
_cell_formula_units_Z   4
loop_
 _symmetry_equiv_pos_site_id
 _symmetry_equiv_pos_as_xyz
  1  'x, y, z'
loop_
 _atom_site_type_symbol
 _atom_site_label
 _atom_site_symmetry_multiplicity
 _atom_site_fract_x
 _atom_site_fract_y
 _atom_site_fract_z
 _atom_site_occupancy
 _atom_site_charge
  Li  Li1  1  0.476600  0.549000  0.884600  1.0  0.9636
  Li  Li2  1  0.023400  0.451000  0.384600  1.0  0.9576
  Li  Li3  1  0.523400  0.049000  0.615400  1.0  0.955
  Li  Li4  1  0.976600  0.951000  0.115400  1.0  0.9638
  Co  Co5  1  0.833680  0.541620  0.113460  1.0  -0.2426
  Co  Co6  1  0.666320  0.458380  0.613460  1.0  -0.2428
  Co  Co7  1  0.166320  0.041620  0.386540  1.0  -0.242
  Co  Co8  1  0.333680  0.958380  0.886540  1.0  -0.243
  C  C9  1  0.811500  0.382800  0.111900  1.0  0.2604
  C  C10  1  0.860800  0.701300  0.114290  1.0  0.2665
  C  C11  1  0.661400  0.559700  0.172920  1.0  0.2545
  C  C12  1  0.010700  0.526600  0.057740  1.0  0.2567
  C  C13  1  0.722900  0.547900  0.017890  1.0  0.2471
  C  C14  1  0.930900  0.524900  0.212320  1.0  0.2585
  C  C15  1  0.688500  0.617200  0.611900  1.0  0.2615
  C  C16  1  0.639200  0.298700  0.614290  1.0  0.2685
  C  C17  1  0.838600  0.440300  0.672920  1.0  0.2543
  C  C18  1  0.489300  0.473400  0.557740  1.0  0.2546
  C  C19  1  0.777100  0.452100  0.517890  1.0  0.2466
  C  C20  1  0.569100  0.475100  0.712320  1.0  0.2583
  C  C21  1  0.188500  0.882800  0.388100  1.0  0.2617
  C  C22  1  0.139200  0.201300  0.385710  1.0  0.2668
  C  C23  1  0.338600  0.059700  0.327080  1.0  0.2533
  C  C24  1  0.989300  0.026600  0.442260  1.0  0.2531
  C  C25  1  0.277100  0.047900  0.482110  1.0  0.2468
  C  C26  1  0.069100  0.024900  0.287680  1.0  0.2572
  C  C27  1  0.311500  0.117200  0.888100  1.0  0.2597
  C  C28  1  0.360800  0.798700  0.885710  1.0  0.2678
  C  C29  1  0.161400  0.940300  0.827080  1.0  0.2542
  C  C30  1  0.510700  0.973400  0.942260  1.0  0.2558
  C  C31  1  0.222900  0.952100  0.982110  1.0  0.2469
  C  C32  1  0.430900  0.975100  0.787680  1.0  0.257
  N  N33  1  0.649800  0.546100  0.962670  1.0  -0.4043
  N  N34  1  0.883400  0.796400  0.114890  1.0  -0.4086
  N  N35  1  0.805400  0.286000  0.111000  1.0  -0.3593
  N  N36  1  0.979300  0.509200  0.273260  1.0  -0.3935
  N  N37  1  0.559100  0.570600  0.210130  1.0  -0.3384
  N  N38  1  0.119900  0.519300  0.025740  1.0  -0.3548
  N  N39  1  0.850200  0.453900  0.462670  1.0  -0.4039
  N  N40  1  0.616600  0.203600  0.614890  1.0  -0.4062
  N  N41  1  0.694600  0.714000  0.611000  1.0  -0.3606
  N  N42  1  0.520700  0.490800  0.773260  1.0  -0.3936
  N  N43  1  0.940900  0.429400  0.710130  1.0  -0.338
  N  N44  1  0.380100  0.480700  0.525740  1.0  -0.3546
  N  N45  1  0.350200  0.046100  0.537330  1.0  -0.4046
  N  N46  1  0.116600  0.296400  0.385110  1.0  -0.4082
  N  N47  1  0.194600  0.786000  0.389000  1.0  -0.3598
  N  N48  1  0.020700  0.009200  0.226740  1.0  -0.3955
  N  N49  1  0.440900  0.070600  0.289870  1.0  -0.3381
  N  N50  1  0.880100  0.019300  0.474260  1.0  -0.3548
  N  N51  1  0.149800  0.953900  0.037330  1.0  -0.4054
  N  N52  1  0.383400  0.703600  0.885110  1.0  -0.4058
  N  N53  1  0.305400  0.214000  0.889000  1.0  -0.3606
  N  N54  1  0.479300  0.990800  0.726740  1.0  -0.3951
  N  N55  1  0.059100  0.929400  0.789870  1.0  -0.3389
  N  N56  1  0.619900  0.980700  0.974260  1.0  -0.3549
