# generated using pymatgen
data_Al11Fe3(PO4)16
_symmetry_space_group_name_H-M   'P 1'
_cell_length_a   9.05700000
_cell_length_b   12.60600000
_cell_length_c   14.62300000
_cell_angle_alpha   89.54700000
_cell_angle_beta   86.53000000
_cell_angle_gamma   72.51200000
_symmetry_Int_Tables_number   1
_chemical_formula_structural   Al11Fe3(PO4)16
_chemical_formula_sum   'Al11 Fe3 P16 O64'
_cell_volume   1589.36642867
_cell_formula_units_Z   1
loop_
 _symmetry_equiv_pos_site_id
 _symmetry_equiv_pos_as_xyz
  1  'x, y, z'
loop_
 _atom_site_type_symbol
 _atom_site_label
 _atom_site_symmetry_multiplicity
 _atom_site_fract_x
 _atom_site_fract_y
 _atom_site_fract_z
 _atom_site_occupancy
 _atom_site_charge
  Al  Al1  1  0.036420  0.805030  0.394300  1.0  1.7616
  Al  Al2  1  0.046500  0.366350  0.112130  1.0  1.8711
  Al  Al3  1  0.058900  0.853100  0.120750  1.0  1.9771
  Al  Al4  1  0.689400  0.190760  0.252220  1.0  1.839
  Al  Al5  1  0.062600  0.372230  0.361060  1.0  1.9108
  Al  Al6  1  0.680500  0.686200  0.262900  1.0  1.9166
  Al  Al7  1  0.953500  0.633650  0.887870  1.0  1.8705
  Al  Al8  1  0.941100  0.146900  0.879250  1.0  1.9775
  Al  Al9  1  0.310600  0.809240  0.747780  1.0  1.8408
  Al  Al10  1  0.937400  0.627770  0.638940  1.0  1.9106
  Al  Al11  1  0.319500  0.313800  0.737100  1.0  1.9173
  Fe  Fe12  1  0.181190  0.062530  0.239730  1.0  1.0941
  Fe  Fe13  1  0.963580  0.194970  0.605700  1.0  1.225
  Fe  Fe14  1  0.818810  0.937470  0.760270  1.0  1.097
  P  P15  1  0.328800  0.237590  0.218600  1.0  1.8889
  P  P16  1  0.767300  0.925760  0.270500  1.0  2.047
  P  P17  1  0.861800  0.619680  0.433490  1.0  1.8695
  P  P18  1  0.786300  0.422200  0.216260  1.0  1.7778
  P  P19  1  0.318500  0.805770  0.256520  1.0  2.0343
  P  P20  1  0.960800  0.633740  0.104420  1.0  1.9238
  P  P21  1  0.962300  0.130320  0.098520  1.0  1.8388
  P  P22  1  0.917300  0.170700  0.402000  1.0  1.8796
  P  P23  1  0.671200  0.762410  0.781400  1.0  1.8852
  P  P24  1  0.232700  0.074240  0.729500  1.0  2.0451
  P  P25  1  0.138200  0.380320  0.566510  1.0  1.8695
  P  P26  1  0.213700  0.577800  0.783740  1.0  1.7787
  P  P27  1  0.681500  0.194230  0.743480  1.0  2.0518
  P  P28  1  0.039200  0.366260  0.895580  1.0  1.9239
  P  P29  1  0.037700  0.869680  0.901480  1.0  1.8383
  P  P30  1  0.082700  0.829300  0.598000  1.0  1.8788
  O  O31  1  0.252800  0.319700  0.143800  1.0  -0.8064
  O  O32  1  0.957700  0.389100  0.245700  1.0  -0.8318
  O  O33  1  0.715900  0.675700  0.382200  1.0  -0.8568
  O  O34  1  0.947800  0.282500  0.404800  1.0  -0.9311
  O  O35  1  0.060500  0.513200  0.123200  1.0  -0.8632
  O  O36  1  0.798400  0.150700  0.143500  1.0  -0.9162
  O  O37  1  0.222800  0.258300  0.306200  1.0  -0.8689
  O  O38  1  0.907700  0.495400  0.413900  1.0  -0.8343
  O  O39  1  0.071000  0.017900  0.133900  1.0  -0.8789
  O  O40  1  0.247600  0.818400  0.164000  1.0  -0.9249
  O  O41  1  0.035700  0.217800  0.126000  1.0  -0.901
  O  O42  1  0.687800  0.533500  0.254400  1.0  -0.8055
  O  O43  1  0.900000  0.643300  0.009200  1.0  -0.9708
  O  O44  1  0.821200  0.644600  0.535600  1.0  -0.7838
  O  O45  1  0.820000  0.421900  0.110800  1.0  -0.7422
  O  O46  1  0.706300  0.337700  0.246800  1.0  -0.8475
  O  O47  1  0.668700  0.045400  0.267700  1.0  -0.8085
  O  O48  1  0.995100  0.664900  0.398000  1.0  -0.7862
  O  O49  1  0.661200  0.851400  0.266000  1.0  -0.7794
  O  O50  1  0.486600  0.251000  0.233600  1.0  -0.9387
  O  O51  1  0.953500  0.120600  0.995900  1.0  -0.9505
  O  O52  1  0.349000  0.117400  0.187500  1.0  -0.6965
  O  O53  1  0.064600  0.708100  0.114800  1.0  -0.9681
  O  O54  1  0.883000  0.899000  0.188400  1.0  -0.9862
  O  O55  1  0.849300  0.904400  0.360000  1.0  -0.7957
  O  O56  1  0.821300  0.669900  0.172100  1.0  -0.9498
  O  O57  1  0.753700  0.185500  0.370200  1.0  -0.8096
  O  O58  1  0.481400  0.724100  0.243700  1.0  -0.9878
  O  O59  1  0.919500  0.126300  0.501100  1.0  -0.7509
  O  O60  1  0.038500  0.085700  0.342500  1.0  -0.8485
  O  O61  1  0.222200  0.758600  0.324700  1.0  -0.8496
  O  O62  1  0.320300  0.918800  0.288300  1.0  -0.7049
  O  O63  1  0.747200  0.680300  0.856200  1.0  -0.8033
  O  O64  1  0.042300  0.610900  0.754300  1.0  -0.8332
  O  O65  1  0.284100  0.324300  0.617800  1.0  -0.8587
  O  O66  1  0.052200  0.717500  0.595200  1.0  -0.9319
  O  O67  1  0.939500  0.486800  0.876800  1.0  -0.864
  O  O68  1  0.201600  0.849300  0.856500  1.0  -0.9169
  O  O69  1  0.777200  0.741700  0.693800  1.0  -0.8705
  O  O70  1  0.092300  0.504600  0.586100  1.0  -0.832
  O  O71  1  0.929000  0.982100  0.866100  1.0  -0.8789
  O  O72  1  0.752400  0.181600  0.836000  1.0  -0.925
  O  O73  1  0.964300  0.782200  0.874000  1.0  -0.902
  O  O74  1  0.312200  0.466500  0.745600  1.0  -0.804
  O  O75  1  0.100000  0.356700  0.990800  1.0  -0.9693
  O  O76  1  0.178800  0.355400  0.464400  1.0  -0.7853
  O  O77  1  0.180000  0.578100  0.889200  1.0  -0.7439
  O  O78  1  0.293700  0.662300  0.753200  1.0  -0.8459
  O  O79  1  0.331300  0.954600  0.732300  1.0  -0.8072
  O  O80  1  0.004900  0.335100  0.602000  1.0  -0.7875
  O  O81  1  0.338800  0.148600  0.734000  1.0  -0.778
  O  O82  1  0.513400  0.749000  0.766400  1.0  -0.9368
  O  O83  1  0.046500  0.879400  0.004100  1.0  -0.9513
  O  O84  1  0.651000  0.882600  0.812500  1.0  -0.698
  O  O85  1  0.935400  0.291900  0.885200  1.0  -0.9682
  O  O86  1  0.117000  0.101000  0.811600  1.0  -0.9861
  O  O87  1  0.150700  0.095600  0.640000  1.0  -0.7909
  O  O88  1  0.178700  0.330100  0.827900  1.0  -0.9486
  O  O89  1  0.246300  0.814500  0.629800  1.0  -0.8124
  O  O90  1  0.518600  0.275900  0.756300  1.0  -0.9869
  O  O91  1  0.080500  0.873700  0.498900  1.0  -0.755
  O  O92  1  0.961500  0.914300  0.657500  1.0  -0.8487
  O  O93  1  0.777800  0.241400  0.675300  1.0  -0.8383
  O  O94  1  0.679700  0.081200  0.711700  1.0  -0.7068
