# generated using pymatgen
data_CuH8C11(NO)2
_symmetry_space_group_name_H-M   'P 1'
_cell_length_a   11.06670000
_cell_length_b   11.06670000
_cell_length_c   14.91420000
_cell_angle_alpha   80.65320000
_cell_angle_beta   72.10710000
_cell_angle_gamma   111.53500000
_symmetry_Int_Tables_number   1
_chemical_formula_structural   CuH8C11(NO)2
_chemical_formula_sum   'Cu4 H32 C44 N8 O8'
_cell_volume   1536.76816831
_cell_formula_units_Z   4
loop_
 _symmetry_equiv_pos_site_id
 _symmetry_equiv_pos_as_xyz
  1  'x, y, z'
loop_
 _atom_site_type_symbol
 _atom_site_label
 _atom_site_symmetry_multiplicity
 _atom_site_fract_x
 _atom_site_fract_y
 _atom_site_fract_z
 _atom_site_occupancy
 _atom_site_charge
  Cu  Cu1  1  0.183150  0.035520  0.328250  1.0  0.5108
  Cu  Cu2  1  0.136230  0.488600  0.828250  1.0  0.5107
  Cu  Cu3  1  0.863770  0.511400  0.171750  1.0  0.5086
  Cu  Cu4  1  0.816850  0.964480  0.671750  1.0  0.5076
  H  H5  1  0.990600  0.657900  0.576100  1.0  0.1059
  H  H6  1  0.335300  0.174400  0.900300  1.0  0.1008
  H  H7  1  0.425300  0.764400  0.400300  1.0  0.1016
  H  H8  1  0.865100  0.652800  0.325700  1.0  0.0579
  H  H9  1  0.384200  0.608400  0.952200  1.0  0.1014
  H  H10  1  0.433100  0.817600  0.128500  1.0  0.0897
  H  H11  1  0.478500  0.190800  0.174300  1.0  0.0583
  H  H12  1  0.734000  0.566700  0.923900  1.0  0.1058
  H  H13  1  0.566900  0.182400  0.871500  1.0  0.09
  H  H14  1  0.615800  0.391600  0.047800  1.0  0.1008
  H  H15  1  0.822900  0.736300  0.076400  1.0  0.0665
  H  H16  1  0.144600  0.243100  0.209300  1.0  0.067
  H  H17  1  0.521500  0.809200  0.825700  1.0  0.0584
  H  H18  1  0.574700  0.235600  0.599700  1.0  0.1022
  H  H19  1  0.298500  0.931100  0.163400  1.0  0.0855
  H  H20  1  0.177100  0.263700  0.923600  1.0  0.0677
  H  H21  1  0.009400  0.342100  0.423900  1.0  0.1056
  H  H22  1  0.405500  0.538100  0.663400  1.0  0.086
  H  H23  1  0.553900  0.438400  0.628500  1.0  0.0903
  H  H24  1  0.134900  0.347200  0.674300  1.0  0.0594
  H  H25  1  0.594500  0.461900  0.336600  1.0  0.086
  H  H26  1  0.047600  0.646100  0.709300  1.0  0.0681
  H  H27  1  0.312700  0.899300  0.423600  1.0  0.0688
  H  H28  1  0.446100  0.561600  0.371500  1.0  0.0907
  H  H29  1  0.664700  0.825600  0.099700  1.0  0.1011
  H  H30  1  0.687300  0.100700  0.576400  1.0  0.0682
  H  H31  1  0.855400  0.756900  0.790700  1.0  0.0675
  H  H32  1  0.060600  0.336400  0.547800  1.0  0.0991
  H  H33  1  0.952400  0.353900  0.290700  1.0  0.0684
  H  H34  1  0.939400  0.663600  0.452200  1.0  0.0994
  H  H35  1  0.701500  0.068900  0.836600  1.0  0.085
  H  H36  1  0.266000  0.433300  0.076100  1.0  0.1056
  C  C37  1  0.564800  0.757400  0.844000  1.0  0.1617
  C  C38  1  0.594800  0.198700  0.650700  1.0  -0.2249
  C  C39  1  0.241100  0.271800  0.174900  1.0  0.1507
  C  C40  1  0.518500  0.362000  0.077300  1.0  -0.2064
  C  C41  1  0.334600  0.880500  0.363700  1.0  0.1426
  C  C42  1  0.939300  0.595800  0.422700  1.0  -0.2046
  C  C43  1  0.686300  0.612900  0.904600  1.0  -0.209
  C  C44  1  0.650600  0.754500  0.150700  1.0  -0.2301
  C  C45  1  0.758900  0.728200  0.825100  1.0  0.1505
  C  C46  1  0.255800  0.301700  0.863700  1.0  0.1456
  C  C47  1  0.313700  0.387100  0.095400  1.0  -0.2097
  C  C48  1  0.665400  0.119500  0.636300  1.0  0.1438
  C  C49  1  0.387500  0.460400  0.710500  1.0  0.1262
  C  C50  1  0.101400  0.408800  0.656000  1.0  0.1607
  C  C51  1  0.954900  0.524000  0.977700  1.0  0.6928
  C  C52  1  0.593400  0.169900  0.809500  1.0  -0.1953
  C  C53  1  0.349400  0.245500  0.849300  1.0  -0.2263
  C  C54  1  0.898600  0.591200  0.344000  1.0  0.1612
  C  C55  1  0.553800  0.224100  0.739700  1.0  0.0932
  C  C56  1  0.446200  0.775900  0.260300  1.0  0.0937
  C  C57  1  0.481500  0.638000  0.922700  1.0  -0.2064
  C  C58  1  0.520600  0.597100  0.309500  1.0  -0.1957
  C  C59  1  0.612500  0.539600  0.289500  1.0  0.1274
  C  C60  1  0.946700  0.416000  0.325100  1.0  0.1495
  C  C61  1  0.744200  0.698300  0.136300  1.0  0.1445
  C  C62  1  0.536200  0.706500  0.239700  1.0  0.0948
  C  C63  1  0.998300  0.067400  0.477700  1.0  0.6966
  C  C64  1  0.329100  0.902000  0.210500  1.0  0.1272
  C  C65  1  0.045100  0.476000  0.022300  1.0  0.6951
  C  C66  1  0.670900  0.098000  0.789500  1.0  0.1294
  C  C67  1  0.406600  0.830100  0.190500  1.0  -0.1962
  C  C68  1  0.020700  0.498300  0.542800  1.0  0.0679
  C  C69  1  0.479400  0.402900  0.690500  1.0  -0.1979
  C  C70  1  0.017500  0.590900  0.595400  1.0  -0.2075
  C  C71  1  0.458900  0.436500  0.042800  1.0  0.0699
  C  C72  1  0.979300  0.501700  0.457200  1.0  0.0679
  C  C73  1  0.982500  0.409100  0.404600  1.0  -0.2078
  C  C74  1  0.435200  0.242600  0.156000  1.0  0.1605
  C  C75  1  0.463800  0.293500  0.760300  1.0  0.0946
  C  C76  1  0.001700  0.932600  0.522300  1.0  0.6957
  C  C77  1  0.541100  0.563500  0.957200  1.0  0.07
  C  C78  1  0.053300  0.584000  0.674900  1.0  0.1495
  C  C79  1  0.060700  0.404200  0.577300  1.0  -0.2046
  C  C80  1  0.405200  0.801300  0.349300  1.0  -0.2272
  N  N81  1  0.700300  0.801800  0.793900  1.0  -0.3278
  N  N82  1  0.271900  0.407600  0.796300  1.0  -0.3289
  N  N83  1  0.904300  0.505800  0.293900  1.0  -0.3335
  N  N84  1  0.703900  0.068200  0.703700  1.0  -0.3284
  N  N85  1  0.296100  0.931800  0.296300  1.0  -0.3289
  N  N86  1  0.095700  0.494200  0.706100  1.0  -0.3297
  N  N87  1  0.728100  0.592400  0.203700  1.0  -0.3275
  N  N88  1  0.299700  0.198200  0.206100  1.0  -0.3279
  O  O89  1  0.141000  0.462500  0.962100  1.0  -0.5632
  O  O90  1  0.070800  0.128700  0.388300  1.0  -0.5692
  O  O91  1  0.017000  0.459100  0.111700  1.0  -0.5694
  O  O92  1  0.983000  0.540900  0.888300  1.0  -0.5706
  O  O93  1  0.075400  0.896900  0.462100  1.0  -0.5616
  O  O94  1  0.924600  0.103100  0.537900  1.0  -0.5609
  O  O95  1  0.929200  0.871300  0.611700  1.0  -0.5708
  O  O96  1  0.859000  0.537500  0.037900  1.0  -0.5618
