# generated using pymatgen
data_Zn3H12(C9O4)4
_symmetry_space_group_name_H-M   'P 1'
_cell_length_a   9.53000000
_cell_length_b   10.16800000
_cell_length_c   13.02600000
_cell_angle_alpha   111.00500000
_cell_angle_beta   105.56900000
_cell_angle_gamma   90.49700000
_symmetry_Int_Tables_number   1
_chemical_formula_structural   Zn3H12(C9O4)4
_chemical_formula_sum   'Zn3 H12 C36 O16'
_cell_volume   1127.37393511
_cell_formula_units_Z   1
loop_
 _symmetry_equiv_pos_site_id
 _symmetry_equiv_pos_as_xyz
  1  'x, y, z'
loop_
 _atom_site_type_symbol
 _atom_site_label
 _atom_site_symmetry_multiplicity
 _atom_site_fract_x
 _atom_site_fract_y
 _atom_site_fract_z
 _atom_site_occupancy
 _atom_site_charge
  Zn  Zn1  1  0.540710  0.797450  0.726170  1.0  1.0939
  Zn  Zn2  1  0.459290  0.202550  0.273830  1.0  1.0941
  Zn  Zn3  1  0.500000  0.500000  0.500000  1.0  1.101
  H  H4  1  0.537500  0.266500  0.702100  1.0  0.1278
  H  H5  1  0.683400  0.613200  0.989800  1.0  0.1344
  H  H6  1  0.659200  0.229900  0.008000  1.0  0.1229
  H  H7  1  0.694500  0.654700  0.414100  1.0  0.1257
  H  H8  1  0.058400  0.754300  0.680000  1.0  0.1403
  H  H9  1  0.084300  0.571700  0.359400  1.0  0.1296
  H  H10  1  0.462500  0.733500  0.297900  1.0  0.1267
  H  H11  1  0.316600  0.386800  0.010200  1.0  0.1359
  H  H12  1  0.340800  0.770100  0.992000  1.0  0.1226
  H  H13  1  0.305500  0.345300  0.585900  1.0  0.1257
  H  H14  1  0.941600  0.245700  0.320000  1.0  0.1395
  H  H15  1  0.915700  0.428300  0.640600  1.0  0.1296
  C  C16  1  0.593700  0.225000  0.847700  1.0  -0.1225
  C  C17  1  0.571800  0.308700  0.781800  1.0  -0.0035
  C  C18  1  0.601500  0.456700  0.835600  1.0  -0.1652
  C  C19  1  0.660800  0.515300  0.954100  1.0  -0.0877
  C  C20  1  0.648500  0.287400  0.965400  1.0  -0.0707
  C  C21  1  0.688500  0.432400  0.023200  1.0  0.0352
  C  C22  1  0.751600  0.497000  0.142200  1.0  -0.0032
  C  C23  1  0.810200  0.546000  0.244000  1.0  0.0513
  C  C24  1  0.878200  0.606200  0.362700  1.0  0.0152
  C  C25  1  0.795500  0.656900  0.441600  1.0  -0.0578
  C  C26  1  0.861700  0.709000  0.557800  1.0  -0.1127
  C  C27  1  0.013500  0.717400  0.601100  1.0  0.0088
  C  C28  1  0.097900  0.669700  0.524500  1.0  -0.1315
  C  C29  1  0.028400  0.610700  0.409100  1.0  -0.0892
  C  C30  1  0.561300  0.066100  0.788800  1.0  0.687
  C  C31  1  0.572300  0.544900  0.766300  1.0  0.7292
  C  C32  1  0.768800  0.756200  0.638800  1.0  0.7084
  C  C33  1  0.260700  0.675300  0.568600  1.0  0.7077
  C  C34  1  0.406300  0.775000  0.152300  1.0  -0.1221
  C  C35  1  0.428200  0.691300  0.218200  1.0  -0.0028
  C  C36  1  0.398500  0.543300  0.164400  1.0  -0.1641
  C  C37  1  0.339200  0.484700  0.045900  1.0  -0.0873
  C  C38  1  0.351500  0.712600  0.034600  1.0  -0.0697
  C  C39  1  0.311500  0.567600  0.976800  1.0  0.0373
  C  C40  1  0.248400  0.503000  0.857800  1.0  -0.0025
  C  C41  1  0.189800  0.454000  0.756000  1.0  0.0506
  C  C42  1  0.121800  0.393800  0.637300  1.0  0.0131
  C  C43  1  0.204500  0.343100  0.558400  1.0  -0.058
  C  C44  1  0.138300  0.291000  0.442200  1.0  -0.1105
  C  C45  1  0.986500  0.282600  0.398900  1.0  0.0103
  C  C46  1  0.902100  0.330300  0.475500  1.0  -0.1295
  C  C47  1  0.971600  0.389300  0.590900  1.0  -0.0905
  C  C48  1  0.438700  0.933900  0.211200  1.0  0.6866
  C  C49  1  0.427700  0.455100  0.233700  1.0  0.7288
  C  C50  1  0.231200  0.243800  0.361200  1.0  0.707
  C  C51  1  0.739300  0.324700  0.431400  1.0  0.7082
  O  O52  1  0.575600  0.991800  0.850000  1.0  -0.545
  O  O53  1  0.527500  0.010300  0.682900  1.0  -0.5442
  O  O54  1  0.599600  0.680000  0.818600  1.0  -0.5665
  O  O55  1  0.524400  0.484300  0.659800  1.0  -0.569
  O  O56  1  0.825700  0.841300  0.737100  1.0  -0.5011
  O  O57  1  0.633500  0.712300  0.599300  1.0  -0.651
  O  O58  1  0.323900  0.756400  0.669700  1.0  -0.5573
  O  O59  1  0.321600  0.596000  0.499000  1.0  -0.5901
  O  O60  1  0.424400  0.008200  0.150000  1.0  -0.5471
  O  O61  1  0.472500  0.989700  0.317100  1.0  -0.5432
  O  O62  1  0.400400  0.320000  0.181400  1.0  -0.5668
  O  O63  1  0.475600  0.515700  0.340200  1.0  -0.5701
  O  O64  1  0.174300  0.158700  0.262900  1.0  -0.5017
  O  O65  1  0.366500  0.287700  0.400700  1.0  -0.6506
  O  O66  1  0.676100  0.243600  0.330300  1.0  -0.5582
  O  O67  1  0.678400  0.404000  0.501000  1.0  -0.5911
