# generated using pymatgen
data_Cu2H5C4N6O
_symmetry_space_group_name_H-M   'P 1'
_cell_length_a   7.79670000
_cell_length_b   13.69390000
_cell_length_c   17.23110000
_cell_angle_alpha   89.85700000
_cell_angle_beta   90.00000000
_cell_angle_gamma   90.00000000
_symmetry_Int_Tables_number   1
_chemical_formula_structural   Cu2H5C4N6O
_chemical_formula_sum   'Cu8 H20 C16 N24 O4'
_cell_volume   1839.71108919
_cell_formula_units_Z   4
loop_
 _symmetry_equiv_pos_site_id
 _symmetry_equiv_pos_as_xyz
  1  'x, y, z'
loop_
 _atom_site_type_symbol
 _atom_site_label
 _atom_site_symmetry_multiplicity
 _atom_site_fract_x
 _atom_site_fract_y
 _atom_site_fract_z
 _atom_site_occupancy
 _atom_site_charge
  Cu  Cu1  1  0.732800  0.753100  0.752000  1.0  0.607
  Cu  Cu2  1  0.267200  0.246900  0.248000  1.0  0.6065
  Cu  Cu3  1  0.232800  0.746900  0.748000  1.0  0.6065
  Cu  Cu4  1  0.500000  0.500000  0.000000  1.0  0.7019
  Cu  Cu5  1  0.500000  0.500000  0.500000  1.0  0.2983
  Cu  Cu6  1  0.000000  0.000000  0.000000  1.0  0.2983
  Cu  Cu7  1  0.000000  0.000000  0.500000  1.0  0.7019
  Cu  Cu8  1  0.767200  0.253100  0.252000  1.0  0.607
  H  H9  1  0.263000  0.112300  0.402400  1.0  0.0548
  H  H10  1  0.250000  0.938700  0.407800  1.0  0.3271
  H  H11  1  0.727700  0.648300  0.898700  1.0  0.2002
  H  H12  1  0.772300  0.148300  0.398700  1.0  0.1996
  H  H13  1  0.732900  0.862000  0.913400  1.0  0.0749
  H  H14  1  0.267100  0.138000  0.086600  1.0  0.0748
  H  H15  1  0.768800  0.141900  0.103900  1.0  0.2807
  H  H16  1  0.231200  0.858100  0.896100  1.0  0.2785
  H  H17  1  0.232900  0.638000  0.586600  1.0  0.075
  H  H18  1  0.227700  0.851700  0.601300  1.0  0.1997
  H  H19  1  0.731200  0.641900  0.603900  1.0  0.2782
  H  H20  1  0.272300  0.351700  0.101300  1.0  0.1998
  H  H21  1  0.767100  0.362000  0.413400  1.0  0.0741
  H  H22  1  0.268800  0.358100  0.396100  1.0  0.281
  H  H23  1  0.750000  0.561300  0.092200  1.0  0.33
  H  H24  1  0.737000  0.887700  0.597600  1.0  0.0543
  H  H25  1  0.750000  0.061300  0.592200  1.0  0.3314
  H  H26  1  0.250000  0.438700  0.907800  1.0  0.3279
  H  H27  1  0.763000  0.387700  0.097600  1.0  0.0543
  H  H28  1  0.237000  0.612300  0.902400  1.0  0.0545
  C  C29  1  0.117600  0.850500  0.609200  1.0  0.2148
  C  C30  1  0.653300  0.358800  0.114200  1.0  0.0486
  C  C31  1  0.353700  0.650500  0.606800  1.0  0.1464
  C  C32  1  0.625500  0.648700  0.612300  1.0  0.2687
  C  C33  1  0.617600  0.649500  0.890800  1.0  0.2147
  C  C34  1  0.374500  0.351300  0.387700  1.0  0.27
  C  C35  1  0.646300  0.349500  0.393200  1.0  0.1461
  C  C36  1  0.853700  0.849500  0.893200  1.0  0.145
  C  C37  1  0.125500  0.851300  0.887700  1.0  0.2703
  C  C38  1  0.874500  0.148700  0.112300  1.0  0.2696
  C  C39  1  0.846700  0.858800  0.614200  1.0  0.047
  C  C40  1  0.382400  0.350500  0.109200  1.0  0.2117
  C  C41  1  0.146300  0.150500  0.106800  1.0  0.1469
  C  C42  1  0.346700  0.641200  0.885800  1.0  0.0453
  C  C43  1  0.882400  0.149500  0.390800  1.0  0.2125
  C  C44  1  0.153300  0.141200  0.385800  1.0  0.0475
  N  N45  1  0.006100  0.110500  0.071800  1.0  -0.451
  N  N46  1  0.575500  0.707000  0.668500  1.0  -0.3025
  N  N47  1  0.898700  0.792000  0.834600  1.0  -0.2678
  N  N48  1  0.484500  0.604600  0.924500  1.0  -0.4553
  N  N49  1  0.015500  0.104600  0.424500  1.0  -0.4552
  N  N50  1  0.984500  0.895400  0.575500  1.0  -0.4552
  N  N51  1  0.601300  0.292000  0.334600  1.0  -0.2672
  N  N52  1  0.394100  0.702100  0.830400  1.0  -0.2824
  N  N53  1  0.570700  0.708400  0.833800  1.0  -0.2867
  N  N54  1  0.506100  0.389500  0.428200  1.0  -0.4479
  N  N55  1  0.493900  0.610500  0.571800  1.0  -0.4509
  N  N56  1  0.929300  0.208400  0.333800  1.0  -0.2872
  N  N57  1  0.398700  0.708000  0.665400  1.0  -0.2673
  N  N58  1  0.924500  0.207000  0.168500  1.0  -0.3032
  N  N59  1  0.605900  0.297900  0.169600  1.0  -0.2823
  N  N60  1  0.424500  0.293000  0.331500  1.0  -0.3035
  N  N61  1  0.105900  0.202100  0.330400  1.0  -0.2824
  N  N62  1  0.993900  0.889500  0.928200  1.0  -0.4475
  N  N63  1  0.894100  0.797900  0.669600  1.0  -0.2828
  N  N64  1  0.101300  0.208000  0.165400  1.0  -0.2666
  N  N65  1  0.515500  0.395400  0.075500  1.0  -0.4555
  N  N66  1  0.070700  0.791600  0.666200  1.0  -0.2872
  N  N67  1  0.429300  0.291600  0.166200  1.0  -0.288
  N  N68  1  0.075500  0.793000  0.831500  1.0  -0.3032
  O  O69  1  0.334100  0.414300  0.939400  1.0  -0.6762
  O  O70  1  0.165900  0.914300  0.439400  1.0  -0.6767
  O  O71  1  0.834100  0.085700  0.560600  1.0  -0.6749
  O  O72  1  0.665900  0.585700  0.060600  1.0  -0.677
