# generated using pymatgen
data_Gd2Ag6H14C36N12O25
_symmetry_space_group_name_H-M   'P 1'
_cell_length_a   13.84750000
_cell_length_b   15.17190000
_cell_length_c   16.47700000
_cell_angle_alpha   75.79800000
_cell_angle_beta   81.44900000
_cell_angle_gamma   63.07400000
_symmetry_Int_Tables_number   1
_chemical_formula_structural   Gd2Ag6H14C36N12O25
_chemical_formula_sum   'Gd4 Ag12 H28 C72 N24 O50'
_cell_volume   2989.26300506
_cell_formula_units_Z   2
loop_
 _symmetry_equiv_pos_site_id
 _symmetry_equiv_pos_as_xyz
  1  'x, y, z'
loop_
 _atom_site_type_symbol
 _atom_site_label
 _atom_site_symmetry_multiplicity
 _atom_site_fract_x
 _atom_site_fract_y
 _atom_site_fract_z
 _atom_site_occupancy
 _atom_site_charge
  Gd  Gd1  1  0.755850  0.481310  0.323210  1.0  2.107
  Gd  Gd2  1  0.132120  0.201290  0.103660  1.0  1.9808
  Gd  Gd3  1  0.244150  0.518690  0.676790  1.0  2.0948
  Gd  Gd4  1  0.867880  0.798710  0.896340  1.0  1.9786
  Ag  Ag5  1  0.762130  0.087110  0.260100  1.0  0.499
  Ag  Ag6  1  0.669800  0.538190  0.695120  1.0  0.4071
  Ag  Ag7  1  0.427270  0.093330  0.598940  1.0  0.4468
  Ag  Ag8  1  0.335090  0.533000  0.027440  1.0  0.4382
  Ag  Ag9  1  0.912350  0.913730  0.077480  1.0  0.4136
  Ag  Ag10  1  0.999940  0.463300  0.642860  1.0  0.413
  Ag  Ag11  1  0.237870  0.912890  0.739900  1.0  0.4978
  Ag  Ag12  1  0.330200  0.461810  0.304880  1.0  0.4075
  Ag  Ag13  1  0.572730  0.906670  0.401060  1.0  0.4443
  Ag  Ag14  1  0.664910  0.467000  0.972560  1.0  0.4398
  Ag  Ag15  1  0.087650  0.086270  0.922520  1.0  0.414
  Ag  Ag16  1  0.000060  0.536700  0.357140  1.0  0.4113
  H  H17  1  0.775300  0.836600  0.516300  1.0  0.1013
  H  H18  1  0.911100  0.694300  0.585000  1.0  0.0966
  H  H19  1  0.939600  0.898300  0.354900  1.0  0.1145
  H  H20  1  0.016100  0.725500  0.386900  1.0  0.0989
  H  H21  1  0.695800  0.737400  0.730400  1.0  0.1036
  H  H22  1  0.611400  0.909400  0.698200  1.0  0.1105
  H  H23  1  0.757300  0.305000  0.735500  1.0  0.1238
  H  H24  1  0.893600  0.161600  0.805100  1.0  0.092
  H  H25  1  0.656400  0.268900  0.934100  1.0  0.1104
  H  H26  1  0.744600  0.097500  0.962500  1.0  0.1022
  H  H27  1  0.434800  0.301700  0.069900  1.0  0.1183
  H  H28  1  0.563400  0.159800  0.145600  1.0  0.1003
  H  H29  1  0.748300  0.327700  0.445900  1.0  0.4451
  H  H30  1  0.691200  0.418800  0.470400  1.0  0.4693
  H  H31  1  0.224700  0.163400  0.483700  1.0  0.1009
  H  H32  1  0.088900  0.305700  0.415000  1.0  0.0968
  H  H33  1  0.060400  0.101700  0.645100  1.0  0.1136
  H  H34  1  0.983900  0.274500  0.613100  1.0  0.0985
  H  H35  1  0.304200  0.262600  0.269600  1.0  0.1026
  H  H36  1  0.388600  0.090600  0.301800  1.0  0.1099
  H  H37  1  0.242700  0.695000  0.264500  1.0  0.1244
  H  H38  1  0.106400  0.838400  0.194900  1.0  0.0928
  H  H39  1  0.343600  0.731100  0.065900  1.0  0.1113
  H  H40  1  0.255400  0.902500  0.037500  1.0  0.1033
  H  H41  1  0.565200  0.698300  0.930100  1.0  0.1183
  H  H42  1  0.436600  0.840200  0.854400  1.0  0.1005
  H  H43  1  0.251700  0.672300  0.554100  1.0  0.4455
  H  H44  1  0.308800  0.581200  0.529600  1.0  0.4671
  C  C45  1  0.723900  0.675300  0.467700  1.0  0.058
  C  C46  1  0.809300  0.589000  0.506300  1.0  0.0466
  C  C47  1  0.781400  0.773700  0.513800  1.0  0.139
  C  C48  1  0.864400  0.687400  0.554500  1.0  0.1816
  C  C49  1  0.832000  0.480800  0.503500  1.0  0.69
  C  C50  1  0.639800  0.672300  0.420000  1.0  0.6129
  C  C51  1  0.832300  0.760600  0.276000  1.0  0.1124
  C  C52  1  0.789500  0.864700  0.254000  1.0  0.1312
  C  C53  1  0.911500  0.864400  0.332800  1.0  0.156
  C  C54  1  0.956700  0.760300  0.353100  1.0  0.1325
  C  C55  1  0.785100  0.701900  0.247200  1.0  0.6582
  C  C56  1  0.694400  0.929900  0.195600  1.0  0.6907
  C  C57  1  0.513900  0.762600  0.620400  1.0  0.0698
  C  C58  1  0.463500  0.868000  0.600700  1.0  0.1015
  C  C59  1  0.635800  0.769500  0.697100  1.0  0.1461
  C  C60  1  0.585100  0.872800  0.677700  1.0  0.1467
  C  C61  1  0.472800  0.699400  0.592400  1.0  0.6842
  C  C62  1  0.364000  0.930700  0.546000  1.0  0.6984
  C  C63  1  0.864500  0.407100  0.812000  1.0  0.1095
  C  C64  1  0.946000  0.319900  0.856800  1.0  0.039
  C  C65  1  0.805400  0.310800  0.765400  1.0  0.1307
  C  C66  1  0.887000  0.224400  0.808500  1.0  0.1531
  C  C67  1  0.847900  0.514200  0.812400  1.0  0.6817
  C  C68  1  0.022600  0.327700  0.908700  1.0  0.6547
  C  C69  1  0.834100  0.243900  0.047600  1.0  0.049
  C  C70  1  0.887700  0.138400  0.065500  1.0  0.0583
  C  C71  1  0.715700  0.236900  0.968100  1.0  0.1418
  C  C72  1  0.768600  0.134000  0.985400  1.0  0.1671
  C  C73  1  0.867000  0.309800  0.084000  1.0  0.641
  C  C74  1  0.986700  0.076200  0.119400  1.0  0.7079
  C  C75  1  0.533600  0.407000  0.151400  1.0  0.0797
  C  C76  1  0.616500  0.319800  0.194100  1.0  0.0793
  C  C77  1  0.479800  0.307900  0.102600  1.0  0.1624
  C  C78  1  0.558900  0.222600  0.146400  1.0  0.1636
  C  C79  1  0.513200  0.515000  0.150500  1.0  0.6964
  C  C80  1  0.698900  0.321900  0.243300  1.0  0.6268
  C  C81  1  0.276100  0.324700  0.532300  1.0  0.059
  C  C82  1  0.190700  0.411000  0.493700  1.0  0.048
  C  C83  1  0.218600  0.226300  0.486200  1.0  0.1395
  C  C84  1  0.135600  0.312600  0.445500  1.0  0.1815
  C  C85  1  0.168000  0.519200  0.496500  1.0  0.6888
  C  C86  1  0.360200  0.327700  0.580000  1.0  0.6137
  C  C87  1  0.167700  0.239400  0.724000  1.0  0.1133
  C  C88  1  0.210500  0.135300  0.746000  1.0  0.1322
  C  C89  1  0.088500  0.135600  0.667200  1.0  0.1545
  C  C90  1  0.043300  0.239700  0.646900  1.0  0.1339
  C  C91  1  0.214900  0.298100  0.752800  1.0  0.658
  C  C92  1  0.305600  0.070100  0.804400  1.0  0.6903
  C  C93  1  0.486100  0.237400  0.379600  1.0  0.0708
  C  C94  1  0.536500  0.132000  0.399300  1.0  0.1016
  C  C95  1  0.364200  0.230500  0.302900  1.0  0.1473
  C  C96  1  0.414900  0.127200  0.322300  1.0  0.1476
  C  C97  1  0.527200  0.300600  0.407600  1.0  0.6812
  C  C98  1  0.636000  0.069300  0.454000  1.0  0.6981
  C  C99  1  0.135500  0.592900  0.188000  1.0  0.1093
  C  C100  1  0.054000  0.680100  0.143200  1.0  0.0393
  C  C101  1  0.194600  0.689200  0.234600  1.0  0.1301
  C  C102  1  0.113000  0.775600  0.191500  1.0  0.1548
  C  C103  1  0.152100  0.485800  0.187600  1.0  0.6837
  C  C104  1  0.977400  0.672300  0.091300  1.0  0.6521
  C  C105  1  0.165900  0.756100  0.952400  1.0  0.0477
  C  C106  1  0.112300  0.861600  0.934500  1.0  0.056
  C  C107  1  0.284300  0.763100  0.031900  1.0  0.1398
  C  C108  1  0.231400  0.866000  0.014600  1.0  0.166
  C  C109  1  0.133000  0.690200  0.916000  1.0  0.6426
  C  C110  1  0.013300  0.923800  0.880600  1.0  0.7088
  C  C111  1  0.466400  0.593000  0.848600  1.0  0.0803
  C  C112  1  0.383500  0.680200  0.805900  1.0  0.0788
  C  C113  1  0.520200  0.692100  0.897400  1.0  0.1625
  C  C114  1  0.441100  0.777400  0.853600  1.0  0.1628
  C  C115  1  0.486800  0.485000  0.849500  1.0  0.6927
  C  C116  1  0.301100  0.678100  0.756700  1.0  0.6267
  N  N117  1  0.879600  0.595300  0.551600  1.0  -0.3474
  N  N118  1  0.710400  0.768500  0.471400  1.0  -0.3583
  N  N119  1  0.916800  0.708900  0.325300  1.0  -0.3349
  N  N120  1  0.828600  0.917400  0.282200  1.0  -0.3107
  N  N121  1  0.629000  0.227500  0.189900  1.0  -0.3202
  N  N122  1  0.467100  0.399000  0.106300  1.0  -0.2775
  N  N123  1  0.498600  0.922500  0.629800  1.0  -0.3146
  N  N124  1  0.600700  0.714100  0.669100  1.0  -0.3664
  N  N125  1  0.795900  0.401600  0.767000  1.0  -0.2997
  N  N126  1  0.955500  0.228600  0.854100  1.0  -0.3323
  N  N127  1  0.747800  0.292500  0.999300  1.0  -0.3141
  N  N128  1  0.854200  0.083700  0.034400  1.0  -0.3335
  N  N129  1  0.120400  0.404700  0.448400  1.0  -0.3476
  N  N130  1  0.289600  0.231500  0.528600  1.0  -0.356
  N  N131  1  0.083200  0.291100  0.674700  1.0  -0.3344
  N  N132  1  0.171400  0.082600  0.717800  1.0  -0.3104
  N  N133  1  0.371000  0.772500  0.810100  1.0  -0.3213
  N  N134  1  0.532900  0.601000  0.893700  1.0  -0.2757
  N  N135  1  0.501400  0.077500  0.370200  1.0  -0.3138
  N  N136  1  0.399300  0.285900  0.330900  1.0  -0.3659
  N  N137  1  0.204100  0.598400  0.233000  1.0  -0.2981
  N  N138  1  0.044500  0.771400  0.145900  1.0  -0.334
  N  N139  1  0.252200  0.707500  0.000700  1.0  -0.3147
  N  N140  1  0.145800  0.916300  0.965600  1.0  -0.3333
  O  O141  1  0.870700  0.452600  0.433300  1.0  -0.7966
  O  O142  1  0.818900  0.428000  0.568900  1.0  -0.5368
  O  O143  1  0.649400  0.584400  0.422200  1.0  -0.6641
  O  O144  1  0.575200  0.750900  0.380700  1.0  -0.5684
  O  O145  1  0.809200  0.613500  0.289200  1.0  -0.808
  O  O146  1  0.730700  0.742700  0.185100  1.0  -0.4871
  O  O147  1  0.601000  0.951900  0.228800  1.0  -0.5998
  O  O148  1  0.718800  0.960300  0.122000  1.0  -0.6101
  O  O149  1  0.069900  0.249900  0.964700  1.0  -0.7546
  O  O150  1  0.031300  0.406500  0.892900  1.0  -0.4625
  O  O151  1  0.789500  0.550500  0.872900  1.0  -0.6278
  O  O152  1  0.885300  0.557400  0.751600  1.0  -0.5988
  O  O153  1  0.946900  0.263200  0.130000  1.0  -0.6903
  O  O154  1  0.812400  0.401300  0.068000  1.0  -0.5693
  O  O155  1  0.075200  0.076600  0.088000  1.0  -0.7235
  O  O156  1  0.970400  0.029000  0.188400  1.0  -0.5827
  O  O157  1  0.778000  0.241200  0.268000  1.0  -0.5999
  O  O158  1  0.681800  0.408400  0.253300  1.0  -0.7229
  O  O159  1  0.451100  0.555900  0.207100  1.0  -0.5673
  O  O160  1  0.556100  0.554000  0.090200  1.0  -0.6421
  O  O161  1  0.531500  0.607100  0.602700  1.0  -0.6082
  O  O162  1  0.381000  0.745100  0.562500  1.0  -0.5238
  O  O163  1  0.274800  0.965400  0.583300  1.0  -0.6289
  O  O164  1  0.382600  0.945500  0.468600  1.0  -0.6386
  O  O165  1  0.693600  0.384700  0.435600  1.0  -0.7555
  O  O166  1  0.129300  0.547400  0.566700  1.0  -0.795
  O  O167  1  0.181100  0.572000  0.431100  1.0  -0.5372
  O  O168  1  0.350600  0.415600  0.577800  1.0  -0.6657
  O  O169  1  0.424800  0.249100  0.619300  1.0  -0.5693
  O  O170  1  0.190800  0.386500  0.710800  1.0  -0.808
  O  O171  1  0.269300  0.257300  0.814900  1.0  -0.4882
  O  O172  1  0.399000  0.048100  0.771200  1.0  -0.6014
  O  O173  1  0.281200  0.039700  0.878000  1.0  -0.6112
  O  O174  1  0.930100  0.750100  0.035300  1.0  -0.7565
  O  O175  1  0.968700  0.593500  0.107100  1.0  -0.4634
  O  O176  1  0.210500  0.449500  0.127100  1.0  -0.6288
  O  O177  1  0.114700  0.442600  0.248400  1.0  -0.6005
  O  O178  1  0.053100  0.736800  0.870000  1.0  -0.69
  O  O179  1  0.187600  0.598700  0.932000  1.0  -0.569
  O  O180  1  0.924800  0.923400  0.912000  1.0  -0.7249
  O  O181  1  0.029600  0.971000  0.811600  1.0  -0.5844
  O  O182  1  0.222000  0.758800  0.732000  1.0  -0.6001
  O  O183  1  0.318200  0.591600  0.746700  1.0  -0.7219
  O  O184  1  0.548900  0.444100  0.792900  1.0  -0.566
  O  O185  1  0.443900  0.446000  0.909800  1.0  -0.6402
  O  O186  1  0.468500  0.392900  0.397300  1.0  -0.6074
  O  O187  1  0.619000  0.254900  0.437500  1.0  -0.5249
  O  O188  1  0.725200  0.034600  0.416700  1.0  -0.6273
  O  O189  1  0.617400  0.054500  0.531400  1.0  -0.6393
  O  O190  1  0.306400  0.615300  0.564400  1.0  -0.7541
