# generated using pymatgen
data_MnH3C7O3
_symmetry_space_group_name_H-M   'P 1'
_cell_length_a   21.68190000
_cell_length_b   21.68190000
_cell_length_c   7.07940000
_cell_angle_alpha   90.00000000
_cell_angle_beta   90.00000000
_cell_angle_gamma   120.00000000
_symmetry_Int_Tables_number   1
_chemical_formula_structural   MnH3C7O3
_chemical_formula_sum   'Mn6 H18 C42 O18'
_cell_volume   2882.18436104
_cell_formula_units_Z   6
loop_
 _symmetry_equiv_pos_site_id
 _symmetry_equiv_pos_as_xyz
  1  'x, y, z'
loop_
 _atom_site_type_symbol
 _atom_site_label
 _atom_site_symmetry_multiplicity
 _atom_site_fract_x
 _atom_site_fract_y
 _atom_site_fract_z
 _atom_site_occupancy
 _atom_site_charge
  Mn  Mn1  1  0.609640  0.271670  0.145460  1.0  1.1089
  Mn  Mn2  1  0.728330  0.337970  0.812130  1.0  1.1075
  Mn  Mn3  1  0.662030  0.390360  0.478790  1.0  1.1074
  Mn  Mn4  1  0.271670  0.609640  0.854540  1.0  1.1081
  Mn  Mn5  1  0.337970  0.728330  0.187870  1.0  1.1078
  Mn  Mn6  1  0.390360  0.662030  0.521210  1.0  1.1077
  H  H7  1  0.582660  0.009680  0.964950  1.0  0.0833
  H  H8  1  0.625770  0.118830  0.117070  1.0  0.108
  H  H9  1  0.562080  0.085480  0.488140  1.0  0.0671
  H  H10  1  0.990320  0.572980  0.631620  1.0  0.0854
  H  H11  1  0.881170  0.506940  0.783740  1.0  0.1051
  H  H12  1  0.914520  0.476600  0.154810  1.0  0.0666
  H  H13  1  0.427020  0.417340  0.298280  1.0  0.086
  H  H14  1  0.493060  0.374230  0.450400  1.0  0.1078
  H  H15  1  0.523400  0.437920  0.821470  1.0  0.0661
  H  H16  1  0.009680  0.582660  0.035050  1.0  0.0839
  H  H17  1  0.118830  0.625770  0.882930  1.0  0.1087
  H  H18  1  0.085480  0.562080  0.511860  1.0  0.0665
  H  H19  1  0.572980  0.990320  0.368380  1.0  0.0842
  H  H20  1  0.506940  0.881170  0.216260  1.0  0.1058
  H  H21  1  0.476600  0.914520  0.845190  1.0  0.0674
  H  H22  1  0.417340  0.427020  0.701720  1.0  0.0868
  H  H23  1  0.374230  0.493060  0.549600  1.0  0.1091
  H  H24  1  0.437920  0.523400  0.178530  1.0  0.0679
  C  C25  1  0.631900  0.179800  0.870700  1.0  0.2955
  C  C26  1  0.611200  0.164900  0.681200  1.0  -0.1681
  C  C27  1  0.576100  0.095800  0.616700  1.0  -0.0667
  C  C28  1  0.563400  0.038600  0.714000  1.0  0.0084
  C  C29  1  0.587800  0.049800  0.897100  1.0  -0.0561
  C  C30  1  0.613300  0.114400  0.987200  1.0  -0.1227
  C  C31  1  0.617700  0.219100  0.542100  1.0  0.7043
  C  C32  1  0.820200  0.452100  0.537370  1.0  0.2973
  C  C33  1  0.835100  0.446300  0.347870  1.0  -0.1685
  C  C34  1  0.904200  0.480300  0.283370  1.0  -0.0659
  C  C35  1  0.961400  0.524800  0.380670  1.0  0.0071
  C  C36  1  0.950200  0.538000  0.563770  1.0  -0.0577
  C  C37  1  0.885600  0.498900  0.653870  1.0  -0.1235
  C  C38  1  0.780900  0.398600  0.208770  1.0  0.705
  C  C39  1  0.547900  0.368100  0.204030  1.0  0.2955
  C  C40  1  0.553700  0.388800  0.014530  1.0  -0.1684
  C  C41  1  0.519700  0.423900  0.950030  1.0  -0.0669
  C  C42  1  0.475200  0.436600  0.047330  1.0  0.0058
  C  C43  1  0.462000  0.412200  0.230430  1.0  -0.0557
  C  C44  1  0.501100  0.386700  0.320530  1.0  -0.1249
  C  C45  1  0.601400  0.382300  0.875430  1.0  0.7035
  C  C46  1  0.179800  0.631900  0.129300  1.0  0.296
  C  C47  1  0.164900  0.611200  0.318800  1.0  -0.1688
  C  C48  1  0.095800  0.576100  0.383300  1.0  -0.0673
  C  C49  1  0.038600  0.563400  0.286000  1.0  0.0052
  C  C50  1  0.049800  0.587800  0.102900  1.0  -0.0577
  C  C51  1  0.114400  0.613300  0.012800  1.0  -0.1219
  C  C52  1  0.219100  0.617700  0.457900  1.0  0.7039
  C  C53  1  0.452100  0.820200  0.462630  1.0  0.2956
  C  C54  1  0.446300  0.835100  0.652130  1.0  -0.1687
  C  C55  1  0.480300  0.904200  0.716630  1.0  -0.0671
  C  C56  1  0.524800  0.961400  0.619330  1.0  0.0076
  C  C57  1  0.538000  0.950200  0.436230  1.0  -0.0552
  C  C58  1  0.498900  0.885600  0.346130  1.0  -0.122
  C  C59  1  0.398600  0.780900  0.791230  1.0  0.7042
  C  C60  1  0.368100  0.547900  0.795970  1.0  0.2984
  C  C61  1  0.388800  0.553700  0.985470  1.0  -0.1681
  C  C62  1  0.423900  0.519700  0.049970  1.0  -0.0657
  C  C63  1  0.436600  0.475200  0.952670  1.0  0.0071
  C  C64  1  0.412200  0.462000  0.769570  1.0  -0.0557
  C  C65  1  0.386700  0.501100  0.679470  1.0  -0.1239
  C  C66  1  0.382300  0.601400  0.124570  1.0  0.7049
  O  O67  1  0.659490  0.238700  0.959100  1.0  -0.6488
  O  O68  1  0.643840  0.282300  0.594900  1.0  -0.6505
  O  O69  1  0.593500  0.202260  0.378600  1.0  -0.661
  O  O70  1  0.761300  0.420790  0.625770  1.0  -0.6474
  O  O71  1  0.717700  0.361540  0.261570  1.0  -0.6505
  O  O72  1  0.797740  0.391240  0.045270  1.0  -0.6616
  O  O73  1  0.579210  0.340510  0.292430  1.0  -0.6476
  O  O74  1  0.638460  0.356160  0.928230  1.0  -0.6495
  O  O75  1  0.608760  0.406500  0.711930  1.0  -0.6614
  O  O76  1  0.238700  0.659490  0.040900  1.0  -0.6485
  O  O77  1  0.282300  0.643840  0.405100  1.0  -0.6495
  O  O78  1  0.202260  0.593500  0.621400  1.0  -0.6624
  O  O79  1  0.420790  0.761300  0.374230  1.0  -0.6486
  O  O80  1  0.361540  0.717700  0.738430  1.0  -0.6505
  O  O81  1  0.391240  0.797740  0.954730  1.0  -0.663
  O  O82  1  0.340510  0.579210  0.707570  1.0  -0.6471
  O  O83  1  0.356160  0.638460  0.071770  1.0  -0.6502
  O  O84  1  0.406500  0.608760  0.288070  1.0  -0.6629
