# generated using pymatgen
data_CrH4C8O5
_symmetry_space_group_name_H-M   'P 1'
_cell_length_a   6.85870000
_cell_length_b   11.20330000
_cell_length_c   11.20330000
_cell_angle_alpha   76.00220000
_cell_angle_beta   72.17550000
_cell_angle_gamma   72.17580000
_symmetry_Int_Tables_number   1
_chemical_formula_structural   CrH4C8O5
_chemical_formula_sum   'Cr2 H8 C16 O10'
_cell_volume   769.70212315
_cell_formula_units_Z   2
loop_
 _symmetry_equiv_pos_site_id
 _symmetry_equiv_pos_as_xyz
  1  'x, y, z'
loop_
 _atom_site_type_symbol
 _atom_site_label
 _atom_site_symmetry_multiplicity
 _atom_site_fract_x
 _atom_site_fract_y
 _atom_site_fract_z
 _atom_site_occupancy
 _atom_site_charge
  Cr  Cr1  1  0.000000  0.000000  0.500000  1.0  1.5832
  Cr  Cr2  1  0.500000  0.000000  0.500000  1.0  1.5832
  H  H3  1  0.858960  0.388160  0.495340  1.0  0.0372
  H  H4  1  0.358960  0.995340  0.888160  1.0  0.0342
  H  H5  1  0.257540  0.388160  0.495340  1.0  0.0322
  H  H6  1  0.757540  0.995340  0.888160  1.0  0.0327
  H  H7  1  0.641040  0.004660  0.111840  1.0  0.0343
  H  H8  1  0.141040  0.611840  0.504660  1.0  0.0388
  H  H9  1  0.242460  0.004660  0.111840  1.0  0.0317
  H  H10  1  0.742460  0.611840  0.504660  1.0  0.0298
  C  C11  1  0.676910  0.437820  0.495580  1.0  0.1111
  C  C12  1  0.631370  0.240210  0.497050  1.0  0.6184
  C  C13  1  0.823090  0.004420  0.062180  1.0  0.114
  C  C14  1  0.368630  0.759790  0.502950  1.0  0.6203
  C  C15  1  0.064550  0.996090  0.874810  1.0  0.053
  C  C16  1  0.323090  0.562180  0.504420  1.0  0.1124
  C  C17  1  0.564550  0.374810  0.496090  1.0  0.0766
  C  C18  1  0.131370  0.997050  0.740210  1.0  0.6187
  C  C19  1  0.889690  0.995580  0.937820  1.0  0.1146
  C  C20  1  0.435450  0.625190  0.503910  1.0  0.0751
  C  C21  1  0.610310  0.562180  0.504420  1.0  0.1156
  C  C22  1  0.935450  0.003910  0.125190  1.0  0.0531
  C  C23  1  0.176910  0.995580  0.937820  1.0  0.1131
  C  C24  1  0.110310  0.004420  0.062180  1.0  0.1125
  C  C25  1  0.389690  0.437820  0.495580  1.0  0.1157
  C  C26  1  0.868630  0.002950  0.259790  1.0  0.6206
  O  O27  1  0.485200  0.823590  0.503530  1.0  -0.6487
  O  O28  1  0.187680  0.823590  0.503530  1.0  -0.6462
  O  O29  1  0.514800  0.176410  0.496470  1.0  -0.6485
  O  O30  1  0.687680  0.003530  0.323590  1.0  -0.6457
  O  O31  1  0.312320  0.996470  0.676410  1.0  -0.6467
  O  O32  1  0.014800  0.996470  0.676410  1.0  -0.6415
  O  O33  1  0.812320  0.176410  0.496470  1.0  -0.648
  O  O34  1  0.750000  0.968150  0.531850  1.0  -0.9555
  O  O35  1  0.250000  0.031850  0.468150  1.0  -0.957
  O  O36  1  0.985200  0.003530  0.323590  1.0  -0.6443
