# generated using pymatgen
data_CrH4C8O5
_symmetry_space_group_name_H-M   'P 1'
_cell_length_a   6.84700000
_cell_length_b   11.19120000
_cell_length_c   11.19120000
_cell_angle_alpha   71.93010000
_cell_angle_beta   72.18710000
_cell_angle_gamma   72.18710000
_symmetry_Int_Tables_number   1
_chemical_formula_structural   CrH4C8O5
_chemical_formula_sum   'Cr2 H8 C16 O10'
_cell_volume   754.77126535
_cell_formula_units_Z   2
loop_
 _symmetry_equiv_pos_site_id
 _symmetry_equiv_pos_as_xyz
  1  'x, y, z'
loop_
 _atom_site_type_symbol
 _atom_site_label
 _atom_site_symmetry_multiplicity
 _atom_site_fract_x
 _atom_site_fract_y
 _atom_site_fract_z
 _atom_site_occupancy
 _atom_site_charge
  Cr  Cr1  1  0.000000  0.000000  0.500000  1.0  1.6812
  Cr  Cr2  1  0.500000  0.000000  0.500000  1.0  1.6812
  H  H3  1  0.746000  0.001000  0.887000  1.0  0.1249
  H  H4  1  0.754000  0.613000  0.499000  1.0  0.1262
  H  H5  1  0.866000  0.387000  0.501000  1.0  0.1258
  H  H6  1  0.366000  0.001000  0.887000  1.0  0.1269
  H  H7  1  0.254000  0.999000  0.113000  1.0  0.126
  H  H8  1  0.134000  0.613000  0.499000  1.0  0.1269
  H  H9  1  0.634000  0.999000  0.113000  1.0  0.1262
  H  H10  1  0.246000  0.387000  0.501000  1.0  0.1249
  C  C11  1  0.431000  0.633000  0.505000  1.0  -0.0455
  C  C12  1  0.642000  0.227000  0.489000  1.0  0.7634
  C  C13  1  0.135000  0.999000  0.067000  1.0  -0.0831
  C  C14  1  0.701000  0.433000  0.501000  1.0  -0.0852
  C  C15  1  0.358000  0.773000  0.511000  1.0  0.7628
  C  C16  1  0.142000  0.989000  0.727000  1.0  0.7651
  C  C17  1  0.299000  0.567000  0.499000  1.0  -0.0835
  C  C18  1  0.201000  0.001000  0.933000  1.0  -0.0853
  C  C19  1  0.865000  0.001000  0.933000  1.0  -0.0845
  C  C20  1  0.931000  0.005000  0.133000  1.0  -0.0476
  C  C21  1  0.799000  0.999000  0.067000  1.0  -0.0839
  C  C22  1  0.069000  0.995000  0.867000  1.0  -0.0499
  C  C23  1  0.569000  0.367000  0.495000  1.0  -0.046
  C  C24  1  0.858000  0.011000  0.273000  1.0  0.7644
  C  C25  1  0.635000  0.567000  0.499000  1.0  -0.0887
  C  C26  1  0.365000  0.433000  0.501000  1.0  -0.088
  O  O27  1  0.819000  0.178000  0.492000  1.0  -0.6106
  O  O28  1  0.681000  0.008000  0.322000  1.0  -0.6086
  O  O29  1  0.319000  0.992000  0.678000  1.0  -0.6089
  O  O30  1  0.489000  0.822000  0.508000  1.0  -0.6094
  O  O31  1  0.250000  0.050000  0.450000  1.0  -0.8415
  O  O32  1  0.011000  0.992000  0.678000  1.0  -0.6068
  O  O33  1  0.989000  0.008000  0.322000  1.0  -0.609
  O  O34  1  0.181000  0.822000  0.508000  1.0  -0.6099
  O  O35  1  0.511000  0.178000  0.492000  1.0  -0.6078
  O  O36  1  0.750000  0.950000  0.550000  1.0  -0.8421
