# generated using pymatgen
data_Zn2H30C30(NO2)3
_symmetry_space_group_name_H-M   'P 1'
_cell_length_a   22.36080000
_cell_length_b   22.36080000
_cell_length_c   22.36080000
_cell_angle_alpha   109.47100000
_cell_angle_beta   109.47100000
_cell_angle_gamma   109.47100000
_symmetry_Int_Tables_number   1
_chemical_formula_structural   Zn2H30C30(NO2)3
_chemical_formula_sum   'Zn16 H240 C240 N24 O48'
_cell_volume   8606.83878891
_cell_formula_units_Z   8
loop_
 _symmetry_equiv_pos_site_id
 _symmetry_equiv_pos_as_xyz
  1  'x, y, z'
loop_
 _atom_site_type_symbol
 _atom_site_label
 _atom_site_symmetry_multiplicity
 _atom_site_fract_x
 _atom_site_fract_y
 _atom_site_fract_z
 _atom_site_occupancy
 _atom_site_charge
  Zn  Zn1  1  0.538400  0.538400  0.038400  1.0  0.7687
  Zn  Zn2  1  0.500000  0.304800  0.500000  1.0  0.694
  Zn  Zn3  1  0.000000  0.500000  0.304800  1.0  0.6925
  Zn  Zn4  1  0.500000  0.461600  0.500000  1.0  0.7704
  Zn  Zn5  1  0.804800  0.000000  0.000000  1.0  0.6871
  Zn  Zn6  1  0.961600  0.000000  0.000000  1.0  0.7768
  Zn  Zn7  1  0.038400  0.038400  0.538400  1.0  0.7687
  Zn  Zn8  1  0.000000  0.500000  0.461600  1.0  0.7811
  Zn  Zn9  1  0.000000  0.500000  0.804800  1.0  0.6925
  Zn  Zn10  1  0.500000  0.804800  0.500000  1.0  0.694
  Zn  Zn11  1  0.500000  0.961600  0.500000  1.0  0.7704
  Zn  Zn12  1  0.461600  0.000000  0.000000  1.0  0.7768
  Zn  Zn13  1  0.304800  0.000000  0.000000  1.0  0.6871
  Zn  Zn14  1  0.000000  0.500000  0.961600  1.0  0.7811
  Zn  Zn15  1  0.695200  0.695200  0.195200  1.0  0.6939
  Zn  Zn16  1  0.195200  0.195200  0.695200  1.0  0.6939
  H  H17  1  0.813900  0.563700  0.521800  1.0  0.1012
  H  H18  1  0.463900  0.495800  0.677700  1.0  0.0878
  H  H19  1  0.250200  0.958100  0.436300  1.0  0.1038
  H  H20  1  0.923800  0.473300  0.069900  1.0  0.0816
  H  H21  1  0.076200  0.549500  0.646100  1.0  0.0809
  H  H22  1  0.323100  0.086100  0.679400  1.0  0.1154
  H  H23  1  0.749800  0.707900  0.686100  1.0  0.103
  H  H24  1  0.865200  0.404600  0.508200  1.0  0.0809
  H  H25  1  0.786200  0.322300  0.818100  1.0  0.0877
  H  H26  1  0.938100  0.050900  0.886800  1.0  0.0844
  H  H27  1  0.995800  0.963900  0.177700  1.0  0.0891
  H  H28  1  0.350900  0.613600  0.969500  1.0  0.0619
  H  H29  1  0.646100  0.049500  0.076200  1.0  0.0816
  H  H30  1  0.924200  0.088900  0.557500  1.0  0.0855
  H  H31  1  0.857000  0.896400  0.491800  1.0  0.0781
  H  H32  1  0.531400  0.942500  0.366700  1.0  0.0777
  H  H33  1  0.468100  0.504200  0.181900  1.0  0.0877
  H  H34  1  0.968600  0.335300  0.411100  1.0  0.0813
  H  H35  1  0.404600  0.008200  0.365200  1.0  0.0798
  H  H36  1  0.881400  0.644100  0.030500  1.0  0.06
  H  H37  1  0.320600  0.906700  0.143700  1.0  0.116
  H  H38  1  0.143700  0.406700  0.320600  1.0  0.116
  H  H39  1  0.438700  0.501900  0.851800  1.0  0.0677
  H  H40  1  0.143000  0.039400  0.134800  1.0  0.0749
  H  H41  1  0.355900  0.886400  0.237300  1.0  0.0618
  H  H42  1  0.969500  0.113600  0.350900  1.0  0.0628
  H  H43  1  0.423800  0.069900  0.473300  1.0  0.0819
  H  H44  1  0.563200  0.061300  0.413100  1.0  0.0654
  H  H45  1  0.438100  0.886800  0.050900  1.0  0.0833
  H  H46  1  0.949100  0.335900  0.887200  1.0  0.0845
  H  H47  1  0.835900  0.449100  0.387200  1.0  0.0851
  H  H48  1  0.057500  0.924200  0.588900  1.0  0.0802
  H  H49  1  0.406700  0.820600  0.643700  1.0  0.1154
  H  H50  1  0.448700  0.612800  0.061900  1.0  0.0836
  H  H51  1  0.001900  0.938700  0.351800  1.0  0.0641
  H  H52  1  0.557500  0.588900  0.924200  1.0  0.0838
  H  H53  1  0.561300  0.063200  0.913100  1.0  0.066
  H  H54  1  0.998100  0.936800  0.849900  1.0  0.0646
  H  H55  1  0.737000  0.913900  0.593300  1.0  0.1156
  H  H56  1  0.648200  0.086900  0.150100  1.0  0.0668
  H  H57  1  0.413100  0.561300  0.563200  1.0  0.0672
  H  H58  1  0.375700  0.933800  0.364500  1.0  0.079
  H  H59  1  0.004200  0.968100  0.681900  1.0  0.0881
  H  H60  1  0.011200  0.635500  0.569300  1.0  0.0751
  H  H61  1  0.595400  0.603600  0.460600  1.0  0.0798
  H  H62  1  0.436300  0.458100  0.250200  1.0  0.103
  H  H63  1  0.495800  0.177700  0.963900  1.0  0.0887
  H  H64  1  0.318100  0.786200  0.822300  1.0  0.089
  H  H65  1  0.588900  0.424200  0.057500  1.0  0.0799
  H  H66  1  0.991800  0.857000  0.396400  1.0  0.0743
  H  H67  1  0.904600  0.365200  0.008200  1.0  0.0823
  H  H68  1  0.713800  0.531900  0.536100  1.0  0.0877
  H  H69  1  0.978200  0.792100  0.541900  1.0  0.1032
  H  H70  1  0.075800  0.164700  0.133300  1.0  0.0839
  H  H71  1  0.031400  0.366700  0.942500  1.0  0.0802
  H  H72  1  0.539400  0.643000  0.634800  1.0  0.0775
  H  H73  1  0.936800  0.349900  0.498100  1.0  0.0714
  H  H74  1  0.569900  0.923800  0.973300  1.0  0.0829
  H  H75  1  0.887200  0.835900  0.949100  1.0  0.0843
  H  H76  1  0.249800  0.686100  0.707900  1.0  0.1024
  H  H77  1  0.051300  0.113200  0.164100  1.0  0.0834
  H  H78  1  0.856300  0.263000  0.676900  1.0  0.1162
  H  H79  1  0.351800  0.438700  0.001900  1.0  0.0676
  H  H80  1  0.113200  0.664100  0.551300  1.0  0.0847
  H  H81  1  0.903400  0.853900  0.430100  1.0  0.077
  H  H82  1  0.511200  0.569300  0.635500  1.0  0.0801
  H  H83  1  0.576200  0.646100  0.549500  1.0  0.0771
  H  H84  1  0.086100  0.179400  0.823100  1.0  0.1153
  H  H85  1  0.058100  0.124300  0.988800  1.0  0.0789
  H  H86  1  0.460600  0.103600  0.595400  1.0  0.0764
  H  H87  1  0.449100  0.887200  0.335900  1.0  0.0854
  H  H88  1  0.504200  0.681900  0.968100  1.0  0.0886
  H  H89  1  0.930700  0.941900  0.566200  1.0  0.0808
  H  H90  1  0.066200  0.930700  0.441900  1.0  0.0777
  H  H91  1  0.026700  0.450500  0.096600  1.0  0.0837
  H  H92  1  0.864500  0.375700  0.433800  1.0  0.0757
  H  H93  1  0.521800  0.063700  0.813900  1.0  0.1034
  H  H94  1  0.686100  0.207900  0.749800  1.0  0.1019
  H  H95  1  0.364500  0.433800  0.375700  1.0  0.0796
  H  H96  1  0.855900  0.237300  0.886400  1.0  0.0615
  H  H97  1  0.063200  0.413100  0.061300  1.0  0.0653
  H  H98  1  0.792100  0.041900  0.478200  1.0  0.1044
  H  H99  1  0.176900  0.856300  0.763000  1.0  0.1173
  H  H100  1  0.531900  0.036100  0.213800  1.0  0.089
  H  H101  1  0.313900  0.521800  0.563700  1.0  0.104
  H  H102  1  0.146100  0.076200  0.049500  1.0  0.082
  H  H103  1  0.851800  0.001900  0.438700  1.0  0.0708
  H  H104  1  0.612800  0.561900  0.948700  1.0  0.0845
  H  H105  1  0.526700  0.096600  0.450500  1.0  0.0826
  H  H106  1  0.558100  0.988800  0.124300  1.0  0.0811
  H  H107  1  0.849900  0.436800  0.998100  1.0  0.0709
  H  H108  1  0.707900  0.186100  0.249800  1.0  0.1036
  H  H109  1  0.596600  0.026700  0.950500  1.0  0.0896
  H  H110  1  0.942500  0.866700  0.031400  1.0  0.0788
  H  H111  1  0.030500  0.144100  0.881400  1.0  0.0617
  H  H112  1  0.822300  0.286200  0.318100  1.0  0.0887
  H  H113  1  0.021800  0.813900  0.063700  1.0  0.1022
  H  H114  1  0.763000  0.356300  0.176900  1.0  0.1168
  H  H115  1  0.911100  0.968600  0.835300  1.0  0.0819
  H  H116  1  0.561900  0.448700  0.112800  1.0  0.0835
  H  H117  1  0.896400  0.991800  0.357000  1.0  0.0799
  H  H118  1  0.036100  0.713800  0.031900  1.0  0.0881
  H  H119  1  0.237300  0.386400  0.355900  1.0  0.0616
  H  H120  1  0.403400  0.430100  0.853900  1.0  0.0811
  H  H121  1  0.366700  0.442500  0.531400  1.0  0.0785
  H  H122  1  0.103600  0.095400  0.960600  1.0  0.0785
  H  H123  1  0.566200  0.441900  0.930700  1.0  0.0815
  H  H124  1  0.551300  0.164100  0.113200  1.0  0.0831
  H  H125  1  0.365200  0.508200  0.404600  1.0  0.0781
  H  H126  1  0.644100  0.530500  0.381400  1.0  0.064
  H  H127  1  0.938700  0.851800  0.501900  1.0  0.0709
  H  H128  1  0.442500  0.031400  0.866700  1.0  0.0806
  H  H129  1  0.750200  0.436300  0.958100  1.0  0.1018
  H  H130  1  0.541900  0.292100  0.978200  1.0  0.103
  H  H131  1  0.681900  0.468100  0.004200  1.0  0.0879
  H  H132  1  0.008200  0.865200  0.904600  1.0  0.0798
  H  H133  1  0.563700  0.021800  0.313900  1.0  0.1039
  H  H134  1  0.569300  0.135500  0.011200  1.0  0.0776
  H  H135  1  0.088900  0.057500  0.424200  1.0  0.0797
  H  H136  1  0.133300  0.664700  0.075800  1.0  0.0813
  H  H137  1  0.096600  0.950500  0.026700  1.0  0.0849
  H  H138  1  0.963900  0.677700  0.495800  1.0  0.0876
  H  H139  1  0.886400  0.737300  0.855900  1.0  0.0616
  H  H140  1  0.150100  0.586900  0.648200  1.0  0.0649
  H  H141  1  0.913900  0.093300  0.237000  1.0  0.1162
  H  H142  1  0.624300  0.558100  0.488800  1.0  0.0825
  H  H143  1  0.286200  0.818100  0.322300  1.0  0.0879
  H  H144  1  0.508200  0.904600  0.865200  1.0  0.0799
  H  H145  1  0.436800  0.498100  0.349900  1.0  0.0666
  H  H146  1  0.549500  0.146100  0.576200  1.0  0.0788
  H  H147  1  0.063700  0.313900  0.021800  1.0  0.101
  H  H148  1  0.164700  0.633300  0.575800  1.0  0.0804
  H  H149  1  0.948700  0.061900  0.612800  1.0  0.0844
  H  H150  1  0.049500  0.576200  0.146100  1.0  0.08
  H  H151  1  0.335900  0.387200  0.449100  1.0  0.0845
  H  H152  1  0.613600  0.469500  0.850900  1.0  0.0639
  H  H153  1  0.262700  0.618600  0.149100  1.0  0.061
  H  H154  1  0.413900  0.237000  0.093300  1.0  0.1154
  H  H155  1  0.353900  0.403400  0.930100  1.0  0.0775
  H  H156  1  0.906700  0.643700  0.820600  1.0  0.1163
  H  H157  1  0.335300  0.911100  0.468600  1.0  0.0852
  H  H158  1  0.213800  0.536100  0.531900  1.0  0.0886
  H  H159  1  0.118600  0.762700  0.649100  1.0  0.061
  H  H160  1  0.635500  0.069300  0.511200  1.0  0.0786
  H  H161  1  0.664700  0.575800  0.633300  1.0  0.0806
  H  H162  1  0.649100  0.262700  0.118600  1.0  0.0612
  H  H163  1  0.643700  0.320600  0.406700  1.0  0.1163
  H  H164  1  0.031900  0.213800  0.036100  1.0  0.0886
  H  H165  1  0.387200  0.949100  0.835900  1.0  0.0844
  H  H166  1  0.322300  0.318100  0.286200  1.0  0.0888
  H  H167  1  0.093300  0.737000  0.413900  1.0  0.116
  H  H168  1  0.930100  0.903400  0.353900  1.0  0.0755
  H  H169  1  0.433800  0.875700  0.864500  1.0  0.0782
  H  H170  1  0.124300  0.488800  0.558100  1.0  0.0751
  H  H171  1  0.737300  0.355900  0.386400  1.0  0.0593
  H  H172  1  0.135500  0.511200  0.069300  1.0  0.0749
  H  H173  1  0.134800  0.539400  0.143000  1.0  0.0802
  H  H174  1  0.866700  0.531400  0.442500  1.0  0.0837
  H  H175  1  0.381400  0.030500  0.644100  1.0  0.0611
  H  H176  1  0.069900  0.973300  0.923800  1.0  0.0861
  H  H177  1  0.292100  0.478200  0.041900  1.0  0.1042
  H  H178  1  0.958100  0.936300  0.750200  1.0  0.1033
  H  H179  1  0.850900  0.969500  0.613600  1.0  0.0618
  H  H180  1  0.634800  0.143000  0.539400  1.0  0.0763
  H  H181  1  0.835300  0.468600  0.911100  1.0  0.0828
  H  H182  1  0.041900  0.978200  0.292100  1.0  0.1033
  H  H183  1  0.069300  0.011200  0.135500  1.0  0.0816
  H  H184  1  0.061300  0.913100  0.063200  1.0  0.0675
  H  H185  1  0.586900  0.148200  0.650100  1.0  0.069
  H  H186  1  0.424200  0.557500  0.088900  1.0  0.0792
  H  H187  1  0.468600  0.411100  0.335300  1.0  0.0834
  H  H188  1  0.603600  0.960600  0.095400  1.0  0.0752
  H  H189  1  0.633300  0.075800  0.664700  1.0  0.0807
  H  H190  1  0.450500  0.596600  0.526700  1.0  0.0832
  H  H191  1  0.181900  0.004200  0.468100  1.0  0.0881
  H  H192  1  0.875700  0.364500  0.933800  1.0  0.0753
  H  H193  1  0.396400  0.357000  0.991800  1.0  0.0759
  H  H194  1  0.823100  0.679400  0.086100  1.0  0.1155
  H  H195  1  0.039400  0.634800  0.643000  1.0  0.0792
  H  H196  1  0.501900  0.351800  0.938700  1.0  0.068
  H  H197  1  0.177700  0.463900  0.995800  1.0  0.0885
  H  H198  1  0.941900  0.066200  0.430700  1.0  0.0812
  H  H199  1  0.762700  0.149100  0.618600  1.0  0.0624
  H  H200  1  0.386400  0.855900  0.737300  1.0  0.0612
  H  H201  1  0.164100  0.613200  0.051300  1.0  0.0837
  H  H202  1  0.677700  0.995800  0.463900  1.0  0.088
  H  H203  1  0.148200  0.150100  0.086900  1.0  0.0703
  H  H204  1  0.820600  0.143700  0.906700  1.0  0.1167
  H  H205  1  0.988800  0.624300  0.058100  1.0  0.0768
  H  H206  1  0.676900  0.763000  0.856300  1.0  0.1153
  H  H207  1  0.357000  0.491800  0.896400  1.0  0.0776
  H  H208  1  0.149100  0.118600  0.262700  1.0  0.0611
  H  H209  1  0.679400  0.586100  0.323100  1.0  0.1169
  H  H210  1  0.061900  0.112800  0.448700  1.0  0.0839
  H  H211  1  0.349900  0.998100  0.436800  1.0  0.0707
  H  H212  1  0.960600  0.595400  0.103600  1.0  0.0785
  H  H213  1  0.913100  0.563200  0.561300  1.0  0.0696
  H  H214  1  0.950500  0.526700  0.596600  1.0  0.0842
  H  H215  1  0.498100  0.849900  0.936800  1.0  0.072
  H  H216  1  0.112800  0.948700  0.561900  1.0  0.0828
  H  H217  1  0.441900  0.430700  0.066200  1.0  0.0804
  H  H218  1  0.491800  0.396400  0.857000  1.0  0.0804
  H  H219  1  0.469500  0.350900  0.113600  1.0  0.0624
  H  H220  1  0.853900  0.930100  0.403400  1.0  0.0803
  H  H221  1  0.050900  0.386800  0.438100  1.0  0.0835
  H  H222  1  0.356300  0.676900  0.263000  1.0  0.1157
  H  H223  1  0.478200  0.541900  0.792100  1.0  0.1018
  H  H224  1  0.086900  0.650100  0.148200  1.0  0.0682
  H  H225  1  0.386800  0.938100  0.550900  1.0  0.0858
  H  H226  1  0.586100  0.823100  0.179400  1.0  0.1151
  H  H227  1  0.550900  0.438100  0.386800  1.0  0.0831
  H  H228  1  0.179400  0.323100  0.586100  1.0  0.1159
  H  H229  1  0.473300  0.569900  0.423800  1.0  0.0835
  H  H230  1  0.430100  0.353900  0.903400  1.0  0.0748
  H  H231  1  0.973300  0.423800  0.569900  1.0  0.0802
  H  H232  1  0.144100  0.381400  0.530500  1.0  0.0606
  H  H233  1  0.613200  0.551300  0.664100  1.0  0.0846
  H  H234  1  0.886800  0.550900  0.938100  1.0  0.0854
  H  H235  1  0.968100  0.181900  0.504200  1.0  0.0877
  H  H236  1  0.664100  0.051300  0.613200  1.0  0.0831
  H  H237  1  0.536100  0.031900  0.713800  1.0  0.0881
  H  H238  1  0.643000  0.134800  0.039400  1.0  0.0791
  H  H239  1  0.650100  0.648200  0.586900  1.0  0.0685
  H  H240  1  0.207900  0.249800  0.186100  1.0  0.1038
  H  H241  1  0.186100  0.749800  0.207900  1.0  0.1032
  H  H242  1  0.458100  0.750200  0.936300  1.0  0.1029
  H  H243  1  0.263000  0.176900  0.356300  1.0  0.115
  H  H244  1  0.933800  0.864500  0.875700  1.0  0.077
  H  H245  1  0.530500  0.881400  0.144100  1.0  0.0608
  H  H246  1  0.618600  0.649100  0.762700  1.0  0.0624
  H  H247  1  0.095400  0.460600  0.603600  1.0  0.0801
  H  H248  1  0.411100  0.835300  0.968600  1.0  0.0834
  H  H249  1  0.113600  0.850900  0.469500  1.0  0.0621
  H  H250  1  0.430700  0.566200  0.941900  1.0  0.0819
  H  H251  1  0.936300  0.250200  0.458100  1.0  0.1042
  H  H252  1  0.237000  0.593300  0.913900  1.0  0.1162
  H  H253  1  0.575800  0.133300  0.164700  1.0  0.077
  H  H254  1  0.593300  0.413900  0.737000  1.0  0.1163
  H  H255  1  0.488800  0.058100  0.624300  1.0  0.0795
  H  H256  1  0.818100  0.822300  0.786200  1.0  0.0888
  C  C257  1  0.397200  0.801400  0.385600  1.0  0.6647
  C  C258  1  0.632500  0.586400  0.649700  1.0  -0.0908
  C  C259  1  0.563300  0.546100  0.913600  1.0  -0.0954
  C  C260  1  0.394800  0.485300  0.412700  1.0  -0.0429
  C  C261  1  0.504500  0.511000  0.223300  1.0  -0.0949
  C  C262  1  0.766600  0.184400  0.658800  1.0  -0.0612
  C  C263  1  0.544400  0.062100  0.446500  1.0  -0.0702
  C  C264  1  0.605200  0.090500  0.517900  1.0  -0.0387
  C  C265  1  0.003600  0.781300  0.518300  1.0  -0.1459
  C  C266  1  0.453900  0.867500  0.017200  1.0  -0.0933
  C  C267  1  0.662800  0.215100  0.175900  1.0  0.1126
  C  C268  1  0.025600  0.107800  0.841200  1.0  -0.0656
  C  C269  1  0.193900  0.823700  0.752400  1.0  -0.1226
  C  C270  1  0.870200  0.176300  0.928700  1.0  -0.1211
  C  C271  1  0.063300  0.913600  0.546100  1.0  -0.0923
  C  C272  1  0.493500  0.489000  0.712300  1.0  -0.095
  C  C273  1  0.584200  0.698600  0.095800  1.0  0.664
  C  C274  1  0.941500  0.071300  0.247600  1.0  -0.1201
  C  C275  1  0.276700  0.781200  0.787700  1.0  -0.0931
  C  C276  1  0.776700  0.787700  0.781200  1.0  -0.0949
  C  C277  1  0.698600  0.595800  0.084200  1.0  0.6647
  C  C278  1  0.614400  0.915800  0.511600  1.0  0.6674
  C  C279  1  0.086400  0.132500  0.149700  1.0  -0.0949
  C  C280  1  0.384400  0.437900  0.982300  1.0  -0.0652
  C  C281  1  0.676300  0.370200  0.428700  1.0  -0.1256
  C  C282  1  0.301400  0.897200  0.885600  1.0  0.668
  C  C283  1  0.517700  0.902100  0.955600  1.0  -0.0669
  C  C284  1  0.097900  0.553500  0.615600  1.0  -0.0706
  C  C285  1  0.482100  0.072600  0.587300  1.0  -0.0463
  C  C286  1  0.017200  0.367500  0.453900  1.0  -0.0906
  C  C287  1  0.496400  0.014700  0.777700  1.0  -0.1571
  C  C288  1  0.885600  0.397200  0.301400  1.0  0.6677
  C  C289  1  0.014700  0.277700  0.996400  1.0  -0.149
  C  C290  1  0.953900  0.017200  0.867500  1.0  -0.0929
  C  C291  1  0.867500  0.517200  0.953900  1.0  -0.0904
  C  C292  1  0.837200  0.013100  0.552300  1.0  0.1122
  C  C293  1  0.011600  0.614400  0.415800  1.0  0.6695
  C  C294  1  0.823700  0.252400  0.693900  1.0  -0.1213
  C  C295  1  0.474400  0.315600  0.082200  1.0  -0.0587
  C  C296  1  0.489000  0.212300  0.993500  1.0  -0.1036
  C  C297  1  0.922000  0.165900  0.973300  1.0  -0.0673
  C  C298  1  0.287700  0.276700  0.281200  1.0  -0.0961
  C  C299  1  0.277700  0.496400  0.514700  1.0  -0.148
  C  C300  1  0.578000  0.551300  0.243900  1.0  -0.0653
  C  C301  1  0.427400  0.409500  0.014700  1.0  -0.045
  C  C302  1  0.781300  0.018300  0.503600  1.0  -0.1485
  C  C303  1  0.948700  0.026700  0.192600  1.0  -0.0715
  C  C304  1  0.909500  0.927400  0.514700  1.0  -0.0436
  C  C305  1  0.590500  0.105200  0.017900  1.0  -0.042
  C  C306  1  0.460800  0.947700  0.284900  1.0  0.115
  C  C307  1  0.266600  0.658800  0.184400  1.0  -0.0588
  C  C308  1  0.806100  0.629800  0.058500  1.0  -0.124
  C  C309  1  0.982800  0.350300  0.936700  1.0  -0.0909
  C  C310  1  0.044400  0.446500  0.062100  1.0  -0.0697
  C  C311  1  0.511000  0.723300  0.004500  1.0  -0.0949
  C  C312  1  0.039200  0.324100  0.486900  1.0  0.1115
  C  C313  1  0.824100  0.539200  0.986900  1.0  0.1114
  C  C314  1  0.095800  0.198600  0.584200  1.0  0.6641
  C  C315  1  0.417800  0.892200  0.733400  1.0  -0.0649
  C  C316  1  0.781200  0.287700  0.776700  1.0  -0.0959
  C  C317  1  0.558500  0.806100  0.129800  1.0  -0.1238
  C  C318  1  0.763000  0.485300  0.981700  1.0  -0.152
  C  C319  1  0.481700  0.763000  0.985300  1.0  -0.1518
  C  C320  1  0.562100  0.044400  0.946500  1.0  -0.0697
  C  C321  1  0.256100  0.834100  0.807400  1.0  -0.0675
  C  C322  1  0.955600  0.402100  0.517700  1.0  -0.0718
  C  C323  1  0.884400  0.982300  0.437900  1.0  -0.0648
  C  C324  1  0.129800  0.306100  0.558500  1.0  -0.1203
  C  C325  1  0.551300  0.743900  0.078000  1.0  -0.067
  C  C326  1  0.960800  0.284900  0.947700  1.0  0.1129
  C  C327  1  0.996400  0.777700  0.014700  1.0  -0.1472
  C  C328  1  0.482800  0.936700  0.350300  1.0  -0.0931
  C  C329  1  0.413600  0.563300  0.046100  1.0  -0.0916
  C  C330  1  0.058500  0.129800  0.806100  1.0  -0.1242
  C  C331  1  0.511600  0.415800  0.614400  1.0  0.6649
  C  C332  1  0.082200  0.815600  0.474400  1.0  -0.0613
  C  C333  1  0.428700  0.870200  0.676300  1.0  -0.125
  C  C334  1  0.986900  0.039200  0.824100  1.0  0.1149
  C  C335  1  0.485300  0.912700  0.894800  1.0  -0.0428
  C  C336  1  0.595800  0.584200  0.198600  1.0  0.6638
  C  C337  1  0.175900  0.715100  0.662800  1.0  0.1122
  C  C338  1  0.649700  0.086400  0.632500  1.0  -0.0908
  C  C339  1  0.981700  0.985300  0.763000  1.0  -0.1526
  C  C340  1  0.412700  0.985300  0.394800  1.0  -0.0453
  C  C341  1  0.904200  0.102800  0.988400  1.0  0.668
  C  C342  1  0.307400  0.256100  0.334100  1.0  -0.0666
  C  C343  1  0.212300  0.493500  0.989000  1.0  -0.0977
  C  C344  1  0.514700  0.427400  0.909500  1.0  -0.04
  C  C345  1  0.198600  0.084200  0.595800  1.0  0.6662
  C  C346  1  0.482300  0.384400  0.937900  1.0  -0.0652
  C  C347  1  0.306100  0.058500  0.629800  1.0  -0.1241
  C  C348  1  0.018300  0.003600  0.281300  1.0  -0.1485
  C  C349  1  0.341200  0.025600  0.607800  1.0  -0.0589
  C  C350  1  0.176300  0.428700  0.370200  1.0  -0.1201
  C  C351  1  0.513100  0.337200  0.052300  1.0  0.1134
  C  C352  1  0.989000  0.993500  0.212300  1.0  -0.0959
  C  C353  1  0.011000  0.004500  0.723300  1.0  -0.0948
  C  C354  1  0.455600  0.517700  0.402100  1.0  -0.0687
  C  C355  1  0.571300  0.441500  0.747600  1.0  -0.1237
  C  C356  1  0.084200  0.095800  0.698600  1.0  0.663
  C  C357  1  0.485300  0.481700  0.263000  1.0  -0.1467
  C  C358  1  0.281200  0.776700  0.287700  1.0  -0.093
  C  C359  1  0.473300  0.922000  0.665900  1.0  -0.0704
  C  C360  1  0.107800  0.341200  0.525600  1.0  -0.0588
  C  C361  1  0.985300  0.894800  0.912700  1.0  -0.042
  C  C362  1  0.517900  0.590500  0.605200  1.0  -0.0468
  C  C363  1  0.132500  0.649700  0.586400  1.0  -0.0901
  C  C364  1  0.237000  0.722300  0.718700  1.0  -0.1458
  C  C365  1  0.973300  0.665900  0.922000  1.0  -0.0664
  C  C366  1  0.615600  0.053500  0.097900  1.0  -0.0642
  C  C367  1  0.415800  0.114400  0.011600  1.0  0.6684
  C  C368  1  0.526700  0.448700  0.692600  1.0  -0.0666
  C  C369  1  0.087300  0.482100  0.572600  1.0  -0.0404
  C  C370  1  0.801400  0.885600  0.897200  1.0  0.6689
  C  C371  1  0.323700  0.693900  0.252400  1.0  -0.1203
  C  C372  1  0.446500  0.562100  0.544400  1.0  -0.0658
  C  C373  1  0.017900  0.605200  0.590500  1.0  -0.0438
  C  C374  1  0.422000  0.973300  0.165900  1.0  -0.0706
  C  C375  1  0.503600  0.518300  0.781300  1.0  -0.1479
  C  C376  1  0.281300  0.503600  0.018300  1.0  -0.1473
  C  C377  1  0.982100  0.587300  0.072600  1.0  -0.0432
  C  C378  1  0.787700  0.281200  0.276700  1.0  -0.0953
  C  C379  1  0.017700  0.955600  0.902100  1.0  -0.0703
  C  C380  1  0.582200  0.474400  0.815600  1.0  -0.0608
  C  C381  1  0.985300  0.263000  0.481700  1.0  -0.1515
  C  C382  1  0.784900  0.460800  0.447700  1.0  0.1112
  C  C383  1  0.947700  0.784900  0.960800  1.0  0.1135
  C  C384  1  0.162800  0.175900  0.215100  1.0  0.1137
  C  C385  1  0.078000  0.243900  0.551300  1.0  -0.0672
  C  C386  1  0.715100  0.162800  0.675900  1.0  0.1109
  C  C387  1  0.917800  0.733400  0.892200  1.0  -0.0633
  C  C388  1  0.115600  0.097900  0.053500  1.0  -0.0651
  C  C389  1  0.051300  0.078000  0.743900  1.0  -0.0691
  C  C390  1  0.014700  0.909500  0.427400  1.0  -0.0392
  C  C391  1  0.284900  0.447700  0.460800  1.0  0.1119
  C  C392  1  0.894800  0.412700  0.485300  1.0  -0.0412
  C  C393  1  0.658800  0.684400  0.766600  1.0  -0.0587
  C  C394  1  0.518300  0.281300  0.003600  1.0  -0.1493
  C  C395  1  0.897200  0.385600  0.801400  1.0  0.6691
  C  C396  1  0.441500  0.247600  0.071300  1.0  -0.1196
  C  C397  1  0.488400  0.904200  0.602800  1.0  0.6644
  C  C398  1  0.026700  0.692600  0.448700  1.0  -0.0647
  C  C399  1  0.722300  0.218700  0.737000  1.0  -0.1466
  C  C400  1  0.692600  0.948700  0.526700  1.0  -0.0637
  C  C401  1  0.013100  0.052300  0.337200  1.0  0.1158
  C  C402  1  0.539200  0.486900  0.324100  1.0  0.1162
  C  C403  1  0.004500  0.223300  0.511000  1.0  -0.0933
  C  C404  1  0.404200  0.988400  0.102800  1.0  0.6669
  C  C405  1  0.815600  0.974400  0.582200  1.0  -0.0584
  C  C406  1  0.252400  0.193900  0.323700  1.0  -0.1236
  C  C407  1  0.756100  0.807400  0.834100  1.0  -0.068
  C  C408  1  0.215100  0.675900  0.162800  1.0  0.1111
  C  C409  1  0.834100  0.307400  0.756100  1.0  -0.0625
  C  C410  1  0.486900  0.824100  0.039200  1.0  0.1149
  C  C411  1  0.723300  0.504500  0.011000  1.0  -0.0907
  C  C412  1  0.525600  0.841200  0.107800  1.0  -0.0556
  C  C413  1  0.447700  0.960800  0.784900  1.0  0.115
  C  C414  1  0.370200  0.928700  0.176300  1.0  -0.1191
  C  C415  1  0.071300  0.747600  0.441500  1.0  -0.1224
  C  C416  1  0.350300  0.436700  0.482800  1.0  -0.0893
  C  C417  1  0.192600  0.526700  0.948700  1.0  -0.0634
  C  C418  1  0.222300  0.737000  0.218700  1.0  -0.1522
  C  C419  1  0.090500  0.017900  0.105200  1.0  -0.0457
  C  C420  1  0.072600  0.087300  0.982100  1.0  -0.0442
  C  C421  1  0.777700  0.514700  0.496400  1.0  -0.1523
  C  C422  1  0.546100  0.413600  0.063300  1.0  -0.0918
  C  C423  1  0.046100  0.063300  0.413600  1.0  -0.0944
  C  C424  1  0.149700  0.632500  0.086400  1.0  -0.0902
  C  C425  1  0.233400  0.417800  0.392200  1.0  -0.0626
  C  C426  1  0.184400  0.158800  0.266600  1.0  -0.0552
  C  C427  1  0.324100  0.986900  0.539200  1.0  0.1125
  C  C428  1  0.572600  0.982100  0.087300  1.0  -0.046
  C  C429  1  0.263000  0.981700  0.485300  1.0  -0.1473
  C  C430  1  0.514700  0.996400  0.277700  1.0  -0.1496
  C  C431  1  0.102800  0.488400  0.404200  1.0  0.6671
  C  C432  1  0.665900  0.422000  0.473300  1.0  -0.0681
  C  C433  1  0.517200  0.453900  0.367500  1.0  -0.0947
  C  C434  1  0.974400  0.082200  0.315600  1.0  -0.0632
  C  C435  1  0.053500  0.597900  0.115600  1.0  -0.0744
  C  C436  1  0.743900  0.578000  0.051300  1.0  -0.0673
  C  C437  1  0.218700  0.237000  0.222300  1.0  -0.153
  C  C438  1  0.158800  0.766600  0.684400  1.0  -0.0635
  C  C439  1  0.006500  0.718800  0.995500  1.0  -0.1044
  C  C440  1  0.506500  0.995500  0.718800  1.0  -0.0966
  C  C441  1  0.993500  0.712300  0.489000  1.0  -0.096
  C  C442  1  0.902100  0.455600  0.017700  1.0  -0.072
  C  C443  1  0.737000  0.718700  0.722300  1.0  -0.1511
  C  C444  1  0.718800  0.495500  0.506500  1.0  -0.0909
  C  C445  1  0.367500  0.953900  0.517200  1.0  -0.0897
  C  C446  1  0.337200  0.552300  0.013100  1.0  0.1124
  C  C447  1  0.684400  0.266600  0.158800  1.0  -0.064
  C  C448  1  0.912700  0.394800  0.985300  1.0  -0.0413
  C  C449  1  0.913600  0.046100  0.563300  1.0  -0.0913
  C  C450  1  0.597900  0.615600  0.553500  1.0  -0.066
  C  C451  1  0.928700  0.676300  0.870200  1.0  -0.1238
  C  C452  1  0.243900  0.051300  0.578000  1.0  -0.0631
  C  C453  1  0.553500  0.115600  0.597900  1.0  -0.0673
  C  C454  1  0.586400  0.149700  0.132500  1.0  -0.0929
  C  C455  1  0.334100  0.756100  0.307400  1.0  -0.0672
  C  C456  1  0.841200  0.607800  0.025600  1.0  -0.0631
  C  C457  1  0.752400  0.323700  0.193900  1.0  -0.1235
  C  C458  1  0.315600  0.582200  0.974400  1.0  -0.0621
  C  C459  1  0.733400  0.392200  0.417800  1.0  -0.0623
  C  C460  1  0.437900  0.482300  0.884400  1.0  -0.0696
  C  C461  1  0.995500  0.218800  0.006500  1.0  -0.0925
  C  C462  1  0.747600  0.941500  0.571300  1.0  -0.1246
  C  C463  1  0.223300  0.011000  0.504500  1.0  -0.0945
  C  C464  1  0.718700  0.222300  0.237000  1.0  -0.1466
  C  C465  1  0.436700  0.982800  0.850300  1.0  -0.092
  C  C466  1  0.062100  0.946500  0.044400  1.0  -0.0646
  C  C467  1  0.552300  0.513100  0.837200  1.0  0.1167
  C  C468  1  0.165900  0.473300  0.422000  1.0  -0.0622
  C  C469  1  0.629800  0.558500  0.306100  1.0  -0.1238
  C  C470  1  0.693900  0.752400  0.823700  1.0  -0.1202
  C  C471  1  0.807400  0.334100  0.256100  1.0  -0.0646
  C  C472  1  0.218800  0.506500  0.495500  1.0  -0.1048
  C  C473  1  0.937900  0.884400  0.482300  1.0  -0.0637
  C  C474  1  0.392200  0.917800  0.233400  1.0  -0.0637
  C  C475  1  0.587300  0.572600  0.482100  1.0  -0.0406
  C  C476  1  0.712300  0.989000  0.493500  1.0  -0.0973
  C  C477  1  0.602800  0.404200  0.488400  1.0  0.6675
  C  C478  1  0.988400  0.602800  0.904200  1.0  0.6683
  C  C479  1  0.675900  0.662800  0.715100  1.0  0.1126
  C  C480  1  0.927400  0.014700  0.409500  1.0  -0.0444
  C  C481  1  0.850300  0.482800  0.436700  1.0  -0.0897
  C  C482  1  0.915800  0.011600  0.114400  1.0  0.6671
  C  C483  1  0.607800  0.525600  0.341200  1.0  -0.0608
  C  C484  1  0.402100  0.017700  0.455600  1.0  -0.0642
  C  C485  1  0.892200  0.233400  0.917800  1.0  -0.0618
  C  C486  1  0.409500  0.514700  0.927400  1.0  -0.0421
  C  C487  1  0.495500  0.006500  0.218800  1.0  -0.0936
  C  C488  1  0.946500  0.544400  0.562100  1.0  -0.0729
  C  C489  1  0.105200  0.517900  0.090500  1.0  -0.0396
  C  C490  1  0.936700  0.850300  0.982800  1.0  -0.0911
  C  C491  1  0.448700  0.192600  0.026700  1.0  -0.0686
  C  C492  1  0.982300  0.937900  0.384400  1.0  -0.0703
  C  C493  1  0.114400  0.511600  0.915800  1.0  0.6677
  C  C494  1  0.052300  0.837200  0.513100  1.0  0.112
  C  C495  1  0.247600  0.571300  0.941500  1.0  -0.1205
  C  C496  1  0.385600  0.301400  0.397200  1.0  0.6635
  N  N497  1  0.982800  0.413500  0.990900  1.0  -0.176
  N  N498  1  0.569300  0.577400  0.586500  1.0  -0.1729
  N  N499  1  0.008100  0.017200  0.930700  1.0  -0.1711
  N  N500  1  0.930700  0.517200  0.008100  1.0  -0.175
  N  N501  1  0.009100  0.922600  0.491900  1.0  -0.1784
  N  N502  1  0.913500  0.482800  0.490900  1.0  -0.1785
  N  N503  1  0.017200  0.430700  0.508100  1.0  -0.1711
  N  N504  1  0.508100  0.930700  0.017200  1.0  -0.173
  N  N505  1  0.086500  0.569300  0.077400  1.0  -0.1729
  N  N506  1  0.077400  0.069300  0.086500  1.0  -0.1732
  N  N507  1  0.422600  0.509100  0.991900  1.0  -0.183
  N  N508  1  0.509100  0.491900  0.922600  1.0  -0.1798
  N  N509  1  0.490900  0.982800  0.913500  1.0  -0.1748
  N  N510  1  0.482800  0.990900  0.413500  1.0  -0.174
  N  N511  1  0.586500  0.077400  0.569300  1.0  -0.1722
  N  N512  1  0.413500  0.490900  0.482800  1.0  -0.1773
  N  N513  1  0.990900  0.913500  0.982800  1.0  -0.1757
  N  N514  1  0.991900  0.009100  0.422600  1.0  -0.1803
  N  N515  1  0.577400  0.086500  0.069300  1.0  -0.1724
  N  N516  1  0.069300  0.586500  0.577400  1.0  -0.173
  N  N517  1  0.922600  0.991900  0.509100  1.0  -0.1823
  N  N518  1  0.430700  0.008100  0.517200  1.0  -0.1756
  N  N519  1  0.517200  0.508100  0.430700  1.0  -0.1713
  N  N520  1  0.491900  0.422600  0.009100  1.0  -0.1779
  O  O521  1  0.427100  0.358200  0.408500  1.0  -0.6037
  O  O522  1  0.430500  0.767900  0.397800  1.0  -0.6372
  O  O523  1  0.232100  0.129900  0.662600  1.0  -0.6391
  O  O524  1  0.550300  0.568900  0.141800  1.0  -0.6028
  O  O525  1  0.602200  0.870100  0.532700  1.0  -0.6404
  O  O526  1  0.568900  0.641800  0.050300  1.0  -0.5992
  O  O527  1  0.018600  0.591500  0.949700  1.0  -0.5968
  O  O528  1  0.858200  0.927100  0.908500  1.0  -0.6002
  O  O529  1  0.837400  0.069500  0.967300  1.0  -0.6323
  O  O530  1  0.129900  0.162600  0.732100  1.0  -0.6335
  O  O531  1  0.408500  0.858200  0.427100  1.0  -0.6036
  O  O532  1  0.908500  0.427100  0.858200  1.0  -0.5986
  O  O533  1  0.370100  0.102200  0.032700  1.0  -0.6313
  O  O534  1  0.032700  0.602200  0.370100  1.0  -0.6346
  O  O535  1  0.449700  0.018600  0.091500  1.0  -0.6018
  O  O536  1  0.091500  0.518600  0.449700  1.0  -0.5981
  O  O537  1  0.629900  0.732100  0.162600  1.0  -0.6343
  O  O538  1  0.641800  0.550300  0.068900  1.0  -0.603
  O  O539  1  0.072900  0.481400  0.931100  1.0  -0.5995
  O  O540  1  0.102200  0.532700  0.870100  1.0  -0.6348
  O  O541  1  0.927100  0.408500  0.358200  1.0  -0.5981
  O  O542  1  0.337400  0.967300  0.069500  1.0  -0.629
  O  O543  1  0.931100  0.981400  0.072900  1.0  -0.6024
  O  O544  1  0.981400  0.572900  0.431100  1.0  -0.5973
  O  O545  1  0.050300  0.141800  0.568900  1.0  -0.5994
  O  O546  1  0.141800  0.068900  0.550300  1.0  -0.5996
  O  O547  1  0.930500  0.397800  0.767900  1.0  -0.6338
  O  O548  1  0.358200  0.908500  0.927100  1.0  -0.6
  O  O549  1  0.572900  0.931100  0.481400  1.0  -0.5997
  O  O550  1  0.162600  0.232100  0.629900  1.0  -0.6372
  O  O551  1  0.431100  0.072900  0.981400  1.0  -0.5989
  O  O552  1  0.591500  0.449700  0.518600  1.0  -0.6025
  O  O553  1  0.532700  0.370100  0.602200  1.0  -0.6362
  O  O554  1  0.267900  0.930500  0.897800  1.0  -0.6317
  O  O555  1  0.397800  0.267900  0.430500  1.0  -0.6362
  O  O556  1  0.767900  0.897800  0.930500  1.0  -0.6309
  O  O557  1  0.870100  0.032700  0.102200  1.0  -0.63
  O  O558  1  0.068900  0.050300  0.641800  1.0  -0.6055
  O  O559  1  0.662600  0.629900  0.232100  1.0  -0.6356
  O  O560  1  0.069500  0.467300  0.337400  1.0  -0.6342
  O  O561  1  0.967300  0.569500  0.837400  1.0  -0.6356
  O  O562  1  0.732100  0.662600  0.129900  1.0  -0.6379
  O  O563  1  0.481400  0.431100  0.572900  1.0  -0.6029
  O  O564  1  0.518600  0.949700  0.591500  1.0  -0.6043
  O  O565  1  0.949700  0.091500  0.018600  1.0  -0.6005
  O  O566  1  0.569500  0.337400  0.467300  1.0  -0.6385
  O  O567  1  0.467300  0.837400  0.569500  1.0  -0.6342
  O  O568  1  0.897800  0.430500  0.267900  1.0  -0.6352
