# generated using pymatgen
data_ZnH2(C3O2)2
_symmetry_space_group_name_H-M   'P 1'
_cell_length_a   18.70020000
_cell_length_b   18.70020000
_cell_length_c   18.70020000
_cell_angle_alpha   60.00000000
_cell_angle_beta   60.00000000
_cell_angle_gamma   60.00000000
_symmetry_Int_Tables_number   1
_chemical_formula_structural   ZnH2(C3O2)2
_chemical_formula_sum   'Zn12 H24 C72 O48'
_cell_volume   4624.06314734
_cell_formula_units_Z   12
loop_
 _symmetry_equiv_pos_site_id
 _symmetry_equiv_pos_as_xyz
  1  'x, y, z'
loop_
 _atom_site_type_symbol
 _atom_site_label
 _atom_site_symmetry_multiplicity
 _atom_site_fract_x
 _atom_site_fract_y
 _atom_site_fract_z
 _atom_site_occupancy
 _atom_site_charge
  Zn  Zn1  1  0.500000  0.500000  0.079600  1.0  1.1328
  Zn  Zn2  1  0.500000  0.500000  0.920400  1.0  1.1323
  Zn  Zn3  1  0.500000  0.079600  0.920400  1.0  1.1361
  Zn  Zn4  1  0.920400  0.500000  0.079600  1.0  1.1381
  Zn  Zn5  1  0.500000  0.920400  0.079600  1.0  1.1361
  Zn  Zn6  1  0.920400  0.079600  0.500000  1.0  1.1377
  Zn  Zn7  1  0.920400  0.500000  0.500000  1.0  1.1367
  Zn  Zn8  1  0.500000  0.920400  0.500000  1.0  1.1353
  Zn  Zn9  1  0.079600  0.500000  0.920400  1.0  1.138
  Zn  Zn10  1  0.079600  0.920400  0.500000  1.0  1.1364
  Zn  Zn11  1  0.079600  0.500000  0.500000  1.0  1.1384
  Zn  Zn12  1  0.500000  0.079600  0.500000  1.0  1.1369
  H  H13  1  0.988700  0.771100  0.469100  1.0  0.1166
  H  H14  1  0.011300  0.228900  0.228900  1.0  0.1169
  H  H15  1  0.988700  0.771100  0.771100  1.0  0.1167
  H  H16  1  0.011300  0.228900  0.530900  1.0  0.1171
  H  H17  1  0.771100  0.988700  0.469100  1.0  0.118
  H  H18  1  0.469100  0.988700  0.771100  1.0  0.1178
  H  H19  1  0.228900  0.011300  0.228900  1.0  0.1179
  H  H20  1  0.771100  0.988700  0.771100  1.0  0.1181
  H  H21  1  0.771100  0.469100  0.988700  1.0  0.1171
  H  H22  1  0.228900  0.228900  0.530900  1.0  0.1167
  H  H23  1  0.771100  0.469100  0.771100  1.0  0.117
  H  H24  1  0.530900  0.228900  0.011300  1.0  0.1171
  H  H25  1  0.771100  0.771100  0.469100  1.0  0.1163
  H  H26  1  0.988700  0.469100  0.771100  1.0  0.1171
  H  H27  1  0.228900  0.530900  0.011300  1.0  0.117
  H  H28  1  0.771100  0.771100  0.988700  1.0  0.1169
  H  H29  1  0.011300  0.530900  0.228900  1.0  0.117
  H  H30  1  0.469100  0.771100  0.771100  1.0  0.1168
  H  H31  1  0.530900  0.228900  0.228900  1.0  0.1172
  H  H32  1  0.469100  0.771100  0.988700  1.0  0.1172
  H  H33  1  0.228900  0.011300  0.530900  1.0  0.1181
  H  H34  1  0.228900  0.530900  0.228900  1.0  0.117
  H  H35  1  0.530900  0.011300  0.228900  1.0  0.1181
  H  H36  1  0.228900  0.228900  0.011300  1.0  0.1166
  C  C37  1  0.069200  0.336200  0.069200  1.0  0.726
  C  C38  1  0.470000  0.886400  0.757200  1.0  -0.1686
  C  C39  1  0.470000  0.886400  0.886400  1.0  -0.1691
  C  C40  1  0.525400  0.069200  0.336200  1.0  0.7277
  C  C41  1  0.113600  0.530000  0.242800  1.0  -0.1687
  C  C42  1  0.069200  0.525400  0.336200  1.0  0.7268
  C  C43  1  0.929700  0.800300  0.800300  1.0  0.014
  C  C44  1  0.199700  0.199700  0.070300  1.0  0.0134
  C  C45  1  0.930800  0.930800  0.663800  1.0  0.7259
  C  C46  1  0.530300  0.199700  0.199700  1.0  0.0138
  C  C47  1  0.800300  0.469700  0.929700  1.0  0.0141
  C  C48  1  0.663800  0.930800  0.474600  1.0  0.7257
  C  C49  1  0.800300  0.800300  0.469700  1.0  0.014
  C  C50  1  0.469700  0.800300  0.800300  1.0  0.0127
  C  C51  1  0.757200  0.886400  0.470000  1.0  -0.1686
  C  C52  1  0.069200  0.069200  0.336200  1.0  0.7257
  C  C53  1  0.199700  0.070300  0.199700  1.0  0.0149
  C  C54  1  0.886400  0.470000  0.757200  1.0  -0.1681
  C  C55  1  0.069200  0.525400  0.069200  1.0  0.7265
  C  C56  1  0.469700  0.800300  0.929700  1.0  0.0136
  C  C57  1  0.886400  0.886400  0.470000  1.0  -0.1683
  C  C58  1  0.113600  0.242800  0.530000  1.0  -0.1683
  C  C59  1  0.757200  0.886400  0.886400  1.0  -0.1688
  C  C60  1  0.336200  0.069200  0.069200  1.0  0.7254
  C  C61  1  0.757200  0.470000  0.886400  1.0  -0.1686
  C  C62  1  0.242800  0.113600  0.113600  1.0  -0.1685
  C  C63  1  0.525400  0.336200  0.069200  1.0  0.7276
  C  C64  1  0.886400  0.757200  0.470000  1.0  -0.1687
  C  C65  1  0.199700  0.530300  0.070300  1.0  0.0126
  C  C66  1  0.470000  0.757200  0.886400  1.0  -0.1684
  C  C67  1  0.113600  0.113600  0.242800  1.0  -0.1686
  C  C68  1  0.070300  0.199700  0.530300  1.0  0.0147
  C  C69  1  0.663800  0.474600  0.930800  1.0  0.7263
  C  C70  1  0.886400  0.886400  0.757200  1.0  -0.1685
  C  C71  1  0.800300  0.469700  0.800300  1.0  0.0134
  C  C72  1  0.069200  0.336200  0.525400  1.0  0.7264
  C  C73  1  0.800300  0.800300  0.929700  1.0  0.0149
  C  C74  1  0.113600  0.242800  0.113600  1.0  -0.1682
  C  C75  1  0.530300  0.199700  0.070300  1.0  0.0124
  C  C76  1  0.199700  0.530300  0.199700  1.0  0.0142
  C  C77  1  0.800300  0.929700  0.800300  1.0  0.0134
  C  C78  1  0.336200  0.525400  0.069200  1.0  0.7258
  C  C79  1  0.242800  0.113600  0.530000  1.0  -0.1686
  C  C80  1  0.929700  0.469700  0.800300  1.0  0.0148
  C  C81  1  0.929700  0.800300  0.469700  1.0  0.0146
  C  C82  1  0.930800  0.474600  0.663800  1.0  0.7269
  C  C83  1  0.070300  0.199700  0.199700  1.0  0.015
  C  C84  1  0.474600  0.663800  0.930800  1.0  0.7269
  C  C85  1  0.530300  0.070300  0.199700  1.0  0.0144
  C  C86  1  0.530000  0.113600  0.242800  1.0  -0.169
  C  C87  1  0.199700  0.199700  0.530300  1.0  0.014
  C  C88  1  0.800300  0.929700  0.469700  1.0  0.0137
  C  C89  1  0.199700  0.070300  0.530300  1.0  0.0146
  C  C90  1  0.113600  0.530000  0.113600  1.0  -0.1682
  C  C91  1  0.930800  0.663800  0.474600  1.0  0.7259
  C  C92  1  0.930800  0.663800  0.930800  1.0  0.7264
  C  C93  1  0.469700  0.929700  0.800300  1.0  0.0137
  C  C94  1  0.069200  0.069200  0.525400  1.0  0.7254
  C  C95  1  0.930800  0.474600  0.930800  1.0  0.7271
  C  C96  1  0.336200  0.069200  0.525400  1.0  0.7258
  C  C97  1  0.113600  0.113600  0.530000  1.0  -0.1688
  C  C98  1  0.886400  0.757200  0.886400  1.0  -0.1686
  C  C99  1  0.930800  0.930800  0.474600  1.0  0.7261
  C  C100  1  0.070300  0.530300  0.199700  1.0  0.014
  C  C101  1  0.525400  0.069200  0.069200  1.0  0.7275
  C  C102  1  0.886400  0.470000  0.886400  1.0  -0.1684
  C  C103  1  0.474600  0.930800  0.663800  1.0  0.7269
  C  C104  1  0.474600  0.930800  0.930800  1.0  0.7272
  C  C105  1  0.530000  0.113600  0.113600  1.0  -0.1686
  C  C106  1  0.663800  0.930800  0.930800  1.0  0.7259
  C  C107  1  0.530000  0.242800  0.113600  1.0  -0.1687
  C  C108  1  0.242800  0.530000  0.113600  1.0  -0.168
  O  O109  1  0.477500  0.888300  0.627700  1.0  -0.6293
  O  O110  1  0.477500  0.627700  0.006500  1.0  -0.628
  O  O111  1  0.993500  0.111700  0.372300  1.0  -0.6301
  O  O112  1  0.627700  0.006500  0.477500  1.0  -0.6296
  O  O113  1  0.993500  0.372300  0.522500  1.0  -0.6273
  O  O114  1  0.372300  0.993500  0.111700  1.0  -0.6293
  O  O115  1  0.477500  0.888300  0.006500  1.0  -0.629
  O  O116  1  0.888300  0.006500  0.627700  1.0  -0.6307
  O  O117  1  0.006500  0.627700  0.888300  1.0  -0.6283
  O  O118  1  0.372300  0.111700  0.993500  1.0  -0.6299
  O  O119  1  0.627700  0.888300  0.006500  1.0  -0.6287
  O  O120  1  0.111700  0.993500  0.372300  1.0  -0.6294
  O  O121  1  0.522500  0.993500  0.111700  1.0  -0.6285
  O  O122  1  0.888300  0.477500  0.006500  1.0  -0.6262
  O  O123  1  0.111700  0.993500  0.522500  1.0  -0.6294
  O  O124  1  0.372300  0.111700  0.522500  1.0  -0.6293
  O  O125  1  0.522500  0.372300  0.111700  1.0  -0.6271
  O  O126  1  0.522500  0.372300  0.993500  1.0  -0.6285
  O  O127  1  0.888300  0.477500  0.627700  1.0  -0.6268
  O  O128  1  0.627700  0.477500  0.006500  1.0  -0.6264
  O  O129  1  0.993500  0.522500  0.111700  1.0  -0.6276
  O  O130  1  0.993500  0.372300  0.111700  1.0  -0.6268
  O  O131  1  0.477500  0.006500  0.888300  1.0  -0.6296
  O  O132  1  0.477500  0.006500  0.627700  1.0  -0.6285
  O  O133  1  0.993500  0.111700  0.522500  1.0  -0.6303
  O  O134  1  0.006500  0.888300  0.627700  1.0  -0.6299
  O  O135  1  0.006500  0.627700  0.477500  1.0  -0.628
  O  O136  1  0.993500  0.522500  0.372300  1.0  -0.6279
  O  O137  1  0.111700  0.522500  0.372300  1.0  -0.6274
  O  O138  1  0.627700  0.006500  0.888300  1.0  -0.6299
  O  O139  1  0.006500  0.477500  0.888300  1.0  -0.629
  O  O140  1  0.006500  0.888300  0.477500  1.0  -0.6299
  O  O141  1  0.006500  0.477500  0.627700  1.0  -0.6288
  O  O142  1  0.372300  0.993500  0.522500  1.0  -0.6299
  O  O143  1  0.888300  0.627700  0.006500  1.0  -0.6276
  O  O144  1  0.111700  0.522500  0.993500  1.0  -0.6271
  O  O145  1  0.111700  0.372300  0.522500  1.0  -0.6284
  O  O146  1  0.522500  0.111700  0.993500  1.0  -0.6292
  O  O147  1  0.111700  0.372300  0.993500  1.0  -0.6283
  O  O148  1  0.888300  0.006500  0.477500  1.0  -0.6304
  O  O149  1  0.522500  0.111700  0.372300  1.0  -0.6291
  O  O150  1  0.627700  0.477500  0.888300  1.0  -0.6275
  O  O151  1  0.888300  0.627700  0.477500  1.0  -0.6281
  O  O152  1  0.477500  0.627700  0.888300  1.0  -0.6289
  O  O153  1  0.522500  0.993500  0.372300  1.0  -0.629
  O  O154  1  0.372300  0.522500  0.993500  1.0  -0.6273
  O  O155  1  0.627700  0.888300  0.477500  1.0  -0.6287
  O  O156  1  0.372300  0.522500  0.111700  1.0  -0.6262
