# generated using pymatgen
data_ZnH17C27NO4
_symmetry_space_group_name_H-M   'P 1'
_cell_length_a   9.88240000
_cell_length_b   11.54800000
_cell_length_c   15.64800000
_cell_angle_alpha   89.78400000
_cell_angle_beta   76.44100000
_cell_angle_gamma   75.60300000
_symmetry_Int_Tables_number   1
_chemical_formula_structural   ZnH17C27NO4
_chemical_formula_sum   'Zn2 H34 C54 N2 O8'
_cell_volume   1678.67028262
_cell_formula_units_Z   2
loop_
 _symmetry_equiv_pos_site_id
 _symmetry_equiv_pos_as_xyz
  1  'x, y, z'
loop_
 _atom_site_type_symbol
 _atom_site_label
 _atom_site_symmetry_multiplicity
 _atom_site_fract_x
 _atom_site_fract_y
 _atom_site_fract_z
 _atom_site_occupancy
 _atom_site_charge
  Zn  Zn1  1  0.159650  0.973540  0.976750  1.0  0.9236
  Zn  Zn2  1  0.840350  0.026460  0.023250  1.0  0.9233
  H  H3  1  0.186800  0.271000  0.147900  1.0  0.1001
  H  H4  1  0.179900  0.390000  0.268200  1.0  0.1067
  H  H5  1  0.797600  0.335100  0.389700  1.0  0.1131
  H  H6  1  0.798700  0.224400  0.266300  1.0  0.1019
  H  H7  1  0.045300  0.686800  0.494600  1.0  0.0987
  H  H8  1  0.385600  0.106800  0.969200  1.0  0.0818
  H  H9  1  0.596400  0.122800  0.876000  1.0  0.1139
  H  H10  1  0.800400  0.045400  0.744200  1.0  0.0778
  H  H11  1  0.599300  0.829800  0.738300  1.0  0.1151
  H  H12  1  0.391400  0.819700  0.836900  1.0  0.0841
  H  H13  1  0.237500  0.615600  0.312000  1.0  0.1136
  H  H14  1  0.823600  0.776600  0.219200  1.0  0.103
  H  H15  1  0.816100  0.657000  0.338600  1.0  0.1206
  H  H16  1  0.247800  0.725900  0.188300  1.0  0.1005
  H  H17  1  0.732200  0.901500  0.630600  1.0  0.1056
  H  H18  1  0.836400  0.898600  0.476500  1.0  0.1064
  H  H19  1  0.995000  0.063700  0.641700  1.0  0.1052
  H  H20  1  0.813200  0.729000  0.852100  1.0  0.0999
  H  H21  1  0.820100  0.610000  0.731800  1.0  0.1065
  H  H22  1  0.202400  0.664900  0.610300  1.0  0.1131
  H  H23  1  0.201300  0.775600  0.733700  1.0  0.1017
  H  H24  1  0.954700  0.313200  0.505400  1.0  0.0991
  H  H25  1  0.614400  0.893200  0.030800  1.0  0.0825
  H  H26  1  0.403600  0.877200  0.124000  1.0  0.114
  H  H27  1  0.199600  0.954600  0.255800  1.0  0.077
  H  H28  1  0.400700  0.170200  0.261700  1.0  0.1155
  H  H29  1  0.608600  0.180300  0.163100  1.0  0.0845
  H  H30  1  0.762500  0.384400  0.688000  1.0  0.1142
  H  H31  1  0.176400  0.223400  0.780800  1.0  0.1034
  H  H32  1  0.183900  0.343000  0.661400  1.0  0.1196
  H  H33  1  0.752200  0.274100  0.811700  1.0  0.1002
  H  H34  1  0.267800  0.098500  0.369400  1.0  0.1074
  H  H35  1  0.163600  0.101400  0.523500  1.0  0.1059
  H  H36  1  0.005000  0.936300  0.358300  1.0  0.1057
  C  C37  1  0.000220  0.155420  0.117320  1.0  0.7177
  C  C38  1  0.993580  0.235260  0.194810  1.0  -0.1396
  C  C39  1  0.107680  0.284990  0.196000  1.0  -0.046
  C  C40  1  0.104200  0.355430  0.268510  1.0  -0.0838
  C  C41  1  0.987800  0.374740  0.341920  1.0  0.0215
  C  C42  1  0.875000  0.323750  0.340750  1.0  -0.1184
  C  C43  1  0.876400  0.255910  0.267090  1.0  -0.0396
  C  C44  1  0.990400  0.442840  0.422640  1.0  -0.0215
  C  C45  1  0.026600  0.611630  0.496910  1.0  -0.0942
  C  C46  1  0.016520  0.557100  0.419910  1.0  -0.0335
  C  C47  1  0.428600  0.051000  0.921820  1.0  0.1514
  C  C48  1  0.554900  0.062000  0.865350  1.0  -0.16
  C  C49  1  0.619800  0.981630  0.792360  1.0  0.1435
  C  C50  1  0.744900  0.999770  0.727060  1.0  -0.1831
  C  C51  1  0.557000  0.888290  0.784020  1.0  -0.2186
  C  C52  1  0.431800  0.882700  0.843800  1.0  0.1595
  C  C53  1  0.025280  0.626240  0.338430  1.0  0.038
  C  C54  1  0.154100  0.647070  0.293020  1.0  -0.1181
  C  C55  1  0.039600  0.844290  0.115700  1.0  0.6849
  C  C56  1  0.036700  0.764650  0.191930  1.0  -0.1557
  C  C57  1  0.907500  0.743400  0.237280  1.0  -0.0393
  C  C58  1  0.902600  0.672800  0.309630  1.0  -0.0976
  C  C59  1  0.160100  0.714460  0.219360  1.0  -0.0447
  C  C60  1  0.782900  0.953940  0.644170  1.0  -0.083
  C  C61  1  0.895970  0.977310  0.572280  1.0  0.0565
  C  C62  1  0.902100  0.939530  0.486020  1.0  -0.1394
  C  C63  1  0.996500  0.038200  0.585080  1.0  -0.1109
  C  C64  1  0.999780  0.844580  0.882680  1.0  0.7162
  C  C65  1  0.006420  0.764740  0.805190  1.0  -0.141
  C  C66  1  0.892320  0.715010  0.804000  1.0  -0.046
  C  C67  1  0.895800  0.644570  0.731490  1.0  -0.0832
  C  C68  1  0.012200  0.625260  0.658080  1.0  0.0227
  C  C69  1  0.125000  0.676250  0.659250  1.0  -0.1207
  C  C70  1  0.123600  0.744090  0.732910  1.0  -0.0408
  C  C71  1  0.009600  0.557160  0.577360  1.0  -0.0211
  C  C72  1  0.973400  0.388370  0.503090  1.0  -0.0954
  C  C73  1  0.983480  0.442900  0.580090  1.0  -0.034
  C  C74  1  0.571400  0.949000  0.078180  1.0  0.1509
  C  C75  1  0.445100  0.938000  0.134650  1.0  -0.1587
  C  C76  1  0.380200  0.018370  0.207640  1.0  0.1434
  C  C77  1  0.255100  0.000230  0.272940  1.0  -0.1825
  C  C78  1  0.443000  0.111710  0.215980  1.0  -0.2184
  C  C79  1  0.568200  0.117300  0.156200  1.0  0.1596
  C  C80  1  0.974720  0.373760  0.661570  1.0  0.0382
  C  C81  1  0.845900  0.352930  0.706980  1.0  -0.1176
  C  C82  1  0.960400  0.155710  0.884300  1.0  0.6844
  C  C83  1  0.963300  0.235350  0.808070  1.0  -0.1563
  C  C84  1  0.092500  0.256600  0.762720  1.0  -0.0377
  C  C85  1  0.097400  0.327200  0.690370  1.0  -0.0981
  C  C86  1  0.839900  0.285540  0.780640  1.0  -0.0444
  C  C87  1  0.217100  0.046060  0.355830  1.0  -0.0819
  C  C88  1  0.104030  0.022690  0.427720  1.0  0.0573
  C  C89  1  0.097900  0.060470  0.513980  1.0  -0.1362
  C  C90  1  0.003500  0.961800  0.414920  1.0  -0.1111
  N  N91  1  0.365580  0.963640  0.911300  1.0  -0.324
  N  N92  1  0.634420  0.036360  0.088700  1.0  -0.3245
  O  O93  1  0.160250  0.856510  0.073430  1.0  -0.5828
  O  O94  1  0.921410  0.893730  0.099970  1.0  -0.6218
  O  O95  1  0.882670  0.143380  0.105360  1.0  -0.6046
  O  O96  1  0.123520  0.105750  0.070720  1.0  -0.5851
  O  O97  1  0.839750  0.143490  0.926570  1.0  -0.585
  O  O98  1  0.078590  0.106270  0.900030  1.0  -0.6215
  O  O99  1  0.117330  0.856620  0.894640  1.0  -0.6042
  O  O100  1  0.876480  0.894250  0.929280  1.0  -0.5854
