# generated using pymatgen
data_NpC2O5
_symmetry_space_group_name_H-M   'P 1'
_cell_length_a   11.38200000
_cell_length_b   11.38200000
_cell_length_c   11.73400000
_cell_angle_alpha   90.00000000
_cell_angle_beta   90.00000000
_cell_angle_gamma   120.00000000
_symmetry_Int_Tables_number   1
_chemical_formula_structural   NpC2O5
_chemical_formula_sum   'Np6 C12 O30'
_cell_volume   1316.47882519
_cell_formula_units_Z   6
loop_
 _symmetry_equiv_pos_site_id
 _symmetry_equiv_pos_as_xyz
  1  'x, y, z'
loop_
 _atom_site_type_symbol
 _atom_site_label
 _atom_site_symmetry_multiplicity
 _atom_site_fract_x
 _atom_site_fract_y
 _atom_site_fract_z
 _atom_site_occupancy
 _atom_site_charge
  Np  Np1  1  0.507440  0.896480  0.750000  1.0  2.2334
  Np  Np2  1  0.389040  0.492560  0.750000  1.0  2.2241
  Np  Np3  1  0.103520  0.610960  0.750000  1.0  2.228
  Np  Np4  1  0.492560  0.103520  0.250000  1.0  2.2317
  Np  Np5  1  0.610960  0.507440  0.250000  1.0  2.2064
  Np  Np6  1  0.896480  0.389040  0.250000  1.0  2.2298
  C  C7  1  0.499300  0.936900  0.475600  1.0  0.5443
  C  C8  1  0.437600  0.500700  0.475600  1.0  0.5464
  C  C9  1  0.063100  0.562400  0.475600  1.0  0.5446
  C  C10  1  0.500700  0.063100  0.975600  1.0  0.5443
  C  C11  1  0.562400  0.499300  0.975600  1.0  0.5457
  C  C12  1  0.936900  0.437600  0.975600  1.0  0.5438
  C  C13  1  0.500700  0.063100  0.524400  1.0  0.5441
  C  C14  1  0.562400  0.499300  0.524400  1.0  0.5458
  C  C15  1  0.936900  0.437600  0.524400  1.0  0.5441
  C  C16  1  0.499300  0.936900  0.024400  1.0  0.5446
  C  C17  1  0.437600  0.500700  0.024400  1.0  0.5464
  C  C18  1  0.063100  0.562400  0.024400  1.0  0.5444
  O  O19  1  0.504300  0.856000  0.544200  1.0  -0.6009
  O  O20  1  0.510100  0.076000  0.631600  1.0  -0.585
  O  O21  1  0.351700  0.495700  0.544200  1.0  -0.6021
  O  O22  1  0.565900  0.489900  0.631600  1.0  -0.5829
  O  O23  1  0.144000  0.648300  0.544200  1.0  -0.6013
  O  O24  1  0.924000  0.434100  0.631600  1.0  -0.5823
  O  O25  1  0.495700  0.144000  0.044200  1.0  -0.6007
  O  O26  1  0.489900  0.924000  0.131600  1.0  -0.5872
  O  O27  1  0.648300  0.504300  0.044200  1.0  -0.6013
  O  O28  1  0.434100  0.510100  0.131600  1.0  -0.5854
  O  O29  1  0.856000  0.351700  0.044200  1.0  -0.5986
  O  O30  1  0.076000  0.565900  0.131600  1.0  -0.5817
  O  O31  1  0.495700  0.144000  0.455800  1.0  -0.6035
  O  O32  1  0.489900  0.924000  0.368400  1.0  -0.5867
  O  O33  1  0.648300  0.504300  0.455800  1.0  -0.6013
  O  O34  1  0.434100  0.510100  0.368400  1.0  -0.5862
  O  O35  1  0.856000  0.351700  0.455800  1.0  -0.6031
  O  O36  1  0.076000  0.565900  0.368400  1.0  -0.5846
  O  O37  1  0.504300  0.856000  0.955800  1.0  -0.6043
  O  O38  1  0.510100  0.076000  0.868400  1.0  -0.5854
  O  O39  1  0.351700  0.495700  0.955800  1.0  -0.6025
  O  O40  1  0.565900  0.489900  0.868400  1.0  -0.5838
  O  O41  1  0.144000  0.648300  0.955800  1.0  -0.6022
  O  O42  1  0.924000  0.434100  0.868400  1.0  -0.5824
  O  O43  1  0.316600  0.812900  0.750000  1.0  -0.9413
  O  O44  1  0.496300  0.683400  0.750000  1.0  -0.9445
  O  O45  1  0.187100  0.503700  0.750000  1.0  -0.9432
  O  O46  1  0.683400  0.187100  0.250000  1.0  -0.9399
  O  O47  1  0.503700  0.316600  0.250000  1.0  -0.9425
  O  O48  1  0.812900  0.496300  0.250000  1.0  -0.9453
