# generated using pymatgen
data_Co2H28C52N4(O3F4)3
_symmetry_space_group_name_H-M   'P 1'
_cell_length_a   16.27990000
_cell_length_b   7.22140000
_cell_length_c   24.27160000
_cell_angle_alpha   90.00000000
_cell_angle_beta   116.41900000
_cell_angle_gamma   90.00000000
_symmetry_Int_Tables_number   1
_chemical_formula_structural   Co2H28C52N4(O3F4)3
_chemical_formula_sum   'Co4 H56 C104 N8 O18 F24'
_cell_volume   2555.45534552
_cell_formula_units_Z   2
loop_
 _symmetry_equiv_pos_site_id
 _symmetry_equiv_pos_as_xyz
  1  'x, y, z'
loop_
 _atom_site_type_symbol
 _atom_site_label
 _atom_site_symmetry_multiplicity
 _atom_site_fract_x
 _atom_site_fract_y
 _atom_site_fract_z
 _atom_site_occupancy
 _atom_site_charge
  Co  Co1  1  0.441460  0.162720  0.984680  1.0  0.9636
  Co  Co2  1  0.558540  0.162720  0.515320  1.0  0.9635
  Co  Co3  1  0.558540  0.837280  0.015320  1.0  0.9633
  Co  Co4  1  0.441460  0.837280  0.484680  1.0  0.9634
  H  H5  1  0.146300  0.122700  0.858300  1.0  0.1209
  H  H6  1  0.235700  0.893700  0.925900  1.0  0.097
  H  H7  1  0.082100  0.494400  0.810100  1.0  0.1242
  H  H8  1  0.339600  0.523400  0.910500  1.0  0.0905
  H  H9  1  0.253700  0.199300  0.003300  1.0  0.1086
  H  H10  1  0.133800  0.429500  0.951500  1.0  0.1324
  H  H11  1  0.574400  0.530700  0.898700  1.0  0.1012
  H  H12  1  0.663600  0.654600  0.855900  1.0  0.1132
  H  H13  1  0.829800  0.214800  0.912400  1.0  0.0983
  H  H14  1  0.739000  0.087600  0.952800  1.0  0.0982
  H  H15  1  0.730700  0.007700  0.708000  1.0  0.1024
  H  H16  1  0.821700  0.882300  0.803200  1.0  0.1033
  H  H17  1  0.668700  0.421500  0.755300  1.0  0.1129
  H  H18  1  0.580800  0.544100  0.659300  1.0  0.1044
  H  H19  1  0.853700  0.122700  0.641700  1.0  0.1215
  H  H20  1  0.764300  0.893700  0.574100  1.0  0.0972
  H  H21  1  0.917900  0.494400  0.689900  1.0  0.1241
  H  H22  1  0.660400  0.523400  0.589500  1.0  0.0904
  H  H23  1  0.746300  0.199300  0.496700  1.0  0.1077
  H  H24  1  0.866200  0.429500  0.548500  1.0  0.1316
  H  H25  1  0.425600  0.530700  0.601300  1.0  0.1012
  H  H26  1  0.336400  0.654600  0.644100  1.0  0.1129
  H  H27  1  0.170200  0.214800  0.587600  1.0  0.0986
  H  H28  1  0.261000  0.087600  0.547200  1.0  0.0986
  H  H29  1  0.269300  0.007700  0.792000  1.0  0.1019
  H  H30  1  0.178300  0.882300  0.696800  1.0  0.1037
  H  H31  1  0.331300  0.421500  0.744700  1.0  0.113
  H  H32  1  0.419200  0.544100  0.840700  1.0  0.1041
  H  H33  1  0.853700  0.877300  0.141700  1.0  0.1212
  H  H34  1  0.764300  0.106300  0.074100  1.0  0.0966
  H  H35  1  0.917900  0.505600  0.189900  1.0  0.1242
  H  H36  1  0.660400  0.476600  0.089500  1.0  0.0907
  H  H37  1  0.746300  0.800700  0.996700  1.0  0.1083
  H  H38  1  0.866200  0.570500  0.048500  1.0  0.1317
  H  H39  1  0.425600  0.469300  0.101300  1.0  0.1011
  H  H40  1  0.336400  0.345400  0.144100  1.0  0.1131
  H  H41  1  0.170200  0.785200  0.087600  1.0  0.0988
  H  H42  1  0.261000  0.912400  0.047200  1.0  0.0987
  H  H43  1  0.269300  0.992300  0.292000  1.0  0.102
  H  H44  1  0.178300  0.117700  0.196800  1.0  0.1031
  H  H45  1  0.331300  0.578500  0.244700  1.0  0.1131
  H  H46  1  0.419200  0.455900  0.340700  1.0  0.1043
  H  H47  1  0.146300  0.877300  0.358300  1.0  0.1206
  H  H48  1  0.235700  0.106300  0.425900  1.0  0.0972
  H  H49  1  0.082100  0.505600  0.310100  1.0  0.1245
  H  H50  1  0.339600  0.476600  0.410500  1.0  0.0908
  H  H51  1  0.253700  0.800700  0.503300  1.0  0.1083
  H  H52  1  0.133800  0.570500  0.451500  1.0  0.1324
  H  H53  1  0.574400  0.469300  0.398700  1.0  0.101
  H  H54  1  0.663600  0.345400  0.355900  1.0  0.113
  H  H55  1  0.829800  0.785200  0.412400  1.0  0.0985
  H  H56  1  0.739000  0.912400  0.452800  1.0  0.0984
  H  H57  1  0.730700  0.992300  0.208000  1.0  0.1025
  H  H58  1  0.821700  0.117700  0.303200  1.0  0.1033
  H  H59  1  0.668700  0.578500  0.255300  1.0  0.1128
  H  H60  1  0.580800  0.455900  0.159300  1.0  0.1045
  C  C61  1  0.039930  0.755000  0.779630  1.0  -0.0335
  C  C62  1  0.060640  0.940800  0.795180  1.0  0.1767
  C  C63  1  0.133430  0.997800  0.849160  1.0  -0.1564
  C  C64  1  0.186270  0.861200  0.888960  1.0  -0.077
  C  C65  1  0.166040  0.675000  0.874050  1.0  0.1527
  C  C66  1  0.093960  0.619300  0.819610  1.0  -0.1438
  C  C67  1  0.303340  0.470200  0.926970  1.0  0.1763
  C  C68  1  0.255880  0.293400  0.977840  1.0  0.034
  C  C69  1  0.189310  0.420100  0.949350  1.0  -0.1224
  C  C70  1  0.587650  0.208500  0.955980  1.0  0.6824
  C  C71  1  0.646350  0.294400  0.929380  1.0  -0.1566
  C  C72  1  0.625060  0.465500  0.900820  1.0  -0.0548
  C  C73  1  0.678990  0.540000  0.875400  1.0  -0.1142
  C  C74  1  0.755230  0.447100  0.878510  1.0  0.0691
  C  C75  1  0.777750  0.277700  0.908690  1.0  -0.1401
  C  C76  1  0.723570  0.202100  0.933280  1.0  -0.0272
  C  C77  1  0.815080  0.540800  0.851580  1.0  -0.3084
  C  C78  1  0.754990  0.638100  0.789840  1.0  0.0821
  C  C79  1  0.590650  0.867800  0.609760  1.0  0.6748
  C  C80  1  0.646340  0.789100  0.673230  1.0  -0.1787
  C  C81  1  0.718550  0.888800  0.717230  1.0  -0.0125
  C  C82  1  0.772860  0.814200  0.774600  1.0  -0.1295
  C  C83  1  0.681950  0.539200  0.745810  1.0  -0.1231
  C  C84  1  0.628820  0.613100  0.688270  1.0  -0.0749
  C  C85  1  0.879410  0.675600  0.901150  1.0  0.6927
  C  C86  1  0.874970  0.398400  0.837900  1.0  0.6947
  C  C87  1  0.960070  0.755000  0.720370  1.0  -0.0347
  C  C88  1  0.939360  0.940800  0.704820  1.0  0.1786
  C  C89  1  0.866570  0.997800  0.650840  1.0  -0.1594
  C  C90  1  0.813730  0.861200  0.611040  1.0  -0.0768
  C  C91  1  0.833960  0.675000  0.625950  1.0  0.1531
  C  C92  1  0.906040  0.619300  0.680390  1.0  -0.1445
  C  C93  1  0.696660  0.470200  0.573030  1.0  0.1765
  C  C94  1  0.744120  0.293400  0.522160  1.0  0.0332
  C  C95  1  0.810690  0.420100  0.550650  1.0  -0.1221
  C  C96  1  0.412350  0.208500  0.544020  1.0  0.6816
  C  C97  1  0.353650  0.294400  0.570620  1.0  -0.156
  C  C98  1  0.374940  0.465500  0.599180  1.0  -0.0554
  C  C99  1  0.321010  0.540000  0.624600  1.0  -0.1146
  C  C100  1  0.244770  0.447100  0.621490  1.0  0.07
  C  C101  1  0.222250  0.277700  0.591310  1.0  -0.1385
  C  C102  1  0.276430  0.202100  0.566720  1.0  -0.0256
  C  C103  1  0.184920  0.540800  0.648420  1.0  -0.3089
  C  C104  1  0.245010  0.638100  0.710160  1.0  0.0831
  C  C105  1  0.409350  0.867800  0.890240  1.0  0.6751
  C  C106  1  0.353660  0.789100  0.826770  1.0  -0.1793
  C  C107  1  0.281450  0.888800  0.782770  1.0  -0.0123
  C  C108  1  0.227140  0.814200  0.725400  1.0  -0.1299
  C  C109  1  0.318050  0.539200  0.754190  1.0  -0.1229
  C  C110  1  0.371180  0.613100  0.811730  1.0  -0.075
  C  C111  1  0.120590  0.675600  0.598850  1.0  0.6932
  C  C112  1  0.125030  0.398400  0.662100  1.0  0.6956
  C  C113  1  0.960070  0.245000  0.220370  1.0  -0.0339
  C  C114  1  0.939360  0.059200  0.204820  1.0  0.1756
  C  C115  1  0.866570  0.002200  0.150840  1.0  -0.1584
  C  C116  1  0.813730  0.138800  0.111040  1.0  -0.0766
  C  C117  1  0.833960  0.325000  0.125950  1.0  0.1532
  C  C118  1  0.906040  0.380700  0.180390  1.0  -0.1442
  C  C119  1  0.696660  0.529800  0.073030  1.0  0.1759
  C  C120  1  0.744120  0.706600  0.022160  1.0  0.0333
  C  C121  1  0.810690  0.579900  0.050650  1.0  -0.1225
  C  C122  1  0.412350  0.791500  0.044020  1.0  0.6814
  C  C123  1  0.353650  0.705600  0.070620  1.0  -0.1547
  C  C124  1  0.374940  0.534500  0.099180  1.0  -0.0552
  C  C125  1  0.321010  0.460000  0.124600  1.0  -0.1149
  C  C126  1  0.244770  0.552900  0.121490  1.0  0.0702
  C  C127  1  0.222250  0.722300  0.091310  1.0  -0.1402
  C  C128  1  0.276430  0.797900  0.066720  1.0  -0.0264
  C  C129  1  0.184920  0.459200  0.148420  1.0  -0.3089
  C  C130  1  0.245010  0.361900  0.210160  1.0  0.0831
  C  C131  1  0.409350  0.132200  0.390240  1.0  0.6753
  C  C132  1  0.353660  0.210900  0.326770  1.0  -0.1805
  C  C133  1  0.281450  0.111200  0.282770  1.0  -0.0131
  C  C134  1  0.227140  0.185800  0.225400  1.0  -0.1305
  C  C135  1  0.318050  0.460800  0.254190  1.0  -0.1228
  C  C136  1  0.371180  0.386900  0.311730  1.0  -0.0749
  C  C137  1  0.120590  0.324400  0.098850  1.0  0.6934
  C  C138  1  0.125030  0.601600  0.162100  1.0  0.6948
  C  C139  1  0.039930  0.245000  0.279630  1.0  -0.0329
  C  C140  1  0.060640  0.059200  0.295180  1.0  0.1773
  C  C141  1  0.133430  0.002200  0.349160  1.0  -0.1559
  C  C142  1  0.186270  0.138800  0.388960  1.0  -0.0773
  C  C143  1  0.166040  0.325000  0.374050  1.0  0.1527
  C  C144  1  0.093960  0.380700  0.319610  1.0  -0.1433
  C  C145  1  0.303340  0.529800  0.426970  1.0  0.1762
  C  C146  1  0.255880  0.706600  0.477840  1.0  0.0329
  C  C147  1  0.189310  0.579900  0.449350  1.0  -0.1227
  C  C148  1  0.587650  0.791500  0.455980  1.0  0.6821
  C  C149  1  0.646350  0.705600  0.429380  1.0  -0.156
  C  C150  1  0.625060  0.534500  0.400820  1.0  -0.0546
  C  C151  1  0.678990  0.460000  0.375400  1.0  -0.1152
  C  C152  1  0.755230  0.552900  0.378510  1.0  0.069
  C  C153  1  0.777750  0.722300  0.408690  1.0  -0.1407
  C  C154  1  0.723570  0.797900  0.433280  1.0  -0.0278
  C  C155  1  0.815080  0.459200  0.351580  1.0  -0.3084
  C  C156  1  0.754990  0.361900  0.289840  1.0  0.0819
  C  C157  1  0.590650  0.132200  0.109760  1.0  0.6749
  C  C158  1  0.646340  0.210900  0.173230  1.0  -0.1807
  C  C159  1  0.718550  0.111200  0.217230  1.0  -0.0134
  C  C160  1  0.772860  0.185800  0.274600  1.0  -0.1313
  C  C161  1  0.681950  0.460800  0.245810  1.0  -0.1224
  C  C162  1  0.628820  0.386900  0.188270  1.0  -0.0744
  C  C163  1  0.879410  0.324400  0.401150  1.0  0.6942
  C  C164  1  0.874970  0.601600  0.337900  1.0  0.6947
  N  N165  1  0.327340  0.324600  0.963400  1.0  -0.3814
  N  N166  1  0.219710  0.532400  0.916570  1.0  0.0088
  N  N167  1  0.672660  0.324600  0.536600  1.0  -0.3834
  N  N168  1  0.780290  0.532400  0.583430  1.0  0.009
  N  N169  1  0.672660  0.675400  0.036600  1.0  -0.3839
  N  N170  1  0.780290  0.467600  0.083430  1.0  0.0085
  N  N171  1  0.327340  0.675400  0.463400  1.0  -0.3826
  N  N172  1  0.219710  0.467600  0.416570  1.0  0.008
  O  O173  1  0.518800  0.298500  0.951710  1.0  -0.5779
  O  O174  1  0.524860  0.771400  0.573050  1.0  -0.5794
  O  O175  1  0.614770  0.021600  0.597760  1.0  -0.5933
  O  O176  1  0.611420  0.052300  0.981070  1.0  -0.6096
  O  O177  1  0.481200  0.298500  0.548290  1.0  -0.5767
  O  O178  1  0.475140  0.771400  0.926950  1.0  -0.5784
  O  O179  1  0.385230  0.021600  0.902240  1.0  -0.5923
  O  O180  1  0.388580  0.052300  0.518930  1.0  -0.6084
  O  O181  1  0.481200  0.701500  0.048290  1.0  -0.5769
  O  O182  1  0.475140  0.228600  0.426950  1.0  -0.5787
  O  O183  1  0.385230  0.978400  0.402240  1.0  -0.5914
  O  O184  1  0.388580  0.947700  0.018930  1.0  -0.6089
  O  O185  1  0.518800  0.701500  0.451710  1.0  -0.578
  O  O186  1  0.524860  0.228600  0.073050  1.0  -0.5787
  O  O187  1  0.614770  0.978400  0.097760  1.0  -0.5925
  O  O188  1  0.611420  0.947700  0.481070  1.0  -0.6099
  O  O189  1  0.000000  0.057300  0.750000  1.0  -0.1885
  O  O190  1  0.000000  0.942700  0.250000  1.0  -0.1869
  F  F191  1  0.944830  0.331800  0.888460  1.0  -0.2048
  F  F192  1  0.911900  0.473100  0.803750  1.0  -0.2063
  F  F193  1  0.826430  0.253800  0.806540  1.0  -0.1993
  F  F194  1  0.945660  0.745100  0.888840  1.0  -0.2088
  F  F195  1  0.921510  0.595400  0.956390  1.0  -0.205
  F  F196  1  0.833140  0.819810  0.907810  1.0  -0.2034
  F  F197  1  0.055170  0.331800  0.611540  1.0  -0.2033
  F  F198  1  0.088100  0.473100  0.696250  1.0  -0.2067
  F  F199  1  0.173570  0.253800  0.693460  1.0  -0.1996
  F  F200  1  0.054340  0.745100  0.611160  1.0  -0.208
  F  F201  1  0.078490  0.595400  0.543610  1.0  -0.2029
  F  F202  1  0.166860  0.819810  0.592190  1.0  -0.2027
  F  F203  1  0.055170  0.668200  0.111540  1.0  -0.2034
  F  F204  1  0.088100  0.526900  0.196250  1.0  -0.2072
  F  F205  1  0.173570  0.746200  0.193460  1.0  -0.2001
  F  F206  1  0.054340  0.254900  0.111160  1.0  -0.208
  F  F207  1  0.078490  0.404600  0.043610  1.0  -0.2037
  F  F208  1  0.166860  0.180190  0.092190  1.0  -0.203
  F  F209  1  0.944830  0.668200  0.388460  1.0  -0.2052
  F  F210  1  0.911900  0.526900  0.303750  1.0  -0.2061
  F  F211  1  0.826430  0.746200  0.306540  1.0  -0.1988
  F  F212  1  0.945660  0.254900  0.388840  1.0  -0.2092
  F  F213  1  0.921510  0.404600  0.456390  1.0  -0.2048
  F  F214  1  0.833140  0.180190  0.407810  1.0  -0.2027
