# generated using pymatgen
data_GdH2C6N3O7
_symmetry_space_group_name_H-M   'P 1'
_cell_length_a   15.89560000
_cell_length_b   15.89560000
_cell_length_c   7.60280000
_cell_angle_alpha   90.00000000
_cell_angle_beta   90.00000000
_cell_angle_gamma   120.00000000
_symmetry_Int_Tables_number   1
_chemical_formula_structural   GdH2C6N3O7
_chemical_formula_sum   'Gd6 H12 C36 N18 O42'
_cell_volume   1663.63500108
_cell_formula_units_Z   6
loop_
 _symmetry_equiv_pos_site_id
 _symmetry_equiv_pos_as_xyz
  1  'x, y, z'
loop_
 _atom_site_type_symbol
 _atom_site_label
 _atom_site_symmetry_multiplicity
 _atom_site_fract_x
 _atom_site_fract_y
 _atom_site_fract_z
 _atom_site_occupancy
 _atom_site_charge
  Gd  Gd1  1  0.370210  0.185110  0.255150  1.0  2.1714
  Gd  Gd2  1  0.814890  0.185100  0.255150  1.0  2.1708
  Gd  Gd3  1  0.814900  0.629790  0.255150  1.0  2.1714
  Gd  Gd4  1  0.629790  0.814890  0.755150  1.0  2.1722
  Gd  Gd5  1  0.185110  0.814900  0.755150  1.0  2.1715
  Gd  Gd6  1  0.185100  0.370210  0.755150  1.0  2.1717
  H  H7  1  0.619500  0.238800  0.273000  1.0  0.0987
  H  H8  1  0.491600  0.982800  0.647600  1.0  0.1263
  H  H9  1  0.761200  0.380700  0.273000  1.0  0.0975
  H  H10  1  0.017200  0.508800  0.647600  1.0  0.1257
  H  H11  1  0.619300  0.380500  0.273000  1.0  0.0976
  H  H12  1  0.491200  0.508400  0.647600  1.0  0.1263
  H  H13  1  0.380500  0.761200  0.773000  1.0  0.0979
  H  H14  1  0.508400  0.017200  0.147600  1.0  0.1265
  H  H15  1  0.238800  0.619300  0.773000  1.0  0.0976
  H  H16  1  0.982800  0.491200  0.147600  1.0  0.1265
  H  H17  1  0.380700  0.619500  0.773000  1.0  0.0978
  H  H18  1  0.508800  0.491600  0.147600  1.0  0.1259
  C  C19  1  0.593400  0.186600  0.350700  1.0  0.3848
  C  C20  1  0.612400  0.076000  0.511400  1.0  0.1749
  C  C21  1  0.517900  0.035400  0.570800  1.0  -0.0315
  C  C22  1  0.463600  0.076400  0.510800  1.0  0.1754
  C  C23  1  0.357000  0.033400  0.558100  1.0  0.7045
  C  C24  1  0.676300  0.032800  0.557600  1.0  0.7135
  C  C25  1  0.813400  0.406800  0.350700  1.0  0.3853
  C  C26  1  0.924000  0.536400  0.511400  1.0  0.1733
  C  C27  1  0.964600  0.482500  0.570800  1.0  -0.0332
  C  C28  1  0.923600  0.387200  0.510800  1.0  0.1749
  C  C29  1  0.966600  0.323600  0.558100  1.0  0.7077
  C  C30  1  0.967200  0.643500  0.557600  1.0  0.7183
  C  C31  1  0.593200  0.406600  0.350700  1.0  0.3847
  C  C32  1  0.463600  0.387600  0.511400  1.0  0.1726
  C  C33  1  0.517500  0.482100  0.570800  1.0  -0.0339
  C  C34  1  0.612800  0.536400  0.510800  1.0  0.1749
  C  C35  1  0.676400  0.643000  0.558100  1.0  0.7128
  C  C36  1  0.356500  0.323700  0.557600  1.0  0.7148
  C  C37  1  0.406600  0.813400  0.850700  1.0  0.3848
  C  C38  1  0.387600  0.924000  0.011400  1.0  0.1737
  C  C39  1  0.482100  0.964600  0.070800  1.0  -0.0324
  C  C40  1  0.536400  0.923600  0.010800  1.0  0.176
  C  C41  1  0.643000  0.966600  0.058100  1.0  0.7054
  C  C42  1  0.323700  0.967200  0.057600  1.0  0.7127
  C  C43  1  0.186600  0.593200  0.850700  1.0  0.3845
  C  C44  1  0.076000  0.463600  0.011400  1.0  0.1725
  C  C45  1  0.035400  0.517500  0.070800  1.0  -0.0334
  C  C46  1  0.076400  0.612800  0.010800  1.0  0.1744
  C  C47  1  0.033400  0.676400  0.058100  1.0  0.7091
  C  C48  1  0.032800  0.356500  0.057600  1.0  0.7194
  C  C49  1  0.406800  0.593400  0.850700  1.0  0.3847
  C  C50  1  0.536400  0.612400  0.011400  1.0  0.1737
  C  C51  1  0.482500  0.517900  0.070800  1.0  -0.0331
  C  C52  1  0.387200  0.463600  0.010800  1.0  0.174
  C  C53  1  0.323600  0.357000  0.058100  1.0  0.7091
  C  C54  1  0.643500  0.676300  0.057600  1.0  0.717
  N  N55  1  0.501200  0.152400  0.401400  1.0  -0.434
  N  N56  1  0.651300  0.152400  0.401700  1.0  -0.4217
  N  N57  1  0.465700  0.233000  0.913500  1.0  0.7409
  N  N58  1  0.847600  0.348800  0.401400  1.0  -0.4335
  N  N59  1  0.847600  0.498900  0.401700  1.0  -0.4244
  N  N60  1  0.767000  0.232700  0.913500  1.0  0.7393
  N  N61  1  0.651200  0.498800  0.401400  1.0  -0.4321
  N  N62  1  0.501100  0.348700  0.401700  1.0  -0.4249
  N  N63  1  0.767300  0.534300  0.913500  1.0  0.7398
  N  N64  1  0.498800  0.847600  0.901400  1.0  -0.431
  N  N65  1  0.348700  0.847600  0.901700  1.0  -0.424
  N  N66  1  0.534300  0.767000  0.413500  1.0  0.7395
  N  N67  1  0.152400  0.651200  0.901400  1.0  -0.4338
  N  N68  1  0.152400  0.501100  0.901700  1.0  -0.4216
  N  N69  1  0.233000  0.767300  0.413500  1.0  0.7409
  N  N70  1  0.348800  0.501200  0.901400  1.0  -0.4345
  N  N71  1  0.498900  0.651300  0.901700  1.0  -0.4246
  N  N72  1  0.232700  0.465700  0.413500  1.0  0.74
  O  O73  1  0.313270  0.072360  0.492500  1.0  -0.6282
  O  O74  1  0.321370  0.960140  0.655600  1.0  -0.7009
  O  O75  1  0.759410  0.072720  0.492300  1.0  -0.6376
  O  O76  1  0.638880  0.960540  0.655400  1.0  -0.6897
  O  O77  1  0.374500  0.187000  0.923600  1.0  -0.5819
  O  O78  1  0.511050  0.255300  0.061800  1.0  -0.6656
  O  O79  1  0.508300  0.254000  0.774100  1.0  -0.4932
  O  O80  1  0.927640  0.240910  0.492500  1.0  -0.6352
  O  O81  1  0.039860  0.361230  0.655600  1.0  -0.6999
  O  O82  1  0.927280  0.686690  0.492300  1.0  -0.6442
  O  O83  1  0.039460  0.678340  0.655400  1.0  -0.6891
  O  O84  1  0.813000  0.187500  0.923600  1.0  -0.5825
  O  O85  1  0.744700  0.255750  0.061800  1.0  -0.666
  O  O86  1  0.746000  0.254300  0.774100  1.0  -0.4924
  O  O87  1  0.759090  0.686730  0.492500  1.0  -0.6356
  O  O88  1  0.638770  0.678630  0.655600  1.0  -0.7006
  O  O89  1  0.313310  0.240590  0.492300  1.0  -0.6424
  O  O90  1  0.321660  0.361120  0.655400  1.0  -0.6871
  O  O91  1  0.812500  0.625500  0.923600  1.0  -0.5802
  O  O92  1  0.744250  0.488950  0.061800  1.0  -0.6658
  O  O93  1  0.745700  0.491700  0.774100  1.0  -0.4923
  O  O94  1  0.686730  0.927640  0.992500  1.0  -0.6282
  O  O95  1  0.678630  0.039860  0.155600  1.0  -0.7015
  O  O96  1  0.240590  0.927280  0.992300  1.0  -0.6365
  O  O97  1  0.361120  0.039460  0.155400  1.0  -0.6897
  O  O98  1  0.625500  0.813000  0.423600  1.0  -0.582
  O  O99  1  0.488950  0.744700  0.561800  1.0  -0.6662
  O  O100  1  0.491700  0.746000  0.274100  1.0  -0.4922
  O  O101  1  0.072360  0.759090  0.992500  1.0  -0.6342
  O  O102  1  0.960140  0.638770  0.155600  1.0  -0.7015
  O  O103  1  0.072720  0.313310  0.992300  1.0  -0.6443
  O  O104  1  0.960540  0.321660  0.155400  1.0  -0.6891
  O  O105  1  0.187000  0.812500  0.423600  1.0  -0.5813
  O  O106  1  0.255300  0.744250  0.561800  1.0  -0.6657
  O  O107  1  0.254000  0.745700  0.274100  1.0  -0.4929
  O  O108  1  0.240910  0.313270  0.992500  1.0  -0.6321
  O  O109  1  0.361230  0.321370  0.155600  1.0  -0.7008
  O  O110  1  0.686690  0.759410  0.992300  1.0  -0.644
  O  O111  1  0.678340  0.638880  0.155400  1.0  -0.688
  O  O112  1  0.187500  0.374500  0.423600  1.0  -0.5808
  O  O113  1  0.255750  0.511050  0.561800  1.0  -0.6661
  O  O114  1  0.254300  0.508300  0.274100  1.0  -0.4922
