# generated using pymatgen
data_Cd2H6C17O10
_symmetry_space_group_name_H-M   'P 1'
_cell_length_a   14.11290000
_cell_length_b   14.79030000
_cell_length_c   21.16020000
_cell_angle_alpha   90.00000000
_cell_angle_beta   107.64500000
_cell_angle_gamma   90.00000000
_symmetry_Int_Tables_number   1
_chemical_formula_structural   Cd2H6C17O10
_chemical_formula_sum   'Cd16 H48 C136 O80'
_cell_volume   4209.05352413
_cell_formula_units_Z   8
loop_
 _symmetry_equiv_pos_site_id
 _symmetry_equiv_pos_as_xyz
  1  'x, y, z'
loop_
 _atom_site_type_symbol
 _atom_site_label
 _atom_site_symmetry_multiplicity
 _atom_site_fract_x
 _atom_site_fract_y
 _atom_site_fract_z
 _atom_site_occupancy
 _atom_site_charge
  Cd  Cd1  1  0.921950  0.562460  0.317040  1.0  1.0711
  Cd  Cd2  1  0.285440  0.064770  0.551160  1.0  1.0897
  Cd  Cd3  1  0.421950  0.062460  0.317040  1.0  1.071
  Cd  Cd4  1  0.785440  0.564770  0.551160  1.0  1.0897
  Cd  Cd5  1  0.078050  0.562460  0.182960  1.0  1.0703
  Cd  Cd6  1  0.714560  0.064770  0.948840  1.0  1.0899
  Cd  Cd7  1  0.578050  0.062460  0.182960  1.0  1.0706
  Cd  Cd8  1  0.214560  0.564770  0.948840  1.0  1.0899
  Cd  Cd9  1  0.078050  0.437540  0.682960  1.0  1.0705
  Cd  Cd10  1  0.714560  0.935230  0.448840  1.0  1.0889
  Cd  Cd11  1  0.578050  0.937540  0.682960  1.0  1.0704
  Cd  Cd12  1  0.214560  0.435230  0.448840  1.0  1.0889
  Cd  Cd13  1  0.921950  0.437540  0.817040  1.0  1.0715
  Cd  Cd14  1  0.285440  0.935230  0.051160  1.0  1.0886
  Cd  Cd15  1  0.421950  0.937540  0.817040  1.0  1.0718
  Cd  Cd16  1  0.785440  0.435230  0.051160  1.0  1.0886
  H  H17  1  0.426500  0.852100  0.436000  1.0  0.1341
  H  H18  1  0.137700  0.798400  0.409200  1.0  0.134
  H  H19  1  0.661900  0.804500  0.323900  1.0  0.1357
  H  H20  1  0.291500  0.651600  0.315500  1.0  0.1268
  H  H21  1  0.459600  0.587500  0.373800  1.0  0.1426
  H  H22  1  0.604100  0.546000  0.355500  1.0  0.1311
  H  H23  1  0.926500  0.352100  0.436000  1.0  0.1341
  H  H24  1  0.637700  0.298400  0.409200  1.0  0.134
  H  H25  1  0.161900  0.304500  0.323900  1.0  0.1357
  H  H26  1  0.791500  0.151600  0.315500  1.0  0.1268
  H  H27  1  0.959600  0.087500  0.373800  1.0  0.1426
  H  H28  1  0.104100  0.046000  0.355500  1.0  0.1311
  H  H29  1  0.573500  0.852100  0.064000  1.0  0.134
  H  H30  1  0.862300  0.798400  0.090800  1.0  0.1344
  H  H31  1  0.338100  0.804500  0.176100  1.0  0.1358
  H  H32  1  0.708500  0.651600  0.184500  1.0  0.1268
  H  H33  1  0.540400  0.587500  0.126200  1.0  0.1425
  H  H34  1  0.395900  0.546000  0.144500  1.0  0.1311
  H  H35  1  0.073500  0.352100  0.064000  1.0  0.134
  H  H36  1  0.362300  0.298400  0.090800  1.0  0.1344
  H  H37  1  0.838100  0.304500  0.176100  1.0  0.1358
  H  H38  1  0.208500  0.151600  0.184500  1.0  0.1268
  H  H39  1  0.040400  0.087500  0.126200  1.0  0.1425
  H  H40  1  0.895900  0.046000  0.144500  1.0  0.1311
  H  H41  1  0.573500  0.147900  0.564000  1.0  0.1339
  H  H42  1  0.862300  0.201600  0.590800  1.0  0.134
  H  H43  1  0.338100  0.195500  0.676100  1.0  0.1357
  H  H44  1  0.708500  0.348400  0.684500  1.0  0.1265
  H  H45  1  0.540400  0.412500  0.626200  1.0  0.1422
  H  H46  1  0.395900  0.454000  0.644500  1.0  0.1309
  H  H47  1  0.073500  0.647900  0.564000  1.0  0.1339
  H  H48  1  0.362300  0.701600  0.590800  1.0  0.134
  H  H49  1  0.838100  0.695500  0.676100  1.0  0.1357
  H  H50  1  0.208500  0.848400  0.684500  1.0  0.1265
  H  H51  1  0.040400  0.912500  0.626200  1.0  0.1422
  H  H52  1  0.895900  0.954000  0.644500  1.0  0.1309
  H  H53  1  0.426500  0.147900  0.936000  1.0  0.1343
  H  H54  1  0.137700  0.201600  0.909200  1.0  0.1344
  H  H55  1  0.661900  0.195500  0.823900  1.0  0.1356
  H  H56  1  0.291500  0.348400  0.815500  1.0  0.1267
  H  H57  1  0.459600  0.412500  0.873800  1.0  0.1425
  H  H58  1  0.604100  0.454000  0.855500  1.0  0.1307
  H  H59  1  0.926500  0.647900  0.936000  1.0  0.1343
  H  H60  1  0.637700  0.701600  0.909200  1.0  0.1344
  H  H61  1  0.161900  0.695500  0.823900  1.0  0.1356
  H  H62  1  0.791500  0.848400  0.815500  1.0  0.1267
  H  H63  1  0.959600  0.912500  0.873800  1.0  0.1425
  H  H64  1  0.104100  0.954000  0.855500  1.0  0.1307
  C  C65  1  0.503500  0.886800  0.337300  1.0  0.691
  C  C66  1  0.370000  0.818100  0.415800  1.0  -0.0363
  C  C67  1  0.469300  0.722300  0.359400  1.0  0.0256
  C  C68  1  0.196500  0.786200  0.399500  1.0  0.0214
  C  C69  1  0.280600  0.838300  0.427900  1.0  -0.1188
  C  C70  1  0.375500  0.748100  0.374100  1.0  0.0517
  C  C71  1  0.530100  0.787900  0.342300  1.0  -0.0617
  C  C72  1  0.619900  0.761000  0.332700  1.0  -0.0206
  C  C73  1  0.289300  0.698200  0.344400  1.0  -0.0181
  C  C74  1  0.200100  0.716900  0.357300  1.0  -0.1277
  C  C75  1  0.111300  0.657900  0.325900  1.0  0.7387
  C  C76  1  0.647300  0.670100  0.336000  1.0  -0.1584
  C  C77  1  0.274100  0.917300  0.471600  1.0  0.6934
  C  C78  1  0.499400  0.631500  0.363400  1.0  -0.1038
  C  C79  1  0.585900  0.606700  0.352200  1.0  -0.0052
  C  C80  1  0.200800  0.251200  0.510600  1.0  0.6507
  C  C81  1  0.743900  0.642300  0.325600  1.0  0.7086
  C  C82  1  0.003500  0.386800  0.337300  1.0  0.691
  C  C83  1  0.870000  0.318100  0.415800  1.0  -0.0363
  C  C84  1  0.969300  0.222300  0.359400  1.0  0.0256
  C  C85  1  0.696500  0.286200  0.399500  1.0  0.0214
  C  C86  1  0.780600  0.338300  0.427900  1.0  -0.1188
  C  C87  1  0.875500  0.248100  0.374100  1.0  0.0517
  C  C88  1  0.030100  0.287900  0.342300  1.0  -0.0617
  C  C89  1  0.119900  0.261000  0.332700  1.0  -0.0206
  C  C90  1  0.789300  0.198200  0.344400  1.0  -0.0181
  C  C91  1  0.700100  0.216900  0.357300  1.0  -0.1277
  C  C92  1  0.611300  0.157900  0.325900  1.0  0.7387
  C  C93  1  0.147300  0.170100  0.336000  1.0  -0.1584
  C  C94  1  0.774100  0.417300  0.471600  1.0  0.6934
  C  C95  1  0.999400  0.131500  0.363400  1.0  -0.1038
  C  C96  1  0.085900  0.106700  0.352200  1.0  -0.0052
  C  C97  1  0.700800  0.751200  0.510600  1.0  0.6507
  C  C98  1  0.243900  0.142300  0.325600  1.0  0.7086
  C  C99  1  0.496500  0.886800  0.162700  1.0  0.6909
  C  C100  1  0.630000  0.818100  0.084200  1.0  -0.0373
  C  C101  1  0.530700  0.722300  0.140600  1.0  0.0241
  C  C102  1  0.803500  0.786200  0.100500  1.0  0.0196
  C  C103  1  0.719400  0.838300  0.072100  1.0  -0.12
  C  C104  1  0.624500  0.748100  0.125900  1.0  0.0513
  C  C105  1  0.469900  0.787900  0.157700  1.0  -0.0628
  C  C106  1  0.380100  0.761000  0.167300  1.0  -0.0189
  C  C107  1  0.710700  0.698200  0.155600  1.0  -0.0178
  C  C108  1  0.799900  0.716900  0.142700  1.0  -0.1279
  C  C109  1  0.888700  0.657900  0.174100  1.0  0.7388
  C  C110  1  0.352700  0.670100  0.164000  1.0  -0.1597
  C  C111  1  0.725900  0.917300  0.028400  1.0  0.693
  C  C112  1  0.500600  0.631500  0.136600  1.0  -0.1059
  C  C113  1  0.414100  0.606700  0.147800  1.0  -0.0052
  C  C114  1  0.799200  0.251200  0.989400  1.0  0.6513
  C  C115  1  0.256100  0.642300  0.174400  1.0  0.7092
  C  C116  1  0.996500  0.386800  0.162700  1.0  0.6909
  C  C117  1  0.130000  0.318100  0.084200  1.0  -0.0373
  C  C118  1  0.030700  0.222300  0.140600  1.0  0.0241
  C  C119  1  0.303500  0.286200  0.100500  1.0  0.0196
  C  C120  1  0.219400  0.338300  0.072100  1.0  -0.12
  C  C121  1  0.124500  0.248100  0.125900  1.0  0.0513
  C  C122  1  0.969900  0.287900  0.157700  1.0  -0.0628
  C  C123  1  0.880100  0.261000  0.167300  1.0  -0.0189
  C  C124  1  0.210700  0.198200  0.155600  1.0  -0.0178
  C  C125  1  0.299900  0.216900  0.142700  1.0  -0.1279
  C  C126  1  0.388700  0.157900  0.174100  1.0  0.7388
  C  C127  1  0.852700  0.170100  0.164000  1.0  -0.1597
  C  C128  1  0.225900  0.417300  0.028400  1.0  0.693
  C  C129  1  0.000600  0.131500  0.136600  1.0  -0.1059
  C  C130  1  0.914100  0.106700  0.147800  1.0  -0.0052
  C  C131  1  0.299200  0.751200  0.989400  1.0  0.6513
  C  C132  1  0.756100  0.142300  0.174400  1.0  0.7092
  C  C133  1  0.496500  0.113200  0.662700  1.0  0.6915
  C  C134  1  0.630000  0.181900  0.584200  1.0  -0.0363
  C  C135  1  0.530700  0.277700  0.640600  1.0  0.0245
  C  C136  1  0.803500  0.213800  0.600500  1.0  0.0199
  C  C137  1  0.719400  0.161700  0.572100  1.0  -0.1203
  C  C138  1  0.624500  0.251900  0.625900  1.0  0.0513
  C  C139  1  0.469900  0.212100  0.657700  1.0  -0.063
  C  C140  1  0.380100  0.239000  0.667300  1.0  -0.0178
  C  C141  1  0.710700  0.301800  0.655600  1.0  -0.0179
  C  C142  1  0.799900  0.283100  0.642700  1.0  -0.1282
  C  C143  1  0.888700  0.342100  0.674100  1.0  0.739
  C  C144  1  0.352700  0.329900  0.664000  1.0  -0.1597
  C  C145  1  0.725900  0.082700  0.528400  1.0  0.6935
  C  C146  1  0.500600  0.368500  0.636600  1.0  -0.1049
  C  C147  1  0.414100  0.393300  0.647800  1.0  -0.0046
  C  C148  1  0.799200  0.748800  0.489400  1.0  0.6513
  C  C149  1  0.256100  0.357700  0.674400  1.0  0.7089
  C  C150  1  0.996500  0.613200  0.662700  1.0  0.6915
  C  C151  1  0.130000  0.681900  0.584200  1.0  -0.0363
  C  C152  1  0.030700  0.777700  0.640600  1.0  0.0245
  C  C153  1  0.303500  0.713800  0.600500  1.0  0.0199
  C  C154  1  0.219400  0.661700  0.572100  1.0  -0.1203
  C  C155  1  0.124500  0.751900  0.625900  1.0  0.0513
  C  C156  1  0.969900  0.712100  0.657700  1.0  -0.063
  C  C157  1  0.880100  0.739000  0.667300  1.0  -0.0178
  C  C158  1  0.210700  0.801800  0.655600  1.0  -0.0179
  C  C159  1  0.299900  0.783100  0.642700  1.0  -0.1282
  C  C160  1  0.388700  0.842100  0.674100  1.0  0.739
  C  C161  1  0.852700  0.829900  0.664000  1.0  -0.1597
  C  C162  1  0.225900  0.582700  0.528400  1.0  0.6935
  C  C163  1  0.000600  0.868500  0.636600  1.0  -0.1049
  C  C164  1  0.914100  0.893300  0.647800  1.0  -0.0046
  C  C165  1  0.299200  0.248800  0.489400  1.0  0.6513
  C  C166  1  0.756100  0.857700  0.674400  1.0  0.7089
  C  C167  1  0.503500  0.113200  0.837300  1.0  0.6914
  C  C168  1  0.370000  0.181900  0.915800  1.0  -0.0358
  C  C169  1  0.469300  0.277700  0.859400  1.0  0.0265
  C  C170  1  0.196500  0.213800  0.899500  1.0  0.0219
  C  C171  1  0.280600  0.161700  0.927900  1.0  -0.1184
  C  C172  1  0.375500  0.251900  0.874100  1.0  0.0518
  C  C173  1  0.530100  0.212100  0.842300  1.0  -0.0622
  C  C174  1  0.619900  0.239000  0.832700  1.0  -0.0193
  C  C175  1  0.289300  0.301800  0.844400  1.0  -0.0185
  C  C176  1  0.200100  0.283100  0.857300  1.0  -0.1278
  C  C177  1  0.111300  0.342100  0.825900  1.0  0.7385
  C  C178  1  0.647300  0.329900  0.836000  1.0  -0.158
  C  C179  1  0.274100  0.082700  0.971600  1.0  0.6942
  C  C180  1  0.499400  0.368500  0.863400  1.0  -0.1049
  C  C181  1  0.585900  0.393300  0.852200  1.0  -0.0046
  C  C182  1  0.200800  0.748800  0.010600  1.0  0.6507
  C  C183  1  0.743900  0.357700  0.825600  1.0  0.7083
  C  C184  1  0.003500  0.613200  0.837300  1.0  0.6914
  C  C185  1  0.870000  0.681900  0.915800  1.0  -0.0358
  C  C186  1  0.969300  0.777700  0.859400  1.0  0.0265
  C  C187  1  0.696500  0.713800  0.899500  1.0  0.0219
  C  C188  1  0.780600  0.661700  0.927900  1.0  -0.1184
  C  C189  1  0.875500  0.751900  0.874100  1.0  0.0518
  C  C190  1  0.030100  0.712100  0.842300  1.0  -0.0622
  C  C191  1  0.119900  0.739000  0.832700  1.0  -0.0193
  C  C192  1  0.789300  0.801800  0.844400  1.0  -0.0185
  C  C193  1  0.700100  0.783100  0.857300  1.0  -0.1278
  C  C194  1  0.611300  0.842100  0.825900  1.0  0.7385
  C  C195  1  0.147300  0.829900  0.836000  1.0  -0.158
  C  C196  1  0.774100  0.582700  0.971600  1.0  0.6942
  C  C197  1  0.999400  0.868500  0.863400  1.0  -0.1049
  C  C198  1  0.085900  0.893300  0.852200  1.0  -0.0046
  C  C199  1  0.700800  0.248800  0.010600  1.0  0.6507
  C  C200  1  0.243900  0.857700  0.825600  1.0  0.7083
  O  O201  1  0.177200  0.180100  0.534300  1.0  -0.5593
  O  O202  1  0.154500  0.324200  0.502700  1.0  -0.5454
  O  O203  1  0.419800  0.910200  0.298300  1.0  -0.575
  O  O204  1  0.564600  0.944500  0.369200  1.0  -0.634
  O  O205  1  0.759100  0.557300  0.318900  1.0  -0.5752
  O  O206  1  0.191900  0.946800  0.474900  1.0  -0.5887
  O  O207  1  0.122300  0.589000  0.295500  1.0  -0.6893
  O  O208  1  0.029600  0.680700  0.335000  1.0  -0.5978
  O  O209  1  0.353900  0.957800  0.500900  1.0  -0.5449
  O  O210  1  0.806300  0.702300  0.323100  1.0  -0.5839
  O  O211  1  0.677200  0.680100  0.534300  1.0  -0.5593
  O  O212  1  0.654500  0.824200  0.502700  1.0  -0.5454
  O  O213  1  0.919800  0.410200  0.298300  1.0  -0.575
  O  O214  1  0.064600  0.444500  0.369200  1.0  -0.634
  O  O215  1  0.259100  0.057300  0.318900  1.0  -0.5752
  O  O216  1  0.691900  0.446800  0.474900  1.0  -0.5887
  O  O217  1  0.622300  0.089000  0.295500  1.0  -0.6893
  O  O218  1  0.529600  0.180700  0.335000  1.0  -0.5978
  O  O219  1  0.853900  0.457800  0.500900  1.0  -0.5449
  O  O220  1  0.306300  0.202300  0.323100  1.0  -0.5839
  O  O221  1  0.822800  0.180100  0.965700  1.0  -0.56
  O  O222  1  0.845500  0.324200  0.997300  1.0  -0.5461
  O  O223  1  0.580200  0.910200  0.201700  1.0  -0.5747
  O  O224  1  0.435400  0.944500  0.130800  1.0  -0.6333
  O  O225  1  0.240900  0.557300  0.181100  1.0  -0.5748
  O  O226  1  0.808100  0.946800  0.025100  1.0  -0.588
  O  O227  1  0.877700  0.589000  0.204500  1.0  -0.6895
  O  O228  1  0.970400  0.680700  0.165000  1.0  -0.5971
  O  O229  1  0.646100  0.957800  0.999100  1.0  -0.5448
  O  O230  1  0.193700  0.702300  0.176900  1.0  -0.5838
  O  O231  1  0.322800  0.680100  0.965700  1.0  -0.56
  O  O232  1  0.345500  0.824200  0.997300  1.0  -0.5461
  O  O233  1  0.080200  0.410200  0.201700  1.0  -0.5747
  O  O234  1  0.935400  0.444500  0.130800  1.0  -0.6333
  O  O235  1  0.740900  0.057300  0.181100  1.0  -0.5744
  O  O236  1  0.308100  0.446800  0.025100  1.0  -0.588
  O  O237  1  0.377700  0.089000  0.204500  1.0  -0.6895
  O  O238  1  0.470400  0.180700  0.165000  1.0  -0.5971
  O  O239  1  0.146100  0.457800  0.999100  1.0  -0.5448
  O  O240  1  0.693700  0.202300  0.176900  1.0  -0.5838
  O  O241  1  0.822800  0.819900  0.465700  1.0  -0.5606
  O  O242  1  0.845500  0.675800  0.497300  1.0  -0.5466
  O  O243  1  0.580200  0.089800  0.701700  1.0  -0.575
  O  O244  1  0.435400  0.055500  0.630800  1.0  -0.634
  O  O245  1  0.240900  0.442700  0.681100  1.0  -0.5762
  O  O246  1  0.808100  0.053200  0.525100  1.0  -0.5879
  O  O247  1  0.877700  0.411000  0.704500  1.0  -0.6896
  O  O248  1  0.970400  0.319300  0.665000  1.0  -0.5953
  O  O249  1  0.646100  0.042200  0.499100  1.0  -0.5445
  O  O250  1  0.193700  0.297700  0.676900  1.0  -0.5835
  O  O251  1  0.322800  0.319900  0.465700  1.0  -0.5606
  O  O252  1  0.345500  0.175800  0.497300  1.0  -0.5466
  O  O253  1  0.080200  0.589800  0.701700  1.0  -0.575
  O  O254  1  0.935400  0.555500  0.630800  1.0  -0.634
  O  O255  1  0.740900  0.942700  0.681100  1.0  -0.5762
  O  O256  1  0.308100  0.553200  0.525100  1.0  -0.5879
  O  O257  1  0.377700  0.911000  0.704500  1.0  -0.6896
  O  O258  1  0.470400  0.819300  0.665000  1.0  -0.5953
  O  O259  1  0.146100  0.542200  0.499100  1.0  -0.5445
  O  O260  1  0.693700  0.797700  0.676900  1.0  -0.5835
  O  O261  1  0.177200  0.819900  0.034300  1.0  -0.5609
  O  O262  1  0.154500  0.675800  0.002700  1.0  -0.5455
  O  O263  1  0.419800  0.089800  0.798300  1.0  -0.5754
  O  O264  1  0.564600  0.055500  0.869200  1.0  -0.633
  O  O265  1  0.759100  0.442700  0.818900  1.0  -0.5764
  O  O266  1  0.191900  0.053200  0.974900  1.0  -0.5876
  O  O267  1  0.122300  0.411000  0.795500  1.0  -0.6892
  O  O268  1  0.029600  0.319300  0.835000  1.0  -0.5962
  O  O269  1  0.353900  0.042200  0.000900  1.0  -0.545
  O  O270  1  0.806300  0.297700  0.823100  1.0  -0.5834
  O  O271  1  0.677200  0.319900  0.034300  1.0  -0.5609
  O  O272  1  0.654500  0.175800  0.002700  1.0  -0.5455
  O  O273  1  0.919800  0.589800  0.798300  1.0  -0.5754
  O  O274  1  0.064600  0.555500  0.869200  1.0  -0.633
  O  O275  1  0.259100  0.942700  0.818900  1.0  -0.576
  O  O276  1  0.691900  0.553200  0.974900  1.0  -0.5876
  O  O277  1  0.622300  0.911000  0.795500  1.0  -0.6892
  O  O278  1  0.529600  0.819300  0.835000  1.0  -0.5962
  O  O279  1  0.853900  0.542200  0.000900  1.0  -0.545
  O  O280  1  0.306300  0.797700  0.823100  1.0  -0.5834
