# generated using pymatgen
data_Cd2B2H48C55N6(O2F)4
_symmetry_space_group_name_H-M   'P 1'
_cell_length_a   14.15220000
_cell_length_b   21.22730000
_cell_length_c   22.70750000
_cell_angle_alpha   90.00000000
_cell_angle_beta   121.72300000
_cell_angle_gamma   90.00000000
_symmetry_Int_Tables_number   1
_chemical_formula_structural   Cd2B2H48C55N6(O2F)4
_chemical_formula_sum   'Cd8 B8 H192 C220 N24 O32 F16'
_cell_volume   5802.47755227
_cell_formula_units_Z   4
loop_
 _symmetry_equiv_pos_site_id
 _symmetry_equiv_pos_as_xyz
  1  'x, y, z'
loop_
 _atom_site_type_symbol
 _atom_site_label
 _atom_site_symmetry_multiplicity
 _atom_site_fract_x
 _atom_site_fract_y
 _atom_site_fract_z
 _atom_site_occupancy
 _atom_site_charge
  Cd  Cd1  1  0.100080  0.091260  0.598030  1.0  0.9842
  Cd  Cd2  1  0.792120  0.977660  0.489430  1.0  1.0392
  Cd  Cd3  1  0.899920  0.591260  0.901970  1.0  0.9852
  Cd  Cd4  1  0.207880  0.477660  0.010570  1.0  1.0391
  Cd  Cd5  1  0.899920  0.908740  0.401970  1.0  0.9854
  Cd  Cd6  1  0.207880  0.022340  0.510570  1.0  1.0387
  Cd  Cd7  1  0.100080  0.408740  0.098030  1.0  0.9847
  Cd  Cd8  1  0.792120  0.522340  0.989430  1.0  1.0389
  B  B9  1  0.003300  0.146900  0.841100  1.0  0.6948
  B  B10  1  0.485200  0.842800  0.848100  1.0  0.7148
  B  B11  1  0.996700  0.646900  0.658900  1.0  0.6934
  B  B12  1  0.514800  0.342800  0.651900  1.0  0.7155
  B  B13  1  0.996700  0.853100  0.158900  1.0  0.6933
  B  B14  1  0.514800  0.157200  0.151900  1.0  0.7153
  B  B15  1  0.003300  0.353100  0.341100  1.0  0.6943
  B  B16  1  0.485200  0.657200  0.348100  1.0  0.715
  H  H17  1  0.226300  0.684200  0.666667  1.0  0.1103
  H  H18  1  0.161200  0.628100  0.564700  1.0  0.1122
  H  H19  1  0.244000  0.641100  0.500400  1.0  0.0949
  H  H20  1  0.391900  0.710200  0.538000  1.0  0.1099
  H  H21  1  0.456900  0.766400  0.639900  1.0  0.1126
  H  H22  1  0.619000  0.455600  0.018900  1.0  0.0749
  H  H23  1  0.438600  0.418600  0.967000  1.0  0.114
  H  H24  1  0.413500  0.431800  0.785600  1.0  0.1263
  H  H25  1  0.584800  0.478800  0.840100  1.0  0.0732
  H  H26  1  0.235900  0.421500  0.835000  1.0  0.0928
  H  H27  1  0.262300  0.380900  0.787700  1.0  0.0967
  H  H28  1  0.210000  0.318500  0.849500  1.0  0.0748
  H  H29  1  0.311300  0.343900  0.919000  1.0  0.0883
  H  H30  1  0.384200  0.255300  0.911400  1.0  0.0852
  H  H31  1  0.422100  0.299600  0.872400  1.0  0.091
  H  H32  1  0.312100  0.293400  0.738100  1.0  0.1275
  H  H33  1  0.207700  0.229100  0.643100  1.0  0.0913
  H  H34  1  0.171800  0.105700  0.757200  1.0  0.0787
  H  H35  1  0.259000  0.170500  0.852000  1.0  0.1305
  H  H36  1  0.938400  0.023300  0.790100  1.0  0.1263
  H  H37  1  0.043500  0.013800  0.784700  1.0  0.1396
  H  H38  1  0.926200  0.993500  0.723200  1.0  0.1216
  H  H39  1  0.949800  0.222600  0.594000  1.0  0.1318
  H  H40  1  0.835100  0.238700  0.585400  1.0  0.1248
  H  H41  1  0.847900  0.177700  0.551200  1.0  0.1246
  H  H42  1  0.780400  0.324600  0.680300  1.0  0.1121
  H  H43  1  0.739300  0.409700  0.602600  1.0  0.1324
  H  H44  1  0.871100  0.443500  0.583900  1.0  0.1003
  H  H45  1  0.046100  0.392400  0.630400  1.0  0.1308
  H  H46  1  0.077000  0.304900  0.700900  1.0  0.0984
  H  H47  1  0.032900  0.389400  0.797200  1.0  0.1122
  H  H48  1  0.037400  0.416800  0.862700  1.0  0.1212
  H  H49  1  0.922600  0.401000  0.796100  1.0  0.1262
  H  H50  1  0.061200  0.156900  0.970900  1.0  0.118
  H  H51  1  0.001400  0.205400  0.992600  1.0  0.1301
  H  H52  1  0.128500  0.212700  0.020700  1.0  0.1212
  H  H53  1  0.302800  0.973200  0.821500  1.0  0.1412
  H  H54  1  0.361100  0.013200  0.791400  1.0  0.1372
  H  H55  1  0.431100  0.966900  0.853300  1.0  0.1298
  H  H56  1  0.273700  0.839700  0.574900  1.0  0.114
  H  H57  1  0.170100  0.879700  0.559700  1.0  0.1244
  H  H58  1  0.178900  0.808800  0.581400  1.0  0.1185
  H  H59  1  0.692700  0.801000  0.980100  1.0  0.1281
  H  H60  1  0.711700  0.730100  0.003000  1.0  0.1185
  H  H61  1  0.604500  0.765200  0.989400  1.0  0.1241
  H  H62  1  0.444600  0.632500  0.715900  1.0  0.1251
  H  H63  1  0.543500  0.594800  0.776200  1.0  0.1281
  H  H64  1  0.566000  0.643000  0.732600  1.0  0.1275
  H  H65  1  0.773700  0.184200  0.833400  1.0  0.1089
  H  H66  1  0.838800  0.128100  0.935300  1.0  0.114
  H  H67  1  0.756000  0.141100  0.999600  1.0  0.0946
  H  H68  1  0.608100  0.210200  0.962000  1.0  0.1105
  H  H69  1  0.543100  0.266400  0.860100  1.0  0.1146
  H  H70  1  0.381000  0.955600  0.481100  1.0  0.0739
  H  H71  1  0.561400  0.918600  0.533000  1.0  0.1145
  H  H72  1  0.586500  0.931800  0.714400  1.0  0.1265
  H  H73  1  0.415200  0.978800  0.659900  1.0  0.0724
  H  H74  1  0.764100  0.921500  0.665000  1.0  0.0941
  H  H75  1  0.737700  0.880900  0.712300  1.0  0.0968
  H  H76  1  0.790000  0.818500  0.650500  1.0  0.0772
  H  H77  1  0.688700  0.843900  0.581000  1.0  0.0881
  H  H78  1  0.615800  0.755300  0.588600  1.0  0.0854
  H  H79  1  0.577900  0.799600  0.627600  1.0  0.0901
  H  H80  1  0.687900  0.793400  0.761900  1.0  0.1276
  H  H81  1  0.792300  0.729100  0.856900  1.0  0.091
  H  H82  1  0.828200  0.605700  0.742800  1.0  0.0784
  H  H83  1  0.741000  0.670500  0.648000  1.0  0.1323
  H  H84  1  0.061600  0.523300  0.709900  1.0  0.125
  H  H85  1  0.956500  0.513800  0.715300  1.0  0.1383
  H  H86  1  0.073800  0.493500  0.776800  1.0  0.1214
  H  H87  1  0.050200  0.722600  0.906000  1.0  0.1301
  H  H88  1  0.164900  0.738700  0.914600  1.0  0.1244
  H  H89  1  0.152100  0.677700  0.948800  1.0  0.1239
  H  H90  1  0.219600  0.824600  0.819700  1.0  0.1129
  H  H91  1  0.260700  0.909700  0.897400  1.0  0.1322
  H  H92  1  0.128900  0.943500  0.916100  1.0  0.1005
  H  H93  1  0.953900  0.892400  0.869600  1.0  0.1309
  H  H94  1  0.923000  0.804900  0.799100  1.0  0.0985
  H  H95  1  0.967100  0.889400  0.702800  1.0  0.1119
  H  H96  1  0.962600  0.916800  0.637300  1.0  0.1208
  H  H97  1  0.077400  0.901000  0.703900  1.0  0.1272
  H  H98  1  0.938800  0.656900  0.529100  1.0  0.1174
  H  H99  1  0.998600  0.705400  0.507400  1.0  0.1274
  H  H100  1  0.871500  0.712700  0.479300  1.0  0.1195
  H  H101  1  0.697200  0.473200  0.678500  1.0  0.1408
  H  H102  1  0.638900  0.513200  0.708600  1.0  0.1377
  H  H103  1  0.568900  0.466900  0.646700  1.0  0.1299
  H  H104  1  0.726300  0.339700  0.925100  1.0  0.1127
  H  H105  1  0.829900  0.379700  0.940300  1.0  0.1239
  H  H106  1  0.821100  0.308800  0.918600  1.0  0.119
  H  H107  1  0.307300  0.301000  0.519900  1.0  0.1281
  H  H108  1  0.288300  0.230100  0.497000  1.0  0.1186
  H  H109  1  0.395500  0.265200  0.510600  1.0  0.1231
  H  H110  1  0.555400  0.132500  0.784100  1.0  0.1254
  H  H111  1  0.456500  0.094800  0.723800  1.0  0.1278
  H  H112  1  0.434000  0.143000  0.767400  1.0  0.1279
  H  H113  1  0.773700  0.315800  0.333400  1.0  0.1089
  H  H114  1  0.838800  0.371900  0.435300  1.0  0.1155
  H  H115  1  0.756000  0.358900  0.499600  1.0  0.0942
  H  H116  1  0.608100  0.289800  0.462000  1.0  0.1104
  H  H117  1  0.543100  0.233600  0.360100  1.0  0.1149
  H  H118  1  0.381000  0.544400  0.981100  1.0  0.0738
  H  H119  1  0.561400  0.581400  0.033000  1.0  0.1143
  H  H120  1  0.586500  0.568200  0.214400  1.0  0.1265
  H  H121  1  0.415200  0.521200  0.159900  1.0  0.0726
  H  H122  1  0.764100  0.578500  0.165000  1.0  0.0935
  H  H123  1  0.737700  0.619100  0.212300  1.0  0.0978
  H  H124  1  0.790000  0.681500  0.150500  1.0  0.0766
  H  H125  1  0.688700  0.656100  0.081000  1.0  0.0882
  H  H126  1  0.615800  0.744700  0.088600  1.0  0.0866
  H  H127  1  0.577900  0.700400  0.127600  1.0  0.09
  H  H128  1  0.687900  0.706600  0.261900  1.0  0.1283
  H  H129  1  0.792300  0.770900  0.356900  1.0  0.0908
  H  H130  1  0.828200  0.894300  0.242800  1.0  0.0786
  H  H131  1  0.741000  0.829500  0.148000  1.0  0.1316
  H  H132  1  0.061600  0.976700  0.209900  1.0  0.1253
  H  H133  1  0.956500  0.986200  0.215300  1.0  0.138
  H  H134  1  0.073800  0.006500  0.276800  1.0  0.1211
  H  H135  1  0.050200  0.777400  0.406000  1.0  0.1306
  H  H136  1  0.164900  0.761300  0.414600  1.0  0.1248
  H  H137  1  0.152100  0.822300  0.448800  1.0  0.1242
  H  H138  1  0.219600  0.675400  0.319700  1.0  0.1128
  H  H139  1  0.260700  0.590300  0.397400  1.0  0.1328
  H  H140  1  0.128900  0.556500  0.416100  1.0  0.1012
  H  H141  1  0.953900  0.607600  0.369600  1.0  0.1314
  H  H142  1  0.923000  0.695100  0.299100  1.0  0.0983
  H  H143  1  0.967100  0.610600  0.202800  1.0  0.112
  H  H144  1  0.962600  0.583200  0.137300  1.0  0.1198
  H  H145  1  0.077400  0.599000  0.203900  1.0  0.1269
  H  H146  1  0.938800  0.843100  0.029100  1.0  0.1191
  H  H147  1  0.998600  0.794600  0.007400  1.0  0.1278
  H  H148  1  0.871500  0.787300  0.979300  1.0  0.1193
  H  H149  1  0.697200  0.026800  0.178500  1.0  0.1414
  H  H150  1  0.638900  0.986800  0.208600  1.0  0.137
  H  H151  1  0.568900  0.033100  0.146700  1.0  0.1305
  H  H152  1  0.726300  0.160300  0.425100  1.0  0.1128
  H  H153  1  0.829900  0.120300  0.440300  1.0  0.1243
  H  H154  1  0.821100  0.191200  0.418600  1.0  0.1198
  H  H155  1  0.307300  0.199000  0.019900  1.0  0.1282
  H  H156  1  0.288300  0.269900  0.997000  1.0  0.1186
  H  H157  1  0.395500  0.234800  0.010600  1.0  0.1226
  H  H158  1  0.555400  0.367500  0.284100  1.0  0.125
  H  H159  1  0.456500  0.405200  0.223800  1.0  0.1275
  H  H160  1  0.434000  0.357000  0.267400  1.0  0.1282
  H  H161  1  0.226300  0.815800  0.166600  1.0  0.1085
  H  H162  1  0.161200  0.871900  0.064700  1.0  0.1159
  H  H163  1  0.244000  0.858900  0.000400  1.0  0.0946
  H  H164  1  0.391900  0.789800  0.038000  1.0  0.1103
  H  H165  1  0.456900  0.733600  0.139900  1.0  0.1137
  H  H166  1  0.619000  0.044400  0.518900  1.0  0.0746
  H  H167  1  0.438600  0.081400  0.467000  1.0  0.114
  H  H168  1  0.413500  0.068200  0.285600  1.0  0.1266
  H  H169  1  0.584800  0.021200  0.340100  1.0  0.0732
  H  H170  1  0.235900  0.078500  0.335000  1.0  0.0948
  H  H171  1  0.262300  0.119100  0.287700  1.0  0.0959
  H  H172  1  0.210000  0.181500  0.349500  1.0  0.0748
  H  H173  1  0.311300  0.156100  0.419000  1.0  0.0887
  H  H174  1  0.384200  0.244700  0.411400  1.0  0.0851
  H  H175  1  0.422100  0.200400  0.372400  1.0  0.0908
  H  H176  1  0.312100  0.206600  0.238100  1.0  0.1271
  H  H177  1  0.207700  0.270900  0.143100  1.0  0.0913
  H  H178  1  0.171800  0.394300  0.257200  1.0  0.0786
  H  H179  1  0.259000  0.329500  0.352000  1.0  0.1305
  H  H180  1  0.938400  0.476700  0.290100  1.0  0.1263
  H  H181  1  0.043500  0.486200  0.284700  1.0  0.1401
  H  H182  1  0.926200  0.506500  0.223200  1.0  0.1218
  H  H183  1  0.949800  0.277400  0.094000  1.0  0.1315
  H  H184  1  0.835100  0.261300  0.085400  1.0  0.125
  H  H185  1  0.847900  0.322300  0.051200  1.0  0.125
  H  H186  1  0.780400  0.175400  0.180300  1.0  0.1119
  H  H187  1  0.739300  0.090300  0.102600  1.0  0.1324
  H  H188  1  0.871100  0.056500  0.083900  1.0  0.101
  H  H189  1  0.046100  0.107600  0.130400  1.0  0.1302
  H  H190  1  0.077000  0.195100  0.200900  1.0  0.0987
  H  H191  1  0.032900  0.110600  0.297200  1.0  0.112
  H  H192  1  0.037400  0.083200  0.362700  1.0  0.1213
  H  H193  1  0.922600  0.099000  0.296100  1.0  0.125
  H  H194  1  0.061200  0.343100  0.470900  1.0  0.1175
  H  H195  1  0.001400  0.294600  0.492600  1.0  0.1293
  H  H196  1  0.128500  0.287300  0.520700  1.0  0.12
  H  H197  1  0.302800  0.526800  0.321500  1.0  0.1416
  H  H198  1  0.361100  0.486800  0.291400  1.0  0.1372
  H  H199  1  0.431100  0.533100  0.353300  1.0  0.1299
  H  H200  1  0.273700  0.660300  0.074900  1.0  0.1142
  H  H201  1  0.170100  0.620300  0.059700  1.0  0.1238
  H  H202  1  0.178900  0.691200  0.081400  1.0  0.1196
  H  H203  1  0.692700  0.699000  0.480100  1.0  0.1275
  H  H204  1  0.711700  0.769900  0.503000  1.0  0.1184
  H  H205  1  0.604500  0.734800  0.489400  1.0  0.1241
  H  H206  1  0.444600  0.867500  0.215900  1.0  0.1249
  H  H207  1  0.543500  0.905200  0.276200  1.0  0.1279
  H  H208  1  0.566000  0.857000  0.232600  1.0  0.1275
  C  C209  1  0.348100  0.730900  0.663400  1.0  0.1897
  C  C210  1  0.259500  0.689400  0.640800  1.0  -0.1084
  C  C211  1  0.220500  0.655800  0.579800  1.0  -0.0893
  C  C212  1  0.270100  0.663600  0.541200  1.0  -0.0942
  C  C213  1  0.358700  0.705000  0.563800  1.0  -0.1067
  C  C214  1  0.397700  0.738600  0.624800  1.0  -0.1537
  C  C215  1  0.576500  0.452900  0.970900  1.0  0.1945
  C  C216  1  0.467400  0.429100  0.939700  1.0  -0.2077
  C  C217  1  0.404400  0.421400  0.870100  1.0  0.1038
  C  C218  1  0.451800  0.438200  0.833200  1.0  -0.2118
  C  C219  1  0.557200  0.464700  0.867000  1.0  0.1871
  C  C220  1  0.287400  0.391200  0.835400  1.0  -0.1735
  C  C221  1  0.285900  0.333500  0.871300  1.0  -0.1293
  C  C222  1  0.357800  0.281200  0.870400  1.0  -0.1873
  C  C223  1  0.297000  0.239800  0.806700  1.0  0.102
  C  C224  1  0.281800  0.256300  0.742800  1.0  -0.1586
  C  C225  1  0.220400  0.216600  0.686000  1.0  0.1405
  C  C226  1  0.197300  0.144700  0.752700  1.0  0.1817
  C  C227  1  0.252200  0.182900  0.810700  1.0  -0.1859
  C  C228  1  0.885900  0.056700  0.603700  1.0  0.6887
  C  C229  1  0.919000  0.102800  0.660600  1.0  -0.1234
  C  C230  1  0.949300  0.087700  0.728300  1.0  0.1925
  C  C231  1  0.965800  0.023900  0.759300  1.0  -0.3826
  C  C232  1  0.917000  0.168600  0.655000  1.0  -0.028
  C  C233  1  0.948200  0.192400  0.720800  1.0  0.0209
  C  C234  1  0.884500  0.205200  0.590600  1.0  -0.3868
  C  C235  1  0.957700  0.255300  0.745200  1.0  -0.0246
  C  C236  1  0.933200  0.307400  0.698500  1.0  0.0105
  C  C237  1  0.832500  0.337800  0.669800  1.0  -0.1035
  C  C238  1  0.808000  0.389700  0.623800  1.0  -0.1712
  C  C239  1  0.886200  0.408500  0.612100  1.0  -0.074
  C  C240  1  0.993300  0.378400  0.640100  1.0  -0.1378
  C  C241  1  0.010700  0.327100  0.682400  1.0  -0.1353
  C  C242  1  0.987400  0.266600  0.814200  1.0  0.0591
  C  C243  1  0.005000  0.323300  0.850500  1.0  -0.0091
  C  C244  1  0.998900  0.388400  0.824300  1.0  -0.3793
  C  C245  1  0.032100  0.306700  0.917700  1.0  -0.1289
  C  C246  1  0.031200  0.240100  0.921300  1.0  0.2042
  C  C247  1  0.057900  0.200300  0.981700  1.0  -0.3819
  C  C248  1  0.055900  0.349700  0.975600  1.0  0.6868
  C  C249  1  0.193500  0.976400  0.650000  1.0  0.6625
  C  C250  1  0.265400  0.922700  0.688600  1.0  -0.1049
  C  C251  1  0.340300  0.921600  0.761300  1.0  0.1366
  C  C252  1  0.360600  0.973400  0.811400  1.0  -0.3988
  C  C253  1  0.278200  0.865800  0.661900  1.0  0.0682
  C  C254  1  0.220100  0.846800  0.587900  1.0  -0.3895
  C  C255  1  0.357600  0.830400  0.717700  1.0  0.0904
  C  C256  1  0.485400  0.743900  0.785100  1.0  0.0295
  C  C257  1  0.597600  0.741400  0.900700  1.0  0.1863
  C  C258  1  0.656900  0.761200  0.974900  1.0  -0.3894
  C  C259  1  0.607200  0.683500  0.874700  1.0  -0.1222
  C  C260  1  0.674200  0.628400  0.916100  1.0  0.7029
  C  C261  1  0.537700  0.685700  0.801900  1.0  0.0274
  C  C262  1  0.521500  0.634400  0.752200  1.0  -0.3838
  C  C263  1  0.399100  0.768200  0.717400  1.0  0.1079
  C  C264  1  0.651900  0.230900  0.836600  1.0  0.1904
  C  C265  1  0.740500  0.189400  0.859200  1.0  -0.1093
  C  C266  1  0.779500  0.155800  0.920200  1.0  -0.0975
  C  C267  1  0.729900  0.163600  0.958800  1.0  -0.0912
  C  C268  1  0.641300  0.205000  0.936200  1.0  -0.1069
  C  C269  1  0.602300  0.238600  0.875200  1.0  -0.1542
  C  C270  1  0.423500  0.952900  0.529100  1.0  0.1944
  C  C271  1  0.532600  0.929100  0.560300  1.0  -0.2068
  C  C272  1  0.595600  0.921400  0.629900  1.0  0.1049
  C  C273  1  0.548200  0.938200  0.666800  1.0  -0.2127
  C  C274  1  0.442800  0.964700  0.633000  1.0  0.186
  C  C275  1  0.712600  0.891200  0.664600  1.0  -0.1748
  C  C276  1  0.714100  0.833500  0.628700  1.0  -0.1297
  C  C277  1  0.642200  0.781200  0.629600  1.0  -0.1869
  C  C278  1  0.703000  0.739800  0.693300  1.0  0.1014
  C  C279  1  0.718200  0.756300  0.757200  1.0  -0.1574
  C  C280  1  0.779600  0.716600  0.814000  1.0  0.1407
  C  C281  1  0.802700  0.644700  0.747300  1.0  0.1821
  C  C282  1  0.747800  0.682900  0.689300  1.0  -0.1856
  C  C283  1  0.114100  0.556700  0.896300  1.0  0.6895
  C  C284  1  0.081000  0.602800  0.839400  1.0  -0.1238
  C  C285  1  0.050700  0.587700  0.771700  1.0  0.1921
  C  C286  1  0.034200  0.523900  0.740700  1.0  -0.3818
  C  C287  1  0.083000  0.668600  0.845000  1.0  -0.0256
  C  C288  1  0.051800  0.692400  0.779200  1.0  0.0199
  C  C289  1  0.115500  0.705200  0.909400  1.0  -0.3875
  C  C290  1  0.042300  0.755300  0.754800  1.0  -0.0252
  C  C291  1  0.066800  0.807400  0.801500  1.0  0.0122
  C  C292  1  0.167500  0.837800  0.830200  1.0  -0.1008
  C  C293  1  0.192000  0.889700  0.876200  1.0  -0.17
  C  C294  1  0.113800  0.908500  0.887900  1.0  -0.0715
  C  C295  1  0.006700  0.878400  0.859900  1.0  -0.1393
  C  C296  1  0.989300  0.827100  0.817600  1.0  -0.1336
  C  C297  1  0.012600  0.766600  0.685800  1.0  0.0588
  C  C298  1  0.995000  0.823300  0.649500  1.0  -0.0088
  C  C299  1  0.001100  0.888400  0.675700  1.0  -0.3815
  C  C300  1  0.967900  0.806700  0.582300  1.0  -0.1289
  C  C301  1  0.968800  0.740100  0.578700  1.0  0.2039
  C  C302  1  0.942100  0.700300  0.518300  1.0  -0.3819
  C  C303  1  0.944100  0.849700  0.524400  1.0  0.6875
  C  C304  1  0.806500  0.476400  0.850000  1.0  0.6624
  C  C305  1  0.734600  0.422700  0.811400  1.0  -0.1059
  C  C306  1  0.659700  0.421600  0.738700  1.0  0.1372
  C  C307  1  0.639400  0.473400  0.688600  1.0  -0.3974
  C  C308  1  0.721800  0.365800  0.838100  1.0  0.071
  C  C309  1  0.779900  0.346800  0.912100  1.0  -0.3891
  C  C310  1  0.642400  0.330400  0.782300  1.0  0.0891
  C  C311  1  0.514600  0.243900  0.714900  1.0  0.03
  C  C312  1  0.402400  0.241400  0.599300  1.0  0.1859
  C  C313  1  0.343100  0.261200  0.525100  1.0  -0.389
  C  C314  1  0.392800  0.183500  0.625300  1.0  -0.123
  C  C315  1  0.325800  0.128400  0.583900  1.0  0.7033
  C  C316  1  0.462300  0.185700  0.698100  1.0  0.0292
  C  C317  1  0.478500  0.134400  0.747800  1.0  -0.3837
  C  C318  1  0.600900  0.268200  0.782600  1.0  0.1079
  C  C319  1  0.651900  0.269100  0.336600  1.0  0.1907
  C  C320  1  0.740500  0.310600  0.359200  1.0  -0.1095
  C  C321  1  0.779500  0.344200  0.420200  1.0  -0.0956
  C  C322  1  0.729900  0.336400  0.458800  1.0  -0.0908
  C  C323  1  0.641300  0.295000  0.436200  1.0  -0.1074
  C  C324  1  0.602300  0.261400  0.375200  1.0  -0.1537
  C  C325  1  0.423500  0.547100  0.029100  1.0  0.1942
  C  C326  1  0.532600  0.570900  0.060300  1.0  -0.2074
  C  C327  1  0.595600  0.578600  0.129900  1.0  0.1042
  C  C328  1  0.548200  0.561800  0.166800  1.0  -0.2122
  C  C329  1  0.442800  0.535300  0.133000  1.0  0.1863
  C  C330  1  0.712600  0.608800  0.164600  1.0  -0.1749
  C  C331  1  0.714100  0.666500  0.128700  1.0  -0.1291
  C  C332  1  0.642200  0.718800  0.129600  1.0  -0.1874
  C  C333  1  0.703000  0.760200  0.193300  1.0  0.101
  C  C334  1  0.718200  0.743700  0.257200  1.0  -0.1578
  C  C335  1  0.779600  0.783400  0.314000  1.0  0.1415
  C  C336  1  0.802700  0.855300  0.247300  1.0  0.1824
  C  C337  1  0.747800  0.817100  0.189300  1.0  -0.1873
  C  C338  1  0.114100  0.943300  0.396300  1.0  0.6892
  C  C339  1  0.081000  0.897200  0.339400  1.0  -0.1236
  C  C340  1  0.050700  0.912300  0.271700  1.0  0.1922
  C  C341  1  0.034200  0.976100  0.240700  1.0  -0.3793
  C  C342  1  0.083000  0.831400  0.345000  1.0  -0.026
  C  C343  1  0.051800  0.807600  0.279200  1.0  0.0198
  C  C344  1  0.115500  0.794800  0.409400  1.0  -0.3869
  C  C345  1  0.042300  0.744700  0.254800  1.0  -0.0255
  C  C346  1  0.066800  0.692600  0.301500  1.0  0.0117
  C  C347  1  0.167500  0.662200  0.330200  1.0  -0.1004
  C  C348  1  0.192000  0.610300  0.376200  1.0  -0.1683
  C  C349  1  0.113800  0.591500  0.387900  1.0  -0.0742
  C  C350  1  0.006700  0.621600  0.359900  1.0  -0.1389
  C  C351  1  0.989300  0.672900  0.317600  1.0  -0.1333
  C  C352  1  0.012600  0.733400  0.185800  1.0  0.0591
  C  C353  1  0.995000  0.676700  0.149500  1.0  -0.0087
  C  C354  1  0.001100  0.611600  0.175700  1.0  -0.3795
  C  C355  1  0.967900  0.693300  0.082300  1.0  -0.1299
  C  C356  1  0.968800  0.759900  0.078700  1.0  0.2035
  C  C357  1  0.942100  0.799700  0.018300  1.0  -0.3809
  C  C358  1  0.944100  0.650300  0.024400  1.0  0.6868
  C  C359  1  0.806500  0.023600  0.350000  1.0  0.6623
  C  C360  1  0.734600  0.077300  0.311400  1.0  -0.1065
  C  C361  1  0.659700  0.078400  0.238700  1.0  0.1374
  C  C362  1  0.639400  0.026600  0.188600  1.0  -0.3984
  C  C363  1  0.721800  0.134200  0.338100  1.0  0.0711
  C  C364  1  0.779900  0.153200  0.412100  1.0  -0.389
  C  C365  1  0.642400  0.169600  0.282300  1.0  0.0896
  C  C366  1  0.514600  0.256100  0.214900  1.0  0.03
  C  C367  1  0.402400  0.258600  0.099300  1.0  0.1858
  C  C368  1  0.343100  0.238800  0.025100  1.0  -0.3885
  C  C369  1  0.392800  0.316500  0.125300  1.0  -0.1229
  C  C370  1  0.325800  0.371600  0.083900  1.0  0.7027
  C  C371  1  0.462300  0.314300  0.198100  1.0  0.0293
  C  C372  1  0.478500  0.365600  0.247800  1.0  -0.3836
  C  C373  1  0.600900  0.231800  0.282600  1.0  0.1073
  C  C374  1  0.348100  0.769100  0.163400  1.0  0.1891
  C  C375  1  0.259500  0.810600  0.140800  1.0  -0.1089
  C  C376  1  0.220500  0.844200  0.079800  1.0  -0.0956
  C  C377  1  0.270100  0.836400  0.041200  1.0  -0.0933
  C  C378  1  0.358700  0.795000  0.063800  1.0  -0.1069
  C  C379  1  0.397700  0.761400  0.124800  1.0  -0.1529
  C  C380  1  0.576500  0.047100  0.470900  1.0  0.1946
  C  C381  1  0.467400  0.070900  0.439700  1.0  -0.2075
  C  C382  1  0.404400  0.078600  0.370100  1.0  0.1028
  C  C383  1  0.451800  0.061800  0.333200  1.0  -0.2114
  C  C384  1  0.557200  0.035300  0.367000  1.0  0.1864
  C  C385  1  0.287400  0.108800  0.335400  1.0  -0.1752
  C  C386  1  0.285900  0.166500  0.371300  1.0  -0.1288
  C  C387  1  0.357800  0.218800  0.370400  1.0  -0.1872
  C  C388  1  0.297000  0.260200  0.306700  1.0  0.1018
  C  C389  1  0.281800  0.243700  0.242800  1.0  -0.157
  C  C390  1  0.220400  0.283400  0.186000  1.0  0.1412
  C  C391  1  0.197300  0.355300  0.252700  1.0  0.1813
  C  C392  1  0.252200  0.317100  0.310700  1.0  -0.1856
  C  C393  1  0.885900  0.443300  0.103700  1.0  0.6885
  C  C394  1  0.919000  0.397200  0.160600  1.0  -0.1231
  C  C395  1  0.949300  0.412300  0.228300  1.0  0.1932
  C  C396  1  0.965800  0.476100  0.259300  1.0  -0.38
  C  C397  1  0.917000  0.331400  0.155000  1.0  -0.0278
  C  C398  1  0.948200  0.307600  0.220800  1.0  0.0204
  C  C399  1  0.884500  0.294800  0.090600  1.0  -0.3864
  C  C400  1  0.957700  0.244700  0.245200  1.0  -0.0249
  C  C401  1  0.933200  0.192600  0.198500  1.0  0.0102
  C  C402  1  0.832500  0.162200  0.169800  1.0  -0.1035
  C  C403  1  0.808000  0.110300  0.123800  1.0  -0.1705
  C  C404  1  0.886200  0.091500  0.112100  1.0  -0.0753
  C  C405  1  0.993300  0.121600  0.140100  1.0  -0.1391
  C  C406  1  0.010700  0.172900  0.182400  1.0  -0.1352
  C  C407  1  0.987400  0.233400  0.314200  1.0  0.0591
  C  C408  1  0.005000  0.176700  0.350500  1.0  -0.0092
  C  C409  1  0.998900  0.111600  0.324300  1.0  -0.3812
  C  C410  1  0.032100  0.193300  0.417700  1.0  -0.1293
  C  C411  1  0.031200  0.259900  0.421300  1.0  0.2039
  C  C412  1  0.057900  0.299700  0.481700  1.0  -0.3814
  C  C413  1  0.055900  0.150300  0.475600  1.0  0.6865
  C  C414  1  0.193500  0.523600  0.150000  1.0  0.6616
  C  C415  1  0.265400  0.577300  0.188600  1.0  -0.1058
  C  C416  1  0.340300  0.578400  0.261300  1.0  0.1369
  C  C417  1  0.360600  0.526600  0.311400  1.0  -0.3991
  C  C418  1  0.278200  0.634200  0.161900  1.0  0.069
  C  C419  1  0.220100  0.653200  0.087900  1.0  -0.3894
  C  C420  1  0.357600  0.669600  0.217700  1.0  0.0909
  C  C421  1  0.485400  0.756100  0.285100  1.0  0.0299
  C  C422  1  0.597600  0.758600  0.400700  1.0  0.1863
  C  C423  1  0.656900  0.738800  0.474900  1.0  -0.3894
  C  C424  1  0.607200  0.816500  0.374700  1.0  -0.1227
  C  C425  1  0.674200  0.871600  0.416100  1.0  0.7028
  C  C426  1  0.537700  0.814300  0.301900  1.0  0.0274
  C  C427  1  0.521500  0.865600  0.252200  1.0  -0.383
  C  C428  1  0.399100  0.731800  0.217400  1.0  0.1074
  N  N429  1  0.178800  0.160800  0.690500  1.0  -0.3667
  N  N430  1  0.621500  0.471400  0.935600  1.0  -0.3476
  N  N431  1  0.006900  0.216800  0.859500  1.0  -0.199
  N  N432  1  0.968200  0.141700  0.765100  1.0  -0.1854
  N  N433  1  0.396000  0.865500  0.778200  1.0  -0.1739
  N  N434  1  0.522800  0.777600  0.846000  1.0  -0.1473
  N  N435  1  0.821200  0.660800  0.809500  1.0  -0.3653
  N  N436  1  0.378500  0.971400  0.564400  1.0  -0.3484
  N  N437  1  0.993100  0.716800  0.640500  1.0  -0.1994
  N  N438  1  0.031800  0.641700  0.734900  1.0  -0.1865
  N  N439  1  0.604000  0.365500  0.721800  1.0  -0.1731
  N  N440  1  0.477200  0.277600  0.654000  1.0  -0.1469
  N  N441  1  0.821200  0.839200  0.309500  1.0  -0.3664
  N  N442  1  0.378500  0.528600  0.064400  1.0  -0.3486
  N  N443  1  0.993100  0.783200  0.140500  1.0  -0.1984
  N  N444  1  0.031800  0.858300  0.234900  1.0  -0.186
  N  N445  1  0.604000  0.134500  0.221800  1.0  -0.1732
  N  N446  1  0.477200  0.222400  0.154000  1.0  -0.1472
  N  N447  1  0.178800  0.339200  0.190500  1.0  -0.3664
  N  N448  1  0.621500  0.028600  0.435600  1.0  -0.3472
  N  N449  1  0.006900  0.283200  0.359500  1.0  -0.1985
  N  N450  1  0.968200  0.358300  0.265100  1.0  -0.1852
  N  N451  1  0.396000  0.634500  0.278200  1.0  -0.1739
  N  N452  1  0.522800  0.722400  0.346000  1.0  -0.1476
  O  O453  1  0.062200  0.408770  0.970000  1.0  -0.6807
  O  O454  1  0.068500  0.324400  0.030000  1.0  -0.5963
  O  O455  1  0.920600  0.064360  0.562570  1.0  -0.6602
  O  O456  1  0.820700  0.012900  0.595600  1.0  -0.6224
  O  O457  1  0.157200  0.983640  0.586110  1.0  -0.7072
  O  O458  1  0.169300  0.015580  0.682400  1.0  -0.6056
  O  O459  1  0.714500  0.592250  0.890400  1.0  -0.7194
  O  O460  1  0.687300  0.618000  0.974600  1.0  -0.6605
  O  O461  1  0.937800  0.908770  0.530000  1.0  -0.6813
  O  O462  1  0.931500  0.824400  0.470000  1.0  -0.5959
  O  O463  1  0.079400  0.564360  0.937430  1.0  -0.6596
  O  O464  1  0.179300  0.512900  0.904400  1.0  -0.6212
  O  O465  1  0.842800  0.483640  0.913890  1.0  -0.7083
  O  O466  1  0.830700  0.515580  0.817600  1.0  -0.6062
  O  O467  1  0.285500  0.092250  0.609600  1.0  -0.7207
  O  O468  1  0.312700  0.118000  0.525400  1.0  -0.6605
  O  O469  1  0.937800  0.591230  0.030000  1.0  -0.6814
  O  O470  1  0.931500  0.675600  0.970000  1.0  -0.596
  O  O471  1  0.079400  0.935640  0.437430  1.0  -0.66
  O  O472  1  0.179300  0.987100  0.404400  1.0  -0.622
  O  O473  1  0.842800  0.016360  0.413890  1.0  -0.708
  O  O474  1  0.830700  0.984420  0.317600  1.0  -0.6059
  O  O475  1  0.285500  0.407750  0.109600  1.0  -0.7197
  O  O476  1  0.312700  0.382000  0.025400  1.0  -0.6595
  O  O477  1  0.062200  0.091230  0.470000  1.0  -0.6809
  O  O478  1  0.068500  0.175600  0.530000  1.0  -0.5963
  O  O479  1  0.920600  0.435640  0.062570  1.0  -0.6602
  O  O480  1  0.820700  0.487100  0.095600  1.0  -0.6226
  O  O481  1  0.157200  0.516360  0.086110  1.0  -0.7081
  O  O482  1  0.169300  0.484420  0.182400  1.0  -0.6052
  O  O483  1  0.714500  0.907750  0.390400  1.0  -0.7184
  O  O484  1  0.687300  0.882000  0.474600  1.0  -0.6611
  F  F485  1  0.934000  0.112500  0.854200  1.0  -0.2575
  F  F486  1  0.112000  0.119800  0.883700  1.0  -0.3007
  F  F487  1  0.572500  0.884800  0.880500  1.0  -0.2186
  F  F488  1  0.450100  0.847500  0.897400  1.0  -0.3727
  F  F489  1  0.066000  0.612500  0.645800  1.0  -0.2588
  F  F490  1  0.888000  0.619800  0.616300  1.0  -0.3003
  F  F491  1  0.427500  0.384800  0.619500  1.0  -0.2162
  F  F492  1  0.549900  0.347500  0.602600  1.0  -0.3717
  F  F493  1  0.066000  0.887500  0.145800  1.0  -0.2582
  F  F494  1  0.888000  0.880200  0.116300  1.0  -0.2988
  F  F495  1  0.427500  0.115200  0.119500  1.0  -0.2155
  F  F496  1  0.549900  0.152500  0.102600  1.0  -0.3712
  F  F497  1  0.934000  0.387500  0.354200  1.0  -0.2571
  F  F498  1  0.112000  0.380200  0.383700  1.0  -0.3004
  F  F499  1  0.572500  0.615200  0.380500  1.0  -0.2173
  F  F500  1  0.450100  0.652500  0.397400  1.0  -0.3728
