# generated using pymatgen
data_TbH5C9NO8
_symmetry_space_group_name_H-M   'P 1'
_cell_length_a   13.00900000
_cell_length_b   13.77010000
_cell_length_c   15.04390000
_cell_angle_alpha   99.51300000
_cell_angle_beta   90.40200000
_cell_angle_gamma   116.52200000
_symmetry_Int_Tables_number   1
_chemical_formula_structural   TbH5C9NO8
_chemical_formula_sum   'Tb4 H20 C36 N4 O32'
_cell_volume   2368.13641108
_cell_formula_units_Z   4
loop_
 _symmetry_equiv_pos_site_id
 _symmetry_equiv_pos_as_xyz
  1  'x, y, z'
loop_
 _atom_site_type_symbol
 _atom_site_label
 _atom_site_symmetry_multiplicity
 _atom_site_fract_x
 _atom_site_fract_y
 _atom_site_fract_z
 _atom_site_occupancy
 _atom_site_charge
  Tb  Tb1  1  0.990920  0.851270  0.960300  1.0  2.2167
  Tb  Tb2  1  0.356060  0.855960  0.464860  1.0  2.2307
  Tb  Tb3  1  0.009080  0.148730  0.039700  1.0  2.2216
  Tb  Tb4  1  0.643940  0.144040  0.535140  1.0  2.2292
  H  H5  1  0.289800  0.283900  0.874100  1.0  0.1053
  H  H6  1  0.483600  0.253300  0.675900  1.0  0.1273
  H  H7  1  0.209200  0.984300  0.728500  1.0  0.1161
  H  H8  1  0.450900  0.444800  0.920400  1.0  0.068
  H  H9  1  0.372900  0.458100  0.847600  1.0  0.0705
  H  H10  1  0.535600  0.629700  0.920500  1.0  0.0781
  H  H11  1  0.614700  0.587400  0.865200  1.0  0.0772
  H  H12  1  0.477800  0.718400  0.675000  1.0  0.1149
  H  H13  1  0.733100  0.024000  0.765700  1.0  0.1165
  H  H14  1  0.699800  0.772400  0.885800  1.0  0.1085
  H  H15  1  0.710200  0.716100  0.125900  1.0  0.1058
  H  H16  1  0.516400  0.746700  0.324100  1.0  0.1278
  H  H17  1  0.790800  0.015700  0.271500  1.0  0.1157
  H  H18  1  0.549100  0.555200  0.079600  1.0  0.0692
  H  H19  1  0.627100  0.541900  0.152400  1.0  0.072
  H  H20  1  0.464400  0.370300  0.079500  1.0  0.0774
  H  H21  1  0.385300  0.412600  0.134800  1.0  0.079
  H  H22  1  0.522200  0.281600  0.325000  1.0  0.1145
  H  H23  1  0.266900  0.976000  0.234300  1.0  0.1165
  H  H24  1  0.300200  0.227600  0.114200  1.0  0.1085
  C  C25  1  0.136700  0.074600  0.867000  1.0  0.7585
  C  C26  1  0.237600  0.125400  0.810100  1.0  -0.1101
  C  C27  1  0.306900  0.239700  0.829100  1.0  -0.2091
  C  C28  1  0.399700  0.286200  0.781200  1.0  0.3013
  C  C29  1  0.420900  0.220800  0.708800  1.0  -0.1073
  C  C30  1  0.348800  0.107600  0.686000  1.0  -0.1279
  C  C31  1  0.256600  0.060200  0.740500  1.0  0.0346
  C  C32  1  0.364300  0.034600  0.608600  1.0  0.7577
  C  C33  1  0.449300  0.465800  0.862200  1.0  0.0889
  C  C34  1  0.538200  0.582900  0.865700  1.0  0.0962
  C  C35  1  0.575100  0.727100  0.783600  1.0  0.2943
  C  C36  1  0.541400  0.766800  0.715500  1.0  -0.1221
  C  C37  1  0.599800  0.876800  0.706200  1.0  -0.1907
  C  C38  1  0.694400  0.949500  0.769200  1.0  0.0212
  C  C39  1  0.730300  0.910300  0.837100  1.0  -0.1242
  C  C40  1  0.673000  0.799000  0.842800  1.0  -0.1802
  C  C41  1  0.829100  0.986700  0.904400  1.0  0.7149
  C  C42  1  0.562100  0.922000  0.638100  1.0  0.8028
  C  C43  1  0.863300  0.925400  0.133000  1.0  0.7588
  C  C44  1  0.762400  0.874600  0.189900  1.0  -0.1108
  C  C45  1  0.693100  0.760300  0.170900  1.0  -0.2067
  C  C46  1  0.600300  0.713800  0.218800  1.0  0.3012
  C  C47  1  0.579100  0.779200  0.291200  1.0  -0.1045
  C  C48  1  0.651200  0.892400  0.314000  1.0  -0.1277
  C  C49  1  0.743400  0.939800  0.259500  1.0  0.0328
  C  C50  1  0.635700  0.965400  0.391400  1.0  0.7575
  C  C51  1  0.550700  0.534200  0.137800  1.0  0.0915
  C  C52  1  0.461800  0.417100  0.134300  1.0  0.0955
  C  C53  1  0.424900  0.272900  0.216400  1.0  0.2943
  C  C54  1  0.458600  0.233200  0.284500  1.0  -0.1218
  C  C55  1  0.400200  0.123200  0.293800  1.0  -0.1918
  C  C56  1  0.305600  0.050500  0.230800  1.0  0.0228
  C  C57  1  0.269700  0.089700  0.162900  1.0  -0.1239
  C  C58  1  0.327000  0.201000  0.157200  1.0  -0.181
  C  C59  1  0.170900  0.013300  0.095600  1.0  0.7157
  C  C60  1  0.437900  0.078000  0.361900  1.0  0.8031
  N  N61  1  0.843700  0.636100  0.006900  1.0  0.7737
  N  N62  1  0.277200  0.636600  0.512000  1.0  0.7828
  N  N63  1  0.156300  0.363900  0.993100  1.0  0.7705
  N  N64  1  0.722800  0.363400  0.488000  1.0  0.7859
  O  O65  1  0.952700  0.682800  0.024500  1.0  -0.6716
  O  O66  1  0.804000  0.678700  0.957300  1.0  -0.6976
  O  O67  1  0.783200  0.554400  0.036500  1.0  -0.4318
  O  O68  1  0.103700  0.974500  0.871200  1.0  -0.7229
  O  O69  1  0.097900  0.136100  0.906300  1.0  -0.6722
  O  O70  1  0.474800  0.397400  0.794900  1.0  -0.2683
  O  O71  1  0.512100  0.618400  0.787000  1.0  -0.2745
  O  O72  1  0.886800  0.951100  0.942600  1.0  -0.7502
  O  O73  1  0.850900  0.088700  0.924600  1.0  -0.6557
  O  O74  1  0.629800  0.015000  0.624500  1.0  -0.7687
  O  O75  1  0.460100  0.862300  0.597700  1.0  -0.6972
  O  O76  1  0.285900  0.939000  0.583000  1.0  -0.6523
  O  O77  1  0.454000  0.073200  0.568100  1.0  -0.7986
  O  O78  1  0.220600  0.692900  0.521800  1.0  -0.6662
  O  O79  1  0.363100  0.671400  0.468400  1.0  -0.5777
  O  O80  1  0.240200  0.548400  0.537500  1.0  -0.3793
  O  O81  1  0.047300  0.317200  0.975500  1.0  -0.6728
  O  O82  1  0.196000  0.321300  0.042700  1.0  -0.7
  O  O83  1  0.216800  0.445600  0.963500  1.0  -0.4329
  O  O84  1  0.896300  0.025500  0.128800  1.0  -0.7288
  O  O85  1  0.902100  0.863900  0.093700  1.0  -0.6718
  O  O86  1  0.525200  0.602600  0.205100  1.0  -0.2688
  O  O87  1  0.487900  0.381600  0.213000  1.0  -0.274
  O  O88  1  0.113200  0.048900  0.057400  1.0  -0.7502
  O  O89  1  0.149100  0.911300  0.075400  1.0  -0.654
  O  O90  1  0.370200  0.985000  0.375500  1.0  -0.7693
  O  O91  1  0.539900  0.137700  0.402300  1.0  -0.697
  O  O92  1  0.714100  0.061000  0.417000  1.0  -0.653
  O  O93  1  0.546000  0.926800  0.431900  1.0  -0.7983
  O  O94  1  0.779400  0.307100  0.478200  1.0  -0.666
  O  O95  1  0.636900  0.328600  0.531600  1.0  -0.5816
  O  O96  1  0.759800  0.451600  0.462500  1.0  -0.3801
