# generated using pymatgen
data_EuH5C9NO8
_symmetry_space_group_name_H-M   'P 1'
_cell_length_a   13.22050000
_cell_length_b   13.99730000
_cell_length_c   14.90000000
_cell_angle_alpha   99.68000000
_cell_angle_beta   91.00900000
_cell_angle_gamma   117.10300000
_symmetry_Int_Tables_number   1
_chemical_formula_structural   EuH5C9NO8
_chemical_formula_sum   'Eu4 H20 C36 N4 O32'
_cell_volume   2405.55397604
_cell_formula_units_Z   4
loop_
 _symmetry_equiv_pos_site_id
 _symmetry_equiv_pos_as_xyz
  1  'x, y, z'
loop_
 _atom_site_type_symbol
 _atom_site_label
 _atom_site_symmetry_multiplicity
 _atom_site_fract_x
 _atom_site_fract_y
 _atom_site_fract_z
 _atom_site_occupancy
 _atom_site_charge
  Eu  Eu1  1  0.489740  0.853230  0.459630  1.0  2.1102
  Eu  Eu2  1  0.155230  0.148050  0.038690  1.0  2.115
  Eu  Eu3  1  0.510260  0.146770  0.540370  1.0  2.1164
  Eu  Eu4  1  0.844770  0.851950  0.961310  1.0  2.1136
  H  H5  1  0.794100  0.286500  0.380100  1.0  0.1037
  H  H6  1  0.996400  0.260400  0.189800  1.0  0.1313
  H  H7  1  0.715000  0.992200  0.224900  1.0  0.1193
  H  H8  1  0.946900  0.453300  0.428100  1.0  0.0802
  H  H9  1  0.872200  0.459500  0.348100  1.0  0.0735
  H  H10  1  0.028900  0.634600  0.423900  1.0  0.0791
  H  H11  1  0.110900  0.594500  0.374400  1.0  0.0782
  H  H12  1  0.974300  0.713000  0.172500  1.0  0.1227
  H  H13  1  0.233400  0.017700  0.257700  1.0  0.1209
  H  H14  1  0.199500  0.775700  0.387400  1.0  0.1175
  H  H15  1  0.205900  0.713500  0.619900  1.0  0.1035
  H  H16  1  0.003600  0.739600  0.810200  1.0  0.1311
  H  H17  1  0.285000  0.007800  0.775100  1.0  0.1193
  H  H18  1  0.053100  0.546700  0.571900  1.0  0.0814
  H  H19  1  0.127800  0.540500  0.651900  1.0  0.074
  H  H20  1  0.971100  0.365400  0.576100  1.0  0.0768
  H  H21  1  0.889100  0.405500  0.625600  1.0  0.0798
  H  H22  1  0.025700  0.287000  0.827500  1.0  0.1229
  H  H23  1  0.766600  0.982300  0.742300  1.0  0.121
  H  H24  1  0.800500  0.224300  0.612600  1.0  0.1183
  C  C25  1  0.642800  0.076500  0.366700  1.0  0.7696
  C  C26  1  0.741000  0.129300  0.312000  1.0  -0.1171
  C  C27  1  0.811300  0.243700  0.334500  1.0  -0.215
  C  C28  1  0.904900  0.291100  0.288800  1.0  0.2685
  C  C29  1  0.931100  0.228000  0.219000  1.0  -0.0888
  C  C30  1  0.858400  0.117100  0.194300  1.0  -0.161
  C  C31  1  0.763100  0.067200  0.241400  1.0  0.0381
  C  C32  1  0.878100  0.047900  0.114700  1.0  0.7346
  C  C33  1  0.947800  0.470800  0.367700  1.0  0.097
  C  C34  1  0.034400  0.587400  0.370700  1.0  0.1041
  C  C35  1  0.075600  0.726200  0.282100  1.0  0.2385
  C  C36  1  0.039100  0.762000  0.212300  1.0  -0.1109
  C  C37  1  0.098100  0.869700  0.201200  1.0  -0.1659
  C  C38  1  0.194400  0.944700  0.263100  1.0  0.0176
  C  C39  1  0.230000  0.908100  0.331900  1.0  -0.1026
  C  C40  1  0.173000  0.799200  0.341800  1.0  -0.1719
  C  C41  1  0.330200  0.988200  0.399900  1.0  0.7421
  C  C42  1  0.058500  0.910300  0.127000  1.0  0.8032
  C  C43  1  0.357200  0.923500  0.633300  1.0  0.7696
  C  C44  1  0.259000  0.870700  0.688000  1.0  -0.1161
  C  C45  1  0.188700  0.756300  0.665500  1.0  -0.2127
  C  C46  1  0.095100  0.708900  0.711200  1.0  0.2701
  C  C47  1  0.068900  0.772000  0.781000  1.0  -0.0874
  C  C48  1  0.141600  0.882900  0.805700  1.0  -0.1606
  C  C49  1  0.236900  0.932800  0.758600  1.0  0.0369
  C  C50  1  0.121900  0.952100  0.885300  1.0  0.7352
  C  C51  1  0.052200  0.529200  0.632300  1.0  0.0989
  C  C52  1  0.965600  0.412600  0.629300  1.0  0.1033
  C  C53  1  0.924400  0.273800  0.717900  1.0  0.2372
  C  C54  1  0.960900  0.238000  0.787700  1.0  -0.1098
  C  C55  1  0.901900  0.130300  0.798800  1.0  -0.167
  C  C56  1  0.805600  0.055300  0.736900  1.0  0.0182
  C  C57  1  0.770000  0.091900  0.668100  1.0  -0.1007
  C  C58  1  0.827000  0.200800  0.658200  1.0  -0.1725
  C  C59  1  0.669800  0.011800  0.600100  1.0  0.7431
  C  C60  1  0.941500  0.089700  0.873000  1.0  0.8036
  N  N61  1  0.340800  0.639600  0.505800  1.0  0.8747
  N  N62  1  0.262300  0.362400  0.983700  1.0  0.8477
  N  N63  1  0.659200  0.360400  0.494200  1.0  0.8748
  N  N64  1  0.737700  0.637600  0.016300  1.0  0.8486
  O  O65  1  0.447100  0.687100  0.528500  1.0  -0.6199
  O  O66  1  0.305100  0.681600  0.452200  1.0  -0.6273
  O  O67  1  0.275600  0.557600  0.533700  1.0  -0.4904
  O  O68  1  0.609000  0.976200  0.368900  1.0  -0.7647
  O  O69  1  0.601500  0.135400  0.406400  1.0  -0.6772
  O  O70  1  0.799700  0.952800  0.084200  1.0  -0.6517
  O  O71  1  0.973200  0.089300  0.082300  1.0  -0.7636
  O  O72  1  0.289900  0.289300  0.954700  1.0  -0.5623
  O  O73  1  0.194800  0.344100  0.044000  1.0  -0.5872
  O  O74  1  0.299600  0.448500  0.954700  1.0  -0.3638
  O  O75  1  0.978700  0.402500  0.304700  1.0  -0.2762
  O  O76  1  0.011300  0.618400  0.287800  1.0  -0.2779
  O  O77  1  0.958800  0.850400  0.088200  1.0  -0.7002
  O  O78  1  0.127900  0.002300  0.111600  1.0  -0.7917
  O  O79  1  0.388300  0.953500  0.441200  1.0  -0.8408
  O  O80  1  0.353200  0.087700  0.418800  1.0  -0.6681
  O  O81  1  0.552900  0.312900  0.471500  1.0  -0.6197
  O  O82  1  0.694900  0.318400  0.547800  1.0  -0.6295
  O  O83  1  0.724400  0.442400  0.466300  1.0  -0.4942
  O  O84  1  0.391000  0.023800  0.631100  1.0  -0.7677
  O  O85  1  0.398500  0.864600  0.593600  1.0  -0.6737
  O  O86  1  0.200300  0.047200  0.915800  1.0  -0.6547
  O  O87  1  0.026800  0.910700  0.917700  1.0  -0.7624
  O  O88  1  0.710100  0.710700  0.045300  1.0  -0.5615
  O  O89  1  0.805200  0.655900  0.956000  1.0  -0.5863
  O  O90  1  0.700400  0.551500  0.045300  1.0  -0.3642
  O  O91  1  0.021300  0.597500  0.695300  1.0  -0.2755
  O  O92  1  0.988700  0.381600  0.712200  1.0  -0.2765
  O  O93  1  0.041200  0.149600  0.911800  1.0  -0.7014
  O  O94  1  0.872100  0.997700  0.888400  1.0  -0.7902
  O  O95  1  0.611700  0.046500  0.558800  1.0  -0.8406
  O  O96  1  0.646800  0.912300  0.581200  1.0  -0.6638
