# generated using pymatgen
data_CoH18C28(N2O3)2
_symmetry_space_group_name_H-M   'P 1'
_cell_length_a   10.03450000
_cell_length_b   15.28520000
_cell_length_c   18.42100000
_cell_angle_alpha   67.73200000
_cell_angle_beta   87.02400000
_cell_angle_gamma   77.36100000
_symmetry_Int_Tables_number   1
_chemical_formula_structural   CoH18C28(N2O3)2
_chemical_formula_sum   'Co3 H54 C84 N12 O18'
_cell_volume   2549.82410038
_cell_formula_units_Z   3
loop_
 _symmetry_equiv_pos_site_id
 _symmetry_equiv_pos_as_xyz
  1  'x, y, z'
loop_
 _atom_site_type_symbol
 _atom_site_label
 _atom_site_symmetry_multiplicity
 _atom_site_fract_x
 _atom_site_fract_y
 _atom_site_fract_z
 _atom_site_occupancy
 _atom_site_charge
  Co  Co1  1  0.861720  0.980400  0.432870  1.0  0.9107
  Co  Co2  1  0.138280  0.019600  0.567130  1.0  0.911
  Co  Co3  1  0.500000  0.000000  0.000000  1.0  0.8618
  H  H4  1  0.450700  0.336800  0.744800  1.0  0.2353
  H  H5  1  0.608000  0.991000  0.571700  1.0  0.0981
  H  H6  1  0.901900  0.639800  0.678500  1.0  0.2686
  H  H7  1  0.915300  0.282600  0.169200  1.0  0.193
  H  H8  1  0.836100  0.976600  0.750900  1.0  0.1049
  H  H9  1  0.361100  0.442800  0.630000  1.0  0.0985
  H  H10  1  0.887200  0.791200  0.583700  1.0  0.0787
  H  H11  1  0.616900  0.507200  0.009700  1.0  0.1012
  H  H12  1  0.429300  0.000200  0.770900  1.0  0.1014
  H  H13  1  0.653700  0.553500  0.878400  1.0  0.1114
  H  H14  1  0.888200  0.139800  0.279000  1.0  0.0809
  H  H15  1  0.808300  0.554400  0.769500  1.0  0.1164
  H  H16  1  0.747800  0.534700  0.497100  1.0  0.0964
  H  H17  1  0.756600  0.164700  0.475300  1.0  0.0823
  H  H18  1  0.483600  0.182200  0.845800  1.0  0.0908
  H  H19  1  0.736600  0.497800  0.629200  1.0  0.0918
  H  H20  1  0.738900  0.404100  0.280900  1.0  0.1172
  H  H21  1  0.537800  0.410200  0.889400  1.0  0.1133
  H  H22  1  0.001200  0.349200  0.059800  1.0  0.1024
  H  H23  1  0.963600  0.825700  0.365200  1.0  0.0944
  H  H24  1  0.032600  0.557200  0.530700  1.0  0.1181
  H  H25  1  0.703500  0.330100  0.414800  1.0  0.1075
  H  H26  1  0.034900  0.661400  0.399700  1.0  0.1078
  H  H27  1  0.195000  0.401800  0.817100  1.0  0.0984
  H  H28  1  0.574500  0.308600  0.020800  1.0  0.0976
  H  H29  1  0.560200  0.149900  0.061400  1.0  0.0857
  H  H30  1  0.159700  0.351000  0.948400  1.0  0.1105
  H  H31  1  0.549300  0.663200  0.255200  1.0  0.2363
  H  H32  1  0.392000  0.009000  0.428300  1.0  0.0958
  H  H33  1  0.098100  0.360200  0.321500  1.0  0.2689
  H  H34  1  0.084700  0.717400  0.830800  1.0  0.1939
  H  H35  1  0.163900  0.023400  0.249100  1.0  0.1051
  H  H36  1  0.638900  0.557200  0.370000  1.0  0.0992
  H  H37  1  0.112800  0.208800  0.416300  1.0  0.0793
  H  H38  1  0.383100  0.492800  0.990300  1.0  0.1011
  H  H39  1  0.570700  0.999800  0.229100  1.0  0.1016
  H  H40  1  0.346300  0.446500  0.121600  1.0  0.1111
  H  H41  1  0.111800  0.860200  0.721000  1.0  0.0805
  H  H42  1  0.191700  0.445600  0.230500  1.0  0.1165
  H  H43  1  0.252200  0.465300  0.502900  1.0  0.0962
  H  H44  1  0.243400  0.835300  0.524700  1.0  0.0812
  H  H45  1  0.516400  0.817800  0.154200  1.0  0.0913
  H  H46  1  0.263400  0.502200  0.370800  1.0  0.0918
  H  H47  1  0.261100  0.595900  0.719100  1.0  0.1172
  H  H48  1  0.462200  0.589800  0.110600  1.0  0.1131
  H  H49  1  0.998800  0.650800  0.940200  1.0  0.1019
  H  H50  1  0.036400  0.174300  0.634800  1.0  0.0951
  H  H51  1  0.967400  0.442800  0.469300  1.0  0.119
  H  H52  1  0.296500  0.669900  0.585200  1.0  0.1077
  H  H53  1  0.965100  0.338600  0.600300  1.0  0.1082
  H  H54  1  0.805000  0.598200  0.182900  1.0  0.0991
  H  H55  1  0.425500  0.691400  0.979200  1.0  0.0964
  H  H56  1  0.439800  0.850100  0.938600  1.0  0.0852
  H  H57  1  0.840300  0.649000  0.051600  1.0  0.1109
  C  C58  1  0.614200  0.991800  0.622180  1.0  0.0012
  C  C59  1  0.740500  0.987800  0.653050  1.0  -0.1555
  C  C60  1  0.750500  0.981600  0.729500  1.0  -0.016
  C  C61  1  0.497500  0.997100  0.665830  1.0  -0.1551
  C  C62  1  0.440600  0.486800  0.520200  1.0  0.0441
  C  C63  1  0.863700  0.991800  0.603210  1.0  0.6927
  C  C64  1  0.852800  0.483000  0.886900  1.0  0.0302
  C  C65  1  0.635800  0.982600  0.775100  1.0  -0.1447
  C  C66  1  0.438600  0.461200  0.602800  1.0  -0.1305
  C  C67  1  0.547200  0.463000  0.643100  1.0  -0.0162
  C  C68  1  0.918600  0.764200  0.546200  1.0  0.099
  C  C69  1  0.552700  0.434600  0.730600  1.0  0.5529
  C  C70  1  0.806300  0.421600  0.047700  1.0  -0.0948
  C  C71  1  0.361200  0.007500  0.630930  1.0  0.6497
  C  C72  1  0.702600  0.484600  0.992500  1.0  -0.1018
  C  C73  1  0.962400  0.665200  0.571700  1.0  0.212
  C  C74  1  0.508300  0.994200  0.741900  1.0  0.0237
  C  C75  1  0.725100  0.513000  0.914600  1.0  -0.1205
  C  C76  1  0.848400  0.179200  0.306500  1.0  0.1123
  C  C77  1  0.879000  0.513700  0.806100  1.0  -0.1646
  C  C78  1  0.646500  0.969600  0.859800  1.0  0.7336
  C  C79  1  0.669400  0.516400  0.523200  1.0  -0.1349
  C  C80  1  0.772500  0.193400  0.421600  1.0  0.1695
  C  C81  1  0.502300  0.208400  0.881800  1.0  0.1084
  C  C82  1  0.959500  0.421100  0.942100  1.0  0.0325
  C  C83  1  0.512400  0.304800  0.853000  1.0  0.2347
  C  C84  1  0.816900  0.277700  0.265800  1.0  0.2333
  C  C85  1  0.003700  0.486000  0.779900  1.0  -0.0496
  C  C86  1  0.766400  0.394700  0.131900  1.0  0.5187
  C  C87  1  0.663500  0.493500  0.601700  1.0  -0.0756
  C  C88  1  0.029700  0.520600  0.693800  1.0  0.5473
  C  C89  1  0.761400  0.336400  0.306400  1.0  -0.1282
  C  C90  1  0.535400  0.344400  0.905900  1.0  -0.1523
  C  C91  1  0.931900  0.391100  0.022600  1.0  -0.124
  C  C92  1  0.962200  0.784800  0.418200  1.0  0.1618
  C  C93  1  0.005000  0.624600  0.516000  1.0  -0.1188
  C  C94  1  0.740200  0.292200  0.385600  1.0  -0.1195
  C  C95  1  0.005300  0.686500  0.438500  1.0  -0.1647
  C  C96  1  0.109100  0.422800  0.834900  1.0  -0.0677
  C  C97  1  0.554900  0.284200  0.983600  1.0  -0.1436
  C  C98  1  0.546000  0.189300  0.007800  1.0  0.1574
  C  C99  1  0.087800  0.392300  0.912900  1.0  -0.1279
  C  C100  1  0.385800  0.008200  0.377820  1.0  0.0005
  C  C101  1  0.259500  0.012200  0.346950  1.0  -0.1554
  C  C102  1  0.249500  0.018400  0.270500  1.0  -0.0176
  C  C103  1  0.502500  0.002900  0.334170  1.0  -0.1562
  C  C104  1  0.559400  0.513200  0.479800  1.0  0.0438
  C  C105  1  0.136300  0.008200  0.396790  1.0  0.6918
  C  C106  1  0.147200  0.517000  0.113100  1.0  0.0305
  C  C107  1  0.364200  0.017400  0.224900  1.0  -0.1459
  C  C108  1  0.561400  0.538800  0.397200  1.0  -0.1311
  C  C109  1  0.452800  0.537000  0.356900  1.0  -0.0165
  C  C110  1  0.081400  0.235800  0.453800  1.0  0.0981
  C  C111  1  0.447300  0.565400  0.269400  1.0  0.5517
  C  C112  1  0.193700  0.578400  0.952300  1.0  -0.0954
  C  C113  1  0.638800  0.992500  0.369070  1.0  0.6511
  C  C114  1  0.297400  0.515400  0.007500  1.0  -0.1019
  C  C115  1  0.037600  0.334800  0.428300  1.0  0.2111
  C  C116  1  0.491700  0.005800  0.258100  1.0  0.0237
  C  C117  1  0.274900  0.487000  0.085400  1.0  -0.1199
  C  C118  1  0.151600  0.820800  0.693500  1.0  0.1126
  C  C119  1  0.121000  0.486300  0.193900  1.0  -0.1649
  C  C120  1  0.353500  0.030400  0.140200  1.0  0.7333
  C  C121  1  0.330600  0.483600  0.476800  1.0  -0.134
  C  C122  1  0.227500  0.806600  0.578400  1.0  0.1701
  C  C123  1  0.497700  0.791600  0.118200  1.0  0.1083
  C  C124  1  0.040500  0.578900  0.057900  1.0  0.0335
  C  C125  1  0.487600  0.695200  0.147000  1.0  0.2336
  C  C126  1  0.183100  0.722300  0.734200  1.0  0.2343
  C  C127  1  0.996300  0.514000  0.220100  1.0  -0.05
  C  C128  1  0.233600  0.605300  0.868100  1.0  0.5201
  C  C129  1  0.336500  0.506500  0.398300  1.0  -0.0781
  C  C130  1  0.970300  0.479400  0.306200  1.0  0.548
  C  C131  1  0.238600  0.663600  0.693600  1.0  -0.1287
  C  C132  1  0.464600  0.655600  0.094100  1.0  -0.1534
  C  C133  1  0.068100  0.608900  0.977400  1.0  -0.1226
  C  C134  1  0.037800  0.215200  0.581800  1.0  0.1611
  C  C135  1  0.995000  0.375400  0.484000  1.0  -0.1201
  C  C136  1  0.259800  0.707800  0.614400  1.0  -0.1182
  C  C137  1  0.994700  0.313500  0.561500  1.0  -0.1684
  C  C138  1  0.890900  0.577200  0.165100  1.0  -0.0668
  C  C139  1  0.445100  0.715800  0.016400  1.0  -0.1452
  C  C140  1  0.454000  0.810700  0.992200  1.0  0.1574
  C  C141  1  0.912200  0.607700  0.087100  1.0  -0.1268
  N  N142  1  0.918400  0.824200  0.471020  1.0  -0.3209
  N  N143  1  0.826000  0.136000  0.382620  1.0  -0.3263
  N  N144  1  0.498200  0.356400  0.771430  1.0  -0.4164
  N  N145  1  0.517700  0.150700  0.957720  1.0  -0.3346
  N  N146  1  0.957400  0.611800  0.652040  1.0  -0.4022
  N  N147  1  0.844600  0.313700  0.185510  1.0  -0.4168
  N  N148  1  0.081600  0.175800  0.528980  1.0  -0.3237
  N  N149  1  0.174000  0.864000  0.617380  1.0  -0.3272
  N  N150  1  0.501800  0.643600  0.228570  1.0  -0.4174
  N  N151  1  0.482300  0.849300  0.042280  1.0  -0.3358
  N  N152  1  0.042600  0.388200  0.347960  1.0  -0.4011
  N  N153  1  0.155400  0.686300  0.814490  1.0  -0.4159
  O  O154  1  0.539600  0.000790  0.888800  1.0  -0.6173
  O  O155  1  0.864000  0.968480  0.545220  1.0  -0.633
  O  O156  1  0.254500  0.014340  0.669440  1.0  -0.549
  O  O157  1  0.959100  0.019560  0.623340  1.0  -0.5877
  O  O158  1  0.354500  0.008400  0.563050  1.0  -0.5824
  O  O159  1  0.606700  0.476600  0.760390  1.0  -0.4949
  O  O160  1  0.667200  0.443100  0.149810  1.0  -0.5144
  O  O161  1  0.109200  0.471800  0.663670  1.0  -0.5371
  O  O162  1  0.758300  0.925600  0.897160  1.0  -0.5121
  O  O163  1  0.460400  0.999210  0.111200  1.0  -0.6163
  O  O164  1  0.136000  0.031520  0.454780  1.0  -0.6322
  O  O165  1  0.745500  0.985660  0.330560  1.0  -0.5526
  O  O166  1  0.040900  0.980440  0.376660  1.0  -0.5886
  O  O167  1  0.645500  0.991600  0.436950  1.0  -0.5827
  O  O168  1  0.393300  0.523400  0.239610  1.0  -0.4948
  O  O169  1  0.332800  0.556900  0.850190  1.0  -0.5151
  O  O170  1  0.890800  0.528200  0.336330  1.0  -0.5358
  O  O171  1  0.241700  0.074400  0.102840  1.0  -0.5115
