# generated using pymatgen
data_Co5P2H32C46(N4O9)2
_symmetry_space_group_name_H-M   'P 1'
_cell_length_a   10.10320000
_cell_length_b   9.22990000
_cell_length_c   31.77300000
_cell_angle_alpha   90.00000000
_cell_angle_beta   107.48600000
_cell_angle_gamma   90.00000000
_symmetry_Int_Tables_number   1
_chemical_formula_structural   Co5P2H32C46(N4O9)2
_chemical_formula_sum   'Co10 P4 H64 C92 N16 O36'
_cell_volume   2825.96718801
_cell_formula_units_Z   2
loop_
 _symmetry_equiv_pos_site_id
 _symmetry_equiv_pos_as_xyz
  1  'x, y, z'
loop_
 _atom_site_type_symbol
 _atom_site_label
 _atom_site_symmetry_multiplicity
 _atom_site_fract_x
 _atom_site_fract_y
 _atom_site_fract_z
 _atom_site_occupancy
 _atom_site_charge
  Co  Co1  1  0.099580  0.903510  0.219530  1.0  0.8075
  Co  Co2  1  0.679810  0.155450  0.093890  1.0  0.9985
  Co  Co3  1  0.114600  0.013110  0.624880  1.0  1.0818
  Co  Co4  1  0.547880  0.179720  0.656980  1.0  0.9162
  Co  Co5  1  0.131840  0.929540  0.529670  1.0  0.8752
  Co  Co6  1  0.099580  0.096490  0.719530  1.0  0.8089
  Co  Co7  1  0.679810  0.844550  0.593890  1.0  0.9981
  Co  Co8  1  0.114600  0.986890  0.124880  1.0  1.0818
  Co  Co9  1  0.547880  0.820280  0.156980  1.0  0.9164
  Co  Co10  1  0.131840  0.070460  0.029670  1.0  0.8747
  P  P11  1  0.828900  0.131500  0.627810  1.0  1.517
  P  P12  1  0.399800  0.894100  0.621700  1.0  1.4708
  P  P13  1  0.828900  0.868500  0.127810  1.0  1.5169
  P  P14  1  0.399800  0.105900  0.121700  1.0  1.4713
  H  H15  1  0.993800  0.478300  0.538100  1.0  0.1039
  H  H16  1  0.823900  0.410100  0.656900  1.0  0.0974
  H  H17  1  0.231700  0.554200  0.711500  1.0  0.1027
  H  H18  1  0.405600  0.615800  0.592500  1.0  0.1064
  H  H19  1  0.467700  0.212600  0.748700  1.0  0.1059
  H  H20  1  0.659700  0.487700  0.691400  1.0  0.0963
  H  H21  1  0.605600  0.621100  0.750800  1.0  0.1294
  H  H22  1  0.407700  0.375500  0.804700  1.0  0.1243
  H  H23  1  0.393400  0.542300  0.790100  1.0  0.1166
  H  H24  1  0.588800  0.302500  0.868900  1.0  0.1256
  H  H25  1  0.863300  0.593600  0.940200  1.0  0.1191
  H  H26  1  0.770600  0.769300  0.887300  1.0  0.1081
  H  H27  1  0.587800  0.714300  0.824400  1.0  0.1381
  H  H28  1  0.780400  0.223300  0.932200  1.0  0.1185
  H  H29  1  0.893200  0.338400  0.958900  1.0  0.1126
  H  H30  1  0.763900  0.127900  0.007400  1.0  0.1099
  H  H31  1  0.643000  0.537900  0.978300  1.0  0.1343
  H  H32  1  0.581800  0.463400  0.044800  1.0  0.1026
  H  H33  1  0.044200  0.568900  0.241200  1.0  0.1071
  H  H34  1  0.915500  0.916400  0.290800  1.0  0.1069
  H  H35  1  0.850300  0.699900  0.327300  1.0  0.1315
  H  H36  1  0.918000  0.367200  0.276200  1.0  0.1082
  H  H37  1  0.863700  0.421700  0.316000  1.0  0.1103
  H  H38  1  0.044900  0.484900  0.387800  1.0  0.1001
  H  H39  1  0.146000  0.282900  0.290000  1.0  0.1156
  H  H40  1  0.359800  0.219100  0.339000  1.0  0.1096
  H  H41  1  0.417300  0.286200  0.412600  1.0  0.1211
  H  H42  1  0.212300  0.379200  0.469900  1.0  0.1214
  H  H43  1  0.371100  0.394800  0.471200  1.0  0.1209
  H  H44  1  0.166500  0.594400  0.511000  1.0  0.0976
  H  H45  1  0.380000  0.687600  0.427500  1.0  0.1327
  H  H46  1  0.330100  0.911600  0.460600  1.0  0.1141
  H  H47  1  0.993800  0.521700  0.038100  1.0  0.1038
  H  H48  1  0.823900  0.589900  0.156900  1.0  0.0974
  H  H49  1  0.231700  0.445800  0.211500  1.0  0.1032
  H  H50  1  0.405600  0.384200  0.092500  1.0  0.1064
  H  H51  1  0.467700  0.787400  0.248700  1.0  0.1056
  H  H52  1  0.659700  0.512300  0.191400  1.0  0.0961
  H  H53  1  0.605600  0.378900  0.250800  1.0  0.129
  H  H54  1  0.407700  0.624500  0.304700  1.0  0.1242
  H  H55  1  0.393400  0.457700  0.290100  1.0  0.1168
  H  H56  1  0.588800  0.697500  0.368900  1.0  0.1245
  H  H57  1  0.863300  0.406400  0.440200  1.0  0.119
  H  H58  1  0.770600  0.230700  0.387300  1.0  0.1083
  H  H59  1  0.587800  0.285700  0.324400  1.0  0.1367
  H  H60  1  0.780400  0.776700  0.432200  1.0  0.1212
  H  H61  1  0.893200  0.661600  0.458900  1.0  0.1126
  H  H62  1  0.763900  0.872100  0.507400  1.0  0.1095
  H  H63  1  0.643000  0.462100  0.478300  1.0  0.134
  H  H64  1  0.581800  0.536600  0.544800  1.0  0.102
  H  H65  1  0.044200  0.431100  0.741200  1.0  0.1069
  H  H66  1  0.915500  0.083600  0.790800  1.0  0.1066
  H  H67  1  0.850300  0.300100  0.827300  1.0  0.1321
  H  H68  1  0.918000  0.632800  0.776200  1.0  0.1083
  H  H69  1  0.863700  0.578300  0.816000  1.0  0.1103
  H  H70  1  0.044900  0.515100  0.887800  1.0  0.1004
  H  H71  1  0.146000  0.717100  0.790000  1.0  0.1151
  H  H72  1  0.359800  0.780900  0.839000  1.0  0.1094
  H  H73  1  0.417300  0.713800  0.912600  1.0  0.1208
  H  H74  1  0.212300  0.620800  0.969900  1.0  0.1211
  H  H75  1  0.371100  0.605200  0.971200  1.0  0.1212
  H  H76  1  0.166500  0.405600  0.011000  1.0  0.0972
  H  H77  1  0.380000  0.312400  0.927500  1.0  0.1322
  H  H78  1  0.330100  0.088400  0.960600  1.0  0.1134
  C  C79  1  0.871200  0.301500  0.607400  1.0  -0.1663
  C  C80  1  0.925300  0.323200  0.572000  1.0  -0.0883
  C  C81  1  0.962700  0.463100  0.563100  1.0  -0.0649
  C  C82  1  0.956000  0.580200  0.589600  1.0  -0.1339
  C  C83  1  0.905600  0.558400  0.625300  1.0  -0.0228
  C  C84  1  0.861800  0.422500  0.633200  1.0  -0.0885
  C  C85  1  0.946700  0.200900  0.543000  1.0  0.6962
  C  C86  1  0.008000  0.726100  0.581200  1.0  0.6509
  C  C87  1  0.894800  0.671900  0.658900  1.0  0.6967
  C  C88  1  0.356600  0.723600  0.641500  1.0  -0.1556
  C  C89  1  0.302500  0.703400  0.677100  1.0  -0.0868
  C  C90  1  0.263000  0.567200  0.686400  1.0  -0.0767
  C  C91  1  0.267900  0.448200  0.660000  1.0  -0.1365
  C  C92  1  0.321400  0.468000  0.624100  1.0  -0.0551
  C  C93  1  0.366700  0.604000  0.616000  1.0  -0.0867
  C  C94  1  0.284100  0.826100  0.706900  1.0  0.6961
  C  C95  1  0.218100  0.301300  0.668100  1.0  0.6541
  C  C96  1  0.335300  0.352300  0.592100  1.0  0.7001
  C  C97  1  0.507900  0.297900  0.741100  1.0  0.1601
  C  C98  1  0.612300  0.449200  0.710500  1.0  0.0259
  C  C99  1  0.584000  0.522700  0.742900  1.0  -0.1203
  C  C100  1  0.459300  0.460400  0.798800  1.0  -0.0871
  C  C101  1  0.573300  0.499800  0.840200  1.0  0.077
  C  C102  1  0.626500  0.397600  0.872200  1.0  -0.1725
  C  C103  1  0.735200  0.432500  0.909500  1.0  0.0841
  C  C104  1  0.788600  0.569900  0.914800  1.0  -0.1475
  C  C105  1  0.733600  0.673900  0.883300  1.0  -0.0832
  C  C106  1  0.625700  0.641800  0.845800  1.0  -0.1553
  C  C107  1  0.792600  0.321500  0.945300  1.0  -0.0908
  C  C108  1  0.725600  0.221400  0.008400  1.0  0.1202
  C  C109  1  0.659900  0.445800  0.992200  1.0  -0.1068
  C  C110  1  0.626600  0.404100  0.028800  1.0  0.0324
  C  C111  1  0.002800  0.630000  0.257800  1.0  0.1537
  C  C112  1  0.932500  0.818300  0.285000  1.0  0.0152
  C  C113  1  0.896800  0.700100  0.305400  1.0  -0.1277
  C  C114  1  0.938700  0.432600  0.302100  1.0  -0.0544
  C  C115  1  0.074700  0.389600  0.334600  1.0  0.0762
  C  C116  1  0.109200  0.429600  0.377900  1.0  -0.1505
  C  C117  1  0.168600  0.311000  0.320100  1.0  -0.1373
  C  C118  1  0.295500  0.273100  0.349200  1.0  -0.1135
  C  C119  1  0.329700  0.312900  0.392900  1.0  -0.1437
  C  C120  1  0.237500  0.391300  0.408400  1.0  0.1053
  C  C121  1  0.275900  0.430200  0.456500  1.0  -0.0677
  C  C122  1  0.213400  0.646600  0.494000  1.0  0.1577
  C  C123  1  0.329700  0.695600  0.448300  1.0  -0.1338
  C  C124  1  0.302700  0.817500  0.466800  1.0  0.0341
  C  C125  1  0.871200  0.698500  0.107400  1.0  -0.1647
  C  C126  1  0.925300  0.676800  0.072000  1.0  -0.0875
  C  C127  1  0.962700  0.536900  0.063100  1.0  -0.0647
  C  C128  1  0.956000  0.419800  0.089600  1.0  -0.1349
  C  C129  1  0.905600  0.441600  0.125300  1.0  -0.0226
  C  C130  1  0.861800  0.577500  0.133200  1.0  -0.0884
  C  C131  1  0.946700  0.799100  0.043000  1.0  0.6958
  C  C132  1  0.008000  0.273900  0.081200  1.0  0.651
  C  C133  1  0.894800  0.328100  0.158900  1.0  0.6985
  C  C134  1  0.356600  0.276400  0.141500  1.0  -0.1565
  C  C135  1  0.302500  0.296600  0.177100  1.0  -0.089
  C  C136  1  0.263000  0.432800  0.186400  1.0  -0.0766
  C  C137  1  0.267900  0.551800  0.160000  1.0  -0.1361
  C  C138  1  0.321400  0.532000  0.124100  1.0  -0.0544
  C  C139  1  0.366700  0.396000  0.116000  1.0  -0.0865
  C  C140  1  0.284100  0.173900  0.206900  1.0  0.697
  C  C141  1  0.218100  0.698700  0.168100  1.0  0.6542
  C  C142  1  0.335300  0.647700  0.092100  1.0  0.7
  C  C143  1  0.507900  0.702100  0.241100  1.0  0.1627
  C  C144  1  0.612300  0.550800  0.210500  1.0  0.0262
  C  C145  1  0.584000  0.477300  0.242900  1.0  -0.1204
  C  C146  1  0.459300  0.539600  0.298800  1.0  -0.0871
  C  C147  1  0.573300  0.500200  0.340200  1.0  0.0771
  C  C148  1  0.626500  0.602400  0.372200  1.0  -0.1732
  C  C149  1  0.735200  0.567500  0.409500  1.0  0.0841
  C  C150  1  0.788600  0.430100  0.414800  1.0  -0.1469
  C  C151  1  0.733600  0.326100  0.383300  1.0  -0.0893
  C  C152  1  0.625700  0.358200  0.345800  1.0  -0.1539
  C  C153  1  0.792600  0.678500  0.445300  1.0  -0.0916
  C  C154  1  0.725600  0.778600  0.508400  1.0  0.1213
  C  C155  1  0.659900  0.554200  0.492200  1.0  -0.1066
  C  C156  1  0.626600  0.595900  0.528800  1.0  0.0326
  C  C157  1  0.002800  0.370000  0.757800  1.0  0.1538
  C  C158  1  0.932500  0.181700  0.785000  1.0  0.013
  C  C159  1  0.896800  0.299900  0.805400  1.0  -0.128
  C  C160  1  0.938700  0.567400  0.802100  1.0  -0.0544
  C  C161  1  0.074700  0.610400  0.834600  1.0  0.0765
  C  C162  1  0.109200  0.570400  0.877900  1.0  -0.151
  C  C163  1  0.168600  0.689000  0.820100  1.0  -0.1377
  C  C164  1  0.295500  0.726900  0.849200  1.0  -0.1115
  C  C165  1  0.329700  0.687100  0.892900  1.0  -0.144
  C  C166  1  0.237500  0.608700  0.908400  1.0  0.1049
  C  C167  1  0.275900  0.569800  0.956500  1.0  -0.0665
  C  C168  1  0.213400  0.353400  0.994000  1.0  0.158
  C  C169  1  0.329700  0.304400  0.948300  1.0  -0.1338
  C  C170  1  0.302700  0.182500  0.966800  1.0  0.0353
  N  N171  1  0.562300  0.308000  0.708900  1.0  -0.3813
  N  N172  1  0.517000  0.426300  0.762300  1.0  0.0409
  N  N173  1  0.666800  0.265700  0.039000  1.0  -0.3704
  N  N174  1  0.722300  0.329900  0.979200  1.0  0.0522
  N  N175  1  0.997200  0.772300  0.254600  1.0  -0.3507
  N  N176  1  0.942100  0.582600  0.287500  1.0  0.0743
  N  N177  1  0.230100  0.788400  0.495900  1.0  -0.3615
  N  N178  1  0.270600  0.583800  0.465000  1.0  0.0461
  N  N179  1  0.562300  0.692000  0.208900  1.0  -0.3822
  N  N180  1  0.517000  0.573700  0.262300  1.0  0.0411
  N  N181  1  0.666800  0.734300  0.539000  1.0  -0.3707
  N  N182  1  0.722300  0.670100  0.479200  1.0  0.0521
  N  N183  1  0.997200  0.227700  0.754600  1.0  -0.3479
  N  N184  1  0.942100  0.417400  0.787500  1.0  0.0749
  N  N185  1  0.230100  0.211600  0.995900  1.0  -0.3588
  N  N186  1  0.270600  0.416200  0.965000  1.0  0.0464
  O  O187  1  0.756900  0.036300  0.588300  1.0  -0.7752
  O  O188  1  0.739500  0.161100  0.657230  1.0  -0.826
  O  O189  1  0.968500  0.069900  0.655120  1.0  -0.8482
  O  O190  1  0.014900  0.088400  0.560400  1.0  -0.6783
  O  O191  1  0.902900  0.220200  0.501700  1.0  -0.6099
  O  O192  1  0.040600  0.746100  0.546200  1.0  -0.5847
  O  O193  1  0.013500  0.817700  0.610810  1.0  -0.596
  O  O194  1  0.784100  0.751400  0.648700  1.0  -0.6174
  O  O195  1  0.981300  0.669100  0.695700  1.0  -0.5454
  O  O196  1  0.488800  0.863000  0.591900  1.0  -0.8434
  O  O197  1  0.472400  0.987900  0.661190  1.0  -0.7885
  O  O198  1  0.259500  0.956200  0.594300  1.0  -0.8619
  O  O199  1  0.216400  0.938900  0.689500  1.0  -0.6898
  O  O200  1  0.334900  0.808800  0.747100  1.0  -0.5617
  O  O201  1  0.180300  0.284800  0.702240  1.0  -0.5886
  O  O202  1  0.217600  0.206700  0.640600  1.0  -0.5833
  O  O203  1  0.444100  0.275000  0.601700  1.0  -0.6083
  O  O204  1  0.247400  0.350300  0.555000  1.0  -0.5425
  O  O205  1  0.756900  0.963700  0.088300  1.0  -0.7752
  O  O206  1  0.739500  0.838900  0.157230  1.0  -0.8273
  O  O207  1  0.968500  0.930100  0.155120  1.0  -0.8482
  O  O208  1  0.014900  0.911600  0.060400  1.0  -0.6785
  O  O209  1  0.902900  0.779800  0.001700  1.0  -0.6125
  O  O210  1  0.040600  0.253900  0.046200  1.0  -0.5843
  O  O211  1  0.013500  0.182300  0.110810  1.0  -0.5956
  O  O212  1  0.784100  0.248600  0.148700  1.0  -0.6165
  O  O213  1  0.981300  0.330900  0.195700  1.0  -0.5449
  O  O214  1  0.488800  0.137000  0.091900  1.0  -0.8423
  O  O215  1  0.472400  0.012100  0.161190  1.0  -0.7884
  O  O216  1  0.259500  0.043800  0.094300  1.0  -0.8619
  O  O217  1  0.216400  0.061100  0.189500  1.0  -0.6888
  O  O218  1  0.334900  0.191200  0.247100  1.0  -0.5633
  O  O219  1  0.180300  0.715200  0.202240  1.0  -0.5887
  O  O220  1  0.217600  0.793300  0.140600  1.0  -0.5833
  O  O221  1  0.444100  0.725000  0.101700  1.0  -0.6081
  O  O222  1  0.247400  0.649700  0.055000  1.0  -0.5427
