# generated using pymatgen
data_Co5P2H32C46(N4O9)2
_symmetry_space_group_name_H-M   'P 1'
_cell_length_a   9.24700000
_cell_length_b   9.97000000
_cell_length_c   15.02500000
_cell_angle_alpha   100.15100000
_cell_angle_beta   91.37200000
_cell_angle_gamma   91.77600000
_symmetry_Int_Tables_number   1
_chemical_formula_structural   Co5P2H32C46(N4O9)2
_chemical_formula_sum   'Co5 P2 H32 C46 N8 O18'
_cell_volume   1362.24697334
_cell_formula_units_Z   1
loop_
 _symmetry_equiv_pos_site_id
 _symmetry_equiv_pos_as_xyz
  1  'x, y, z'
loop_
 _atom_site_type_symbol
 _atom_site_label
 _atom_site_symmetry_multiplicity
 _atom_site_fract_x
 _atom_site_fract_y
 _atom_site_fract_z
 _atom_site_occupancy
 _atom_site_charge
  Co  Co1  1  0.067920  0.843950  0.806530  1.0  0.9252
  Co  Co2  1  0.829370  0.613310  0.062520  1.0  0.9874
  Co  Co3  1  0.932080  0.156050  0.193470  1.0  0.9246
  Co  Co4  1  0.170630  0.386690  0.937480  1.0  0.9901
  Co  Co5  1  0.000000  0.000000  0.000000  1.0  1.0681
  P  P6  1  0.113770  0.710190  0.993830  1.0  1.5194
  P  P7  1  0.886230  0.289810  0.006170  1.0  1.5212
  H  H8  1  0.473000  0.009200  0.177900  1.0  0.0936
  H  H9  1  0.384800  0.661700  0.932400  1.0  0.1053
  H  H10  1  0.834100  0.826200  0.247100  1.0  0.1025
  H  H11  1  0.516400  0.568000  0.140700  1.0  0.1066
  H  H12  1  0.420500  0.718100  0.272600  1.0  0.1256
  H  H13  1  0.537700  0.974700  0.362300  1.0  0.1013
  H  H14  1  0.710300  0.972900  0.375700  1.0  0.1153
  H  H15  1  0.383000  0.830500  0.438100  1.0  0.1169
  H  H16  1  0.351900  0.694400  0.547300  1.0  0.1026
  H  H17  1  0.784000  0.719600  0.600800  1.0  0.1263
  H  H18  1  0.813000  0.849000  0.487900  1.0  0.1168
  H  H19  1  0.569700  0.505400  0.625400  1.0  0.0987
  H  H20  1  0.613100  0.630800  0.704600  1.0  0.1087
  H  H21  1  0.395100  0.781500  0.770200  1.0  0.0996
  H  H22  1  0.291800  0.427300  0.610100  1.0  0.1114
  H  H23  1  0.071300  0.524300  0.678000  1.0  0.0989
  H  H24  1  0.527000  0.990800  0.822100  1.0  0.0935
  H  H25  1  0.615200  0.338300  0.067600  1.0  0.1046
  H  H26  1  0.165900  0.173800  0.752900  1.0  0.1031
  H  H27  1  0.483600  0.432000  0.859300  1.0  0.1066
  H  H28  1  0.579500  0.281900  0.727400  1.0  0.1253
  H  H29  1  0.462300  0.025300  0.637700  1.0  0.1018
  H  H30  1  0.289700  0.027100  0.624300  1.0  0.116
  H  H31  1  0.617000  0.169500  0.561900  1.0  0.1154
  H  H32  1  0.648100  0.305600  0.452700  1.0  0.1023
  H  H33  1  0.216000  0.280400  0.399200  1.0  0.1259
  H  H34  1  0.187000  0.151000  0.512100  1.0  0.1157
  H  H35  1  0.430300  0.494600  0.374600  1.0  0.0987
  H  H36  1  0.386900  0.369200  0.295400  1.0  0.1091
  H  H37  1  0.604900  0.218500  0.229800  1.0  0.099
  H  H38  1  0.708200  0.572700  0.389900  1.0  0.1126
  H  H39  1  0.928700  0.475700  0.322000  1.0  0.0991
  C  C40  1  0.286800  0.783900  0.034300  1.0  -0.166
  C  C41  1  0.312000  0.891000  0.107900  1.0  -0.0616
  C  C42  1  0.453600  0.940600  0.126100  1.0  -0.0815
  C  C43  1  0.567700  0.895000  0.072400  1.0  -0.1215
  C  C44  1  0.541200  0.789300  0.998900  1.0  -0.065
  C  C45  1  0.402300  0.734900  0.981600  1.0  -0.104
  C  C46  1  0.194300  0.952800  0.168500  1.0  0.7068
  C  C47  1  0.717100  0.957100  0.089000  1.0  0.6694
  C  C48  1  0.649800  0.729000  0.932000  1.0  0.6883
  C  C49  1  0.742300  0.779900  0.236500  1.0  0.1415
  C  C50  1  0.569100  0.639900  0.179100  1.0  0.004
  C  C51  1  0.516000  0.721500  0.251100  1.0  -0.1202
  C  C52  1  0.620100  0.915500  0.368300  1.0  -0.0605
  C  C53  1  0.601600  0.847800  0.449900  1.0  0.0389
  C  C54  1  0.465000  0.805100  0.469800  1.0  -0.1518
  C  C55  1  0.446500  0.725500  0.535400  1.0  -0.1015
  C  C56  1  0.563600  0.690800  0.583900  1.0  0.0998
  C  C57  1  0.702200  0.739600  0.566600  1.0  -0.1333
  C  C58  1  0.719000  0.816700  0.499800  1.0  -0.0978
  C  C59  1  0.545300  0.599400  0.652600  1.0  -0.0574
  C  C60  1  0.340600  0.704400  0.739000  1.0  0.1525
  C  C61  1  0.285900  0.510700  0.651300  1.0  -0.1302
  C  C62  1  0.165900  0.564800  0.688400  1.0  0.0225
  C  C63  1  0.713200  0.216100  0.965700  1.0  -0.1675
  C  C64  1  0.688000  0.109000  0.892100  1.0  -0.0612
  C  C65  1  0.546400  0.059400  0.873900  1.0  -0.082
  C  C66  1  0.432300  0.105000  0.927600  1.0  -0.1226
  C  C67  1  0.458800  0.210700  0.001100  1.0  -0.0659
  C  C68  1  0.597700  0.265100  0.018400  1.0  -0.1057
  C  C69  1  0.805700  0.047200  0.831500  1.0  0.7068
  C  C70  1  0.282900  0.042900  0.911000  1.0  0.6665
  C  C71  1  0.350200  0.271000  0.068000  1.0  0.6884
  C  C72  1  0.257700  0.220100  0.763500  1.0  0.1404
  C  C73  1  0.430900  0.360100  0.820900  1.0  0.0047
  C  C74  1  0.484000  0.278500  0.748900  1.0  -0.1193
  C  C75  1  0.379900  0.084500  0.631700  1.0  -0.0607
  C  C76  1  0.398400  0.152200  0.550100  1.0  0.0378
  C  C77  1  0.535000  0.194900  0.530200  1.0  -0.1532
  C  C78  1  0.553500  0.274500  0.464600  1.0  -0.1035
  C  C79  1  0.436400  0.309200  0.416100  1.0  0.0986
  C  C80  1  0.297800  0.260400  0.433400  1.0  -0.1342
  C  C81  1  0.281000  0.183300  0.500200  1.0  -0.0957
  C  C82  1  0.454700  0.400600  0.347400  1.0  -0.0557
  C  C83  1  0.659400  0.295600  0.261000  1.0  0.1556
  C  C84  1  0.714100  0.489300  0.348700  1.0  -0.1269
  C  C85  1  0.834100  0.435200  0.311600  1.0  0.0225
  N  N86  1  0.711400  0.677300  0.170000  1.0  -0.3837
  N  N87  1  0.626400  0.809900  0.287100  1.0  0.0464
  N  N88  1  0.397800  0.599000  0.684400  1.0  0.0595
  N  N89  1  0.199700  0.687300  0.743500  1.0  -0.3891
  N  N90  1  0.288600  0.322700  0.830000  1.0  -0.3816
  N  N91  1  0.373600  0.190100  0.712900  1.0  0.0464
  N  N92  1  0.602200  0.401000  0.315600  1.0  0.0606
  N  N93  1  0.800300  0.312700  0.256500  1.0  -0.3856
  O  O94  1  0.138700  0.575500  0.934370  1.0  -0.8461
  O  O95  1  0.050800  0.808200  0.938050  1.0  -0.8368
  O  O96  1  0.023200  0.697100  0.075600  1.0  -0.7869
  O  O97  1  0.084000  0.997600  0.132070  1.0  -0.6973
  O  O98  1  0.213600  0.963300  0.251200  1.0  -0.5616
  O  O99  1  0.743200  0.044800  0.159500  1.0  -0.6024
  O  O100  1  0.806800  0.915300  0.031190  1.0  -0.5908
  O  O101  1  0.724500  0.629700  0.950980  1.0  -0.6201
  O  O102  1  0.649300  0.762100  0.857260  1.0  -0.559
  O  O103  1  0.861300  0.424500  0.065630  1.0  -0.8478
  O  O104  1  0.949200  0.191800  0.061950  1.0  -0.8382
  O  O105  1  0.976800  0.302900  0.924400  1.0  -0.7883
  O  O106  1  0.916000  0.002400  0.867930  1.0  -0.6977
  O  O107  1  0.786400  0.036700  0.748800  1.0  -0.5614
  O  O108  1  0.256800  0.955200  0.840500  1.0  -0.603
  O  O109  1  0.193200  0.084700  0.968810  1.0  -0.5925
  O  O110  1  0.275500  0.370300  0.049020  1.0  -0.6183
  O  O111  1  0.350700  0.237900  0.142740  1.0  -0.5581
