# generated using pymatgen
data_NdH4C5O6
_symmetry_space_group_name_H-M   'P 1'
_cell_length_a   9.68270000
_cell_length_b   27.68600000
_cell_length_c   9.10500000
_cell_angle_alpha   90.00000000
_cell_angle_beta   121.79400000
_cell_angle_gamma   90.00000000
_symmetry_Int_Tables_number   1
_chemical_formula_structural   NdH4C5O6
_chemical_formula_sum   'Nd8 H32 C40 O48'
_cell_volume   2074.57400306
_cell_formula_units_Z   8
loop_
 _symmetry_equiv_pos_site_id
 _symmetry_equiv_pos_as_xyz
  1  'x, y, z'
loop_
 _atom_site_type_symbol
 _atom_site_label
 _atom_site_symmetry_multiplicity
 _atom_site_fract_x
 _atom_site_fract_y
 _atom_site_fract_z
 _atom_site_occupancy
 _atom_site_charge
  Nd  Nd1  1  0.974320  0.509160  0.998730  1.0  2.2722
  Nd  Nd2  1  0.992000  0.741040  0.997350  1.0  2.2697
  Nd  Nd3  1  0.474320  0.009160  0.998730  1.0  2.2722
  Nd  Nd4  1  0.492000  0.241040  0.997350  1.0  2.2697
  Nd  Nd5  1  0.974320  0.490840  0.498730  1.0  2.2714
  Nd  Nd6  1  0.992000  0.258960  0.497350  1.0  2.2699
  Nd  Nd7  1  0.474320  0.990840  0.498730  1.0  2.2714
  Nd  Nd8  1  0.492000  0.758960  0.497350  1.0  2.2699
  H  H9  1  0.385500  0.478500  0.333000  1.0  0.0952
  H  H10  1  0.379500  0.423400  0.381600  1.0  0.1002
  H  H11  1  0.567800  0.435100  0.663900  1.0  0.1263
  H  H12  1  0.541600  0.492300  0.649900  1.0  0.1073
  H  H13  1  0.927700  0.812700  0.340800  1.0  0.1359
  H  H14  1  0.924200  0.756100  0.369300  1.0  0.1133
  H  H15  1  0.073400  0.776500  0.676500  1.0  0.1051
  H  H16  1  0.008000  0.829900  0.610100  1.0  0.101
  H  H17  1  0.885500  0.978500  0.333000  1.0  0.0952
  H  H18  1  0.879500  0.923400  0.381600  1.0  0.1002
  H  H19  1  0.067800  0.935100  0.663900  1.0  0.1263
  H  H20  1  0.041600  0.992300  0.649900  1.0  0.1073
  H  H21  1  0.427700  0.312700  0.340800  1.0  0.1359
  H  H22  1  0.424200  0.256100  0.369300  1.0  0.1133
  H  H23  1  0.573400  0.276500  0.676500  1.0  0.1051
  H  H24  1  0.508000  0.329900  0.610100  1.0  0.101
  H  H25  1  0.385500  0.521500  0.833000  1.0  0.0953
  H  H26  1  0.379500  0.576600  0.881600  1.0  0.1036
  H  H27  1  0.567800  0.564900  0.163900  1.0  0.125
  H  H28  1  0.541600  0.507700  0.149900  1.0  0.1089
  H  H29  1  0.927700  0.187300  0.840800  1.0  0.1354
  H  H30  1  0.924200  0.243900  0.869300  1.0  0.1127
  H  H31  1  0.073400  0.223500  0.176500  1.0  0.1044
  H  H32  1  0.008000  0.170100  0.110100  1.0  0.0989
  H  H33  1  0.885500  0.021500  0.833000  1.0  0.0953
  H  H34  1  0.879500  0.076600  0.881600  1.0  0.1036
  H  H35  1  0.067800  0.064900  0.163900  1.0  0.125
  H  H36  1  0.041600  0.007700  0.149900  1.0  0.1089
  H  H37  1  0.427700  0.687300  0.840800  1.0  0.1354
  H  H38  1  0.424200  0.743900  0.869300  1.0  0.1127
  H  H39  1  0.573400  0.723500  0.176500  1.0  0.1044
  H  H40  1  0.508000  0.670100  0.110100  1.0  0.0989
  C  C41  1  0.252000  0.467400  0.433000  1.0  0.7411
  C  C42  1  0.388000  0.457200  0.421000  1.0  -0.2353
  C  C43  1  0.549000  0.463600  0.590000  1.0  -0.3527
  C  C44  1  0.701000  0.469900  0.567000  1.0  0.6574
  C  C45  1  0.934000  0.625400  0.904000  1.0  0.569
  C  C46  1  0.035000  0.624900  0.106000  1.0  0.5768
  C  C47  1  0.147000  0.780400  0.432000  1.0  0.6817
  C  C48  1  0.988000  0.786000  0.422000  1.0  -0.342
  C  C49  1  0.985000  0.795300  0.580000  1.0  -0.2307
  C  C50  1  0.836000  0.783400  0.566000  1.0  0.7186
  C  C51  1  0.752000  0.967400  0.433000  1.0  0.7411
  C  C52  1  0.888000  0.957200  0.421000  1.0  -0.2353
  C  C53  1  0.049000  0.963600  0.590000  1.0  -0.3527
  C  C54  1  0.201000  0.969900  0.567000  1.0  0.6574
  C  C55  1  0.434000  0.125400  0.904000  1.0  0.569
  C  C56  1  0.535000  0.124900  0.106000  1.0  0.5768
  C  C57  1  0.647000  0.280400  0.432000  1.0  0.6817
  C  C58  1  0.488000  0.286000  0.422000  1.0  -0.342
  C  C59  1  0.485000  0.295300  0.580000  1.0  -0.2307
  C  C60  1  0.336000  0.283400  0.566000  1.0  0.7186
  C  C61  1  0.252000  0.532600  0.933000  1.0  0.7413
  C  C62  1  0.388000  0.542800  0.921000  1.0  -0.235
  C  C63  1  0.549000  0.536400  0.090000  1.0  -0.3528
  C  C64  1  0.701000  0.530100  0.067000  1.0  0.6573
  C  C65  1  0.934000  0.374600  0.404000  1.0  0.569
  C  C66  1  0.035000  0.375100  0.606000  1.0  0.5769
  C  C67  1  0.147000  0.219600  0.932000  1.0  0.6818
  C  C68  1  0.988000  0.214000  0.922000  1.0  -0.342
  C  C69  1  0.985000  0.204700  0.080000  1.0  -0.2311
  C  C70  1  0.836000  0.216600  0.066000  1.0  0.7189
  C  C71  1  0.752000  0.032600  0.933000  1.0  0.7413
  C  C72  1  0.888000  0.042800  0.921000  1.0  -0.235
  C  C73  1  0.049000  0.036400  0.090000  1.0  -0.3528
  C  C74  1  0.201000  0.030100  0.067000  1.0  0.6573
  C  C75  1  0.434000  0.874600  0.404000  1.0  0.569
  C  C76  1  0.535000  0.875100  0.606000  1.0  0.5769
  C  C77  1  0.647000  0.719600  0.932000  1.0  0.6818
  C  C78  1  0.488000  0.714000  0.922000  1.0  -0.342
  C  C79  1  0.485000  0.704700  0.080000  1.0  -0.2311
  C  C80  1  0.336000  0.716600  0.066000  1.0  0.7189
  O  O81  1  0.124000  0.483300  0.299000  1.0  -0.8042
  O  O82  1  0.261000  0.461500  0.570000  1.0  -0.6115
  O  O83  1  0.825000  0.483900  0.697000  1.0  -0.7344
  O  O84  1  0.700000  0.460100  0.429000  1.0  -0.7133
  O  O85  1  0.906000  0.583700  0.826000  1.0  -0.6227
  O  O86  1  0.059000  0.586100  0.172000  1.0  -0.5868
  O  O87  1  0.894000  0.666200  0.826000  1.0  -0.6169
  O  O88  1  0.086000  0.664600  0.173000  1.0  -0.6074
  O  O89  1  0.146000  0.766600  0.299000  1.0  -0.8452
  O  O90  1  0.287000  0.791400  0.569000  1.0  -0.6507
  O  O91  1  0.706000  0.790200  0.429000  1.0  -0.635
  O  O92  1  0.844000  0.765300  0.697000  1.0  -0.7829
  O  O93  1  0.624000  0.983300  0.299000  1.0  -0.8042
  O  O94  1  0.761000  0.961500  0.570000  1.0  -0.6115
  O  O95  1  0.325000  0.983900  0.697000  1.0  -0.7344
  O  O96  1  0.200000  0.960100  0.429000  1.0  -0.7133
  O  O97  1  0.406000  0.083700  0.826000  1.0  -0.6227
  O  O98  1  0.559000  0.086100  0.172000  1.0  -0.5868
  O  O99  1  0.394000  0.166200  0.826000  1.0  -0.6169
  O  O100  1  0.586000  0.164600  0.173000  1.0  -0.6074
  O  O101  1  0.646000  0.266600  0.299000  1.0  -0.8452
  O  O102  1  0.787000  0.291400  0.569000  1.0  -0.6507
  O  O103  1  0.206000  0.290200  0.429000  1.0  -0.635
  O  O104  1  0.344000  0.265300  0.697000  1.0  -0.7829
  O  O105  1  0.124000  0.516700  0.799000  1.0  -0.805
  O  O106  1  0.261000  0.538500  0.070000  1.0  -0.6105
  O  O107  1  0.825000  0.516100  0.197000  1.0  -0.7343
  O  O108  1  0.700000  0.539900  0.929000  1.0  -0.7126
  O  O109  1  0.906000  0.416300  0.326000  1.0  -0.6208
  O  O110  1  0.059000  0.413900  0.672000  1.0  -0.5874
  O  O111  1  0.894000  0.333800  0.326000  1.0  -0.618
  O  O112  1  0.086000  0.335400  0.673000  1.0  -0.6075
  O  O113  1  0.146000  0.233400  0.799000  1.0  -0.8442
  O  O114  1  0.287000  0.208600  0.069000  1.0  -0.6506
  O  O115  1  0.706000  0.209800  0.929000  1.0  -0.636
  O  O116  1  0.844000  0.234700  0.197000  1.0  -0.7826
  O  O117  1  0.624000  0.016700  0.799000  1.0  -0.805
  O  O118  1  0.761000  0.038500  0.070000  1.0  -0.6105
  O  O119  1  0.325000  0.016100  0.197000  1.0  -0.7343
  O  O120  1  0.200000  0.039900  0.929000  1.0  -0.7126
  O  O121  1  0.406000  0.916300  0.326000  1.0  -0.6208
  O  O122  1  0.559000  0.913900  0.672000  1.0  -0.5874
  O  O123  1  0.394000  0.833800  0.326000  1.0  -0.618
  O  O124  1  0.586000  0.835400  0.673000  1.0  -0.6075
  O  O125  1  0.646000  0.733400  0.799000  1.0  -0.8442
  O  O126  1  0.787000  0.708600  0.069000  1.0  -0.6506
  O  O127  1  0.206000  0.709800  0.929000  1.0  -0.636
  O  O128  1  0.344000  0.734700  0.197000  1.0  -0.7826
