# generated using pymatgen
data_VH4C8O5
_symmetry_space_group_name_H-M   'P 1'
_cell_length_a   6.79800000
_cell_length_b   13.28500000
_cell_length_c   16.45700000
_cell_angle_alpha   90.00000000
_cell_angle_beta   90.00000000
_cell_angle_gamma   90.00000000
_symmetry_Int_Tables_number   1
_chemical_formula_structural   VH4C8O5
_chemical_formula_sum   'V4 H16 C32 O20'
_cell_volume   1486.25520351
_cell_formula_units_Z   4
loop_
 _symmetry_equiv_pos_site_id
 _symmetry_equiv_pos_as_xyz
  1  'x, y, z'
loop_
 _atom_site_type_symbol
 _atom_site_label
 _atom_site_symmetry_multiplicity
 _atom_site_fract_x
 _atom_site_fract_y
 _atom_site_fract_z
 _atom_site_occupancy
 _atom_site_charge
  V  V1  1  0.064090  0.735090  0.001420  1.0  1.882
  V  V2  1  0.435910  0.264910  0.501420  1.0  1.8821
  V  V3  1  0.935910  0.235090  0.498580  1.0  1.8824
  V  V4  1  0.564090  0.764910  0.998580  1.0  1.8825
  H  H5  1  0.049300  0.502300  0.831100  1.0  0.1067
  H  H6  1  0.464400  0.539600  0.824800  1.0  0.1045
  H  H7  1  0.444400  0.437500  0.712200  1.0  0.1068
  H  H8  1  0.030900  0.394700  0.720200  1.0  0.11
  H  H9  1  0.450700  0.497700  0.331100  1.0  0.1065
  H  H10  1  0.035600  0.460400  0.324800  1.0  0.105
  H  H11  1  0.055600  0.562500  0.212200  1.0  0.1068
  H  H12  1  0.469100  0.605300  0.220200  1.0  0.1099
  H  H13  1  0.950700  0.002300  0.668900  1.0  0.1072
  H  H14  1  0.535600  0.039600  0.675200  1.0  0.1049
  H  H15  1  0.555600  0.937500  0.787800  1.0  0.1065
  H  H16  1  0.969100  0.894700  0.779800  1.0  0.1096
  H  H17  1  0.549300  0.997700  0.168900  1.0  0.1071
  H  H18  1  0.964400  0.960400  0.175200  1.0  0.105
  H  H19  1  0.944400  0.062500  0.287800  1.0  0.1064
  H  H20  1  0.530900  0.105300  0.279800  1.0  0.1102
  C  C21  1  0.774700  0.609500  0.904500  1.0  0.7148
  C  C22  1  0.759200  0.534900  0.836500  1.0  -0.1277
  C  C23  1  0.928600  0.489700  0.806500  1.0  -0.0468
  C  C24  1  0.578400  0.512600  0.802400  1.0  -0.0473
  C  C25  1  0.566200  0.450700  0.735600  1.0  -0.0567
  C  C26  1  0.917700  0.425500  0.739900  1.0  -0.0391
  C  C27  1  0.737000  0.407500  0.702600  1.0  -0.1358
  C  C28  1  0.725800  0.345800  0.627400  1.0  0.7289
  C  C29  1  0.725300  0.390500  0.404500  1.0  0.7145
  C  C30  1  0.740800  0.465100  0.336500  1.0  -0.1272
  C  C31  1  0.571400  0.510300  0.306500  1.0  -0.0465
  C  C32  1  0.921600  0.487400  0.302400  1.0  -0.0474
  C  C33  1  0.933800  0.549300  0.235600  1.0  -0.0577
  C  C34  1  0.582300  0.574500  0.239900  1.0  -0.0405
  C  C35  1  0.763000  0.592500  0.202600  1.0  -0.1357
  C  C36  1  0.774200  0.654200  0.127400  1.0  0.7293
  C  C37  1  0.225300  0.109500  0.595500  1.0  0.7147
  C  C38  1  0.240800  0.034900  0.663500  1.0  -0.128
  C  C39  1  0.071400  0.989700  0.693500  1.0  -0.047
  C  C40  1  0.421600  0.012600  0.697600  1.0  -0.0482
  C  C41  1  0.433800  0.950700  0.764400  1.0  -0.0579
  C  C42  1  0.082300  0.925500  0.760100  1.0  -0.04
  C  C43  1  0.263000  0.907500  0.797400  1.0  -0.135
  C  C44  1  0.274200  0.845800  0.872600  1.0  0.7288
  C  C45  1  0.274700  0.890500  0.095500  1.0  0.7146
  C  C46  1  0.259200  0.965100  0.163500  1.0  -0.128
  C  C47  1  0.428600  0.010300  0.193500  1.0  -0.0468
  C  C48  1  0.078400  0.987400  0.197600  1.0  -0.0475
  C  C49  1  0.066200  0.049300  0.264400  1.0  -0.0567
  C  C50  1  0.417700  0.074500  0.260100  1.0  -0.04
  C  C51  1  0.237000  0.092500  0.297400  1.0  -0.1352
  C  C52  1  0.225800  0.154200  0.372600  1.0  0.7292
  O  O53  1  0.283700  0.689600  0.009600  1.0  -0.782
  O  O54  1  0.883400  0.313800  0.598500  1.0  -0.6093
  O  O55  1  0.614600  0.646400  0.929400  1.0  -0.6209
  O  O56  1  0.556600  0.330700  0.598200  1.0  -0.6494
  O  O57  1  0.944200  0.632000  0.929800  1.0  -0.6371
  O  O58  1  0.216300  0.310400  0.509600  1.0  -0.7818
  O  O59  1  0.616600  0.686200  0.098500  1.0  -0.6089
  O  O60  1  0.885400  0.353600  0.429400  1.0  -0.6219
  O  O61  1  0.943400  0.669300  0.098200  1.0  -0.6489
  O  O62  1  0.555800  0.368000  0.429800  1.0  -0.6383
  O  O63  1  0.716300  0.189600  0.490400  1.0  -0.7822
  O  O64  1  0.116600  0.813800  0.901500  1.0  -0.609
  O  O65  1  0.385400  0.146400  0.570600  1.0  -0.6219
  O  O66  1  0.443400  0.830700  0.901800  1.0  -0.6493
  O  O67  1  0.055800  0.132000  0.570200  1.0  -0.6383
  O  O68  1  0.783700  0.810400  0.990400  1.0  -0.7812
  O  O69  1  0.383400  0.186200  0.401500  1.0  -0.609
  O  O70  1  0.114600  0.853600  0.070600  1.0  -0.6214
  O  O71  1  0.056600  0.169300  0.401800  1.0  -0.6492
  O  O72  1  0.444200  0.868000  0.070200  1.0  -0.6378
