# generated using pymatgen
data_VH4C8O5
_symmetry_space_group_name_H-M   'P 1'
_cell_length_a   6.82230000
_cell_length_b   15.26890000
_cell_length_c   14.91090000
_cell_angle_alpha   90.00000000
_cell_angle_beta   90.00000000
_cell_angle_gamma   90.00000000
_symmetry_Int_Tables_number   1
_chemical_formula_structural   VH4C8O5
_chemical_formula_sum   'V4 H16 C32 O20'
_cell_volume   1553.25378768
_cell_formula_units_Z   4
loop_
 _symmetry_equiv_pos_site_id
 _symmetry_equiv_pos_as_xyz
  1  'x, y, z'
loop_
 _atom_site_type_symbol
 _atom_site_label
 _atom_site_symmetry_multiplicity
 _atom_site_fract_x
 _atom_site_fract_y
 _atom_site_fract_z
 _atom_site_occupancy
 _atom_site_charge
  V  V1  1  0.187820  0.250000  0.762020  1.0  1.918
  V  V2  1  0.312180  0.750000  0.262020  1.0  1.9176
  V  V3  1  0.812180  0.750000  0.237980  1.0  1.9183
  V  V4  1  0.687820  0.250000  0.737980  1.0  1.9188
  H  H5  1  0.783700  0.445100  0.935600  1.0  0.1078
  H  H6  1  0.803900  0.551200  0.045800  1.0  0.1063
  H  H7  1  0.716300  0.554900  0.435600  1.0  0.1075
  H  H8  1  0.696100  0.448800  0.545800  1.0  0.106
  H  H9  1  0.216300  0.945100  0.064400  1.0  0.1077
  H  H10  1  0.196100  0.051200  0.954200  1.0  0.1064
  H  H11  1  0.283700  0.054900  0.564400  1.0  0.1075
  H  H12  1  0.303900  0.948800  0.454200  1.0  0.1064
  H  H13  1  0.216300  0.554900  0.064400  1.0  0.1072
  H  H14  1  0.196100  0.448800  0.954200  1.0  0.1062
  H  H15  1  0.283700  0.445100  0.564400  1.0  0.1079
  H  H16  1  0.303900  0.551200  0.454200  1.0  0.1064
  H  H17  1  0.783700  0.054900  0.935600  1.0  0.1076
  H  H18  1  0.803900  0.948800  0.045800  1.0  0.1063
  H  H19  1  0.716300  0.945100  0.435600  1.0  0.1076
  H  H20  1  0.696100  0.051200  0.545800  1.0  0.1061
  C  C21  1  0.476000  0.367970  0.862100  1.0  0.7252
  C  C22  1  0.488200  0.436810  0.933320  1.0  -0.1279
  C  C23  1  0.669900  0.467280  0.961380  1.0  -0.0548
  C  C24  1  0.682100  0.530520  0.027520  1.0  -0.0495
  C  C25  1  0.024000  0.632030  0.362100  1.0  0.725
  C  C26  1  0.011800  0.563190  0.433320  1.0  -0.1278
  C  C27  1  0.830100  0.532720  0.461380  1.0  -0.0549
  C  C28  1  0.817900  0.469480  0.527520  1.0  -0.0501
  C  C29  1  0.524000  0.867970  0.137900  1.0  0.7251
  C  C30  1  0.511800  0.936810  0.066680  1.0  -0.1276
  C  C31  1  0.330100  0.967280  0.038620  1.0  -0.0544
  C  C32  1  0.317900  0.030520  0.972480  1.0  -0.0506
  C  C33  1  0.976000  0.132030  0.637900  1.0  0.7246
  C  C34  1  0.988200  0.063190  0.566680  1.0  -0.1278
  C  C35  1  0.169900  0.032720  0.538620  1.0  -0.0542
  C  C36  1  0.182100  0.969480  0.472480  1.0  -0.0501
  C  C37  1  0.524000  0.632030  0.137900  1.0  0.7245
  C  C38  1  0.511800  0.563190  0.066680  1.0  -0.1278
  C  C39  1  0.330100  0.532720  0.038620  1.0  -0.0546
  C  C40  1  0.317900  0.469480  0.972480  1.0  -0.0506
  C  C41  1  0.976000  0.367970  0.637900  1.0  0.7248
  C  C42  1  0.988200  0.436810  0.566680  1.0  -0.1277
  C  C43  1  0.169900  0.467280  0.538620  1.0  -0.0542
  C  C44  1  0.182100  0.530520  0.472480  1.0  -0.05
  C  C45  1  0.476000  0.132030  0.862100  1.0  0.7248
  C  C46  1  0.488200  0.063190  0.933320  1.0  -0.1279
  C  C47  1  0.669900  0.032720  0.961380  1.0  -0.0546
  C  C48  1  0.682100  0.969480  0.027520  1.0  -0.0495
  C  C49  1  0.024000  0.867970  0.362100  1.0  0.7252
  C  C50  1  0.011800  0.936810  0.433320  1.0  -0.1278
  C  C51  1  0.830100  0.967280  0.461380  1.0  -0.055
  C  C52  1  0.817900  0.030520  0.527520  1.0  -0.0503
  O  O53  1  0.635400  0.341480  0.829310  1.0  -0.6233
  O  O54  1  0.308100  0.341590  0.840200  1.0  -0.6521
  O  O55  1  0.864600  0.658520  0.329310  1.0  -0.6236
  O  O56  1  0.191900  0.658410  0.340200  1.0  -0.6518
  O  O57  1  0.364600  0.841480  0.170690  1.0  -0.6231
  O  O58  1  0.691900  0.841590  0.159800  1.0  -0.6516
  O  O59  1  0.135400  0.158520  0.670690  1.0  -0.6231
  O  O60  1  0.808100  0.158410  0.659800  1.0  -0.6521
  O  O61  1  0.364600  0.658520  0.170690  1.0  -0.6233
  O  O62  1  0.691900  0.658410  0.159800  1.0  -0.6516
  O  O63  1  0.135400  0.341480  0.670690  1.0  -0.6232
  O  O64  1  0.808100  0.341590  0.659800  1.0  -0.6521
  O  O65  1  0.635400  0.158520  0.829310  1.0  -0.6234
  O  O66  1  0.308100  0.158410  0.840200  1.0  -0.6522
  O  O67  1  0.864600  0.841480  0.329310  1.0  -0.6234
  O  O68  1  0.191900  0.841590  0.340200  1.0  -0.6518
  O  O69  1  0.970000  0.250000  0.804870  1.0  -0.7825
  O  O70  1  0.530000  0.750000  0.304870  1.0  -0.7819
  O  O71  1  0.030000  0.750000  0.195130  1.0  -0.7784
  O  O72  1  0.470000  0.250000  0.695130  1.0  -0.7789
