# generated using pymatgen
data_VH4C8O5
_symmetry_space_group_name_H-M   'P 1'
_cell_length_a   6.79990000
_cell_length_b   12.70020000
_cell_length_c   16.68020000
_cell_angle_alpha   90.00000000
_cell_angle_beta   90.00000000
_cell_angle_gamma   90.00000000
_symmetry_Int_Tables_number   1
_chemical_formula_structural   VH4C8O5
_chemical_formula_sum   'V4 H16 C32 O20'
_cell_volume   1440.50357288
_cell_formula_units_Z   4
loop_
 _symmetry_equiv_pos_site_id
 _symmetry_equiv_pos_as_xyz
  1  'x, y, z'
loop_
 _atom_site_type_symbol
 _atom_site_label
 _atom_site_symmetry_multiplicity
 _atom_site_fract_x
 _atom_site_fract_y
 _atom_site_fract_z
 _atom_site_occupancy
 _atom_site_charge
  V  V1  1  0.063500  0.765920  0.001840  1.0  1.8774
  V  V2  1  0.436500  0.234080  0.501840  1.0  1.8772
  V  V3  1  0.936500  0.265920  0.498160  1.0  1.8774
  V  V4  1  0.563500  0.734080  0.998160  1.0  1.8776
  H  H5  1  0.463400  0.971300  0.831300  1.0  0.1082
  H  H6  1  0.445200  0.074400  0.717400  1.0  0.1051
  H  H7  1  0.049000  0.016900  0.839000  1.0  0.1089
  H  H8  1  0.028300  0.120700  0.724900  1.0  0.108
  H  H9  1  0.036600  0.028700  0.331300  1.0  0.1081
  H  H10  1  0.054800  0.925600  0.217400  1.0  0.1052
  H  H11  1  0.451000  0.983100  0.339000  1.0  0.1093
  H  H12  1  0.471700  0.879300  0.224900  1.0  0.1082
  H  H13  1  0.536600  0.471300  0.668700  1.0  0.1085
  H  H14  1  0.554800  0.574400  0.782600  1.0  0.1051
  H  H15  1  0.951000  0.516900  0.661000  1.0  0.109
  H  H16  1  0.971700  0.620700  0.775100  1.0  0.1076
  H  H17  1  0.963400  0.528700  0.168700  1.0  0.1082
  H  H18  1  0.945200  0.425600  0.282600  1.0  0.1049
  H  H19  1  0.549000  0.483100  0.161000  1.0  0.1088
  H  H20  1  0.528300  0.379300  0.275100  1.0  0.108
  C  C21  1  0.773700  0.902800  0.911460  1.0  0.7357
  C  C22  1  0.759400  0.980700  0.844700  1.0  -0.1284
  C  C23  1  0.577100  0.999900  0.809300  1.0  -0.0528
  C  C24  1  0.566400  0.061700  0.741400  1.0  -0.0672
  C  C25  1  0.928300  0.027300  0.814000  1.0  -0.0547
  C  C26  1  0.915700  0.089400  0.745700  1.0  -0.0491
  C  C27  1  0.736000  0.105000  0.708740  1.0  -0.1333
  C  C28  1  0.725400  0.162800  0.630980  1.0  0.7158
  C  C29  1  0.726300  0.097200  0.411460  1.0  0.7357
  C  C30  1  0.740600  0.019300  0.344700  1.0  -0.1295
  C  C31  1  0.922900  0.000100  0.309300  1.0  -0.0533
  C  C32  1  0.933600  0.938300  0.241400  1.0  -0.0663
  C  C33  1  0.571700  0.972700  0.314000  1.0  -0.0547
  C  C34  1  0.584300  0.910600  0.245700  1.0  -0.0483
  C  C35  1  0.764000  0.895000  0.208740  1.0  -0.1335
  C  C36  1  0.774600  0.837200  0.130980  1.0  0.7154
  C  C37  1  0.226300  0.402800  0.588540  1.0  0.736
  C  C38  1  0.240600  0.480700  0.655300  1.0  -0.1293
  C  C39  1  0.422900  0.499900  0.690700  1.0  -0.0526
  C  C40  1  0.433600  0.561700  0.758600  1.0  -0.0666
  C  C41  1  0.071700  0.527300  0.686000  1.0  -0.0548
  C  C42  1  0.084300  0.589400  0.754300  1.0  -0.0494
  C  C43  1  0.264000  0.605000  0.791260  1.0  -0.1326
  C  C44  1  0.274600  0.662800  0.869020  1.0  0.7153
  C  C45  1  0.273700  0.597200  0.088540  1.0  0.7358
  C  C46  1  0.259400  0.519300  0.155300  1.0  -0.1298
  C  C47  1  0.077100  0.500100  0.190700  1.0  -0.0536
  C  C48  1  0.066400  0.438300  0.258600  1.0  -0.0667
  C  C49  1  0.428300  0.472700  0.186000  1.0  -0.0548
  C  C50  1  0.415700  0.410600  0.254300  1.0  -0.0482
  C  C51  1  0.236000  0.395000  0.291260  1.0  -0.1326
  C  C52  1  0.225400  0.337200  0.369020  1.0  0.7149
  O  O53  1  0.282500  0.813310  0.012640  1.0  -0.7589
  O  O54  1  0.557700  0.174800  0.600490  1.0  -0.6469
  O  O55  1  0.942000  0.879630  0.936900  1.0  -0.6326
  O  O56  1  0.885200  0.192600  0.600730  1.0  -0.6166
  O  O57  1  0.614100  0.863560  0.935840  1.0  -0.6197
  O  O58  1  0.217500  0.186690  0.512640  1.0  -0.7588
  O  O59  1  0.942300  0.825200  0.100490  1.0  -0.6465
  O  O60  1  0.558000  0.120370  0.436900  1.0  -0.6326
  O  O61  1  0.614800  0.807400  0.100730  1.0  -0.6162
  O  O62  1  0.885900  0.136440  0.435840  1.0  -0.6181
  O  O63  1  0.717500  0.313310  0.487360  1.0  -0.7592
  O  O64  1  0.442300  0.674800  0.899510  1.0  -0.6458
  O  O65  1  0.058000  0.379630  0.563100  1.0  -0.6331
  O  O66  1  0.114800  0.692600  0.899270  1.0  -0.6165
  O  O67  1  0.385900  0.363560  0.564160  1.0  -0.6189
  O  O68  1  0.782500  0.686690  0.987360  1.0  -0.759
  O  O69  1  0.057700  0.325200  0.399510  1.0  -0.6464
  O  O70  1  0.442000  0.620370  0.063100  1.0  -0.6318
  O  O71  1  0.385200  0.307400  0.399270  1.0  -0.6163
  O  O72  1  0.114100  0.636440  0.064160  1.0  -0.6195
