# generated using pymatgen
data_VH4C8O5
_symmetry_space_group_name_H-M   'P 1'
_cell_length_a   6.80550000
_cell_length_b   13.44750000
_cell_length_c   16.18090000
_cell_angle_alpha   90.00000000
_cell_angle_beta   90.00000000
_cell_angle_gamma   90.00000000
_symmetry_Int_Tables_number   1
_chemical_formula_structural   VH4C8O5
_chemical_formula_sum   'V4 H16 C32 O20'
_cell_volume   1480.82679829
_cell_formula_units_Z   4
loop_
 _symmetry_equiv_pos_site_id
 _symmetry_equiv_pos_as_xyz
  1  'x, y, z'
loop_
 _atom_site_type_symbol
 _atom_site_label
 _atom_site_symmetry_multiplicity
 _atom_site_fract_x
 _atom_site_fract_y
 _atom_site_fract_z
 _atom_site_occupancy
 _atom_site_charge
  V  V1  1  0.064540  0.235460  0.998520  1.0  1.8891
  V  V2  1  0.435460  0.764540  0.498520  1.0  1.8891
  V  V3  1  0.935460  0.735460  0.501480  1.0  1.8887
  V  V4  1  0.564540  0.264540  0.001480  1.0  1.8892
  H  H5  1  0.533100  0.541000  0.322500  1.0  0.1095
  H  H6  1  0.553200  0.433000  0.215800  1.0  0.1112
  H  H7  1  0.950100  0.502200  0.331200  1.0  0.1089
  H  H8  1  0.971200  0.395800  0.219800  1.0  0.1101
  H  H9  1  0.966900  0.459000  0.822500  1.0  0.1096
  H  H10  1  0.946800  0.567000  0.715800  1.0  0.1112
  H  H11  1  0.549900  0.497800  0.831200  1.0  0.1086
  H  H12  1  0.528800  0.604200  0.719800  1.0  0.1099
  H  H13  1  0.466900  0.041000  0.177500  1.0  0.1098
  H  H14  1  0.446800  0.933000  0.284200  1.0  0.111
  H  H15  1  0.049900  0.002200  0.168800  1.0  0.1089
  H  H16  1  0.028800  0.895800  0.280200  1.0  0.11
  H  H17  1  0.033100  0.959000  0.677500  1.0  0.1098
  H  H18  1  0.053200  0.067000  0.784200  1.0  0.1111
  H  H19  1  0.450100  0.997800  0.668800  1.0  0.1091
  H  H20  1  0.471200  0.104200  0.780200  1.0  0.1097
  C  C21  1  0.224300  0.609600  0.404300  1.0  0.7225
  C  C22  1  0.240200  0.534300  0.337900  1.0  -0.148
  C  C23  1  0.419200  0.511800  0.302100  1.0  -0.0434
  C  C24  1  0.431000  0.448300  0.238100  1.0  -0.0576
  C  C25  1  0.071400  0.489300  0.307100  1.0  -0.0587
  C  C26  1  0.084500  0.425300  0.240500  1.0  -0.0282
  C  C27  1  0.262300  0.404900  0.204700  1.0  -0.1417
  C  C28  1  0.276900  0.344300  0.129500  1.0  0.7167
  C  C29  1  0.275700  0.390400  0.904300  1.0  0.7228
  C  C30  1  0.259800  0.465700  0.837900  1.0  -0.1484
  C  C31  1  0.080800  0.488200  0.802100  1.0  -0.0438
  C  C32  1  0.069000  0.551700  0.738100  1.0  -0.0575
  C  C33  1  0.428600  0.510700  0.807100  1.0  -0.0578
  C  C34  1  0.415500  0.574700  0.740500  1.0  -0.0298
  C  C35  1  0.237700  0.595100  0.704700  1.0  -0.1418
  C  C36  1  0.223100  0.655700  0.629500  1.0  0.7171
  C  C37  1  0.775700  0.109600  0.095700  1.0  0.722
  C  C38  1  0.759800  0.034300  0.162100  1.0  -0.1478
  C  C39  1  0.580800  0.011800  0.197900  1.0  -0.0443
  C  C40  1  0.569000  0.948300  0.261900  1.0  -0.0572
  C  C41  1  0.928600  0.989300  0.192900  1.0  -0.0588
  C  C42  1  0.915500  0.925300  0.259500  1.0  -0.0288
  C  C43  1  0.737700  0.904900  0.295300  1.0  -0.1417
  C  C44  1  0.723100  0.844300  0.370500  1.0  0.7163
  C  C45  1  0.724300  0.890400  0.595700  1.0  0.7223
  C  C46  1  0.740200  0.965700  0.662100  1.0  -0.1486
  C  C47  1  0.919200  0.988200  0.697900  1.0  -0.0432
  C  C48  1  0.931000  0.051700  0.761900  1.0  -0.0572
  C  C49  1  0.571400  0.010700  0.692900  1.0  -0.0581
  C  C50  1  0.584500  0.074700  0.759500  1.0  -0.0298
  C  C51  1  0.762300  0.095100  0.795300  1.0  -0.1417
  C  C52  1  0.776900  0.155700  0.870500  1.0  0.7169
  O  O53  1  0.283500  0.189800  0.990000  1.0  -0.7609
  O  O54  1  0.115700  0.312600  0.099600  1.0  -0.6224
  O  O55  1  0.056400  0.632100  0.430200  1.0  -0.6337
  O  O56  1  0.442800  0.328400  0.099100  1.0  -0.6555
  O  O57  1  0.384500  0.647300  0.428600  1.0  -0.617
  O  O58  1  0.216500  0.810200  0.490000  1.0  -0.7607
  O  O59  1  0.384300  0.687400  0.599600  1.0  -0.622
  O  O60  1  0.443600  0.367900  0.930200  1.0  -0.6333
  O  O61  1  0.057200  0.671600  0.599100  1.0  -0.6553
  O  O62  1  0.115500  0.352700  0.928600  1.0  -0.6172
  O  O63  1  0.716500  0.689800  0.510000  1.0  -0.7613
  O  O64  1  0.884300  0.812600  0.400400  1.0  -0.6221
  O  O65  1  0.943600  0.132100  0.069800  1.0  -0.6333
  O  O66  1  0.557200  0.828400  0.400900  1.0  -0.6556
  O  O67  1  0.615500  0.147300  0.071400  1.0  -0.6174
  O  O68  1  0.783500  0.310200  0.010000  1.0  -0.7603
  O  O69  1  0.615700  0.187400  0.900400  1.0  -0.6226
  O  O70  1  0.556400  0.867900  0.569800  1.0  -0.6341
  O  O71  1  0.942800  0.171600  0.900900  1.0  -0.6551
  O  O72  1  0.884500  0.852700  0.571400  1.0  -0.6173
