# generated using pymatgen
data_CdH3(C3O2)3
_symmetry_space_group_name_H-M   'P 1'
_cell_length_a   10.24000000
_cell_length_b   13.77200000
_cell_length_c   16.70000000
_cell_angle_alpha   90.00000000
_cell_angle_beta   127.04600000
_cell_angle_gamma   90.00000000
_symmetry_Int_Tables_number   1
_chemical_formula_structural   CdH3(C3O2)3
_chemical_formula_sum   'Cd4 H12 C36 O24'
_cell_volume   1879.74567436
_cell_formula_units_Z   4
loop_
 _symmetry_equiv_pos_site_id
 _symmetry_equiv_pos_as_xyz
  1  'x, y, z'
loop_
 _atom_site_type_symbol
 _atom_site_label
 _atom_site_symmetry_multiplicity
 _atom_site_fract_x
 _atom_site_fract_y
 _atom_site_fract_z
 _atom_site_occupancy
 _atom_site_charge
  Cd  Cd1  1  0.582200  0.424130  0.938140  1.0  1.1132
  Cd  Cd2  1  0.417800  0.924130  0.561860  1.0  1.1141
  Cd  Cd3  1  0.417800  0.575870  0.061860  1.0  1.1142
  Cd  Cd4  1  0.582200  0.075870  0.438140  1.0  1.1128
  H  H5  1  0.948500  0.575300  0.074400  1.0  0.1463
  H  H6  1  0.339100  0.725900  0.291400  1.0  0.1576
  H  H7  1  0.935500  0.718800  0.279300  1.0  0.1517
  H  H8  1  0.051500  0.075300  0.425600  1.0  0.1468
  H  H9  1  0.660900  0.225900  0.208600  1.0  0.1572
  H  H10  1  0.064500  0.218800  0.220700  1.0  0.1531
  H  H11  1  0.051500  0.424700  0.925600  1.0  0.1462
  H  H12  1  0.660900  0.274100  0.708600  1.0  0.1574
  H  H13  1  0.064500  0.281200  0.720700  1.0  0.1526
  H  H14  1  0.948500  0.924700  0.574400  1.0  0.1458
  H  H15  1  0.339100  0.774100  0.791400  1.0  0.1573
  H  H16  1  0.935500  0.781200  0.779300  1.0  0.1518
  C  C17  1  0.740000  0.609600  0.117900  1.0  0.758
  C  C18  1  0.912800  0.644000  0.166100  1.0  -0.1323
  C  C19  1  0.998500  0.615200  0.130500  1.0  0.0657
  C  C20  1  0.158200  0.645400  0.178000  1.0  -0.1265
  C  C21  1  0.253500  0.614500  0.140200  1.0  0.7167
  C  C22  1  0.233100  0.703900  0.260900  1.0  0.0665
  C  C23  1  0.148400  0.730500  0.299900  1.0  -0.1178
  C  C24  1  0.234700  0.790300  0.395700  1.0  0.7528
  C  C25  1  0.991000  0.701100  0.253400  1.0  0.0707
  C  C26  1  0.260000  0.109600  0.382100  1.0  0.756
  C  C27  1  0.087200  0.144000  0.333900  1.0  -0.1323
  C  C28  1  0.001500  0.115200  0.369500  1.0  0.0675
  C  C29  1  0.841800  0.145400  0.322000  1.0  -0.1254
  C  C30  1  0.746500  0.114500  0.359800  1.0  0.7176
  C  C31  1  0.766900  0.203900  0.239100  1.0  0.0652
  C  C32  1  0.851600  0.230500  0.200100  1.0  -0.1169
  C  C33  1  0.765300  0.290300  0.104300  1.0  0.7528
  C  C34  1  0.009000  0.201100  0.246600  1.0  0.071
  C  C35  1  0.260000  0.390400  0.882100  1.0  0.7567
  C  C36  1  0.087200  0.356000  0.833900  1.0  -0.1327
  C  C37  1  0.001500  0.384800  0.869500  1.0  0.0671
  C  C38  1  0.841800  0.354600  0.822000  1.0  -0.1255
  C  C39  1  0.746500  0.385500  0.859800  1.0  0.7169
  C  C40  1  0.766900  0.296100  0.739100  1.0  0.0655
  C  C41  1  0.851600  0.269500  0.700100  1.0  -0.117
  C  C42  1  0.765300  0.209700  0.604300  1.0  0.752
  C  C43  1  0.009000  0.298900  0.746600  1.0  0.0706
  C  C44  1  0.740000  0.890400  0.617900  1.0  0.7585
  C  C45  1  0.912800  0.856000  0.666100  1.0  -0.1325
  C  C46  1  0.998500  0.884800  0.630500  1.0  0.0657
  C  C47  1  0.158200  0.854600  0.678000  1.0  -0.1265
  C  C48  1  0.253500  0.885500  0.640200  1.0  0.7164
  C  C49  1  0.233100  0.796100  0.760900  1.0  0.067
  C  C50  1  0.148400  0.769500  0.799900  1.0  -0.1173
  C  C51  1  0.234700  0.709700  0.895700  1.0  0.752
  C  C52  1  0.991000  0.798900  0.753400  1.0  0.0709
  O  O53  1  0.680500  0.545800  0.053300  1.0  -0.769
  O  O54  1  0.666667  0.648000  0.148400  1.0  -0.5467
  O  O55  1  0.200800  0.547100  0.077300  1.0  -0.5463
  O  O56  1  0.387600  0.656900  0.174300  1.0  -0.5893
  O  O57  1  0.366000  0.833200  0.427300  1.0  -0.5616
  O  O58  1  0.171100  0.794100  0.440800  1.0  -0.6022
  O  O59  1  0.319500  0.045800  0.446700  1.0  -0.7678
  O  O60  1  0.333400  0.148000  0.351600  1.0  -0.5462
  O  O61  1  0.799200  0.047100  0.422700  1.0  -0.5467
  O  O62  1  0.612400  0.156900  0.325700  1.0  -0.6094
  O  O63  1  0.634000  0.333200  0.072700  1.0  -0.5592
  O  O64  1  0.828900  0.294100  0.059200  1.0  -0.6007
  O  O65  1  0.319500  0.454200  0.946700  1.0  -0.7691
  O  O66  1  0.333400  0.352000  0.851600  1.0  -0.5462
  O  O67  1  0.799200  0.452900  0.922700  1.0  -0.5466
  O  O68  1  0.612400  0.343100  0.825700  1.0  -0.6086
  O  O69  1  0.634000  0.166800  0.572700  1.0  -0.5607
  O  O70  1  0.828900  0.205900  0.559200  1.0  -0.601
  O  O71  1  0.680500  0.954200  0.553300  1.0  -0.7691
  O  O72  1  0.666667  0.852000  0.648400  1.0  -0.5467
  O  O73  1  0.200800  0.952900  0.577300  1.0  -0.5466
  O  O74  1  0.387600  0.843100  0.674300  1.0  -0.5903
  O  O75  1  0.366000  0.666800  0.927300  1.0  -0.5616
  O  O76  1  0.171100  0.705900  0.940800  1.0  -0.6032
