# generated using pymatgen
data_Cd2H15(C15O7)2
_symmetry_space_group_name_H-M   'P 1'
_cell_length_a   13.92600000
_cell_length_b   16.59000000
_cell_length_c   16.18100000
_cell_angle_alpha   90.00000000
_cell_angle_beta   110.29600000
_cell_angle_gamma   90.00000000
_symmetry_Int_Tables_number   1
_chemical_formula_structural   Cd2H15(C15O7)2
_chemical_formula_sum   'Cd8 H60 C120 O56'
_cell_volume   3506.23290424
_cell_formula_units_Z   4
loop_
 _symmetry_equiv_pos_site_id
 _symmetry_equiv_pos_as_xyz
  1  'x, y, z'
loop_
 _atom_site_type_symbol
 _atom_site_label
 _atom_site_symmetry_multiplicity
 _atom_site_fract_x
 _atom_site_fract_y
 _atom_site_fract_z
 _atom_site_occupancy
 _atom_site_charge
  Cd  Cd1  1  0.291520  0.499070  0.142020  1.0  1.0887
  Cd  Cd2  1  0.418910  0.504160  0.373500  1.0  1.1083
  Cd  Cd3  1  0.708480  0.999070  0.357980  1.0  1.0883
  Cd  Cd4  1  0.581090  0.004160  0.126500  1.0  1.1076
  Cd  Cd5  1  0.708480  0.500930  0.857980  1.0  1.0885
  Cd  Cd6  1  0.581090  0.495840  0.626500  1.0  1.1066
  Cd  Cd7  1  0.291520  0.000930  0.642020  1.0  1.0886
  Cd  Cd8  1  0.418910  0.995840  0.873500  1.0  1.1073
  H  H9  1  0.904500  0.082100  0.439100  1.0  0.4247
  H  H10  1  0.162600  0.591200  0.414500  1.0  0.1192
  H  H11  1  0.021400  0.612800  0.454200  1.0  0.1383
  H  H12  1  0.845400  0.622400  0.199300  1.0  0.1286
  H  H13  1  0.986300  0.595900  0.159800  1.0  0.1113
  H  H14  1  0.794400  0.770100  0.294500  1.0  0.1237
  H  H15  1  0.493500  0.736800  0.170500  1.0  0.125
  H  H16  1  0.668500  0.553600  0.303100  1.0  0.1452
  H  H17  1  0.089800  0.282300  0.956500  1.0  0.1337
  H  H18  1  0.210300  0.066100  0.936500  1.0  0.1328
  H  H19  1  0.394000  0.248600  0.060600  1.0  0.1263
  H  H20  1  0.857200  0.102900  0.806900  1.0  0.1421
  H  H21  1  0.787600  0.080300  0.657800  1.0  0.1247
  H  H22  1  0.058300  0.125400  0.633300  1.0  0.1151
  H  H23  1  0.128000  0.149700  0.782700  1.0  0.1223
  H  H24  1  0.095500  0.582100  0.060900  1.0  0.4252
  H  H25  1  0.837400  0.091200  0.085500  1.0  0.1191
  H  H26  1  0.978600  0.112800  0.045800  1.0  0.1408
  H  H27  1  0.154600  0.122400  0.300700  1.0  0.1283
  H  H28  1  0.013700  0.095900  0.340200  1.0  0.1104
  H  H29  1  0.205600  0.270100  0.205500  1.0  0.1241
  H  H30  1  0.506500  0.236800  0.329500  1.0  0.1251
  H  H31  1  0.331500  0.053600  0.196900  1.0  0.1452
  H  H32  1  0.910200  0.782300  0.543500  1.0  0.1336
  H  H33  1  0.789700  0.566100  0.563500  1.0  0.132
  H  H34  1  0.606000  0.748600  0.439400  1.0  0.1263
  H  H35  1  0.142800  0.602900  0.693100  1.0  0.1414
  H  H36  1  0.212400  0.580300  0.842200  1.0  0.1245
  H  H37  1  0.941700  0.625400  0.866700  1.0  0.1149
  H  H38  1  0.872000  0.649700  0.717300  1.0  0.1222
  H  H39  1  0.095500  0.917900  0.560900  1.0  0.4251
  H  H40  1  0.837400  0.408800  0.585500  1.0  0.1187
  H  H41  1  0.978600  0.387200  0.545800  1.0  0.1392
  H  H42  1  0.154600  0.377600  0.800700  1.0  0.128
  H  H43  1  0.013700  0.404100  0.840200  1.0  0.1105
  H  H44  1  0.205600  0.229900  0.705500  1.0  0.1241
  H  H45  1  0.506500  0.263200  0.829500  1.0  0.1252
  H  H46  1  0.331500  0.446400  0.696900  1.0  0.1448
  H  H47  1  0.910200  0.717700  0.043500  1.0  0.1337
  H  H48  1  0.789700  0.933900  0.063500  1.0  0.1323
  H  H49  1  0.606000  0.751400  0.939400  1.0  0.1268
  H  H50  1  0.142800  0.897100  0.193100  1.0  0.1416
  H  H51  1  0.212400  0.919700  0.342200  1.0  0.1248
  H  H52  1  0.941700  0.874600  0.366700  1.0  0.1147
  H  H53  1  0.872000  0.850300  0.217300  1.0  0.1223
  H  H54  1  0.904500  0.417900  0.939100  1.0  0.4241
  H  H55  1  0.162600  0.908800  0.914500  1.0  0.119
  H  H56  1  0.021400  0.887200  0.954200  1.0  0.1401
  H  H57  1  0.845400  0.877600  0.699300  1.0  0.1287
  H  H58  1  0.986300  0.904100  0.659800  1.0  0.111
  H  H59  1  0.794400  0.729900  0.794500  1.0  0.124
  H  H60  1  0.493500  0.763200  0.670500  1.0  0.1249
  H  H61  1  0.668500  0.946400  0.803100  1.0  0.1446
  H  H62  1  0.089800  0.217700  0.456500  1.0  0.134
  H  H63  1  0.210300  0.433900  0.436500  1.0  0.1331
  H  H64  1  0.394000  0.251400  0.560600  1.0  0.1261
  H  H65  1  0.857200  0.397100  0.306900  1.0  0.1416
  H  H66  1  0.787600  0.419700  0.157800  1.0  0.1247
  H  H67  1  0.058300  0.374600  0.133300  1.0  0.1147
  H  H68  1  0.128000  0.350300  0.282700  1.0  0.1224
  C  C69  1  0.181000  0.571380  0.258700  1.0  0.7165
  C  C70  1  0.098500  0.596200  0.370900  1.0  -0.0125
  C  C71  1  0.014400  0.609800  0.395000  1.0  -0.2106
  C  C72  1  0.920000  0.618700  0.330500  1.0  0.3196
  C  C73  1  0.909300  0.614800  0.242600  1.0  -0.1651
  C  C74  1  0.993600  0.599700  0.219100  1.0  0.0252
  C  C75  1  0.090000  0.589900  0.283600  1.0  -0.1208
  C  C76  1  0.745400  0.656800  0.303700  1.0  0.2503
  C  C77  1  0.737000  0.736900  0.277900  1.0  -0.1241
  C  C78  1  0.641800  0.766900  0.227100  1.0  -0.145
  C  C79  1  0.557100  0.717000  0.205400  1.0  0.0318
  C  C80  1  0.565700  0.637500  0.235000  1.0  -0.1364
  C  C81  1  0.661300  0.606900  0.284000  1.0  -0.1163
  C  C82  1  0.628000  0.853600  0.198000  1.0  0.7033
  C  C83  1  0.471000  0.587200  0.214900  1.0  0.7022
  C  C84  1  0.257500  0.362100  0.052700  1.0  0.6662
  C  C85  1  0.244400  0.279100  0.013500  1.0  -0.1368
  C  C86  1  0.146800  0.249300  0.967600  1.0  -0.0923
  C  C87  1  0.135500  0.170400  0.938700  1.0  0.2398
  C  C88  1  0.219100  0.119200  0.956100  1.0  -0.104
  C  C89  1  0.316200  0.148700  0.003420  1.0  -0.1181
  C  C90  1  0.328700  0.228700  0.030700  1.0  0.0277
  C  C91  1  0.405400  0.092300  0.030700  1.0  0.6855
  C  C92  1  0.999800  0.128600  0.808800  1.0  0.3106
  C  C93  1  0.897500  0.107800  0.771700  1.0  -0.1316
  C  C94  1  0.856200  0.094700  0.682800  1.0  -0.0177
  C  C95  1  0.914900  0.102500  0.629400  1.0  -0.1643
  C  C96  1  0.017400  0.121700  0.667900  1.0  0.0014
  C  C97  1  0.059300  0.135600  0.757300  1.0  -0.1293
  C  C98  1  0.869400  0.085700  0.534100  1.0  0.6768
  C  C99  1  0.819000  0.071380  0.241300  1.0  0.7164
  C  C100  1  0.901500  0.096200  0.129100  1.0  -0.012
  C  C101  1  0.985600  0.109800  0.105000  1.0  -0.2095
  C  C102  1  0.080000  0.118700  0.169500  1.0  0.3201
  C  C103  1  0.090700  0.114800  0.257400  1.0  -0.1668
  C  C104  1  0.006400  0.099700  0.280900  1.0  0.0241
  C  C105  1  0.910000  0.089900  0.216400  1.0  -0.1205
  C  C106  1  0.254600  0.156800  0.196300  1.0  0.251
  C  C107  1  0.263000  0.236900  0.222100  1.0  -0.1236
  C  C108  1  0.358200  0.266900  0.272900  1.0  -0.1451
  C  C109  1  0.442900  0.217000  0.294600  1.0  0.033
  C  C110  1  0.434300  0.137500  0.265000  1.0  -0.1372
  C  C111  1  0.338700  0.106900  0.216000  1.0  -0.1171
  C  C112  1  0.372000  0.353600  0.302000  1.0  0.703
  C  C113  1  0.529000  0.087200  0.285100  1.0  0.7023
  C  C114  1  0.742500  0.862100  0.447300  1.0  0.6649
  C  C115  1  0.755600  0.779100  0.486500  1.0  -0.1375
  C  C116  1  0.853200  0.749300  0.532400  1.0  -0.0929
  C  C117  1  0.864500  0.670400  0.561300  1.0  0.2395
  C  C118  1  0.780900  0.619200  0.543900  1.0  -0.1035
  C  C119  1  0.683800  0.648700  0.496580  1.0  -0.1173
  C  C120  1  0.671300  0.728700  0.469300  1.0  0.028
  C  C121  1  0.594600  0.592300  0.469300  1.0  0.6852
  C  C122  1  0.000200  0.628600  0.691200  1.0  0.3105
  C  C123  1  0.102500  0.607800  0.728300  1.0  -0.131
  C  C124  1  0.143800  0.594700  0.817200  1.0  -0.0219
  C  C125  1  0.085100  0.602500  0.870600  1.0  -0.166
  C  C126  1  0.982600  0.621700  0.832100  1.0  0.0017
  C  C127  1  0.940700  0.635600  0.742700  1.0  -0.1296
  C  C128  1  0.130600  0.585700  0.965900  1.0  0.6782
  C  C129  1  0.819000  0.428620  0.741300  1.0  0.7162
  C  C130  1  0.901500  0.403800  0.629100  1.0  -0.0121
  C  C131  1  0.985600  0.390200  0.605000  1.0  -0.2091
  C  C132  1  0.080000  0.381300  0.669500  1.0  0.3205
  C  C133  1  0.090700  0.385200  0.757400  1.0  -0.167
  C  C134  1  0.006400  0.400300  0.780900  1.0  0.0235
  C  C135  1  0.910000  0.410100  0.716400  1.0  -0.1204
  C  C136  1  0.254600  0.343200  0.696300  1.0  0.2502
  C  C137  1  0.263000  0.263100  0.722100  1.0  -0.1238
  C  C138  1  0.358200  0.233100  0.772900  1.0  -0.1448
  C  C139  1  0.442900  0.283000  0.794600  1.0  0.0332
  C  C140  1  0.434300  0.362500  0.765000  1.0  -0.1379
  C  C141  1  0.338700  0.393100  0.716000  1.0  -0.1143
  C  C142  1  0.372000  0.146400  0.802000  1.0  0.7037
  C  C143  1  0.529000  0.412800  0.785100  1.0  0.7028
  C  C144  1  0.742500  0.637900  0.947300  1.0  0.6624
  C  C145  1  0.755600  0.720900  0.986500  1.0  -0.1368
  C  C146  1  0.853200  0.750700  0.032400  1.0  -0.0927
  C  C147  1  0.864500  0.829600  0.061300  1.0  0.2396
  C  C148  1  0.780900  0.880800  0.043900  1.0  -0.1052
  C  C149  1  0.683800  0.851300  0.996580  1.0  -0.1173
  C  C150  1  0.671300  0.771300  0.969300  1.0  0.0291
  C  C151  1  0.594600  0.907700  0.969300  1.0  0.6848
  C  C152  1  0.000200  0.871400  0.191200  1.0  0.3101
  C  C153  1  0.102500  0.892200  0.228300  1.0  -0.1311
  C  C154  1  0.143800  0.905300  0.317200  1.0  -0.0215
  C  C155  1  0.085100  0.897500  0.370600  1.0  -0.1657
  C  C156  1  0.982600  0.878300  0.332100  1.0  0.0021
  C  C157  1  0.940700  0.864400  0.242700  1.0  -0.1294
  C  C158  1  0.130600  0.914300  0.465900  1.0  0.679
  C  C159  1  0.181000  0.928620  0.758700  1.0  0.7156
  C  C160  1  0.098500  0.903800  0.870900  1.0  -0.0133
  C  C161  1  0.014400  0.890200  0.895000  1.0  -0.2106
  C  C162  1  0.920000  0.881300  0.830500  1.0  0.3196
  C  C163  1  0.909300  0.885200  0.742600  1.0  -0.1652
  C  C164  1  0.993600  0.900300  0.719100  1.0  0.0251
  C  C165  1  0.090000  0.910100  0.783600  1.0  -0.1205
  C  C166  1  0.745400  0.843200  0.803700  1.0  0.2499
  C  C167  1  0.737000  0.763100  0.777900  1.0  -0.1244
  C  C168  1  0.641800  0.733100  0.727100  1.0  -0.1463
  C  C169  1  0.557100  0.783000  0.705400  1.0  0.0322
  C  C170  1  0.565700  0.862500  0.735000  1.0  -0.1337
  C  C171  1  0.661300  0.893100  0.784000  1.0  -0.114
  C  C172  1  0.628000  0.646400  0.698000  1.0  0.7035
  C  C173  1  0.471000  0.912800  0.714900  1.0  0.7025
  C  C174  1  0.257500  0.137900  0.552700  1.0  0.6636
  C  C175  1  0.244400  0.220900  0.513500  1.0  -0.137
  C  C176  1  0.146800  0.250700  0.467600  1.0  -0.0915
  C  C177  1  0.135500  0.329600  0.438700  1.0  0.2398
  C  C178  1  0.219100  0.380800  0.456100  1.0  -0.105
  C  C179  1  0.316200  0.351300  0.503420  1.0  -0.1181
  C  C180  1  0.328700  0.271300  0.530700  1.0  0.0277
  C  C181  1  0.405400  0.407700  0.530700  1.0  0.6852
  C  C182  1  0.999800  0.371400  0.308800  1.0  0.3107
  C  C183  1  0.897500  0.392200  0.271700  1.0  -0.1312
  C  C184  1  0.856200  0.405300  0.182800  1.0  -0.0168
  C  C185  1  0.914900  0.397500  0.129400  1.0  -0.1651
  C  C186  1  0.017400  0.378300  0.167900  1.0  0.0013
  C  C187  1  0.059300  0.364400  0.257300  1.0  -0.1299
  C  C188  1  0.869400  0.414300  0.034100  1.0  0.677
  O  O189  1  0.268940  0.577610  0.317200  1.0  -0.6973
  O  O190  1  0.166770  0.551850  0.179820  1.0  -0.6474
  O  O191  1  0.839090  0.626770  0.360210  1.0  -0.2367
  O  O192  1  0.697170  0.904430  0.231980  1.0  -0.6779
  O  O193  1  0.544410  0.872430  0.137290  1.0  -0.5678
  O  O194  1  0.476100  0.518470  0.250540  1.0  -0.6892
  O  O195  1  0.389760  0.614000  0.160680  1.0  -0.5858
  O  O196  1  0.346380  0.390600  0.085870  1.0  -0.5341
  O  O197  1  0.179530  0.398580  0.053860  1.0  -0.5784
  O  O198  1  0.490160  0.117800  0.083150  1.0  -0.5704
  O  O199  1  0.392900  0.019910  0.003800  1.0  -0.6644
  O  O200  1  0.035970  0.140840  0.899100  1.0  -0.2525
  O  O201  1  0.934200  0.092000  0.491390  1.0  -0.4821
  O  O202  1  0.779770  0.066900  0.498270  1.0  -0.6568
  O  O203  1  0.731060  0.077610  0.182800  1.0  -0.6969
  O  O204  1  0.833230  0.051850  0.320180  1.0  -0.6503
  O  O205  1  0.160910  0.126770  0.139790  1.0  -0.2363
  O  O206  1  0.302830  0.404430  0.268020  1.0  -0.6767
  O  O207  1  0.455590  0.372430  0.362710  1.0  -0.5674
  O  O208  1  0.523900  0.018470  0.249460  1.0  -0.6889
  O  O209  1  0.610240  0.114000  0.339320  1.0  -0.5851
  O  O210  1  0.653620  0.890600  0.414130  1.0  -0.537
  O  O211  1  0.820470  0.898580  0.446140  1.0  -0.5794
  O  O212  1  0.509840  0.617800  0.416850  1.0  -0.5675
  O  O213  1  0.607100  0.519910  0.496200  1.0  -0.664
  O  O214  1  0.964030  0.640840  0.600900  1.0  -0.2512
  O  O215  1  0.065800  0.592000  0.008610  1.0  -0.4814
  O  O216  1  0.220230  0.566900  0.001730  1.0  -0.6519
  O  O217  1  0.731060  0.422390  0.682800  1.0  -0.6982
  O  O218  1  0.833230  0.448150  0.820180  1.0  -0.6489
  O  O219  1  0.160910  0.373230  0.639790  1.0  -0.2367
  O  O220  1  0.302830  0.095570  0.768020  1.0  -0.6785
  O  O221  1  0.455590  0.127570  0.862710  1.0  -0.5674
  O  O222  1  0.523900  0.481530  0.749460  1.0  -0.6891
  O  O223  1  0.610240  0.386000  0.839320  1.0  -0.5856
  O  O224  1  0.653620  0.609400  0.914130  1.0  -0.5356
  O  O225  1  0.820470  0.601420  0.946140  1.0  -0.5798
  O  O226  1  0.509840  0.882200  0.916850  1.0  -0.5668
  O  O227  1  0.607100  0.980090  0.996200  1.0  -0.6655
  O  O228  1  0.964030  0.859160  0.100900  1.0  -0.2505
  O  O229  1  0.065800  0.908000  0.508610  1.0  -0.4818
  O  O230  1  0.220230  0.933100  0.501730  1.0  -0.6516
  O  O231  1  0.268940  0.922390  0.817200  1.0  -0.6975
  O  O232  1  0.166770  0.948150  0.679820  1.0  -0.6468
  O  O233  1  0.839090  0.873230  0.860210  1.0  -0.2376
  O  O234  1  0.697170  0.595570  0.731980  1.0  -0.6782
  O  O235  1  0.544410  0.627570  0.637290  1.0  -0.5676
  O  O236  1  0.476100  0.981530  0.750540  1.0  -0.6887
  O  O237  1  0.389760  0.886000  0.660680  1.0  -0.5864
  O  O238  1  0.346380  0.109400  0.585870  1.0  -0.5336
  O  O239  1  0.179530  0.101420  0.553860  1.0  -0.5796
  O  O240  1  0.490160  0.382200  0.583150  1.0  -0.5704
  O  O241  1  0.392900  0.480090  0.503800  1.0  -0.6652
  O  O242  1  0.035970  0.359160  0.399100  1.0  -0.252
  O  O243  1  0.934200  0.408000  0.991390  1.0  -0.4822
  O  O244  1  0.779770  0.433100  0.998270  1.0  -0.6562
