# generated using pymatgen
data_PrC15NO6
_symmetry_space_group_name_H-M   'P 1'
_cell_length_a   9.63000000
_cell_length_b   10.09160000
_cell_length_c   11.73350000
_cell_angle_alpha   87.95800000
_cell_angle_beta   67.63800000
_cell_angle_gamma   68.18100000
_symmetry_Int_Tables_number   1
_chemical_formula_structural   PrC15NO6
_chemical_formula_sum   'Pr2 C30 N2 O12'
_cell_volume   971.53268596
_cell_formula_units_Z   2
loop_
 _symmetry_equiv_pos_site_id
 _symmetry_equiv_pos_as_xyz
  1  'x, y, z'
loop_
 _atom_site_type_symbol
 _atom_site_label
 _atom_site_symmetry_multiplicity
 _atom_site_fract_x
 _atom_site_fract_y
 _atom_site_fract_z
 _atom_site_occupancy
 _atom_site_charge
  Pr  Pr1  1  0.290760  0.962670  0.022450  1.0  2.2106
  Pr  Pr2  1  0.709240  0.037330  0.977550  1.0  2.2226
  C  C3  1  0.439100  0.247400  0.918200  1.0  0.6799
  C  C4  1  0.307000  0.363300  0.892400  1.0  -0.1091
  C  C5  1  0.223900  0.325500  0.833800  1.0  0.0385
  C  C6  1  0.102500  0.431300  0.808500  1.0  0.0497
  C  C7  1  0.060600  0.576100  0.842000  1.0  0.0517
  C  C8  1  0.143200  0.613300  0.902800  1.0  -0.1066
  C  C9  1  0.265300  0.507300  0.928700  1.0  0.0786
  C  C10  1  0.094400  0.769400  0.943100  1.0  0.6649
  C  C11  1  0.007100  0.389700  0.747700  1.0  -0.0641
  C  C12  1  0.247500  0.338100  0.547100  1.0  0.0539
  C  C13  1  0.324600  0.289000  0.420500  1.0  -0.0168
  C  C14  1  0.246700  0.247200  0.362400  1.0  -0.0754
  C  C15  1  0.086400  0.260400  0.428700  1.0  0.0049
  C  C16  1  0.011500  0.312100  0.554600  1.0  0.0802
  C  C17  1  0.336400  0.180800  0.225800  1.0  0.6793
  C  C18  1  0.560900  0.752600  0.081800  1.0  0.6794
  C  C19  1  0.693000  0.636700  0.107600  1.0  -0.109
  C  C20  1  0.776100  0.674500  0.166200  1.0  0.037
  C  C21  1  0.897500  0.568700  0.191500  1.0  0.0491
  C  C22  1  0.939400  0.423900  0.158000  1.0  0.0516
  C  C23  1  0.856800  0.386700  0.097200  1.0  -0.1059
  C  C24  1  0.734700  0.492700  0.071300  1.0  0.0792
  C  C25  1  0.905600  0.230600  0.056900  1.0  0.6646
  C  C26  1  0.992900  0.610300  0.252300  1.0  -0.0622
  C  C27  1  0.752500  0.661900  0.452900  1.0  0.055
  C  C28  1  0.675400  0.711000  0.579500  1.0  -0.0195
  C  C29  1  0.753300  0.752800  0.637600  1.0  -0.075
  C  C30  1  0.913600  0.739600  0.571300  1.0  0.0051
  C  C31  1  0.988500  0.687900  0.445400  1.0  0.0833
  C  C32  1  0.663600  0.819200  0.774200  1.0  0.6795
  N  N33  1  0.094800  0.347400  0.610700  1.0  -0.0161
  N  N34  1  0.905200  0.652600  0.389300  1.0  -0.0174
  O  O35  1  0.476500  0.172900  0.173000  1.0  -0.6509
  O  O36  1  0.253500  0.142300  0.183600  1.0  -0.7085
  O  O37  1  0.549300  0.279800  0.931200  1.0  -0.6378
  O  O38  1  0.442200  0.121800  0.925000  1.0  -0.7798
  O  O39  1  0.169300  0.798800  0.000000  1.0  -0.7092
  O  O40  1  0.983500  0.861200  0.918200  1.0  -0.726
  O  O41  1  0.523500  0.827100  0.827000  1.0  -0.6518
  O  O42  1  0.746500  0.857700  0.816400  1.0  -0.7088
  O  O43  1  0.450700  0.720200  0.068800  1.0  -0.6366
  O  O44  1  0.557800  0.878200  0.075000  1.0  -0.7813
  O  O45  1  0.830700  0.201200  0.000000  1.0  -0.7073
  O  O46  1  0.016500  0.138800  0.081800  1.0  -0.7238
