# generated using pymatgen
data_AgH9C5(NO)2
_symmetry_space_group_name_H-M   'P 1'
_cell_length_a   12.12000000
_cell_length_b   22.70150000
_cell_length_c   12.98890000
_cell_angle_alpha   90.00000000
_cell_angle_beta   90.00000000
_cell_angle_gamma   90.00000000
_symmetry_Int_Tables_number   1
_chemical_formula_structural   AgH9C5(NO)2
_chemical_formula_sum   'Ag16 H144 C80 N32 O32'
_cell_volume   3573.79426180
_cell_formula_units_Z   16
loop_
 _symmetry_equiv_pos_site_id
 _symmetry_equiv_pos_as_xyz
  1  'x, y, z'
loop_
 _atom_site_type_symbol
 _atom_site_label
 _atom_site_symmetry_multiplicity
 _atom_site_fract_x
 _atom_site_fract_y
 _atom_site_fract_z
 _atom_site_occupancy
 _atom_site_charge
  Ag  Ag1  1  0.490230  0.941890  0.953210  1.0  0.413
  Ag  Ag2  1  0.749920  0.748430  0.200460  1.0  0.0756
  Ag  Ag3  1  0.009770  0.558110  0.453210  1.0  0.4142
  Ag  Ag4  1  0.750080  0.751570  0.700460  1.0  0.0755
  Ag  Ag5  1  0.490230  0.058110  0.546790  1.0  0.4142
  Ag  Ag6  1  0.749920  0.251570  0.299540  1.0  0.0757
  Ag  Ag7  1  0.009770  0.441890  0.046790  1.0  0.4131
  Ag  Ag8  1  0.750080  0.248430  0.799540  1.0  0.0758
  Ag  Ag9  1  0.509770  0.058110  0.046790  1.0  0.4143
  Ag  Ag10  1  0.250080  0.251570  0.799540  1.0  0.0757
  Ag  Ag11  1  0.990230  0.441890  0.546790  1.0  0.4131
  Ag  Ag12  1  0.249920  0.248430  0.299540  1.0  0.0758
  Ag  Ag13  1  0.509770  0.941890  0.453210  1.0  0.4131
  Ag  Ag14  1  0.250080  0.748430  0.700460  1.0  0.0756
  Ag  Ag15  1  0.990230  0.558110  0.953210  1.0  0.4141
  Ag  Ag16  1  0.249920  0.751570  0.200460  1.0  0.0755
  H  H17  1  0.903800  0.677900  0.357500  1.0  0.0745
  H  H18  1  0.839300  0.628200  0.299100  1.0  0.0739
  H  H19  1  0.398900  0.824600  0.050500  1.0  0.0828
  H  H20  1  0.336200  0.873300  0.113200  1.0  0.088
  H  H21  1  0.067900  0.553300  0.204600  1.0  0.0808
  H  H22  1  0.938400  0.552800  0.206400  1.0  0.0802
  H  H23  1  0.103900  0.679000  0.355200  1.0  0.075
  H  H24  1  0.168500  0.629900  0.295100  1.0  0.1022
  H  H25  1  0.000200  0.752600  0.140500  1.0  0.0843
  H  H26  1  0.001800  0.753500  0.261400  1.0  0.0767
  H  H27  1  0.599300  0.823400  0.047100  1.0  0.0793
  H  H28  1  0.666100  0.871600  0.107400  1.0  0.1033
  H  H29  1  0.137400  0.036900  0.070800  1.0  0.1395
  H  H30  1  0.114700  0.987200  0.989800  1.0  0.1313
  H  H31  1  0.140300  0.051500  0.952800  1.0  0.1421
  H  H32  1  0.596200  0.822100  0.857500  1.0  0.0743
  H  H33  1  0.660700  0.871800  0.799100  1.0  0.0736
  H  H34  1  0.101100  0.675400  0.550500  1.0  0.0825
  H  H35  1  0.163800  0.626700  0.613200  1.0  0.0862
  H  H36  1  0.432100  0.946700  0.704600  1.0  0.0816
  H  H37  1  0.561600  0.947200  0.706400  1.0  0.0797
  H  H38  1  0.396100  0.821000  0.855200  1.0  0.0767
  H  H39  1  0.331500  0.870100  0.795100  1.0  0.1023
  H  H40  1  0.499800  0.747400  0.640500  1.0  0.0833
  H  H41  1  0.498200  0.746500  0.761400  1.0  0.0775
  H  H42  1  0.900700  0.676600  0.547100  1.0  0.0805
  H  H43  1  0.833900  0.628400  0.607400  1.0  0.1016
  H  H44  1  0.362600  0.463100  0.570800  1.0  0.139
  H  H45  1  0.385300  0.512800  0.489800  1.0  0.1301
  H  H46  1  0.359700  0.448500  0.452800  1.0  0.1429
  H  H47  1  0.903800  0.322100  0.142500  1.0  0.0771
  H  H48  1  0.839300  0.371800  0.200900  1.0  0.0736
  H  H49  1  0.398900  0.175400  0.449500  1.0  0.0823
  H  H50  1  0.336200  0.126700  0.386800  1.0  0.0879
  H  H51  1  0.067900  0.446700  0.295400  1.0  0.0808
  H  H52  1  0.938400  0.447200  0.293600  1.0  0.0807
  H  H53  1  0.103900  0.321000  0.144800  1.0  0.0762
  H  H54  1  0.168500  0.370100  0.204900  1.0  0.1025
  H  H55  1  0.000200  0.247400  0.359500  1.0  0.0844
  H  H56  1  0.001800  0.246500  0.238600  1.0  0.0767
  H  H57  1  0.599300  0.176600  0.452900  1.0  0.0785
  H  H58  1  0.666100  0.128400  0.392600  1.0  0.1026
  H  H59  1  0.137400  0.963100  0.429200  1.0  0.1396
  H  H60  1  0.114700  0.012800  0.510200  1.0  0.1314
  H  H61  1  0.140300  0.948500  0.547200  1.0  0.143
  H  H62  1  0.596200  0.177900  0.642500  1.0  0.0748
  H  H63  1  0.660700  0.128200  0.700900  1.0  0.0734
  H  H64  1  0.101100  0.324600  0.949500  1.0  0.0824
  H  H65  1  0.163800  0.373300  0.886800  1.0  0.0871
  H  H66  1  0.432100  0.053300  0.795400  1.0  0.0814
  H  H67  1  0.561600  0.052800  0.793600  1.0  0.079
  H  H68  1  0.396100  0.179000  0.644800  1.0  0.0767
  H  H69  1  0.331500  0.129900  0.704900  1.0  0.102
  H  H70  1  0.499800  0.252600  0.859500  1.0  0.0825
  H  H71  1  0.498200  0.253500  0.738600  1.0  0.0777
  H  H72  1  0.900700  0.323400  0.952900  1.0  0.0794
  H  H73  1  0.833900  0.371600  0.892600  1.0  0.1013
  H  H74  1  0.362600  0.536900  0.929200  1.0  0.1399
  H  H75  1  0.385300  0.487200  0.010200  1.0  0.13
  H  H76  1  0.359700  0.551500  0.047200  1.0  0.143
  H  H77  1  0.096200  0.322100  0.642500  1.0  0.0749
  H  H78  1  0.160700  0.371800  0.700900  1.0  0.0738
  H  H79  1  0.601100  0.175400  0.949500  1.0  0.082
  H  H80  1  0.663800  0.126700  0.886800  1.0  0.0863
  H  H81  1  0.932100  0.446700  0.795400  1.0  0.0814
  H  H82  1  0.061600  0.447200  0.793600  1.0  0.0797
  H  H83  1  0.896100  0.321000  0.644800  1.0  0.0768
  H  H84  1  0.831500  0.370100  0.704900  1.0  0.1019
  H  H85  1  0.999800  0.247400  0.859500  1.0  0.0845
  H  H86  1  0.998200  0.246500  0.738600  1.0  0.0768
  H  H87  1  0.400700  0.176600  0.952900  1.0  0.0788
  H  H88  1  0.333900  0.128400  0.892600  1.0  0.1015
  H  H89  1  0.862600  0.963100  0.929200  1.0  0.1399
  H  H90  1  0.885300  0.012800  0.010200  1.0  0.1298
  H  H91  1  0.859700  0.948500  0.047200  1.0  0.1436
  H  H92  1  0.403800  0.177900  0.142500  1.0  0.0763
  H  H93  1  0.339300  0.128200  0.200900  1.0  0.0731
  H  H94  1  0.898900  0.324600  0.449500  1.0  0.0831
  H  H95  1  0.836200  0.373300  0.386800  1.0  0.0878
  H  H96  1  0.567900  0.053300  0.295400  1.0  0.0808
  H  H97  1  0.438400  0.052800  0.293600  1.0  0.0802
  H  H98  1  0.603900  0.179000  0.144800  1.0  0.0759
  H  H99  1  0.668500  0.129900  0.204900  1.0  0.1018
  H  H100  1  0.500200  0.252600  0.359500  1.0  0.0823
  H  H101  1  0.501800  0.253500  0.238600  1.0  0.0777
  H  H102  1  0.099300  0.323400  0.452900  1.0  0.0785
  H  H103  1  0.166100  0.371600  0.392600  1.0  0.1023
  H  H104  1  0.637400  0.536900  0.429200  1.0  0.1396
  H  H105  1  0.614700  0.487200  0.510200  1.0  0.1314
  H  H106  1  0.640300  0.551500  0.547200  1.0  0.1425
  H  H107  1  0.096200  0.677900  0.857500  1.0  0.0735
  H  H108  1  0.160700  0.628200  0.799100  1.0  0.0738
  H  H109  1  0.601100  0.824600  0.550500  1.0  0.0825
  H  H110  1  0.663800  0.873300  0.613200  1.0  0.0871
  H  H111  1  0.932100  0.553300  0.704600  1.0  0.0814
  H  H112  1  0.061600  0.552800  0.706400  1.0  0.079
  H  H113  1  0.896100  0.679000  0.855200  1.0  0.0757
  H  H114  1  0.831500  0.629900  0.795100  1.0  0.1026
  H  H115  1  0.999800  0.752600  0.640500  1.0  0.0843
  H  H116  1  0.998200  0.753500  0.761400  1.0  0.0766
  H  H117  1  0.400700  0.823400  0.547100  1.0  0.0805
  H  H118  1  0.333900  0.871600  0.607400  1.0  0.1021
  H  H119  1  0.862600  0.036900  0.570800  1.0  0.1391
  H  H120  1  0.885300  0.987200  0.489800  1.0  0.1302
  H  H121  1  0.859700  0.051500  0.452800  1.0  0.1426
  H  H122  1  0.403800  0.822100  0.357500  1.0  0.0758
  H  H123  1  0.339300  0.871800  0.299100  1.0  0.0737
  H  H124  1  0.898900  0.675400  0.050500  1.0  0.0824
  H  H125  1  0.836200  0.626700  0.113200  1.0  0.088
  H  H126  1  0.567900  0.946700  0.204600  1.0  0.0809
  H  H127  1  0.438400  0.947200  0.206400  1.0  0.0807
  H  H128  1  0.603900  0.821000  0.355200  1.0  0.0759
  H  H129  1  0.668500  0.870100  0.295100  1.0  0.1028
  H  H130  1  0.500200  0.747400  0.140500  1.0  0.0835
  H  H131  1  0.501800  0.746500  0.261400  1.0  0.0774
  H  H132  1  0.099300  0.676600  0.047100  1.0  0.0795
  H  H133  1  0.166100  0.628400  0.107400  1.0  0.103
  H  H134  1  0.637400  0.463100  0.070800  1.0  0.1397
  H  H135  1  0.614700  0.512800  0.989800  1.0  0.1314
  H  H136  1  0.640300  0.448500  0.952800  1.0  0.1423
  H  H137  1  0.456500  0.626900  0.452700  1.0  0.1325
  H  H138  1  0.335800  0.619300  0.411400  1.0  0.1277
  H  H139  1  0.357300  0.624200  0.530100  1.0  0.1265
  H  H140  1  0.043500  0.873100  0.952700  1.0  0.1351
  H  H141  1  0.164200  0.880700  0.911400  1.0  0.1264
  H  H142  1  0.142700  0.875800  0.030100  1.0  0.1267
  H  H143  1  0.456500  0.373100  0.047300  1.0  0.1319
  H  H144  1  0.335800  0.380700  0.088600  1.0  0.1274
  H  H145  1  0.357300  0.375800  0.969900  1.0  0.127
  H  H146  1  0.043500  0.126900  0.547300  1.0  0.1355
  H  H147  1  0.164200  0.119300  0.588600  1.0  0.128
  H  H148  1  0.142700  0.124200  0.469900  1.0  0.1263
  H  H149  1  0.543500  0.373100  0.547300  1.0  0.1353
  H  H150  1  0.664200  0.380700  0.588600  1.0  0.1273
  H  H151  1  0.642700  0.375800  0.469900  1.0  0.1261
  H  H152  1  0.956500  0.126900  0.047300  1.0  0.1326
  H  H153  1  0.835800  0.119300  0.088600  1.0  0.1278
  H  H154  1  0.857300  0.124200  0.969900  1.0  0.127
  H  H155  1  0.543500  0.626900  0.952700  1.0  0.1348
  H  H156  1  0.664200  0.619300  0.911400  1.0  0.1263
  H  H157  1  0.642700  0.624200  0.030100  1.0  0.1271
  H  H158  1  0.956500  0.873100  0.452700  1.0  0.1323
  H  H159  1  0.835800  0.880700  0.411400  1.0  0.128
  H  H160  1  0.857300  0.875800  0.530100  1.0  0.1263
  C  C161  1  0.404300  0.847000  0.296700  1.0  0.1085
  C  C162  1  0.401300  0.848400  0.112500  1.0  0.0985
  C  C163  1  0.002800  0.578200  0.204800  1.0  0.113
  C  C164  1  0.102500  0.654100  0.294500  1.0  0.1025
  C  C165  1  0.501200  0.772000  0.201500  1.0  0.0947
  C  C166  1  0.600000  0.847400  0.108800  1.0  0.0812
  C  C167  1  0.278000  0.007800  0.001200  1.0  0.7529
  C  C168  1  0.156600  0.022200  0.003900  1.0  -0.481
  C  C169  1  0.095700  0.653000  0.796700  1.0  0.1072
  C  C170  1  0.098700  0.651600  0.612500  1.0  0.0967
  C  C171  1  0.497200  0.921800  0.704800  1.0  0.1117
  C  C172  1  0.397500  0.845900  0.794500  1.0  0.103
  C  C173  1  0.998800  0.728000  0.701500  1.0  0.0939
  C  C174  1  0.900000  0.652600  0.608800  1.0  0.0808
  C  C175  1  0.222000  0.492200  0.501200  1.0  0.7545
  C  C176  1  0.343400  0.477800  0.503900  1.0  -0.4823
  C  C177  1  0.404300  0.153000  0.203300  1.0  0.1082
  C  C178  1  0.401300  0.151600  0.387500  1.0  0.0981
  C  C179  1  0.002800  0.421800  0.295200  1.0  0.1118
  C  C180  1  0.102500  0.345900  0.205500  1.0  0.1029
  C  C181  1  0.501200  0.228000  0.298500  1.0  0.0939
  C  C182  1  0.600000  0.152600  0.391200  1.0  0.0811
  C  C183  1  0.278000  0.992200  0.498800  1.0  0.7529
  C  C184  1  0.156600  0.977800  0.496100  1.0  -0.4802
  C  C185  1  0.095700  0.347000  0.703300  1.0  0.1079
  C  C186  1  0.098700  0.348400  0.887500  1.0  0.0964
  C  C187  1  0.497200  0.078200  0.795200  1.0  0.1132
  C  C188  1  0.397500  0.154100  0.705500  1.0  0.1044
  C  C189  1  0.998800  0.272000  0.798500  1.0  0.0945
  C  C190  1  0.900000  0.347400  0.891200  1.0  0.0816
  C  C191  1  0.222000  0.507800  0.998800  1.0  0.7553
  C  C192  1  0.343400  0.522200  0.996100  1.0  -0.4824
  C  C193  1  0.595700  0.153000  0.703300  1.0  0.1077
  C  C194  1  0.598700  0.151600  0.887500  1.0  0.0962
  C  C195  1  0.997200  0.421800  0.795200  1.0  0.1118
  C  C196  1  0.897500  0.345900  0.705500  1.0  0.104
  C  C197  1  0.498800  0.228000  0.798500  1.0  0.0939
  C  C198  1  0.400000  0.152600  0.891200  1.0  0.0813
  C  C199  1  0.722000  0.992200  0.998800  1.0  0.7548
  C  C200  1  0.843400  0.977800  0.996100  1.0  -0.4818
  C  C201  1  0.904300  0.347000  0.203300  1.0  0.1083
  C  C202  1  0.901300  0.348400  0.387500  1.0  0.0981
  C  C203  1  0.502800  0.078200  0.295200  1.0  0.1132
  C  C204  1  0.602500  0.154100  0.205500  1.0  0.1032
  C  C205  1  0.001200  0.272000  0.298500  1.0  0.0945
  C  C206  1  0.100000  0.347400  0.391200  1.0  0.0812
  C  C207  1  0.778000  0.507800  0.498800  1.0  0.7532
  C  C208  1  0.656600  0.522200  0.496100  1.0  -0.4804
  C  C209  1  0.595700  0.847000  0.796700  1.0  0.1073
  C  C210  1  0.598700  0.848400  0.612500  1.0  0.0968
  C  C211  1  0.997200  0.578200  0.704800  1.0  0.1129
  C  C212  1  0.897500  0.654100  0.794500  1.0  0.1033
  C  C213  1  0.498800  0.772000  0.701500  1.0  0.0947
  C  C214  1  0.400000  0.847400  0.608800  1.0  0.0811
  C  C215  1  0.722000  0.007800  0.501200  1.0  0.7549
  C  C216  1  0.843400  0.022200  0.503900  1.0  -0.4827
  C  C217  1  0.904300  0.653000  0.296700  1.0  0.1083
  C  C218  1  0.901300  0.651600  0.112500  1.0  0.0985
  C  C219  1  0.502800  0.921800  0.204800  1.0  0.1118
  C  C220  1  0.602500  0.845900  0.294500  1.0  0.1024
  C  C221  1  0.001200  0.728000  0.201500  1.0  0.0939
  C  C222  1  0.100000  0.652600  0.108800  1.0  0.081
  C  C223  1  0.778000  0.492200  0.001200  1.0  0.7529
  C  C224  1  0.656600  0.477800  0.003900  1.0  -0.4805
  C  C225  1  0.369000  0.702200  0.456900  1.0  0.7249
  C  C226  1  0.380600  0.637500  0.463300  1.0  -0.4178
  C  C227  1  0.131000  0.797800  0.956900  1.0  0.7251
  C  C228  1  0.119400  0.862500  0.963300  1.0  -0.4171
  C  C229  1  0.369000  0.297800  0.043100  1.0  0.7237
  C  C230  1  0.380600  0.362500  0.036700  1.0  -0.4184
  C  C231  1  0.131000  0.202200  0.543100  1.0  0.7242
  C  C232  1  0.119400  0.137500  0.536700  1.0  -0.4178
  C  C233  1  0.631000  0.297800  0.543100  1.0  0.724
  C  C234  1  0.619400  0.362500  0.536700  1.0  -0.4178
  C  C235  1  0.869000  0.202200  0.043100  1.0  0.7239
  C  C236  1  0.880600  0.137500  0.036700  1.0  -0.4181
  C  C237  1  0.631000  0.702200  0.956900  1.0  0.7252
  C  C238  1  0.619400  0.637500  0.963300  1.0  -0.4172
  C  C239  1  0.869000  0.797800  0.456900  1.0  0.7248
  C  C240  1  0.880600  0.862500  0.463300  1.0  -0.418
  N  N241  1  0.503900  0.884280  0.297900  1.0  -0.2731
  N  N242  1  0.399600  0.809410  0.203400  1.0  -0.2445
  N  N243  1  0.500800  0.886070  0.110100  1.0  -0.2687
  N  N244  1  0.602100  0.808720  0.201200  1.0  -0.2278
  N  N245  1  0.996100  0.615720  0.797900  1.0  -0.2723
  N  N246  1  0.100400  0.690590  0.703400  1.0  -0.2464
  N  N247  1  0.999200  0.613930  0.610100  1.0  -0.2709
  N  N248  1  0.897900  0.691280  0.701200  1.0  -0.2287
  N  N249  1  0.503900  0.115720  0.202100  1.0  -0.2741
  N  N250  1  0.399600  0.190590  0.296600  1.0  -0.2455
  N  N251  1  0.500800  0.113930  0.389900  1.0  -0.2703
  N  N252  1  0.602100  0.191280  0.298800  1.0  -0.2283
  N  N253  1  0.996100  0.384280  0.702100  1.0  -0.2721
  N  N254  1  0.100400  0.309410  0.796600  1.0  -0.2446
  N  N255  1  0.999200  0.386070  0.889900  1.0  -0.2708
  N  N256  1  0.897900  0.308720  0.798800  1.0  -0.2286
  N  N257  1  0.496100  0.115720  0.702100  1.0  -0.2741
  N  N258  1  0.600400  0.190590  0.796600  1.0  -0.2462
  N  N259  1  0.499200  0.113930  0.889900  1.0  -0.2706
  N  N260  1  0.397900  0.191280  0.798800  1.0  -0.2287
  N  N261  1  0.003900  0.384280  0.202100  1.0  -0.2722
  N  N262  1  0.899600  0.309410  0.296600  1.0  -0.2446
  N  N263  1  0.000800  0.386070  0.389900  1.0  -0.2705
  N  N264  1  0.102100  0.308720  0.298800  1.0  -0.228
  N  N265  1  0.496100  0.884280  0.797900  1.0  -0.2729
  N  N266  1  0.600400  0.809410  0.703400  1.0  -0.2447
  N  N267  1  0.499200  0.886070  0.610100  1.0  -0.2686
  N  N268  1  0.397900  0.808720  0.701200  1.0  -0.2285
  N  N269  1  0.003900  0.615720  0.297900  1.0  -0.2726
  N  N270  1  0.899600  0.690590  0.203400  1.0  -0.2455
  N  N271  1  0.000800  0.613930  0.110100  1.0  -0.2709
  N  N272  1  0.102100  0.691280  0.201200  1.0  -0.2283
  O  O273  1  0.318600  0.987950  0.920500  1.0  -0.6331
  O  O274  1  0.668000  0.982900  0.918000  1.0  -0.6788
  O  O275  1  0.181400  0.512050  0.420500  1.0  -0.6311
  O  O276  1  0.832000  0.517100  0.418000  1.0  -0.6797
  O  O277  1  0.318600  0.012050  0.579500  1.0  -0.6325
  O  O278  1  0.668000  0.017100  0.582000  1.0  -0.6797
  O  O279  1  0.181400  0.487950  0.079500  1.0  -0.632
  O  O280  1  0.832000  0.482900  0.082000  1.0  -0.6804
  O  O281  1  0.681400  0.012050  0.079500  1.0  -0.632
  O  O282  1  0.332000  0.017100  0.082000  1.0  -0.6803
  O  O283  1  0.818600  0.487950  0.579500  1.0  -0.6323
  O  O284  1  0.168000  0.482900  0.582000  1.0  -0.6798
  O  O285  1  0.681400  0.987950  0.420500  1.0  -0.6317
  O  O286  1  0.332000  0.982900  0.418000  1.0  -0.6802
  O  O287  1  0.818600  0.512050  0.920500  1.0  -0.6326
  O  O288  1  0.168000  0.517100  0.918000  1.0  -0.6782
  O  O289  1  0.456600  0.733800  0.452000  1.0  -0.59
  O  O290  1  0.279700  0.724700  0.467900  1.0  -0.5472
  O  O291  1  0.043400  0.766200  0.952000  1.0  -0.5899
  O  O292  1  0.220300  0.775300  0.967900  1.0  -0.5478
  O  O293  1  0.456600  0.266200  0.048000  1.0  -0.5899
  O  O294  1  0.279700  0.275300  0.032100  1.0  -0.5477
  O  O295  1  0.043400  0.233800  0.548000  1.0  -0.5897
  O  O296  1  0.220300  0.224700  0.532100  1.0  -0.5476
  O  O297  1  0.543400  0.266200  0.548000  1.0  -0.59
  O  O298  1  0.720300  0.275300  0.532100  1.0  -0.5477
  O  O299  1  0.956600  0.233800  0.048000  1.0  -0.5899
  O  O300  1  0.779700  0.224700  0.032100  1.0  -0.5473
  O  O301  1  0.543400  0.733800  0.952000  1.0  -0.5897
  O  O302  1  0.720300  0.724700  0.967900  1.0  -0.5475
  O  O303  1  0.956600  0.766200  0.452000  1.0  -0.5899
  O  O304  1  0.779700  0.775300  0.467900  1.0  -0.5479
