# generated using pymatgen
data_SrCoH6C14(NO4)2
_symmetry_space_group_name_H-M   'P 1'
_cell_length_a   18.62800000
_cell_length_b   6.87420000
_cell_length_c   19.10100000
_cell_angle_alpha   90.00000000
_cell_angle_beta   118.77000000
_cell_angle_gamma   90.00000000
_symmetry_Int_Tables_number   1
_chemical_formula_structural   SrCoH6C14(NO4)2
_chemical_formula_sum   'Sr4 Co4 H24 C56 N8 O32'
_cell_volume   2144.00381681
_cell_formula_units_Z   4
loop_
 _symmetry_equiv_pos_site_id
 _symmetry_equiv_pos_as_xyz
  1  'x, y, z'
loop_
 _atom_site_type_symbol
 _atom_site_label
 _atom_site_symmetry_multiplicity
 _atom_site_fract_x
 _atom_site_fract_y
 _atom_site_fract_z
 _atom_site_occupancy
 _atom_site_charge
  Sr  Sr1  1  0.000000  0.012640  0.250000  1.0  1.6679
  Sr  Sr2  1  0.500000  0.512640  0.250000  1.0  1.6679
  Sr  Sr3  1  0.000000  0.987360  0.750000  1.0  1.6685
  Sr  Sr4  1  0.500000  0.487360  0.750000  1.0  1.6685
  Co  Co5  1  0.000000  0.500000  0.500000  1.0  0.9658
  Co  Co6  1  0.500000  0.000000  0.500000  1.0  0.9658
  Co  Co7  1  0.000000  0.500000  0.000000  1.0  0.9658
  Co  Co8  1  0.500000  0.000000  0.000000  1.0  0.9658
  H  H9  1  0.212500  0.421700  0.421200  1.0  0.1059
  H  H10  1  0.310800  0.627200  0.644800  1.0  0.11
  H  H11  1  0.182400  0.623400  0.633500  1.0  0.0757
  H  H12  1  0.712500  0.921700  0.421200  1.0  0.1059
  H  H13  1  0.810800  0.127200  0.644800  1.0  0.11
  H  H14  1  0.682400  0.123400  0.633500  1.0  0.0757
  H  H15  1  0.787500  0.421700  0.078800  1.0  0.106
  H  H16  1  0.689200  0.627200  0.855200  1.0  0.1098
  H  H17  1  0.817600  0.623400  0.866500  1.0  0.0756
  H  H18  1  0.287500  0.921700  0.078800  1.0  0.106
  H  H19  1  0.189200  0.127200  0.855200  1.0  0.1098
  H  H20  1  0.317600  0.123400  0.866500  1.0  0.0756
  H  H21  1  0.787500  0.578300  0.578800  1.0  0.106
  H  H22  1  0.689200  0.372800  0.355200  1.0  0.1098
  H  H23  1  0.817600  0.376600  0.366500  1.0  0.0756
  H  H24  1  0.287500  0.078300  0.578800  1.0  0.106
  H  H25  1  0.189200  0.872800  0.355200  1.0  0.1098
  H  H26  1  0.317600  0.876600  0.366500  1.0  0.0756
  H  H27  1  0.212500  0.578300  0.921200  1.0  0.1058
  H  H28  1  0.310800  0.372800  0.144800  1.0  0.1104
  H  H29  1  0.182400  0.376600  0.133500  1.0  0.0758
  H  H30  1  0.712500  0.078300  0.921200  1.0  0.1058
  H  H31  1  0.810800  0.872800  0.144800  1.0  0.1104
  H  H32  1  0.682400  0.876600  0.133500  1.0  0.0758
  C  C33  1  0.132990  0.462700  0.462970  1.0  0.1169
  C  C34  1  0.207890  0.462800  0.465260  1.0  -0.0493
  C  C35  1  0.276600  0.525000  0.534100  1.0  -0.1349
  C  C36  1  0.266210  0.585100  0.597690  1.0  -0.1537
  C  C37  1  0.188750  0.582000  0.590400  1.0  0.1167
  C  C38  1  0.057230  0.386800  0.391530  1.0  0.6664
  C  C39  1  0.359960  0.525400  0.537900  1.0  0.6761
  C  C40  1  0.632990  0.962700  0.462970  1.0  0.1169
  C  C41  1  0.707890  0.962800  0.465260  1.0  -0.0493
  C  C42  1  0.776600  0.025000  0.534100  1.0  -0.1349
  C  C43  1  0.766210  0.085100  0.597690  1.0  -0.1537
  C  C44  1  0.688750  0.082000  0.590400  1.0  0.1167
  C  C45  1  0.557230  0.886800  0.391530  1.0  0.6664
  C  C46  1  0.859960  0.025400  0.537900  1.0  0.6761
  C  C47  1  0.867010  0.462700  0.037030  1.0  0.1178
  C  C48  1  0.792110  0.462800  0.034740  1.0  -0.0515
  C  C49  1  0.723400  0.525000  0.965900  1.0  -0.1377
  C  C50  1  0.733790  0.585100  0.902310  1.0  -0.1499
  C  C51  1  0.811250  0.582000  0.909600  1.0  0.1199
  C  C52  1  0.942770  0.386800  0.108470  1.0  0.6675
  C  C53  1  0.640040  0.525400  0.962100  1.0  0.675
  C  C54  1  0.367010  0.962700  0.037030  1.0  0.1178
  C  C55  1  0.292110  0.962800  0.034740  1.0  -0.0515
  C  C56  1  0.223400  0.025000  0.965900  1.0  -0.1377
  C  C57  1  0.233790  0.085100  0.902310  1.0  -0.1499
  C  C58  1  0.311250  0.082000  0.909600  1.0  0.1199
  C  C59  1  0.442770  0.886800  0.108470  1.0  0.6675
  C  C60  1  0.140040  0.025400  0.962100  1.0  0.675
  C  C61  1  0.867010  0.537300  0.537030  1.0  0.1176
  C  C62  1  0.792110  0.537200  0.534740  1.0  -0.0515
  C  C63  1  0.723400  0.475000  0.465900  1.0  -0.1376
  C  C64  1  0.733790  0.414900  0.402310  1.0  -0.1497
  C  C65  1  0.811250  0.418000  0.409600  1.0  0.1201
  C  C66  1  0.942770  0.613200  0.608470  1.0  0.6677
  C  C67  1  0.640040  0.474600  0.462100  1.0  0.6749
  C  C68  1  0.367010  0.037300  0.537030  1.0  0.1176
  C  C69  1  0.292110  0.037200  0.534740  1.0  -0.0515
  C  C70  1  0.223400  0.975000  0.465900  1.0  -0.1376
  C  C71  1  0.233790  0.914900  0.402310  1.0  -0.1497
  C  C72  1  0.311250  0.918000  0.409600  1.0  0.1201
  C  C73  1  0.442770  0.113200  0.608470  1.0  0.6677
  C  C74  1  0.140040  0.974600  0.462100  1.0  0.6749
  C  C75  1  0.132990  0.537300  0.962970  1.0  0.1169
  C  C76  1  0.207890  0.537200  0.965260  1.0  -0.0497
  C  C77  1  0.276600  0.475000  0.034100  1.0  -0.1349
  C  C78  1  0.266210  0.414900  0.097690  1.0  -0.1534
  C  C79  1  0.188750  0.418000  0.090400  1.0  0.1171
  C  C80  1  0.057230  0.613200  0.891530  1.0  0.6666
  C  C81  1  0.359960  0.474600  0.037900  1.0  0.676
  C  C82  1  0.632990  0.037300  0.962970  1.0  0.1169
  C  C83  1  0.707890  0.037200  0.965260  1.0  -0.0497
  C  C84  1  0.776600  0.975000  0.034100  1.0  -0.1349
  C  C85  1  0.766210  0.914900  0.097690  1.0  -0.1534
  C  C86  1  0.688750  0.918000  0.090400  1.0  0.1171
  C  C87  1  0.557230  0.113200  0.891530  1.0  0.6666
  C  C88  1  0.859960  0.974600  0.037900  1.0  0.676
  N  N89  1  0.122750  0.522700  0.524560  1.0  -0.3079
  N  N90  1  0.622750  0.022700  0.524560  1.0  -0.3079
  N  N91  1  0.877250  0.522700  0.975440  1.0  -0.3087
  N  N92  1  0.377250  0.022700  0.975440  1.0  -0.3087
  N  N93  1  0.877250  0.477300  0.475440  1.0  -0.3089
  N  N94  1  0.377250  0.977300  0.475440  1.0  -0.3089
  N  N95  1  0.122750  0.477300  0.024560  1.0  -0.3079
  N  N96  1  0.622750  0.977300  0.024560  1.0  -0.3079
  O  O97  1  0.991560  0.386350  0.396400  1.0  -0.5977
  O  O98  1  0.063420  0.327200  0.333840  1.0  -0.6843
  O  O99  1  0.420180  0.581700  0.601600  1.0  -0.6967
  O  O100  1  0.362870  0.471000  0.477160  1.0  -0.5562
  O  O101  1  0.491560  0.886350  0.396400  1.0  -0.5977
  O  O102  1  0.563420  0.827200  0.333840  1.0  -0.6843
  O  O103  1  0.920180  0.081700  0.601600  1.0  -0.6967
  O  O104  1  0.862870  0.971000  0.477160  1.0  -0.5562
  O  O105  1  0.008440  0.386350  0.103600  1.0  -0.5998
  O  O106  1  0.936580  0.327200  0.166160  1.0  -0.6875
  O  O107  1  0.579820  0.581700  0.898400  1.0  -0.6982
  O  O108  1  0.637130  0.471000  0.022840  1.0  -0.5597
  O  O109  1  0.508440  0.886350  0.103600  1.0  -0.5998
  O  O110  1  0.436580  0.827200  0.166160  1.0  -0.6875
  O  O111  1  0.079820  0.081700  0.898400  1.0  -0.6982
  O  O112  1  0.137130  0.971000  0.022840  1.0  -0.5597
  O  O113  1  0.008440  0.613650  0.603600  1.0  -0.5999
  O  O114  1  0.936580  0.672800  0.666160  1.0  -0.6869
  O  O115  1  0.579820  0.418300  0.398400  1.0  -0.6983
  O  O116  1  0.637130  0.529000  0.522840  1.0  -0.5606
  O  O117  1  0.508440  0.113650  0.603600  1.0  -0.5999
  O  O118  1  0.436580  0.172800  0.666160  1.0  -0.6869
  O  O119  1  0.079820  0.918300  0.398400  1.0  -0.6983
  O  O120  1  0.137130  0.029000  0.522840  1.0  -0.5606
  O  O121  1  0.991560  0.613650  0.896400  1.0  -0.5977
  O  O122  1  0.063420  0.672800  0.833840  1.0  -0.6841
  O  O123  1  0.420180  0.418300  0.101600  1.0  -0.6963
  O  O124  1  0.362870  0.529000  0.977160  1.0  -0.5563
  O  O125  1  0.491560  0.113650  0.896400  1.0  -0.5977
  O  O126  1  0.563420  0.172800  0.833840  1.0  -0.6841
  O  O127  1  0.920180  0.918300  0.101600  1.0  -0.6963
  O  O128  1  0.862870  0.029000  0.977160  1.0  -0.5563
