# generated using pymatgen
data_Co6H15C24N13O12
_symmetry_space_group_name_H-M   'P 1'
_cell_length_a   17.46110000
_cell_length_b   17.46110000
_cell_length_c   17.46110000
_cell_angle_alpha   90.00000000
_cell_angle_beta   90.00000000
_cell_angle_gamma   90.00000000
_symmetry_Int_Tables_number   1
_chemical_formula_structural   Co6H15C24N13O12
_chemical_formula_sum   'Co24 H60 C96 N52 O48'
_cell_volume   5323.71500966
_cell_formula_units_Z   4
loop_
 _symmetry_equiv_pos_site_id
 _symmetry_equiv_pos_as_xyz
  1  'x, y, z'
loop_
 _atom_site_type_symbol
 _atom_site_label
 _atom_site_symmetry_multiplicity
 _atom_site_fract_x
 _atom_site_fract_y
 _atom_site_fract_z
 _atom_site_occupancy
 _atom_site_charge
  Co  Co1  1  0.144040  0.379030  0.011800  1.0  0.9499
  Co  Co2  1  0.355960  0.620970  0.511800  1.0  0.9497
  Co  Co3  1  0.855960  0.879030  0.488200  1.0  0.9502
  Co  Co4  1  0.644040  0.120970  0.988200  1.0  0.9497
  Co  Co5  1  0.011800  0.144040  0.379030  1.0  0.9509
  Co  Co6  1  0.511800  0.355960  0.620970  1.0  0.9517
  Co  Co7  1  0.488200  0.855960  0.879030  1.0  0.9515
  Co  Co8  1  0.988200  0.644040  0.120970  1.0  0.9515
  Co  Co9  1  0.379030  0.011800  0.144040  1.0  0.9498
  Co  Co10  1  0.620970  0.511800  0.355960  1.0  0.9494
  Co  Co11  1  0.879030  0.488200  0.855960  1.0  0.9495
  Co  Co12  1  0.120970  0.988200  0.644040  1.0  0.9497
  Co  Co13  1  0.436040  0.563960  0.063960  1.0  0.8875
  Co  Co14  1  0.063960  0.436040  0.563960  1.0  0.8877
  Co  Co15  1  0.563960  0.063960  0.436040  1.0  0.8884
  Co  Co16  1  0.936040  0.936040  0.936040  1.0  0.8881
  Co  Co17  1  0.963250  0.463250  0.036750  1.0  1.0653
  Co  Co18  1  0.860900  0.360900  0.139100  1.0  0.7046
  Co  Co19  1  0.536750  0.536750  0.536750  1.0  1.0661
  Co  Co20  1  0.639100  0.639100  0.639100  1.0  0.705
  Co  Co21  1  0.036750  0.963250  0.463250  1.0  1.0656
  Co  Co22  1  0.139100  0.860900  0.360900  1.0  0.704
  Co  Co23  1  0.463250  0.036750  0.963250  1.0  1.0651
  Co  Co24  1  0.360900  0.139100  0.860900  1.0  0.7053
  H  H25  1  0.715100  0.270700  0.915200  1.0  0.0895
  H  H26  1  0.743100  0.203200  0.126300  1.0  0.0691
  H  H27  1  0.263000  0.622800  0.093700  1.0  0.0982
  H  H28  1  0.331700  0.422200  0.022700  1.0  0.0646
  H  H29  1  0.549500  0.514800  0.002400  1.0  0.305
  H  H30  1  0.784900  0.729300  0.415200  1.0  0.0893
  H  H31  1  0.756900  0.796800  0.626300  1.0  0.0689
  H  H32  1  0.237000  0.377200  0.593700  1.0  0.0981
  H  H33  1  0.168300  0.577800  0.522700  1.0  0.0652
  H  H34  1  0.950500  0.485200  0.502400  1.0  0.3032
  H  H35  1  0.284900  0.770700  0.584800  1.0  0.0893
  H  H36  1  0.256900  0.703200  0.373700  1.0  0.0685
  H  H37  1  0.737000  0.122800  0.406300  1.0  0.0981
  H  H38  1  0.668300  0.922200  0.477300  1.0  0.0644
  H  H39  1  0.450500  0.014800  0.497600  1.0  0.3035
  H  H40  1  0.215100  0.229300  0.084800  1.0  0.0892
  H  H41  1  0.243100  0.296800  0.873700  1.0  0.069
  H  H42  1  0.763000  0.877200  0.906300  1.0  0.0982
  H  H43  1  0.831700  0.077800  0.977300  1.0  0.0647
  H  H44  1  0.049500  0.985200  0.997600  1.0  0.3043
  H  H45  1  0.915200  0.715100  0.270700  1.0  0.0897
  H  H46  1  0.126300  0.743100  0.203200  1.0  0.0682
  H  H47  1  0.093700  0.263000  0.622800  1.0  0.0973
  H  H48  1  0.022700  0.331700  0.422200  1.0  0.0651
  H  H49  1  0.002400  0.549500  0.514800  1.0  0.3126
  H  H50  1  0.415200  0.784900  0.729300  1.0  0.0897
  H  H51  1  0.626300  0.756900  0.796800  1.0  0.0691
  H  H52  1  0.593700  0.237000  0.377200  1.0  0.0971
  H  H53  1  0.522700  0.168300  0.577800  1.0  0.0658
  H  H54  1  0.502400  0.950500  0.485200  1.0  0.3085
  H  H55  1  0.584800  0.284900  0.770700  1.0  0.0892
  H  H56  1  0.373700  0.256900  0.703200  1.0  0.0684
  H  H57  1  0.406300  0.737000  0.122800  1.0  0.0971
  H  H58  1  0.477300  0.668300  0.922200  1.0  0.0648
  H  H59  1  0.497600  0.450500  0.014800  1.0  0.3101
  H  H60  1  0.084800  0.215100  0.229300  1.0  0.0891
  H  H61  1  0.873700  0.243100  0.296800  1.0  0.0696
  H  H62  1  0.906300  0.763000  0.877200  1.0  0.0969
  H  H63  1  0.977300  0.831700  0.077800  1.0  0.0656
  H  H64  1  0.997600  0.049500  0.985200  1.0  0.3135
  H  H65  1  0.270700  0.915200  0.715100  1.0  0.0896
  H  H66  1  0.203200  0.126300  0.743100  1.0  0.072
  H  H67  1  0.622800  0.093700  0.263000  1.0  0.0968
  H  H68  1  0.422200  0.022700  0.331700  1.0  0.0645
  H  H69  1  0.514800  0.002400  0.549500  1.0  0.3079
  H  H70  1  0.729300  0.415200  0.784900  1.0  0.0898
  H  H71  1  0.796800  0.626300  0.756900  1.0  0.0721
  H  H72  1  0.377200  0.593700  0.237000  1.0  0.0992
  H  H73  1  0.577800  0.522700  0.168300  1.0  0.0632
  H  H74  1  0.485200  0.502400  0.950500  1.0  0.3079
  H  H75  1  0.770700  0.584800  0.284900  1.0  0.09
  H  H76  1  0.703200  0.373700  0.256900  1.0  0.0706
  H  H77  1  0.122800  0.406300  0.737000  1.0  0.0975
  H  H78  1  0.922200  0.477300  0.668300  1.0  0.0637
  H  H79  1  0.014800  0.497600  0.450500  1.0  0.3073
  H  H80  1  0.229300  0.084800  0.215100  1.0  0.0899
  H  H81  1  0.296800  0.873700  0.243100  1.0  0.071
  H  H82  1  0.877200  0.906300  0.763000  1.0  0.0985
  H  H83  1  0.077800  0.977300  0.831700  1.0  0.0638
  H  H84  1  0.985200  0.997600  0.049500  1.0  0.3085
  C  C85  1  0.731100  0.267700  0.965900  1.0  0.0108
  C  C86  1  0.746900  0.231800  0.081500  1.0  0.2121
  C  C87  1  0.779100  0.317900  0.001200  1.0  0.0011
  C  C88  1  0.817800  0.386800  0.975100  1.0  0.6932
  C  C89  1  0.263100  0.572200  0.077100  1.0  0.0197
  C  C90  1  0.299900  0.462300  0.037600  1.0  0.2667
  C  C91  1  0.198900  0.527700  0.067100  1.0  0.035
  C  C92  1  0.118400  0.539100  0.075200  1.0  0.6959
  C  C93  1  0.768900  0.732300  0.465900  1.0  0.0108
  C  C94  1  0.753100  0.768200  0.581500  1.0  0.2129
  C  C95  1  0.720900  0.682100  0.501200  1.0  0.0012
  C  C96  1  0.682200  0.613200  0.475100  1.0  0.694
  C  C97  1  0.236900  0.427800  0.577100  1.0  0.0209
  C  C98  1  0.200100  0.537700  0.537600  1.0  0.2689
  C  C99  1  0.301100  0.472300  0.567100  1.0  0.0365
  C  C100  1  0.381600  0.460900  0.575200  1.0  0.695
  C  C101  1  0.268900  0.767700  0.534100  1.0  0.0112
  C  C102  1  0.253100  0.731800  0.418500  1.0  0.2122
  C  C103  1  0.220900  0.817900  0.498800  1.0  0.0021
  C  C104  1  0.182200  0.886800  0.524900  1.0  0.6937
  C  C105  1  0.736900  0.072200  0.422900  1.0  0.0201
  C  C106  1  0.700100  0.962300  0.462400  1.0  0.2688
  C  C107  1  0.801100  0.027700  0.432900  1.0  0.0362
  C  C108  1  0.881600  0.039100  0.424800  1.0  0.6953
  C  C109  1  0.231100  0.232300  0.034100  1.0  0.0106
  C  C110  1  0.246900  0.268200  0.918500  1.0  0.2133
  C  C111  1  0.279100  0.182100  0.998800  1.0  0.0022
  C  C112  1  0.317800  0.113200  0.024900  1.0  0.6917
  C  C113  1  0.763100  0.927800  0.922900  1.0  0.0202
  C  C114  1  0.799900  0.037700  0.962400  1.0  0.2671
  C  C115  1  0.698900  0.972300  0.932900  1.0  0.0347
  C  C116  1  0.618400  0.960900  0.924800  1.0  0.6962
  C  C117  1  0.965900  0.731100  0.267700  1.0  0.0078
  C  C118  1  0.081500  0.746900  0.231800  1.0  0.2138
  C  C119  1  0.001200  0.779100  0.317900  1.0  0.0017
  C  C120  1  0.975100  0.817800  0.386800  1.0  0.6936
  C  C121  1  0.077100  0.263100  0.572200  1.0  0.0214
  C  C122  1  0.037600  0.299900  0.462300  1.0  0.2676
  C  C123  1  0.067100  0.198900  0.527700  1.0  0.0335
  C  C124  1  0.075200  0.118400  0.539100  1.0  0.696
  C  C125  1  0.465900  0.768900  0.732300  1.0  0.0079
  C  C126  1  0.581500  0.753100  0.768200  1.0  0.2134
  C  C127  1  0.501200  0.720900  0.682100  1.0  0.0011
  C  C128  1  0.475100  0.682200  0.613200  1.0  0.6933
  C  C129  1  0.577100  0.236900  0.427800  1.0  0.022
  C  C130  1  0.537600  0.200100  0.537700  1.0  0.2675
  C  C131  1  0.567100  0.301100  0.472300  1.0  0.0339
  C  C132  1  0.575200  0.381600  0.460900  1.0  0.6952
  C  C133  1  0.534100  0.268900  0.767700  1.0  0.0093
  C  C134  1  0.418500  0.253100  0.731800  1.0  0.2122
  C  C135  1  0.498800  0.220900  0.817900  1.0  0.0016
  C  C136  1  0.524900  0.182200  0.886800  1.0  0.6944
  C  C137  1  0.422900  0.736900  0.072200  1.0  0.0203
  C  C138  1  0.462400  0.700100  0.962300  1.0  0.2676
  C  C139  1  0.432900  0.801100  0.027700  1.0  0.0333
  C  C140  1  0.424800  0.881600  0.039100  1.0  0.6966
  C  C141  1  0.034100  0.231100  0.232300  1.0  0.0096
  C  C142  1  0.918500  0.246900  0.268200  1.0  0.2121
  C  C143  1  0.998800  0.279100  0.182100  1.0  0.0015
  C  C144  1  0.024900  0.317800  0.113200  1.0  0.6944
  C  C145  1  0.922900  0.763100  0.927800  1.0  0.0218
  C  C146  1  0.962400  0.799900  0.037700  1.0  0.2668
  C  C147  1  0.932900  0.698900  0.972300  1.0  0.0341
  C  C148  1  0.924800  0.618400  0.960900  1.0  0.6961
  C  C149  1  0.267700  0.965900  0.731100  1.0  0.0073
  C  C150  1  0.231800  0.081500  0.746900  1.0  0.2128
  C  C151  1  0.317900  0.001200  0.779100  1.0  0.003
  C  C152  1  0.386800  0.975100  0.817800  1.0  0.6932
  C  C153  1  0.572200  0.077100  0.263100  1.0  0.0212
  C  C154  1  0.462300  0.037600  0.299900  1.0  0.2691
  C  C155  1  0.527700  0.067100  0.198900  1.0  0.0331
  C  C156  1  0.539100  0.075200  0.118400  1.0  0.6956
  C  C157  1  0.732300  0.465900  0.768900  1.0  0.0067
  C  C158  1  0.768200  0.581500  0.753100  1.0  0.213
  C  C159  1  0.682100  0.501200  0.720900  1.0  0.0011
  C  C160  1  0.613200  0.475100  0.682200  1.0  0.6912
  C  C161  1  0.427800  0.577100  0.236900  1.0  0.0207
  C  C162  1  0.537700  0.537600  0.200100  1.0  0.2679
  C  C163  1  0.472300  0.567100  0.301100  1.0  0.0354
  C  C164  1  0.460900  0.575200  0.381600  1.0  0.6973
  C  C165  1  0.767700  0.534100  0.268900  1.0  0.0074
  C  C166  1  0.731800  0.418500  0.253100  1.0  0.212
  C  C167  1  0.817900  0.498800  0.220900  1.0  0.0029
  C  C168  1  0.886800  0.524900  0.182200  1.0  0.6917
  C  C169  1  0.072200  0.422900  0.736900  1.0  0.021
  C  C170  1  0.962300  0.462400  0.700100  1.0  0.269
  C  C171  1  0.027700  0.432900  0.801100  1.0  0.0349
  C  C172  1  0.039100  0.424800  0.881600  1.0  0.6971
  C  C173  1  0.232300  0.034100  0.231100  1.0  0.0075
  C  C174  1  0.268200  0.918500  0.246900  1.0  0.2115
  C  C175  1  0.182100  0.998800  0.279100  1.0  0.002
  C  C176  1  0.113200  0.024900  0.317800  1.0  0.6928
  C  C177  1  0.927800  0.922900  0.763100  1.0  0.0204
  C  C178  1  0.037700  0.962400  0.799900  1.0  0.2675
  C  C179  1  0.972300  0.932900  0.698900  1.0  0.0342
  C  C180  1  0.960900  0.924800  0.618400  1.0  0.6958
  N  N181  1  0.787800  0.293200  0.075500  1.0  -0.382
  N  N182  1  0.710400  0.213300  0.015600  1.0  -0.4058
  N  N183  1  0.326200  0.531400  0.059200  1.0  -0.4011
  N  N184  1  0.224600  0.457100  0.039800  1.0  -0.4238
  N  N185  1  0.712200  0.706800  0.575500  1.0  -0.3823
  N  N186  1  0.789600  0.786700  0.515600  1.0  -0.4041
  N  N187  1  0.173800  0.468600  0.559200  1.0  -0.4014
  N  N188  1  0.275400  0.542900  0.539800  1.0  -0.423
  N  N189  1  0.212200  0.793200  0.424500  1.0  -0.3828
  N  N190  1  0.289600  0.713300  0.484400  1.0  -0.4043
  N  N191  1  0.673800  0.031400  0.440800  1.0  -0.4012
  N  N192  1  0.775400  0.957100  0.460200  1.0  -0.4238
  N  N193  1  0.287800  0.206800  0.924500  1.0  -0.3832
  N  N194  1  0.210400  0.286700  0.984400  1.0  -0.4049
  N  N195  1  0.826200  0.968600  0.940800  1.0  -0.4011
  N  N196  1  0.724600  0.042900  0.960200  1.0  -0.4249
  N  N197  1  0.075500  0.787800  0.293200  1.0  -0.3835
  N  N198  1  0.015600  0.710400  0.213300  1.0  -0.4046
  N  N199  1  0.059200  0.326200  0.531400  1.0  -0.4007
  N  N200  1  0.039800  0.224600  0.457100  1.0  -0.4251
  N  N201  1  0.575500  0.712200  0.706800  1.0  -0.3833
  N  N202  1  0.515600  0.789600  0.786700  1.0  -0.405
  N  N203  1  0.559200  0.173800  0.468600  1.0  -0.4012
  N  N204  1  0.539800  0.275400  0.542900  1.0  -0.4254
  N  N205  1  0.424500  0.212200  0.793200  1.0  -0.3836
  N  N206  1  0.484400  0.289600  0.713300  1.0  -0.406
  N  N207  1  0.440800  0.673800  0.031400  1.0  -0.4021
  N  N208  1  0.460200  0.775400  0.957100  1.0  -0.4242
  N  N209  1  0.924500  0.287800  0.206800  1.0  -0.3831
  N  N210  1  0.984400  0.210400  0.286700  1.0  -0.4053
  N  N211  1  0.940800  0.826200  0.968600  1.0  -0.4006
  N  N212  1  0.960200  0.724600  0.042900  1.0  -0.4266
  N  N213  1  0.293200  0.075500  0.787800  1.0  -0.3847
  N  N214  1  0.213300  0.015600  0.710400  1.0  -0.4049
  N  N215  1  0.531400  0.059200  0.326200  1.0  -0.4006
  N  N216  1  0.457100  0.039800  0.224600  1.0  -0.4274
  N  N217  1  0.706800  0.575500  0.712200  1.0  -0.385
  N  N218  1  0.786700  0.515600  0.789600  1.0  -0.4043
  N  N219  1  0.468600  0.559200  0.173800  1.0  -0.4003
  N  N220  1  0.542900  0.539800  0.275400  1.0  -0.4249
  N  N221  1  0.793200  0.424500  0.212200  1.0  -0.3844
  N  N222  1  0.713300  0.484400  0.289600  1.0  -0.4046
  N  N223  1  0.031400  0.440800  0.673800  1.0  -0.4007
  N  N224  1  0.957100  0.460200  0.775400  1.0  -0.427
  N  N225  1  0.206800  0.924500  0.287800  1.0  -0.3838
  N  N226  1  0.286700  0.984400  0.210400  1.0  -0.4047
  N  N227  1  0.968600  0.940800  0.826200  1.0  -0.4007
  N  N228  1  0.042900  0.960200  0.724600  1.0  -0.4264
  N  N229  1  0.501100  0.498900  0.998900  1.0  -0.6324
  N  N230  1  0.998900  0.501100  0.498900  1.0  -0.6338
  N  N231  1  0.498900  0.998900  0.501100  1.0  -0.6309
  N  N232  1  0.001100  0.001100  0.001100  1.0  -0.6296
  O  O233  1  0.820600  0.403600  0.906100  1.0  -0.5924
  O  O234  1  0.849100  0.428300  0.029100  1.0  -0.6664
  O  O235  1  0.091900  0.599700  0.101800  1.0  -0.6236
  O  O236  1  0.077000  0.481300  0.054800  1.0  -0.6971
  O  O237  1  0.679400  0.596400  0.406100  1.0  -0.5921
  O  O238  1  0.650900  0.571700  0.529100  1.0  -0.6648
  O  O239  1  0.408100  0.400300  0.601800  1.0  -0.6231
  O  O240  1  0.423000  0.518700  0.554800  1.0  -0.6963
  O  O241  1  0.179400  0.903600  0.593900  1.0  -0.5926
  O  O242  1  0.150900  0.928300  0.470900  1.0  -0.6649
  O  O243  1  0.908100  0.099700  0.398200  1.0  -0.6231
  O  O244  1  0.923000  0.981300  0.445200  1.0  -0.6963
  O  O245  1  0.320600  0.096400  0.093900  1.0  -0.5931
  O  O246  1  0.349100  0.071700  0.970900  1.0  -0.6662
  O  O247  1  0.591900  0.900300  0.898200  1.0  -0.6237
  O  O248  1  0.577000  0.018700  0.945200  1.0  -0.6965
  O  O249  1  0.906100  0.820600  0.403600  1.0  -0.5941
  O  O250  1  0.029100  0.849100  0.428300  1.0  -0.6632
  O  O251  1  0.101800  0.091900  0.599700  1.0  -0.6206
  O  O252  1  0.054800  0.077000  0.481300  1.0  -0.6967
  O  O253  1  0.406100  0.679400  0.596400  1.0  -0.5936
  O  O254  1  0.529100  0.650900  0.571700  1.0  -0.6643
  O  O255  1  0.601800  0.408100  0.400300  1.0  -0.6199
  O  O256  1  0.554800  0.423000  0.518700  1.0  -0.6953
  O  O257  1  0.593900  0.179400  0.903600  1.0  -0.5942
  O  O258  1  0.470900  0.150900  0.928300  1.0  -0.6626
  O  O259  1  0.398200  0.908100  0.099700  1.0  -0.6203
  O  O260  1  0.445200  0.923000  0.981300  1.0  -0.6961
  O  O261  1  0.093900  0.320600  0.096400  1.0  -0.5936
  O  O262  1  0.970900  0.349100  0.071700  1.0  -0.6646
  O  O263  1  0.898200  0.591900  0.900300  1.0  -0.6203
  O  O264  1  0.945200  0.577000  0.018700  1.0  -0.6963
  O  O265  1  0.403600  0.906100  0.820600  1.0  -0.5945
  O  O266  1  0.428300  0.029100  0.849100  1.0  -0.6622
  O  O267  1  0.599700  0.101800  0.091900  1.0  -0.6234
  O  O268  1  0.481300  0.054800  0.077000  1.0  -0.6962
  O  O269  1  0.596400  0.406100  0.679400  1.0  -0.5944
  O  O270  1  0.571700  0.529100  0.650900  1.0  -0.6628
  O  O271  1  0.400300  0.601800  0.408100  1.0  -0.6237
  O  O272  1  0.518700  0.554800  0.423000  1.0  -0.6953
  O  O273  1  0.903600  0.593900  0.179400  1.0  -0.5952
  O  O274  1  0.928300  0.470900  0.150900  1.0  -0.6626
  O  O275  1  0.099700  0.398200  0.908100  1.0  -0.6224
  O  O276  1  0.981300  0.445200  0.923000  1.0  -0.6955
  O  O277  1  0.096400  0.093900  0.320600  1.0  -0.5951
  O  O278  1  0.071700  0.970900  0.349100  1.0  -0.6633
  O  O279  1  0.900300  0.898200  0.591900  1.0  -0.6243
  O  O280  1  0.018700  0.945200  0.577000  1.0  -0.6956
