# generated using pymatgen
data_CoH2C4(NO)2
_symmetry_space_group_name_H-M   'P 1'
_cell_length_a   17.52790000
_cell_length_b   17.52790000
_cell_length_c   17.52790000
_cell_angle_alpha   90.00000000
_cell_angle_beta   90.00000000
_cell_angle_gamma   90.00000000
_symmetry_Int_Tables_number   1
_chemical_formula_structural   CoH2C4(NO)2
_chemical_formula_sum   'Co24 H48 C96 N48 O48'
_cell_volume   5385.04901324
_cell_formula_units_Z   24
loop_
 _symmetry_equiv_pos_site_id
 _symmetry_equiv_pos_as_xyz
  1  'x, y, z'
loop_
 _atom_site_type_symbol
 _atom_site_label
 _atom_site_symmetry_multiplicity
 _atom_site_fract_x
 _atom_site_fract_y
 _atom_site_fract_z
 _atom_site_occupancy
 _atom_site_charge
  Co  Co1  1  0.871330  0.105530  0.238260  1.0  0.9715
  Co  Co2  1  0.628670  0.894470  0.738260  1.0  0.9712
  Co  Co3  1  0.128670  0.605530  0.261740  1.0  0.9713
  Co  Co4  1  0.371330  0.394470  0.761740  1.0  0.9708
  Co  Co5  1  0.238260  0.871330  0.105530  1.0  0.9722
  Co  Co6  1  0.738260  0.628670  0.894470  1.0  0.9735
  Co  Co7  1  0.261740  0.128670  0.605530  1.0  0.9735
  Co  Co8  1  0.761740  0.371330  0.394470  1.0  0.9732
  Co  Co9  1  0.105530  0.238260  0.871330  1.0  0.971
  Co  Co10  1  0.894470  0.738260  0.628670  1.0  0.9705
  Co  Co11  1  0.605530  0.261740  0.128670  1.0  0.9703
  Co  Co12  1  0.394470  0.761740  0.371330  1.0  0.9711
  Co  Co13  1  0.787040  0.287040  0.212960  1.0  1.0526
  Co  Co14  1  0.888950  0.388950  0.111050  1.0  0.7159
  Co  Co15  1  0.712960  0.712960  0.712960  1.0  1.052
  Co  Co16  1  0.611050  0.611050  0.611050  1.0  0.7151
  Co  Co17  1  0.212960  0.787040  0.287040  1.0  1.0524
  Co  Co18  1  0.111050  0.888950  0.388950  1.0  0.7156
  Co  Co19  1  0.287040  0.212960  0.787040  1.0  1.0529
  Co  Co20  1  0.388950  0.111050  0.888950  1.0  0.7145
  Co  Co21  1  0.684090  0.815910  0.184090  1.0  0.4376
  Co  Co22  1  0.815910  0.184090  0.684090  1.0  0.4376
  Co  Co23  1  0.315910  0.315910  0.315910  1.0  0.4398
  Co  Co24  1  0.184090  0.684090  0.815910  1.0  0.4376
  H  H25  1  0.825400  0.919500  0.233800  1.0  0.0905
  H  H26  1  0.022200  0.033200  0.166300  1.0  0.1445
  H  H27  1  0.951500  0.001700  0.374300  1.0  0.0726
  H  H28  1  0.630200  0.990200  0.151100  1.0  0.182
  H  H29  1  0.674600  0.080500  0.733800  1.0  0.0908
  H  H30  1  0.477800  0.966800  0.666300  1.0  0.1446
  H  H31  1  0.548500  0.998300  0.874300  1.0  0.0725
  H  H32  1  0.869800  0.009800  0.651100  1.0  0.1809
  H  H33  1  0.174600  0.419500  0.266200  1.0  0.09
  H  H34  1  0.977800  0.533200  0.333700  1.0  0.1447
  H  H35  1  0.048500  0.501700  0.125700  1.0  0.0722
  H  H36  1  0.369800  0.490200  0.348900  1.0  0.1809
  H  H37  1  0.325400  0.580500  0.766200  1.0  0.0908
  H  H38  1  0.522200  0.466800  0.833700  1.0  0.1452
  H  H39  1  0.451500  0.498300  0.625700  1.0  0.072
  H  H40  1  0.130200  0.509800  0.848900  1.0  0.1816
  H  H41  1  0.233800  0.825400  0.919500  1.0  0.0897
  H  H42  1  0.166300  0.022200  0.033200  1.0  0.1451
  H  H43  1  0.374300  0.951500  0.001700  1.0  0.0726
  H  H44  1  0.151100  0.630200  0.990200  1.0  0.1828
  H  H45  1  0.733800  0.674600  0.080500  1.0  0.0917
  H  H46  1  0.666300  0.477800  0.966800  1.0  0.1452
  H  H47  1  0.874300  0.548500  0.998300  1.0  0.0732
  H  H48  1  0.651100  0.869800  0.009800  1.0  0.1833
  H  H49  1  0.266200  0.174600  0.419500  1.0  0.0905
  H  H50  1  0.333700  0.977800  0.533200  1.0  0.1449
  H  H51  1  0.125700  0.048500  0.501700  1.0  0.0725
  H  H52  1  0.348900  0.369800  0.490200  1.0  0.1836
  H  H53  1  0.766200  0.325400  0.580500  1.0  0.0899
  H  H54  1  0.833700  0.522200  0.466800  1.0  0.1447
  H  H55  1  0.625700  0.451500  0.498300  1.0  0.0726
  H  H56  1  0.848900  0.130200  0.509800  1.0  0.1836
  H  H57  1  0.919500  0.233800  0.825400  1.0  0.088
  H  H58  1  0.033200  0.166300  0.022200  1.0  0.1441
  H  H59  1  0.001700  0.374300  0.951500  1.0  0.074
  H  H60  1  0.990200  0.151100  0.630200  1.0  0.1818
  H  H61  1  0.080500  0.733800  0.674600  1.0  0.0893
  H  H62  1  0.966800  0.666300  0.477800  1.0  0.1439
  H  H63  1  0.998300  0.874300  0.548500  1.0  0.0744
  H  H64  1  0.009800  0.651100  0.869800  1.0  0.1821
  H  H65  1  0.419500  0.266200  0.174600  1.0  0.0879
  H  H66  1  0.533200  0.333700  0.977800  1.0  0.1463
  H  H67  1  0.501700  0.125700  0.048500  1.0  0.0735
  H  H68  1  0.490200  0.348900  0.369800  1.0  0.1815
  H  H69  1  0.580500  0.766200  0.325400  1.0  0.0885
  H  H70  1  0.466800  0.833700  0.522200  1.0  0.1454
  H  H71  1  0.498300  0.625700  0.451500  1.0  0.0725
  H  H72  1  0.509800  0.848900  0.130200  1.0  0.1812
  C  C73  1  0.785200  0.951900  0.214600  1.0  0.2667
  C  C74  1  0.723100  0.052000  0.181200  1.0  -0.0233
  C  C75  1  0.712800  0.134300  0.173200  1.0  0.7339
  C  C76  1  0.018000  0.018100  0.215600  1.0  0.0449
  C  C77  1  0.979800  0.000500  0.329100  1.0  0.2773
  C  C78  1  0.931400  0.225400  0.138100  1.0  0.6944
  C  C79  1  0.678400  0.989100  0.168600  1.0  0.0615
  C  C80  1  0.067500  0.970200  0.251100  1.0  0.0126
  C  C81  1  0.714800  0.048100  0.714600  1.0  0.2659
  C  C82  1  0.776900  0.948000  0.681200  1.0  -0.024
  C  C83  1  0.787200  0.865700  0.673200  1.0  0.7336
  C  C84  1  0.482000  0.981900  0.715600  1.0  0.0454
  C  C85  1  0.520200  0.999500  0.829100  1.0  0.277
  C  C86  1  0.568600  0.774600  0.638100  1.0  0.6926
  C  C87  1  0.821600  0.010900  0.668600  1.0  0.0636
  C  C88  1  0.432500  0.029800  0.751100  1.0  0.0123
  C  C89  1  0.214800  0.451900  0.285400  1.0  0.2664
  C  C90  1  0.276900  0.552000  0.318800  1.0  -0.024
  C  C91  1  0.287200  0.634300  0.326800  1.0  0.7339
  C  C92  1  0.982000  0.518100  0.284400  1.0  0.0451
  C  C93  1  0.020200  0.500500  0.170900  1.0  0.2772
  C  C94  1  0.068600  0.725400  0.361900  1.0  0.6919
  C  C95  1  0.321600  0.489100  0.331400  1.0  0.0637
  C  C96  1  0.932500  0.470200  0.248900  1.0  0.0122
  C  C97  1  0.285200  0.548100  0.785400  1.0  0.2675
  C  C98  1  0.223100  0.448000  0.818800  1.0  -0.0235
  C  C99  1  0.212800  0.365700  0.826800  1.0  0.7334
  C  C100  1  0.518000  0.481900  0.784400  1.0  0.0455
  C  C101  1  0.479800  0.499500  0.670900  1.0  0.2784
  C  C102  1  0.431400  0.274600  0.861900  1.0  0.6929
  C  C103  1  0.178400  0.510900  0.831400  1.0  0.062
  C  C104  1  0.567500  0.529800  0.748900  1.0  0.0133
  C  C105  1  0.214600  0.785200  0.951900  1.0  0.2668
  C  C106  1  0.181200  0.723100  0.052000  1.0  -0.0261
  C  C107  1  0.173200  0.712800  0.134300  1.0  0.7346
  C  C108  1  0.215600  0.018000  0.018100  1.0  0.0425
  C  C109  1  0.329100  0.979800  0.000500  1.0  0.2767
  C  C110  1  0.138100  0.931400  0.225400  1.0  0.6889
  C  C111  1  0.168600  0.678400  0.989100  1.0  0.0636
  C  C112  1  0.251100  0.067500  0.970200  1.0  0.0095
  C  C113  1  0.714600  0.714800  0.048100  1.0  0.2688
  C  C114  1  0.681200  0.776900  0.948000  1.0  -0.0263
  C  C115  1  0.673200  0.787200  0.865700  1.0  0.7343
  C  C116  1  0.715600  0.482000  0.981900  1.0  0.0426
  C  C117  1  0.829100  0.520200  0.999500  1.0  0.2772
  C  C118  1  0.638100  0.568600  0.774600  1.0  0.6891
  C  C119  1  0.668600  0.821600  0.010900  1.0  0.0635
  C  C120  1  0.751100  0.432500  0.029800  1.0  0.0095
  C  C121  1  0.285400  0.214800  0.451900  1.0  0.2683
  C  C122  1  0.318800  0.276900  0.552000  1.0  -0.0272
  C  C123  1  0.326800  0.287200  0.634300  1.0  0.7341
  C  C124  1  0.284400  0.982000  0.518100  1.0  0.0447
  C  C125  1  0.170900  0.020200  0.500500  1.0  0.2758
  C  C126  1  0.361900  0.068600  0.725400  1.0  0.689
  C  C127  1  0.331400  0.321600  0.489100  1.0  0.0633
  C  C128  1  0.248900  0.932500  0.470200  1.0  0.0109
  C  C129  1  0.785400  0.285200  0.548100  1.0  0.2669
  C  C130  1  0.818800  0.223100  0.448000  1.0  -0.0278
  C  C131  1  0.826800  0.212800  0.365700  1.0  0.7339
  C  C132  1  0.784400  0.518000  0.481900  1.0  0.0448
  C  C133  1  0.670900  0.479800  0.499500  1.0  0.2763
  C  C134  1  0.861900  0.431400  0.274600  1.0  0.6887
  C  C135  1  0.831400  0.178400  0.510900  1.0  0.0635
  C  C136  1  0.748900  0.567500  0.529800  1.0  0.0099
  C  C137  1  0.951900  0.214600  0.785200  1.0  0.2675
  C  C138  1  0.052000  0.181200  0.723100  1.0  -0.0235
  C  C139  1  0.134300  0.173200  0.712800  1.0  0.7326
  C  C140  1  0.018100  0.215600  0.018000  1.0  0.0433
  C  C141  1  0.000500  0.329100  0.979800  1.0  0.2749
  C  C142  1  0.225400  0.138100  0.931400  1.0  0.6901
  C  C143  1  0.989100  0.168600  0.678400  1.0  0.0649
  C  C144  1  0.970200  0.251100  0.067500  1.0  0.0097
  C  C145  1  0.048100  0.714600  0.714800  1.0  0.2686
  C  C146  1  0.948000  0.681200  0.776900  1.0  -0.0254
  C  C147  1  0.865700  0.673200  0.787200  1.0  0.7337
  C  C148  1  0.981900  0.715600  0.482000  1.0  0.0429
  C  C149  1  0.999500  0.829100  0.520200  1.0  0.2742
  C  C150  1  0.774600  0.638100  0.568600  1.0  0.6911
  C  C151  1  0.010900  0.668600  0.821600  1.0  0.0641
  C  C152  1  0.029800  0.751100  0.432500  1.0  0.0087
  C  C153  1  0.451900  0.285400  0.214800  1.0  0.2683
  C  C154  1  0.552000  0.318800  0.276900  1.0  -0.0244
  C  C155  1  0.634300  0.326800  0.287200  1.0  0.7336
  C  C156  1  0.518100  0.284400  0.982000  1.0  0.0441
  C  C157  1  0.500500  0.170900  0.020200  1.0  0.2754
  C  C158  1  0.725400  0.361900  0.068600  1.0  0.6911
  C  C159  1  0.489100  0.331400  0.321600  1.0  0.0637
  C  C160  1  0.470200  0.248900  0.932500  1.0  0.01
  C  C161  1  0.548100  0.785400  0.285200  1.0  0.2686
  C  C162  1  0.448000  0.818800  0.223100  1.0  -0.0255
  C  C163  1  0.365700  0.826800  0.212800  1.0  0.7323
  C  C164  1  0.481900  0.784400  0.518000  1.0  0.0429
  C  C165  1  0.499500  0.670900  0.479800  1.0  0.2737
  C  C166  1  0.274600  0.861900  0.431400  1.0  0.6899
  C  C167  1  0.510900  0.831400  0.178400  1.0  0.0641
  C  C168  1  0.529800  0.748900  0.567500  1.0  0.009
  N  N169  1  0.792400  0.025700  0.211100  1.0  -0.4268
  N  N170  1  0.961800  0.037300  0.265300  1.0  -0.4114
  N  N171  1  0.718100  0.925500  0.190400  1.0  -0.4006
  N  N172  1  0.042900  0.959700  0.324700  1.0  -0.4499
  N  N173  1  0.707600  0.974300  0.711100  1.0  -0.4289
  N  N174  1  0.538200  0.962700  0.765300  1.0  -0.41
  N  N175  1  0.781900  0.074500  0.690400  1.0  -0.3991
  N  N176  1  0.457100  0.040300  0.824700  1.0  -0.4501
  N  N177  1  0.207600  0.525700  0.288900  1.0  -0.4271
  N  N178  1  0.038200  0.537300  0.234700  1.0  -0.4111
  N  N179  1  0.281900  0.425500  0.309600  1.0  -0.3997
  N  N180  1  0.957100  0.459700  0.175300  1.0  -0.4498
  N  N181  1  0.292400  0.474300  0.788900  1.0  -0.4272
  N  N182  1  0.461800  0.462700  0.734700  1.0  -0.4121
  N  N183  1  0.218100  0.574500  0.809600  1.0  -0.3992
  N  N184  1  0.542900  0.540300  0.675300  1.0  -0.4496
  N  N185  1  0.211100  0.792400  0.025700  1.0  -0.4293
  N  N186  1  0.265300  0.961800  0.037300  1.0  -0.4121
  N  N187  1  0.190400  0.718100  0.925500  1.0  -0.4011
  N  N188  1  0.324700  0.042900  0.959700  1.0  -0.4504
  N  N189  1  0.711100  0.707600  0.974300  1.0  -0.429
  N  N190  1  0.765300  0.538200  0.962700  1.0  -0.4115
  N  N191  1  0.690400  0.781900  0.074500  1.0  -0.3992
  N  N192  1  0.824700  0.457100  0.040300  1.0  -0.451
  N  N193  1  0.288900  0.207600  0.525700  1.0  -0.4283
  N  N194  1  0.234700  0.038200  0.537300  1.0  -0.412
  N  N195  1  0.309600  0.281900  0.425500  1.0  -0.4002
  N  N196  1  0.175300  0.957100  0.459700  1.0  -0.4513
  N  N197  1  0.788900  0.292400  0.474300  1.0  -0.4302
  N  N198  1  0.734700  0.461800  0.462700  1.0  -0.4123
  N  N199  1  0.809600  0.218100  0.574500  1.0  -0.3995
  N  N200  1  0.675300  0.542900  0.540300  1.0  -0.4515
  N  N201  1  0.025700  0.211100  0.792400  1.0  -0.4291
  N  N202  1  0.037300  0.265300  0.961800  1.0  -0.411
  N  N203  1  0.925500  0.190400  0.718100  1.0  -0.3996
  N  N204  1  0.959700  0.324700  0.042900  1.0  -0.4516
  N  N205  1  0.974300  0.711100  0.707600  1.0  -0.4294
  N  N206  1  0.962700  0.765300  0.538200  1.0  -0.4126
  N  N207  1  0.074500  0.690400  0.781900  1.0  -0.4004
  N  N208  1  0.040300  0.824700  0.457100  1.0  -0.4512
  N  N209  1  0.525700  0.288900  0.207600  1.0  -0.4297
  N  N210  1  0.537300  0.234700  0.038200  1.0  -0.4106
  N  N211  1  0.425500  0.309600  0.281900  1.0  -0.4001
  N  N212  1  0.459700  0.175300  0.957100  1.0  -0.451
  N  N213  1  0.474300  0.788900  0.292400  1.0  -0.4296
  N  N214  1  0.462700  0.734700  0.461800  1.0  -0.4114
  N  N215  1  0.574500  0.809600  0.218100  1.0  -0.4005
  N  N216  1  0.540300  0.675300  0.542900  1.0  -0.4504
  O  O217  1  0.769640  0.173420  0.194270  1.0  -0.6827
  O  O218  1  0.930800  0.155900  0.154100  1.0  -0.5939
  O  O219  1  0.854600  0.152200  0.340350  1.0  -0.6298
  O  O220  1  0.901240  0.279040  0.178160  1.0  -0.6601
  O  O221  1  0.730360  0.826580  0.694270  1.0  -0.6833
  O  O222  1  0.569200  0.844100  0.654100  1.0  -0.5953
  O  O223  1  0.645400  0.847800  0.840350  1.0  -0.6293
  O  O224  1  0.598760  0.720960  0.678160  1.0  -0.6597
  O  O225  1  0.230360  0.673420  0.305730  1.0  -0.6831
  O  O226  1  0.069200  0.655900  0.345900  1.0  -0.5949
  O  O227  1  0.145400  0.652200  0.159650  1.0  -0.6304
  O  O228  1  0.098760  0.779040  0.321840  1.0  -0.6605
  O  O229  1  0.269640  0.326580  0.805730  1.0  -0.6834
  O  O230  1  0.430800  0.344100  0.845900  1.0  -0.5953
  O  O231  1  0.354600  0.347800  0.659650  1.0  -0.6304
  O  O232  1  0.401240  0.220960  0.821840  1.0  -0.6608
  O  O233  1  0.194270  0.769640  0.173420  1.0  -0.6856
  O  O234  1  0.154100  0.930800  0.155900  1.0  -0.5927
  O  O235  1  0.340350  0.854600  0.152200  1.0  -0.6282
  O  O236  1  0.178160  0.901240  0.279040  1.0  -0.6603
  O  O237  1  0.694270  0.730360  0.826580  1.0  -0.6858
  O  O238  1  0.654100  0.569200  0.844100  1.0  -0.5932
  O  O239  1  0.840350  0.645400  0.847800  1.0  -0.6283
  O  O240  1  0.678160  0.598760  0.720960  1.0  -0.661
  O  O241  1  0.305730  0.230360  0.673420  1.0  -0.6852
  O  O242  1  0.345900  0.069200  0.655900  1.0  -0.5922
  O  O243  1  0.159650  0.145400  0.652200  1.0  -0.6285
  O  O244  1  0.321840  0.098760  0.779040  1.0  -0.6592
  O  O245  1  0.805730  0.269640  0.326580  1.0  -0.6852
  O  O246  1  0.845900  0.430800  0.344100  1.0  -0.5928
  O  O247  1  0.659650  0.354600  0.347800  1.0  -0.63
  O  O248  1  0.821840  0.401240  0.220960  1.0  -0.6597
  O  O249  1  0.173420  0.194270  0.769640  1.0  -0.683
  O  O250  1  0.155900  0.154100  0.930800  1.0  -0.5929
  O  O251  1  0.152200  0.340350  0.854600  1.0  -0.6305
  O  O252  1  0.279040  0.178160  0.901240  1.0  -0.6615
  O  O253  1  0.826580  0.694270  0.730360  1.0  -0.6833
  O  O254  1  0.844100  0.654100  0.569200  1.0  -0.5917
  O  O255  1  0.847800  0.840350  0.645400  1.0  -0.6296
  O  O256  1  0.720960  0.678160  0.598760  1.0  -0.6605
  O  O257  1  0.673420  0.305730  0.230360  1.0  -0.6838
  O  O258  1  0.655900  0.345900  0.069200  1.0  -0.5928
  O  O259  1  0.652200  0.159650  0.145400  1.0  -0.63
  O  O260  1  0.779040  0.321840  0.098760  1.0  -0.6609
  O  O261  1  0.326580  0.805730  0.269640  1.0  -0.6825
  O  O262  1  0.344100  0.845900  0.430800  1.0  -0.5918
  O  O263  1  0.347800  0.659650  0.354600  1.0  -0.6291
  O  O264  1  0.220960  0.821840  0.401240  1.0  -0.6606
