# generated using pymatgen
data_MnH23(C14O3)2
_symmetry_space_group_name_H-M   'P 1'
_cell_length_a   19.67860000
_cell_length_b   22.77030000
_cell_length_c   14.83440000
_cell_angle_alpha   90.00000000
_cell_angle_beta   104.14700000
_cell_angle_gamma   90.00000000
_symmetry_Int_Tables_number   1
_chemical_formula_structural   MnH23(C14O3)2
_chemical_formula_sum   'Mn8 H184 C224 O48'
_cell_volume   6445.51649416
_cell_formula_units_Z   8
loop_
 _symmetry_equiv_pos_site_id
 _symmetry_equiv_pos_as_xyz
  1  'x, y, z'
loop_
 _atom_site_type_symbol
 _atom_site_label
 _atom_site_symmetry_multiplicity
 _atom_site_fract_x
 _atom_site_fract_y
 _atom_site_fract_z
 _atom_site_occupancy
 _atom_site_charge
  Mn  Mn1  1  0.030550  0.569620  0.533780  1.0  1.1246
  Mn  Mn2  1  0.057140  0.560690  0.788140  1.0  1.1146
  Mn  Mn3  1  0.969450  0.069620  0.966220  1.0  1.1253
  Mn  Mn4  1  0.942860  0.060690  0.711860  1.0  1.1125
  Mn  Mn5  1  0.969450  0.430380  0.466220  1.0  1.1219
  Mn  Mn6  1  0.942860  0.439310  0.211860  1.0  1.113
  Mn  Mn7  1  0.030550  0.930380  0.033780  1.0  1.1203
  Mn  Mn8  1  0.057140  0.939310  0.288140  1.0  1.1146
  H  H9  1  0.090300  0.372300  0.629700  1.0  0.1246
  H  H10  1  0.141500  0.411400  0.589300  1.0  0.0988
  H  H11  1  0.285000  0.378800  0.850300  1.0  0.1215
  H  H12  1  0.208400  0.484100  0.631100  1.0  0.1215
  H  H13  1  0.270200  0.566500  0.602700  1.0  0.1087
  H  H14  1  0.341900  0.539800  0.594800  1.0  0.1228
  H  H15  1  0.339900  0.585800  0.672800  1.0  0.1013
  H  H16  1  0.433100  0.456500  0.948000  1.0  0.1135
  H  H17  1  0.445900  0.401400  0.891000  1.0  0.1345
  H  H18  1  0.393200  0.397700  0.954800  1.0  0.1278
  H  H19  1  0.485100  0.472000  0.745500  1.0  0.0966
  H  H20  1  0.326500  0.578700  0.863500  1.0  0.1068
  H  H21  1  0.328400  0.666300  0.937400  1.0  0.1047
  H  H22  1  0.650200  0.708700  0.906100  1.0  0.106
  H  H23  1  0.647500  0.622100  0.831000  1.0  0.1095
  H  H24  1  0.493100  0.813600  0.031800  1.0  0.101
  H  H25  1  0.265300  0.816300  0.823100  1.0  0.1281
  H  H26  1  0.325100  0.769800  0.830200  1.0  0.1233
  H  H27  1  0.344000  0.836100  0.851500  1.0  0.1327
  H  H28  1  0.423300  0.734900  0.239000  1.0  0.1198
  H  H29  1  0.472800  0.750800  0.174200  1.0  0.113
  H  H30  1  0.431700  0.691200  0.160700  1.0  0.1256
  H  H31  1  0.313900  0.780800  0.204700  1.0  0.1204
  H  H32  1  0.219800  0.833300  0.948800  1.0  0.112
  H  H33  1  0.250700  0.852800  0.232500  1.0  0.0646
  H  H34  1  0.200200  0.798800  0.226500  1.0  0.1056
  H  H35  1  0.709500  0.890600  0.918200  1.0  0.1012
  H  H36  1  0.751800  0.820400  0.173400  1.0  0.1074
  H  H37  1  0.683000  0.744700  0.211000  1.0  0.1301
  H  H38  1  0.623300  0.715800  0.134300  1.0  0.1231
  H  H39  1  0.607300  0.771400  0.187900  1.0  0.1204
  H  H40  1  0.604900  0.873700  0.809700  1.0  0.1231
  H  H41  1  0.541100  0.853100  0.847700  1.0  0.1232
  H  H42  1  0.584600  0.807100  0.806500  1.0  0.1193
  H  H43  1  0.848900  0.853700  0.181900  1.0  0.0936
  H  H44  1  0.825900  0.918900  0.192500  1.0  0.0893
  H  H45  1  0.685200  0.516600  0.589600  1.0  0.1045
  H  H46  1  0.747400  0.437400  0.835000  1.0  0.1151
  H  H47  1  0.688100  0.446400  0.951400  1.0  0.1269
  H  H48  1  0.606600  0.445700  0.911400  1.0  0.1259
  H  H49  1  0.644600  0.504200  0.950500  1.0  0.1169
  H  H50  1  0.582000  0.570900  0.550100  1.0  0.1216
  H  H51  1  0.564900  0.605400  0.633300  1.0  0.1264
  H  H52  1  0.522400  0.548700  0.595000  1.0  0.127
  H  H53  1  0.798300  0.503800  0.591800  1.0  0.0749
  H  H54  1  0.756000  0.446700  0.554700  1.0  0.092
  H  H55  1  0.909700  0.872300  0.870300  1.0  0.1254
  H  H56  1  0.858500  0.911400  0.910700  1.0  0.0969
  H  H57  1  0.715000  0.878800  0.649700  1.0  0.121
  H  H58  1  0.791600  0.984100  0.868900  1.0  0.1218
  H  H59  1  0.729800  0.066500  0.897300  1.0  0.1088
  H  H60  1  0.658100  0.039800  0.905200  1.0  0.1233
  H  H61  1  0.660100  0.085800  0.827200  1.0  0.1022
  H  H62  1  0.566900  0.956500  0.552000  1.0  0.1148
  H  H63  1  0.554100  0.901400  0.609000  1.0  0.1354
  H  H64  1  0.606800  0.897700  0.545200  1.0  0.1268
  H  H65  1  0.514900  0.972000  0.754500  1.0  0.0971
  H  H66  1  0.673500  0.078700  0.636500  1.0  0.1074
  H  H67  1  0.671600  0.166300  0.562600  1.0  0.1056
  H  H68  1  0.349800  0.208700  0.593900  1.0  0.107
  H  H69  1  0.352500  0.122100  0.669000  1.0  0.1093
  H  H70  1  0.506900  0.313600  0.468200  1.0  0.1019
  H  H71  1  0.734700  0.316300  0.676900  1.0  0.1286
  H  H72  1  0.674900  0.269800  0.669800  1.0  0.1221
  H  H73  1  0.656000  0.336100  0.648500  1.0  0.1334
  H  H74  1  0.576700  0.234900  0.261000  1.0  0.1191
  H  H75  1  0.527200  0.250800  0.325800  1.0  0.112
  H  H76  1  0.568300  0.191200  0.339300  1.0  0.1263
  H  H77  1  0.686100  0.280800  0.295300  1.0  0.1198
  H  H78  1  0.780200  0.333333  0.551200  1.0  0.1124
  H  H79  1  0.749300  0.352800  0.267500  1.0  0.0647
  H  H80  1  0.799800  0.298800  0.273500  1.0  0.106
  H  H81  1  0.290500  0.390600  0.581800  1.0  0.1015
  H  H82  1  0.248200  0.320400  0.326600  1.0  0.1077
  H  H83  1  0.317000  0.244700  0.289000  1.0  0.1297
  H  H84  1  0.376700  0.215800  0.365700  1.0  0.1234
  H  H85  1  0.392700  0.271400  0.312100  1.0  0.1203
  H  H86  1  0.395100  0.373700  0.690300  1.0  0.1221
  H  H87  1  0.458900  0.353100  0.652300  1.0  0.1251
  H  H88  1  0.415400  0.307100  0.693500  1.0  0.1199
  H  H89  1  0.151100  0.353700  0.318100  1.0  0.0918
  H  H90  1  0.174100  0.418900  0.307500  1.0  0.0893
  H  H91  1  0.314800  0.016600  0.910400  1.0  0.1045
  H  H92  1  0.252600  0.937400  0.665000  1.0  0.1146
  H  H93  1  0.311900  0.946400  0.548600  1.0  0.1277
  H  H94  1  0.393400  0.945700  0.588600  1.0  0.126
  H  H95  1  0.355400  0.004200  0.549500  1.0  0.1191
  H  H96  1  0.418000  0.070900  0.949900  1.0  0.1205
  H  H97  1  0.435100  0.105400  0.866700  1.0  0.1255
  H  H98  1  0.477600  0.048700  0.905000  1.0  0.1253
  H  H99  1  0.201700  0.003800  0.908200  1.0  0.0748
  H  H100  1  0.244000  0.946700  0.945300  1.0  0.0924
  H  H101  1  0.909700  0.627700  0.370300  1.0  0.1253
  H  H102  1  0.858500  0.588600  0.410700  1.0  0.0966
  H  H103  1  0.715000  0.621200  0.149700  1.0  0.1211
  H  H104  1  0.791600  0.515900  0.368900  1.0  0.1221
  H  H105  1  0.729800  0.433500  0.397300  1.0  0.1091
  H  H106  1  0.658100  0.460200  0.405200  1.0  0.1231
  H  H107  1  0.660100  0.414200  0.327200  1.0  0.1017
  H  H108  1  0.566900  0.543500  0.052000  1.0  0.114
  H  H109  1  0.554100  0.598600  0.109000  1.0  0.1342
  H  H110  1  0.606800  0.602300  0.045200  1.0  0.1271
  H  H111  1  0.514900  0.528000  0.254500  1.0  0.0969
  H  H112  1  0.673500  0.421300  0.136500  1.0  0.1074
  H  H113  1  0.671600  0.333700  0.062600  1.0  0.1058
  H  H114  1  0.349800  0.291300  0.093900  1.0  0.1075
  H  H115  1  0.352500  0.377900  0.169000  1.0  0.1095
  H  H116  1  0.506900  0.186400  0.968200  1.0  0.102
  H  H117  1  0.734700  0.183700  0.176900  1.0  0.1287
  H  H118  1  0.674900  0.230200  0.169800  1.0  0.1217
  H  H119  1  0.656000  0.163900  0.148500  1.0  0.1335
  H  H120  1  0.576700  0.265100  0.761000  1.0  0.1194
  H  H121  1  0.527200  0.249200  0.825800  1.0  0.1122
  H  H122  1  0.568300  0.308800  0.839300  1.0  0.1252
  H  H123  1  0.686100  0.219200  0.795300  1.0  0.1204
  H  H124  1  0.780200  0.166700  0.051200  1.0  0.1122
  H  H125  1  0.749300  0.147200  0.767500  1.0  0.0649
  H  H126  1  0.799800  0.201200  0.773500  1.0  0.1056
  H  H127  1  0.290500  0.109400  0.081800  1.0  0.1013
  H  H128  1  0.248200  0.179600  0.826600  1.0  0.1078
  H  H129  1  0.317000  0.255300  0.789000  1.0  0.1298
  H  H130  1  0.376700  0.284200  0.865700  1.0  0.1243
  H  H131  1  0.392700  0.228600  0.812100  1.0  0.1202
  H  H132  1  0.395100  0.126300  0.190300  1.0  0.122
  H  H133  1  0.458900  0.146900  0.152300  1.0  0.1254
  H  H134  1  0.415400  0.192900  0.193500  1.0  0.1194
  H  H135  1  0.151100  0.146300  0.818100  1.0  0.0921
  H  H136  1  0.174100  0.081100  0.807500  1.0  0.0891
  H  H137  1  0.314800  0.483400  0.410400  1.0  0.104
  H  H138  1  0.252600  0.562600  0.165000  1.0  0.1149
  H  H139  1  0.311900  0.553600  0.048600  1.0  0.1284
  H  H140  1  0.393400  0.554300  0.088600  1.0  0.1256
  H  H141  1  0.355400  0.495800  0.049500  1.0  0.1175
  H  H142  1  0.418000  0.429100  0.449900  1.0  0.1203
  H  H143  1  0.435100  0.394600  0.366700  1.0  0.1262
  H  H144  1  0.477600  0.451300  0.405000  1.0  0.1248
  H  H145  1  0.201700  0.496200  0.408200  1.0  0.0742
  H  H146  1  0.244000  0.553300  0.445300  1.0  0.0919
  H  H147  1  0.090300  0.127700  0.129700  1.0  0.1248
  H  H148  1  0.141500  0.088600  0.089300  1.0  0.0982
  H  H149  1  0.285000  0.121200  0.350300  1.0  0.1213
  H  H150  1  0.208400  0.015900  0.131100  1.0  0.1217
  H  H151  1  0.270200  0.933500  0.102700  1.0  0.1087
  H  H152  1  0.341900  0.960200  0.094800  1.0  0.1227
  H  H153  1  0.339900  0.914200  0.172800  1.0  0.1014
  H  H154  1  0.433100  0.043500  0.448000  1.0  0.1142
  H  H155  1  0.445900  0.098600  0.391000  1.0  0.1345
  H  H156  1  0.393200  0.102300  0.454800  1.0  0.127
  H  H157  1  0.485100  0.028000  0.245500  1.0  0.0973
  H  H158  1  0.326500  0.921300  0.363500  1.0  0.1066
  H  H159  1  0.328400  0.833700  0.437400  1.0  0.1049
  H  H160  1  0.650200  0.791300  0.406100  1.0  0.1066
  H  H161  1  0.647500  0.877900  0.331000  1.0  0.1098
  H  H162  1  0.493100  0.686400  0.531800  1.0  0.1015
  H  H163  1  0.265300  0.683700  0.323100  1.0  0.128
  H  H164  1  0.325100  0.730200  0.330200  1.0  0.1228
  H  H165  1  0.344000  0.663900  0.351500  1.0  0.1329
  H  H166  1  0.423300  0.765100  0.739000  1.0  0.1196
  H  H167  1  0.472800  0.749200  0.674200  1.0  0.1131
  H  H168  1  0.431700  0.808800  0.660700  1.0  0.1254
  H  H169  1  0.313900  0.719200  0.704700  1.0  0.1203
  H  H170  1  0.219800  0.666667  0.448800  1.0  0.1118
  H  H171  1  0.250700  0.647200  0.732500  1.0  0.0639
  H  H172  1  0.200200  0.701200  0.726500  1.0  0.1048
  H  H173  1  0.709500  0.609400  0.418200  1.0  0.1011
  H  H174  1  0.751800  0.679600  0.673400  1.0  0.1075
  H  H175  1  0.683000  0.755300  0.711000  1.0  0.1302
  H  H176  1  0.623300  0.784200  0.634300  1.0  0.1237
  H  H177  1  0.607300  0.728600  0.687900  1.0  0.1214
  H  H178  1  0.604900  0.626300  0.309700  1.0  0.1222
  H  H179  1  0.541100  0.646900  0.347700  1.0  0.1234
  H  H180  1  0.584600  0.692900  0.306500  1.0  0.1197
  H  H181  1  0.848900  0.646300  0.681900  1.0  0.0933
  H  H182  1  0.825900  0.581100  0.692500  1.0  0.0888
  H  H183  1  0.685200  0.983400  0.089600  1.0  0.1046
  H  H184  1  0.747400  0.062600  0.335000  1.0  0.1151
  H  H185  1  0.688100  0.053600  0.451400  1.0  0.127
  H  H186  1  0.606600  0.054300  0.411400  1.0  0.1257
  H  H187  1  0.644600  0.995800  0.450500  1.0  0.1175
  H  H188  1  0.582000  0.929100  0.050100  1.0  0.1221
  H  H189  1  0.564900  0.894600  0.133300  1.0  0.1269
  H  H190  1  0.522400  0.951300  0.095000  1.0  0.1273
  H  H191  1  0.798300  0.996200  0.091800  1.0  0.0757
  H  H192  1  0.756000  0.053300  0.054700  1.0  0.0919
  C  C193  1  0.082200  0.459700  0.658200  1.0  0.7258
  C  C194  1  0.122300  0.405400  0.642900  1.0  -0.1201
  C  C195  1  0.236700  0.426100  0.737400  1.0  0.3049
  C  C196  1  0.290800  0.410500  0.813300  1.0  -0.1478
  C  C197  1  0.353200  0.441800  0.834400  1.0  0.0519
  C  C198  1  0.361100  0.489310  0.777700  1.0  -0.0449
  C  C199  1  0.307100  0.504200  0.702200  1.0  -0.0098
  C  C200  1  0.244600  0.473400  0.681500  1.0  -0.1905
  C  C201  1  0.315600  0.553600  0.637200  1.0  -0.3782
  C  C202  1  0.411600  0.422700  0.914200  1.0  -0.3788
  C  C203  1  0.426200  0.526350  0.799600  1.0  -0.0408
  C  C204  1  0.485700  0.508200  0.774600  1.0  -0.075
  C  C205  1  0.546700  0.541200  0.790400  1.0  -0.0636
  C  C206  1  0.548300  0.596700  0.833200  1.0  0.0264
  C  C207  1  0.488100  0.616300  0.861200  1.0  -0.0609
  C  C208  1  0.426600  0.580520  0.844200  1.0  -0.0215
  C  C209  1  0.366900  0.601600  0.874400  1.0  -0.1295
  C  C210  1  0.367900  0.654100  0.918600  1.0  -0.1278
  C  C211  1  0.428800  0.691030  0.936700  1.0  -0.0086
  C  C212  1  0.488700  0.671600  0.908100  1.0  -0.0632
  C  C213  1  0.550600  0.706900  0.925700  1.0  0.0062
  C  C214  1  0.609700  0.686000  0.895200  1.0  -0.0788
  C  C215  1  0.608300  0.633900  0.850700  1.0  -0.0965
  C  C216  1  0.551500  0.760400  0.974300  1.0  -0.0415
  C  C217  1  0.492000  0.778000  0.000900  1.0  -0.1022
  C  C218  1  0.430600  0.744900  0.984000  1.0  -0.0436
  C  C219  1  0.311700  0.805200  0.856300  1.0  -0.3936
  C  C220  1  0.369400  0.767100  0.017600  1.0  -0.0384
  C  C221  1  0.369500  0.761100  0.109900  1.0  0.02
  C  C222  1  0.429800  0.731900  0.177000  1.0  -0.3849
  C  C223  1  0.313400  0.783300  0.142000  1.0  -0.1886
  C  C224  1  0.257000  0.809200  0.080100  1.0  0.2793
  C  C225  1  0.257500  0.815300  0.989600  1.0  -0.1668
  C  C226  1  0.313100  0.795200  0.957000  1.0  0.0601
  C  C227  1  0.205000  0.837500  0.201500  1.0  -0.0586
  C  C228  1  0.148200  0.877900  0.220200  1.0  0.7573
  C  C229  1  0.616500  0.796000  0.000100  1.0  -0.0336
  C  C230  1  0.634900  0.834300  0.935900  1.0  0.0333
  C  C231  1  0.697100  0.865500  0.961000  1.0  -0.1693
  C  C232  1  0.741300  0.859800  0.049500  1.0  0.2501
  C  C233  1  0.722700  0.823500  0.113900  1.0  -0.1334
  C  C234  1  0.660500  0.791200  0.090200  1.0  0.0565
  C  C235  1  0.641800  0.752200  0.162400  1.0  -0.3935
  C  C236  1  0.587100  0.842800  0.841500  1.0  -0.4013
  C  C237  1  0.846000  0.892600  0.154500  1.0  -0.0543
  C  C238  1  0.919700  0.914000  0.152700  1.0  0.7236
  C  C239  1  0.609400  0.518200  0.761800  1.0  -0.0174
  C  C240  1  0.619400  0.530700  0.673800  1.0  0.0649
  C  C241  1  0.678300  0.508200  0.648000  1.0  -0.1798
  C  C242  1  0.726000  0.473600  0.708900  1.0  0.2794
  C  C243  1  0.715400  0.461200  0.794700  1.0  -0.1074
  C  C244  1  0.658100  0.483100  0.823000  1.0  0.09
  C  C245  1  0.648500  0.468500  0.917600  1.0  -0.3908
  C  C246  1  0.567600  0.567100  0.607100  1.0  -0.4185
  C  C247  1  0.795900  0.461800  0.601000  1.0  -0.0481
  C  C248  1  0.862800  0.433100  0.587300  1.0  0.742
  C  C249  1  0.917800  0.959700  0.841800  1.0  0.7239
  C  C250  1  0.877700  0.905400  0.857100  1.0  -0.1246
  C  C251  1  0.763300  0.926100  0.762600  1.0  0.3027
  C  C252  1  0.709200  0.910500  0.686700  1.0  -0.1472
  C  C253  1  0.646800  0.941800  0.665600  1.0  0.0532
  C  C254  1  0.638900  0.989310  0.722300  1.0  -0.0438
  C  C255  1  0.692900  0.004200  0.797800  1.0  -0.0101
  C  C256  1  0.755400  0.973400  0.818500  1.0  -0.1905
  C  C257  1  0.684400  0.053600  0.862800  1.0  -0.3779
  C  C258  1  0.588400  0.922700  0.585800  1.0  -0.3778
  C  C259  1  0.573800  0.026350  0.700400  1.0  -0.0408
  C  C260  1  0.514300  0.008200  0.725400  1.0  -0.074
  C  C261  1  0.453300  0.041200  0.709600  1.0  -0.0643
  C  C262  1  0.451700  0.096700  0.666800  1.0  0.0266
  C  C263  1  0.511900  0.116300  0.638800  1.0  -0.0615
  C  C264  1  0.573400  0.080520  0.655800  1.0  -0.0214
  C  C265  1  0.633100  0.101600  0.625600  1.0  -0.1315
  C  C266  1  0.632100  0.154100  0.581400  1.0  -0.1296
  C  C267  1  0.571200  0.191030  0.563300  1.0  -0.0079
  C  C268  1  0.511300  0.171600  0.591900  1.0  -0.0637
  C  C269  1  0.449400  0.206900  0.574300  1.0  0.0054
  C  C270  1  0.390300  0.186000  0.604800  1.0  -0.079
  C  C271  1  0.391700  0.133900  0.649300  1.0  -0.0964
  C  C272  1  0.448500  0.260400  0.525700  1.0  -0.0419
  C  C273  1  0.508000  0.278000  0.499100  1.0  -0.1017
  C  C274  1  0.569400  0.244900  0.516000  1.0  -0.0431
  C  C275  1  0.688300  0.305200  0.643700  1.0  -0.3922
  C  C276  1  0.630600  0.267100  0.482400  1.0  -0.0374
  C  C277  1  0.630500  0.261100  0.390100  1.0  0.021
  C  C278  1  0.570200  0.231900  0.323000  1.0  -0.3847
  C  C279  1  0.686600  0.283300  0.358000  1.0  -0.1884
  C  C280  1  0.743000  0.309200  0.419900  1.0  0.2792
  C  C281  1  0.742500  0.315300  0.510400  1.0  -0.1685
  C  C282  1  0.686900  0.295200  0.543000  1.0  0.0619
  C  C283  1  0.795000  0.337500  0.298500  1.0  -0.0579
  C  C284  1  0.851800  0.377900  0.279800  1.0  0.7569
  C  C285  1  0.383500  0.296000  0.499900  1.0  -0.0339
  C  C286  1  0.365100  0.334300  0.564100  1.0  0.0336
  C  C287  1  0.302900  0.365500  0.539000  1.0  -0.1684
  C  C288  1  0.258700  0.359800  0.450500  1.0  0.2509
  C  C289  1  0.277300  0.323500  0.386100  1.0  -0.1348
  C  C290  1  0.339500  0.291200  0.409800  1.0  0.057
  C  C291  1  0.358200  0.252200  0.337600  1.0  -0.394
  C  C292  1  0.412900  0.342800  0.658500  1.0  -0.4017
  C  C293  1  0.154000  0.392600  0.345500  1.0  -0.0561
  C  C294  1  0.080300  0.414000  0.347300  1.0  0.7215
  C  C295  1  0.390600  0.018200  0.738200  1.0  -0.0186
  C  C296  1  0.380600  0.030700  0.826200  1.0  0.0659
  C  C297  1  0.321700  0.008200  0.852000  1.0  -0.1801
  C  C298  1  0.274000  0.973600  0.791100  1.0  0.2775
  C  C299  1  0.284600  0.961200  0.705300  1.0  -0.1072
  C  C300  1  0.341900  0.983100  0.677000  1.0  0.088
  C  C301  1  0.351500  0.968500  0.582400  1.0  -0.3863
  C  C302  1  0.432400  0.067100  0.892900  1.0  -0.4183
  C  C303  1  0.204100  0.961800  0.899000  1.0  -0.0481
  C  C304  1  0.137200  0.933100  0.912700  1.0  0.7435
  C  C305  1  0.917800  0.540300  0.341800  1.0  0.723
  C  C306  1  0.877700  0.594600  0.357100  1.0  -0.1256
  C  C307  1  0.763300  0.573900  0.262600  1.0  0.302
  C  C308  1  0.709200  0.589500  0.186700  1.0  -0.1471
  C  C309  1  0.646800  0.558200  0.165600  1.0  0.0524
  C  C310  1  0.638900  0.510690  0.222300  1.0  -0.0437
  C  C311  1  0.692900  0.495800  0.297800  1.0  -0.0102
  C  C312  1  0.755400  0.526600  0.318500  1.0  -0.1902
  C  C313  1  0.684400  0.446400  0.362800  1.0  -0.3787
  C  C314  1  0.588400  0.577300  0.085800  1.0  -0.3783
  C  C315  1  0.573800  0.473650  0.200400  1.0  -0.0407
  C  C316  1  0.514300  0.491800  0.225400  1.0  -0.0735
  C  C317  1  0.453300  0.458800  0.209600  1.0  -0.0642
  C  C318  1  0.451700  0.403300  0.166800  1.0  0.0266
  C  C319  1  0.511900  0.383700  0.138800  1.0  -0.0618
  C  C320  1  0.573400  0.419480  0.155800  1.0  -0.0213
  C  C321  1  0.633100  0.398400  0.125600  1.0  -0.1306
  C  C322  1  0.632100  0.345900  0.081400  1.0  -0.129
  C  C323  1  0.571200  0.308970  0.063300  1.0  -0.0079
  C  C324  1  0.511300  0.328400  0.091900  1.0  -0.0637
  C  C325  1  0.449400  0.293100  0.074300  1.0  0.0053
  C  C326  1  0.390300  0.314000  0.104800  1.0  -0.0798
  C  C327  1  0.391700  0.366100  0.149300  1.0  -0.0967
  C  C328  1  0.448500  0.239600  0.025700  1.0  -0.0414
  C  C329  1  0.508000  0.222000  0.999100  1.0  -0.1012
  C  C330  1  0.569400  0.255100  0.016000  1.0  -0.0426
  C  C331  1  0.688300  0.194800  0.143700  1.0  -0.3935
  C  C332  1  0.630600  0.232900  0.982400  1.0  -0.0373
  C  C333  1  0.630500  0.238900  0.890100  1.0  0.0207
  C  C334  1  0.570200  0.268100  0.823000  1.0  -0.3846
  C  C335  1  0.686600  0.216700  0.858000  1.0  -0.1881
  C  C336  1  0.743000  0.190800  0.919900  1.0  0.2786
  C  C337  1  0.742500  0.184700  0.010400  1.0  -0.1681
  C  C338  1  0.686900  0.204800  0.043000  1.0  0.0618
  C  C339  1  0.795000  0.162500  0.798500  1.0  -0.058
  C  C340  1  0.851800  0.122100  0.779800  1.0  0.7577
  C  C341  1  0.383500  0.204000  0.999900  1.0  -0.034
  C  C342  1  0.365100  0.165700  0.064100  1.0  0.0337
  C  C343  1  0.302900  0.134500  0.039000  1.0  -0.1683
  C  C344  1  0.258700  0.140200  0.950500  1.0  0.2513
  C  C345  1  0.277300  0.176500  0.886100  1.0  -0.1343
  C  C346  1  0.339500  0.208800  0.909800  1.0  0.057
  C  C347  1  0.358200  0.247800  0.837600  1.0  -0.3936
  C  C348  1  0.412900  0.157200  0.158500  1.0  -0.4021
  C  C349  1  0.154000  0.107400  0.845500  1.0  -0.0564
  C  C350  1  0.080300  0.086000  0.847300  1.0  0.7223
  C  C351  1  0.390600  0.481800  0.238200  1.0  -0.0177
  C  C352  1  0.380600  0.469300  0.326200  1.0  0.0648
  C  C353  1  0.321700  0.491800  0.352000  1.0  -0.1804
  C  C354  1  0.274000  0.526400  0.291100  1.0  0.2782
  C  C355  1  0.284600  0.538800  0.205300  1.0  -0.1082
  C  C356  1  0.341900  0.516900  0.177000  1.0  0.0876
  C  C357  1  0.351500  0.531500  0.082400  1.0  -0.3869
  C  C358  1  0.432400  0.432900  0.392900  1.0  -0.4186
  C  C359  1  0.204100  0.538200  0.399000  1.0  -0.0475
  C  C360  1  0.137200  0.566900  0.412700  1.0  0.7448
  C  C361  1  0.082200  0.040300  0.158200  1.0  0.7251
  C  C362  1  0.122300  0.094600  0.142900  1.0  -0.1222
  C  C363  1  0.236700  0.073900  0.237400  1.0  0.3037
  C  C364  1  0.290800  0.089500  0.313300  1.0  -0.1483
  C  C365  1  0.353200  0.058200  0.334400  1.0  0.0516
  C  C366  1  0.361100  0.010690  0.277700  1.0  -0.0448
  C  C367  1  0.307100  0.995800  0.202200  1.0  -0.0098
  C  C368  1  0.244600  0.026600  0.181500  1.0  -0.1903
  C  C369  1  0.315600  0.946400  0.137200  1.0  -0.378
  C  C370  1  0.411600  0.077300  0.414200  1.0  -0.379
  C  C371  1  0.426200  0.973650  0.299600  1.0  -0.0407
  C  C372  1  0.485700  0.991800  0.274600  1.0  -0.0741
  C  C373  1  0.546700  0.958800  0.290400  1.0  -0.0635
  C  C374  1  0.548300  0.903300  0.333200  1.0  0.0264
  C  C375  1  0.488100  0.883700  0.361200  1.0  -0.0612
  C  C376  1  0.426600  0.919480  0.344200  1.0  -0.0213
  C  C377  1  0.366900  0.898400  0.374400  1.0  -0.129
  C  C378  1  0.367900  0.845900  0.418600  1.0  -0.1276
  C  C379  1  0.428800  0.808970  0.436700  1.0  -0.0086
  C  C380  1  0.488700  0.828400  0.408100  1.0  -0.0631
  C  C381  1  0.550600  0.793100  0.425700  1.0  0.0062
  C  C382  1  0.609700  0.814000  0.395200  1.0  -0.0805
  C  C383  1  0.608300  0.866100  0.350700  1.0  -0.0968
  C  C384  1  0.551500  0.739600  0.474300  1.0  -0.0411
  C  C385  1  0.492000  0.722000  0.500900  1.0  -0.102
  C  C386  1  0.430600  0.755100  0.484000  1.0  -0.0433
  C  C387  1  0.311700  0.694800  0.356300  1.0  -0.3932
  C  C388  1  0.369400  0.732900  0.517600  1.0  -0.0382
  C  C389  1  0.369500  0.738900  0.609900  1.0  0.0198
  C  C390  1  0.429800  0.768100  0.677000  1.0  -0.3844
  C  C391  1  0.313400  0.716700  0.642000  1.0  -0.1877
  C  C392  1  0.257000  0.690800  0.580100  1.0  0.2789
  C  C393  1  0.257500  0.684700  0.489600  1.0  -0.1671
  C  C394  1  0.313100  0.704800  0.457000  1.0  0.06
  C  C395  1  0.205000  0.662500  0.701500  1.0  -0.0578
  C  C396  1  0.148200  0.622100  0.720200  1.0  0.7571
  C  C397  1  0.616500  0.704000  0.500100  1.0  -0.0337
  C  C398  1  0.634900  0.665700  0.435900  1.0  0.0338
  C  C399  1  0.697100  0.634500  0.461000  1.0  -0.1692
  C  C400  1  0.741300  0.640200  0.549500  1.0  0.2503
  C  C401  1  0.722700  0.676500  0.613900  1.0  -0.133
  C  C402  1  0.660500  0.708800  0.590200  1.0  0.0567
  C  C403  1  0.641800  0.747800  0.662400  1.0  -0.3931
  C  C404  1  0.587100  0.657200  0.341500  1.0  -0.4015
  C  C405  1  0.846000  0.607400  0.654500  1.0  -0.0568
  C  C406  1  0.919700  0.586000  0.652700  1.0  0.7232
  C  C407  1  0.609400  0.981800  0.261800  1.0  -0.0165
  C  C408  1  0.619400  0.969300  0.173800  1.0  0.0643
  C  C409  1  0.678300  0.991800  0.148000  1.0  -0.1803
  C  C410  1  0.726000  0.026400  0.208900  1.0  0.279
  C  C411  1  0.715400  0.038800  0.294700  1.0  -0.1086
  C  C412  1  0.658100  0.016900  0.323000  1.0  0.0894
  C  C413  1  0.648500  0.031500  0.417600  1.0  -0.3916
  C  C414  1  0.567600  0.932900  0.107100  1.0  -0.4185
  C  C415  1  0.795900  0.038200  0.101000  1.0  -0.0484
  C  C416  1  0.862800  0.066900  0.087300  1.0  0.7423
  O  O417  1  0.037150  0.478350  0.586400  1.0  -0.675
  O  O418  1  0.094720  0.483280  0.736100  1.0  -0.6483
  O  O419  1  0.178630  0.391660  0.722600  1.0  -0.2843
  O  O420  1  0.879640  0.450450  0.516400  1.0  -0.5844
  O  O421  1  0.891700  0.393000  0.641300  1.0  -0.5663
  O  O422  1  0.785680  0.450900  0.690700  1.0  -0.2673
  O  O423  1  0.939470  0.909000  0.081700  1.0  -0.6385
  O  O424  1  0.952400  0.935600  0.227300  1.0  -0.6468
  O  O425  1  0.095100  0.891910  0.159700  1.0  -0.6803
  O  O426  1  0.157900  0.893300  0.303200  1.0  -0.5821
  O  O427  1  0.199780  0.833280  0.105800  1.0  -0.2754
  O  O428  1  0.802620  0.890890  0.063700  1.0  -0.2634
  O  O429  1  0.962850  0.978350  0.913600  1.0  -0.6748
  O  O430  1  0.905280  0.983280  0.763900  1.0  -0.6418
  O  O431  1  0.821370  0.891660  0.777400  1.0  -0.282
  O  O432  1  0.120360  0.950450  0.983600  1.0  -0.5851
  O  O433  1  0.108300  0.893000  0.858700  1.0  -0.5638
  O  O434  1  0.214320  0.950900  0.809300  1.0  -0.2708
  O  O435  1  0.060530  0.409000  0.418300  1.0  -0.6389
  O  O436  1  0.047600  0.435600  0.272700  1.0  -0.647
  O  O437  1  0.904900  0.391910  0.340300  1.0  -0.6817
  O  O438  1  0.842100  0.393300  0.196800  1.0  -0.5822
  O  O439  1  0.800220  0.333280  0.394200  1.0  -0.2736
  O  O440  1  0.197380  0.390890  0.436300  1.0  -0.2666
  O  O441  1  0.962850  0.521650  0.413600  1.0  -0.6749
  O  O442  1  0.905280  0.516720  0.263900  1.0  -0.6424
  O  O443  1  0.821370  0.608340  0.277400  1.0  -0.2818
  O  O444  1  0.120360  0.549550  0.483600  1.0  -0.5845
  O  O445  1  0.108300  0.607000  0.358700  1.0  -0.566
  O  O446  1  0.214320  0.549100  0.309300  1.0  -0.2696
  O  O447  1  0.060530  0.091000  0.918300  1.0  -0.6397
  O  O448  1  0.047600  0.064400  0.772700  1.0  -0.6467
  O  O449  1  0.904900  0.108090  0.840300  1.0  -0.6778
  O  O450  1  0.842100  0.106700  0.696800  1.0  -0.5826
  O  O451  1  0.800220  0.166720  0.894200  1.0  -0.2726
  O  O452  1  0.197380  0.109110  0.936300  1.0  -0.2646
  O  O453  1  0.037150  0.021650  0.086400  1.0  -0.6754
  O  O454  1  0.094720  0.016720  0.236100  1.0  -0.6485
  O  O455  1  0.178630  0.108340  0.222600  1.0  -0.2802
  O  O456  1  0.879640  0.049550  0.016400  1.0  -0.5834
  O  O457  1  0.891700  0.107000  0.141300  1.0  -0.5689
  O  O458  1  0.785680  0.049100  0.190700  1.0  -0.27
  O  O459  1  0.939470  0.591000  0.581700  1.0  -0.64
  O  O460  1  0.952400  0.564400  0.727300  1.0  -0.647
  O  O461  1  0.095100  0.608090  0.659700  1.0  -0.6795
  O  O462  1  0.157900  0.606700  0.803200  1.0  -0.5821
  O  O463  1  0.199780  0.666667  0.605800  1.0  -0.2749
  O  O464  1  0.802620  0.609110  0.563700  1.0  -0.2637
