# generated using pymatgen
data_Cd2H11C21(NO2)3
_symmetry_space_group_name_H-M   'P 1'
_cell_length_a   27.68170000
_cell_length_b   10.26940000
_cell_length_c   20.63560000
_cell_angle_alpha   90.00000000
_cell_angle_beta   123.24100000
_cell_angle_gamma   90.00000000
_symmetry_Int_Tables_number   1
_chemical_formula_structural   Cd2H11C21(NO2)3
_chemical_formula_sum   'Cd16 H88 C168 N24 O48'
_cell_volume   4906.30513799
_cell_formula_units_Z   8
loop_
 _symmetry_equiv_pos_site_id
 _symmetry_equiv_pos_as_xyz
  1  'x, y, z'
loop_
 _atom_site_type_symbol
 _atom_site_label
 _atom_site_symmetry_multiplicity
 _atom_site_fract_x
 _atom_site_fract_y
 _atom_site_fract_z
 _atom_site_occupancy
 _atom_site_charge
  Cd  Cd1  1  0.824890  0.797450  0.548250  1.0  1.0496
  Cd  Cd2  1  0.957070  0.978300  0.635390  1.0  1.0806
  Cd  Cd3  1  0.324890  0.297450  0.548250  1.0  1.0496
  Cd  Cd4  1  0.457070  0.478300  0.635390  1.0  1.0806
  Cd  Cd5  1  0.175110  0.797450  0.951750  1.0  1.0483
  Cd  Cd6  1  0.042930  0.978300  0.864610  1.0  1.0793
  Cd  Cd7  1  0.675110  0.297450  0.951750  1.0  1.0483
  Cd  Cd8  1  0.542930  0.478300  0.864610  1.0  1.0793
  Cd  Cd9  1  0.175110  0.202550  0.451750  1.0  1.0483
  Cd  Cd10  1  0.042930  0.021700  0.364610  1.0  1.078
  Cd  Cd11  1  0.675110  0.702550  0.451750  1.0  1.0483
  Cd  Cd12  1  0.542930  0.521700  0.364610  1.0  1.078
  Cd  Cd13  1  0.824890  0.202550  0.048250  1.0  1.0495
  Cd  Cd14  1  0.957070  0.021700  0.135390  1.0  1.0805
  Cd  Cd15  1  0.324890  0.702550  0.048250  1.0  1.0495
  Cd  Cd16  1  0.457070  0.521700  0.135390  1.0  1.0805
  H  H17  1  0.780700  0.990700  0.151400  1.0  0.1025
  H  H18  1  0.664400  0.816800  0.951100  1.0  0.1196
  H  H19  1  0.754200  0.606900  0.146700  1.0  0.106
  H  H20  1  0.776800  0.658200  0.274800  1.0  0.1
  H  H21  1  0.959000  0.791700  0.921500  1.0  0.1234
  H  H22  1  0.833300  0.678500  0.407800  1.0  0.1011
  H  H23  1  0.926400  0.954400  0.387200  1.0  0.0894
  H  H24  1  0.870800  0.930500  0.254700  1.0  0.0917
  H  H25  1  0.798600  0.658000  0.679300  1.0  0.1241
  H  H26  1  0.808900  0.598500  0.793200  1.0  0.0875
  H  H27  1  0.886500  0.666100  0.912100  1.0  0.1004
  H  H28  1  0.280700  0.490700  0.151400  1.0  0.1025
  H  H29  1  0.164400  0.316800  0.951100  1.0  0.1196
  H  H30  1  0.254200  0.106900  0.146700  1.0  0.106
  H  H31  1  0.276800  0.158200  0.274800  1.0  0.0999
  H  H32  1  0.459000  0.291700  0.921500  1.0  0.1234
  H  H33  1  0.333333  0.178500  0.407800  1.0  0.101
  H  H34  1  0.426400  0.454400  0.387200  1.0  0.0894
  H  H35  1  0.370800  0.430500  0.254700  1.0  0.0917
  H  H36  1  0.298600  0.158000  0.679300  1.0  0.1241
  H  H37  1  0.308900  0.098500  0.793200  1.0  0.0875
  H  H38  1  0.386500  0.166100  0.912100  1.0  0.1004
  H  H39  1  0.219300  0.990700  0.348600  1.0  0.1033
  H  H40  1  0.335600  0.816800  0.548900  1.0  0.119
  H  H41  1  0.245800  0.606900  0.353300  1.0  0.1057
  H  H42  1  0.223200  0.658200  0.225200  1.0  0.1001
  H  H43  1  0.041000  0.791700  0.578500  1.0  0.124
  H  H44  1  0.166700  0.678500  0.092200  1.0  0.1011
  H  H45  1  0.073600  0.954400  0.112800  1.0  0.0895
  H  H46  1  0.129200  0.930500  0.245300  1.0  0.092
  H  H47  1  0.201400  0.658000  0.820700  1.0  0.1237
  H  H48  1  0.191100  0.598500  0.706800  1.0  0.087
  H  H49  1  0.113500  0.666100  0.587900  1.0  0.1001
  H  H50  1  0.719300  0.490700  0.348600  1.0  0.1033
  H  H51  1  0.835600  0.316800  0.548900  1.0  0.119
  H  H52  1  0.745800  0.106900  0.353300  1.0  0.1057
  H  H53  1  0.723200  0.158200  0.225200  1.0  0.1001
  H  H54  1  0.541000  0.291700  0.578500  1.0  0.124
  H  H55  1  0.666667  0.178500  0.092200  1.0  0.101
  H  H56  1  0.573600  0.454400  0.112800  1.0  0.0895
  H  H57  1  0.629200  0.430500  0.245300  1.0  0.092
  H  H58  1  0.701400  0.158000  0.820700  1.0  0.1237
  H  H59  1  0.691100  0.098500  0.706800  1.0  0.087
  H  H60  1  0.613500  0.166100  0.587900  1.0  0.1001
  H  H61  1  0.219300  0.009300  0.848600  1.0  0.1036
  H  H62  1  0.335600  0.183200  0.048900  1.0  0.1196
  H  H63  1  0.245800  0.393100  0.853300  1.0  0.1055
  H  H64  1  0.223200  0.341800  0.725200  1.0  0.1003
  H  H65  1  0.041000  0.208300  0.078500  1.0  0.124
  H  H66  1  0.166700  0.321500  0.592200  1.0  0.1014
  H  H67  1  0.073600  0.045600  0.612800  1.0  0.0894
  H  H68  1  0.129200  0.069500  0.745300  1.0  0.092
  H  H69  1  0.201400  0.342000  0.320700  1.0  0.1237
  H  H70  1  0.191100  0.401500  0.206800  1.0  0.087
  H  H71  1  0.113500  0.333900  0.087900  1.0  0.0998
  H  H72  1  0.719300  0.509300  0.848600  1.0  0.1036
  H  H73  1  0.835600  0.683200  0.048900  1.0  0.1196
  H  H74  1  0.745800  0.893100  0.853300  1.0  0.1055
  H  H75  1  0.723200  0.841800  0.725200  1.0  0.1002
  H  H76  1  0.541000  0.708300  0.078500  1.0  0.124
  H  H77  1  0.666667  0.821500  0.592200  1.0  0.1013
  H  H78  1  0.573600  0.545600  0.612800  1.0  0.0894
  H  H79  1  0.629200  0.569500  0.745300  1.0  0.092
  H  H80  1  0.701400  0.842000  0.320700  1.0  0.1237
  H  H81  1  0.691100  0.901500  0.206800  1.0  0.087
  H  H82  1  0.613500  0.833900  0.087900  1.0  0.0998
  H  H83  1  0.780700  0.009300  0.651400  1.0  0.1034
  H  H84  1  0.664400  0.183200  0.451100  1.0  0.1196
  H  H85  1  0.754200  0.393100  0.646700  1.0  0.1054
  H  H86  1  0.776800  0.341800  0.774800  1.0  0.1002
  H  H87  1  0.959000  0.208300  0.421500  1.0  0.124
  H  H88  1  0.833300  0.321500  0.907800  1.0  0.1011
  H  H89  1  0.926400  0.045600  0.887200  1.0  0.0901
  H  H90  1  0.870800  0.069500  0.754700  1.0  0.092
  H  H91  1  0.798600  0.342000  0.179300  1.0  0.1246
  H  H92  1  0.808900  0.401500  0.293200  1.0  0.0874
  H  H93  1  0.886500  0.333900  0.412100  1.0  0.1005
  H  H94  1  0.280700  0.509300  0.651400  1.0  0.1034
  H  H95  1  0.164400  0.683200  0.451100  1.0  0.1196
  H  H96  1  0.254200  0.893100  0.646700  1.0  0.1054
  H  H97  1  0.276800  0.841800  0.774800  1.0  0.1001
  H  H98  1  0.459000  0.708300  0.421500  1.0  0.124
  H  H99  1  0.333333  0.821500  0.907800  1.0  0.1009
  H  H100  1  0.426400  0.545600  0.887200  1.0  0.0901
  H  H101  1  0.370800  0.569500  0.754700  1.0  0.092
  H  H102  1  0.298600  0.842000  0.179300  1.0  0.1246
  H  H103  1  0.308900  0.901500  0.293200  1.0  0.0874
  H  H104  1  0.386500  0.833900  0.412100  1.0  0.1005
  C  C105  1  0.873310  0.764900  0.731930  1.0  0.1424
  C  C106  1  0.761690  0.915400  0.124350  1.0  -0.0532
  C  C107  1  0.815130  0.797500  0.250070  1.0  0.0635
  C  C108  1  0.721260  0.923000  0.045290  1.0  -0.1422
  C  C109  1  0.914630  0.856600  0.496140  1.0  0.6563
  C  C110  1  0.692230  0.811800  0.003950  1.0  0.0344
  C  C111  1  0.774570  0.798400  0.164340  1.0  0.0308
  C  C112  1  0.707190  0.052500  0.005590  1.0  0.6606
  C  C113  1  0.705050  0.693600  0.042030  1.0  -0.1427
  C  C114  1  0.745890  0.687000  0.121620  1.0  -0.0556
  C  C115  1  0.676160  0.571000  0.996760  1.0  0.6884
  C  C116  1  0.921500  0.802900  0.803280  1.0  0.102
  C  C117  1  0.806150  0.719900  0.297200  1.0  -0.1177
  C  C118  1  0.927370  0.766000  0.873500  1.0  -0.1218
  C  C119  1  0.839960  0.732100  0.377200  1.0  -0.0844
  C  C120  1  0.883860  0.824400  0.411690  1.0  -0.1262
  C  C121  1  0.895580  0.896300  0.364770  1.0  -0.0447
  C  C122  1  0.861990  0.882500  0.285160  1.0  -0.1479
  C  C123  1  0.830190  0.685600  0.726800  1.0  -0.136
  C  C124  1  0.836860  0.651000  0.794700  1.0  -0.0679
  C  C125  1  0.884420  0.691200  0.867400  1.0  -0.0809
  C  C126  1  0.373310  0.264900  0.731930  1.0  0.1424
  C  C127  1  0.261690  0.415400  0.124350  1.0  -0.0532
  C  C128  1  0.315130  0.297500  0.250070  1.0  0.0635
  C  C129  1  0.221260  0.423000  0.045290  1.0  -0.1422
  C  C130  1  0.414630  0.356600  0.496140  1.0  0.6561
  C  C131  1  0.192230  0.311800  0.003950  1.0  0.0344
  C  C132  1  0.274570  0.298400  0.164340  1.0  0.0308
  C  C133  1  0.207190  0.552500  0.005590  1.0  0.6605
  C  C134  1  0.205050  0.193600  0.042030  1.0  -0.1427
  C  C135  1  0.245890  0.187000  0.121620  1.0  -0.0556
  C  C136  1  0.176160  0.071000  0.996760  1.0  0.6884
  C  C137  1  0.421500  0.302900  0.803280  1.0  0.102
  C  C138  1  0.306150  0.219900  0.297200  1.0  -0.118
  C  C139  1  0.427370  0.266000  0.873500  1.0  -0.1218
  C  C140  1  0.339960  0.232100  0.377200  1.0  -0.0797
  C  C141  1  0.383860  0.324400  0.411690  1.0  -0.1262
  C  C142  1  0.395580  0.396300  0.364770  1.0  -0.0447
  C  C143  1  0.361990  0.382500  0.285160  1.0  -0.1479
  C  C144  1  0.330190  0.185600  0.726800  1.0  -0.136
  C  C145  1  0.336860  0.151000  0.794700  1.0  -0.0679
  C  C146  1  0.384420  0.191200  0.867400  1.0  -0.0809
  C  C147  1  0.126690  0.764900  0.768070  1.0  0.142
  C  C148  1  0.238310  0.915400  0.375650  1.0  -0.0532
  C  C149  1  0.184870  0.797500  0.249930  1.0  0.0637
  C  C150  1  0.278740  0.923000  0.454710  1.0  -0.1426
  C  C151  1  0.085370  0.856600  0.003860  1.0  0.656
  C  C152  1  0.307770  0.811800  0.496050  1.0  0.0338
  C  C153  1  0.225430  0.798400  0.335660  1.0  0.0302
  C  C154  1  0.292810  0.052500  0.494410  1.0  0.6606
  C  C155  1  0.294950  0.693600  0.457970  1.0  -0.1422
  C  C156  1  0.254110  0.687000  0.378380  1.0  -0.0563
  C  C157  1  0.323840  0.571000  0.503240  1.0  0.6887
  C  C158  1  0.078500  0.802900  0.696720  1.0  0.1002
  C  C159  1  0.193850  0.719900  0.202800  1.0  -0.1189
  C  C160  1  0.072630  0.766000  0.626500  1.0  -0.1208
  C  C161  1  0.160040  0.732100  0.122800  1.0  -0.0837
  C  C162  1  0.116140  0.824400  0.088310  1.0  -0.1251
  C  C163  1  0.104420  0.896300  0.135230  1.0  -0.0454
  C  C164  1  0.138010  0.882500  0.214840  1.0  -0.1487
  C  C165  1  0.169810  0.685600  0.773200  1.0  -0.1354
  C  C166  1  0.163140  0.651000  0.705300  1.0  -0.0685
  C  C167  1  0.115580  0.691200  0.632600  1.0  -0.082
  C  C168  1  0.626690  0.264900  0.768070  1.0  0.142
  C  C169  1  0.738310  0.415400  0.375650  1.0  -0.0532
  C  C170  1  0.684870  0.297500  0.249930  1.0  0.0637
  C  C171  1  0.778740  0.423000  0.454710  1.0  -0.1426
  C  C172  1  0.585370  0.356600  0.003860  1.0  0.6559
  C  C173  1  0.807770  0.311800  0.496050  1.0  0.0338
  C  C174  1  0.725430  0.298400  0.335660  1.0  0.0302
  C  C175  1  0.792810  0.552500  0.494410  1.0  0.6606
  C  C176  1  0.794950  0.193600  0.457970  1.0  -0.1422
  C  C177  1  0.754110  0.187000  0.378380  1.0  -0.0563
  C  C178  1  0.823840  0.071000  0.503240  1.0  0.6887
  C  C179  1  0.578500  0.302900  0.696720  1.0  0.1002
  C  C180  1  0.693850  0.219900  0.202800  1.0  -0.1193
  C  C181  1  0.572630  0.266000  0.626500  1.0  -0.1208
  C  C182  1  0.660040  0.232100  0.122800  1.0  -0.0791
  C  C183  1  0.616140  0.324400  0.088310  1.0  -0.1251
  C  C184  1  0.604420  0.396300  0.135230  1.0  -0.0454
  C  C185  1  0.638010  0.382500  0.214840  1.0  -0.1487
  C  C186  1  0.669810  0.185600  0.773200  1.0  -0.1354
  C  C187  1  0.663140  0.151000  0.705300  1.0  -0.0685
  C  C188  1  0.615580  0.191200  0.632600  1.0  -0.082
  C  C189  1  0.126690  0.235100  0.268070  1.0  0.1418
  C  C190  1  0.238310  0.084600  0.875650  1.0  -0.0534
  C  C191  1  0.184870  0.202500  0.749930  1.0  0.0634
  C  C192  1  0.278740  0.077000  0.954710  1.0  -0.142
  C  C193  1  0.085370  0.143400  0.503860  1.0  0.6561
  C  C194  1  0.307770  0.188200  0.996050  1.0  0.0345
  C  C195  1  0.225430  0.201600  0.835660  1.0  0.0303
  C  C196  1  0.292810  0.947500  0.994410  1.0  0.661
  C  C197  1  0.294950  0.306400  0.957970  1.0  -0.1417
  C  C198  1  0.254110  0.313000  0.878380  1.0  -0.0579
  C  C199  1  0.323840  0.429000  0.003240  1.0  0.6886
  C  C200  1  0.078500  0.197100  0.196720  1.0  0.1001
  C  C201  1  0.193850  0.280100  0.702800  1.0  -0.1188
  C  C202  1  0.072630  0.234000  0.126500  1.0  -0.1214
  C  C203  1  0.160040  0.267900  0.622800  1.0  -0.0825
  C  C204  1  0.116140  0.175600  0.588310  1.0  -0.1251
  C  C205  1  0.104420  0.103700  0.635230  1.0  -0.0458
  C  C206  1  0.138010  0.117500  0.714840  1.0  -0.1487
  C  C207  1  0.169810  0.314400  0.273200  1.0  -0.1355
  C  C208  1  0.163140  0.349000  0.205300  1.0  -0.0674
  C  C209  1  0.115580  0.308800  0.132600  1.0  -0.0816
  C  C210  1  0.626690  0.735100  0.268070  1.0  0.1418
  C  C211  1  0.738310  0.584600  0.875650  1.0  -0.0534
  C  C212  1  0.684870  0.702500  0.749930  1.0  0.0634
  C  C213  1  0.778740  0.577000  0.954710  1.0  -0.142
  C  C214  1  0.585370  0.643400  0.503860  1.0  0.656
  C  C215  1  0.807770  0.688200  0.996050  1.0  0.0345
  C  C216  1  0.725430  0.701600  0.835660  1.0  0.0303
  C  C217  1  0.792810  0.447500  0.994410  1.0  0.6609
  C  C218  1  0.794950  0.806400  0.957970  1.0  -0.1417
  C  C219  1  0.754110  0.813000  0.878380  1.0  -0.0579
  C  C220  1  0.823840  0.929000  0.003240  1.0  0.6886
  C  C221  1  0.578500  0.697100  0.196720  1.0  0.1001
  C  C222  1  0.693850  0.780100  0.702800  1.0  -0.1191
  C  C223  1  0.572630  0.734000  0.126500  1.0  -0.1214
  C  C224  1  0.660040  0.767900  0.622800  1.0  -0.0782
  C  C225  1  0.616140  0.675600  0.588310  1.0  -0.1251
  C  C226  1  0.604420  0.603700  0.635230  1.0  -0.0458
  C  C227  1  0.638010  0.617500  0.714840  1.0  -0.1487
  C  C228  1  0.669810  0.814400  0.273200  1.0  -0.1355
  C  C229  1  0.663140  0.849000  0.205300  1.0  -0.0674
  C  C230  1  0.615580  0.808800  0.132600  1.0  -0.0816
  C  C231  1  0.873310  0.235100  0.231930  1.0  0.1441
  C  C232  1  0.761690  0.084600  0.624350  1.0  -0.0533
  C  C233  1  0.815130  0.202500  0.750070  1.0  0.0635
  C  C234  1  0.721260  0.077000  0.545290  1.0  -0.1423
  C  C235  1  0.914630  0.143400  0.996140  1.0  0.6561
  C  C236  1  0.692230  0.188200  0.503950  1.0  0.0347
  C  C237  1  0.774570  0.201600  0.664340  1.0  0.0306
  C  C238  1  0.707190  0.947500  0.505590  1.0  0.6601
  C  C239  1  0.705050  0.306400  0.542030  1.0  -0.1416
  C  C240  1  0.745890  0.313000  0.621620  1.0  -0.0574
  C  C241  1  0.676160  0.429000  0.496760  1.0  0.6882
  C  C242  1  0.921500  0.197100  0.303280  1.0  0.1017
  C  C243  1  0.806150  0.280100  0.797200  1.0  -0.1181
  C  C244  1  0.927370  0.234000  0.373500  1.0  -0.1218
  C  C245  1  0.839960  0.267900  0.877200  1.0  -0.0841
  C  C246  1  0.883860  0.175600  0.911690  1.0  -0.1264
  C  C247  1  0.895580  0.103700  0.864770  1.0  -0.0447
  C  C248  1  0.861990  0.117500  0.785160  1.0  -0.1478
  C  C249  1  0.830190  0.314400  0.226800  1.0  -0.1359
  C  C250  1  0.836860  0.349000  0.294700  1.0  -0.0676
  C  C251  1  0.884420  0.308800  0.367400  1.0  -0.0801
  C  C252  1  0.373310  0.735100  0.231930  1.0  0.1441
  C  C253  1  0.261690  0.584600  0.624350  1.0  -0.0533
  C  C254  1  0.315130  0.702500  0.750070  1.0  0.0635
  C  C255  1  0.221260  0.577000  0.545290  1.0  -0.1423
  C  C256  1  0.414630  0.643400  0.996140  1.0  0.656
  C  C257  1  0.192230  0.688200  0.503950  1.0  0.0347
  C  C258  1  0.274570  0.701600  0.664340  1.0  0.0306
  C  C259  1  0.207190  0.447500  0.505590  1.0  0.66
  C  C260  1  0.205050  0.806400  0.542030  1.0  -0.1416
  C  C261  1  0.245890  0.813000  0.621620  1.0  -0.0574
  C  C262  1  0.176160  0.929000  0.496760  1.0  0.6882
  C  C263  1  0.421500  0.697100  0.303280  1.0  0.1017
  C  C264  1  0.306150  0.780100  0.797200  1.0  -0.1184
  C  C265  1  0.427370  0.734000  0.373500  1.0  -0.1218
  C  C266  1  0.339960  0.767900  0.877200  1.0  -0.0797
  C  C267  1  0.383860  0.675600  0.911690  1.0  -0.1264
  C  C268  1  0.395580  0.603700  0.864770  1.0  -0.0447
  C  C269  1  0.361990  0.617500  0.785160  1.0  -0.1478
  C  C270  1  0.330190  0.814400  0.226800  1.0  -0.1359
  C  C271  1  0.336860  0.849000  0.294700  1.0  -0.0676
  C  C272  1  0.384420  0.808800  0.367400  1.0  -0.0801
  N  N273  1  0.928440  0.884700  0.712030  1.0  -0.0373
  N  N274  1  0.955040  0.878000  0.788830  1.0  -0.2616
  N  N275  1  0.879100  0.817600  0.676140  1.0  -0.2098
  N  N276  1  0.428440  0.384700  0.712030  1.0  -0.0373
  N  N277  1  0.455040  0.378000  0.788830  1.0  -0.2616
  N  N278  1  0.379100  0.317600  0.676140  1.0  -0.2098
  N  N279  1  0.071560  0.884700  0.787970  1.0  -0.0388
  N  N280  1  0.044960  0.878000  0.711170  1.0  -0.2621
  N  N281  1  0.120900  0.817600  0.823860  1.0  -0.2102
  N  N282  1  0.571560  0.384700  0.787970  1.0  -0.0388
  N  N283  1  0.544960  0.378000  0.711170  1.0  -0.2621
  N  N284  1  0.620900  0.317600  0.823860  1.0  -0.2102
  N  N285  1  0.071560  0.115300  0.287970  1.0  -0.0389
  N  N286  1  0.044960  0.122000  0.211170  1.0  -0.2625
  N  N287  1  0.120900  0.182400  0.323860  1.0  -0.2107
  N  N288  1  0.571560  0.615300  0.287970  1.0  -0.0389
  N  N289  1  0.544960  0.622000  0.211170  1.0  -0.2625
  N  N290  1  0.620900  0.682400  0.323860  1.0  -0.2107
  N  N291  1  0.928440  0.115300  0.212030  1.0  -0.0375
  N  N292  1  0.955040  0.122000  0.288830  1.0  -0.2611
  N  N293  1  0.879100  0.182400  0.176140  1.0  -0.2095
  N  N294  1  0.428440  0.615300  0.212030  1.0  -0.0375
  N  N295  1  0.455040  0.622000  0.288830  1.0  -0.2611
  N  N296  1  0.379100  0.682400  0.176140  1.0  -0.2095
  O  O297  1  0.905680  0.791100  0.540600  1.0  -0.694
  O  O298  1  0.738380  0.151000  0.044360  1.0  -0.6596
  O  O299  1  0.700760  0.465400  0.029780  1.0  -0.5835
  O  O300  1  0.664500  0.064200  0.937860  1.0  -0.6003
  O  O301  1  0.947880  0.953900  0.520360  1.0  -0.5845
  O  O302  1  0.631710  0.581200  0.929850  1.0  -0.7009
  O  O303  1  0.405680  0.291100  0.540600  1.0  -0.6936
  O  O304  1  0.238380  0.651000  0.044360  1.0  -0.6596
  O  O305  1  0.200760  0.965400  0.029780  1.0  -0.5835
  O  O306  1  0.164500  0.564200  0.937860  1.0  -0.6003
  O  O307  1  0.447880  0.453900  0.520360  1.0  -0.5845
  O  O308  1  0.131710  0.081200  0.929850  1.0  -0.7009
  O  O309  1  0.094320  0.791100  0.959400  1.0  -0.6941
  O  O310  1  0.261620  0.151000  0.455640  1.0  -0.6588
  O  O311  1  0.299240  0.465400  0.470220  1.0  -0.5835
  O  O312  1  0.335500  0.064200  0.562140  1.0  -0.5991
  O  O313  1  0.052120  0.953900  0.979640  1.0  -0.5841
  O  O314  1  0.368290  0.581200  0.570150  1.0  -0.7009
  O  O315  1  0.594320  0.291100  0.959400  1.0  -0.6937
  O  O316  1  0.761620  0.651000  0.455640  1.0  -0.6588
  O  O317  1  0.799240  0.965400  0.470220  1.0  -0.5835
  O  O318  1  0.835500  0.564200  0.562140  1.0  -0.5991
  O  O319  1  0.552120  0.453900  0.979640  1.0  -0.584
  O  O320  1  0.868290  0.081200  0.570150  1.0  -0.7009
  O  O321  1  0.094320  0.208900  0.459400  1.0  -0.6946
  O  O322  1  0.261620  0.849000  0.955640  1.0  -0.6592
  O  O323  1  0.299240  0.534600  0.970220  1.0  -0.5843
  O  O324  1  0.335500  0.935800  0.062140  1.0  -0.5991
  O  O325  1  0.052120  0.046100  0.479640  1.0  -0.5844
  O  O326  1  0.368290  0.418800  0.070150  1.0  -0.7007
  O  O327  1  0.594320  0.708900  0.459400  1.0  -0.6942
  O  O328  1  0.761620  0.349000  0.955640  1.0  -0.6592
  O  O329  1  0.799240  0.034600  0.970220  1.0  -0.5843
  O  O330  1  0.835500  0.435800  0.062140  1.0  -0.5991
  O  O331  1  0.552120  0.546100  0.479640  1.0  -0.5844
  O  O332  1  0.868290  0.918800  0.070150  1.0  -0.7007
  O  O333  1  0.905680  0.208900  0.040600  1.0  -0.6948
  O  O334  1  0.738380  0.849000  0.544360  1.0  -0.6599
  O  O335  1  0.700760  0.534600  0.529780  1.0  -0.5847
  O  O336  1  0.664500  0.935800  0.437860  1.0  -0.6
  O  O337  1  0.947880  0.046100  0.020360  1.0  -0.5841
  O  O338  1  0.631710  0.418800  0.429850  1.0  -0.7008
  O  O339  1  0.405680  0.708900  0.040600  1.0  -0.6944
  O  O340  1  0.238380  0.349000  0.544360  1.0  -0.6599
  O  O341  1  0.200760  0.034600  0.529780  1.0  -0.5847
  O  O342  1  0.164500  0.435800  0.437860  1.0  -0.6
  O  O343  1  0.447880  0.546100  0.020360  1.0  -0.5841
  O  O344  1  0.131710  0.918800  0.429850  1.0  -0.7008
