# generated using pymatgen
data_Ni3H16C28(NO7)2
_symmetry_space_group_name_H-M   'P 1'
_cell_length_a   12.17610000
_cell_length_b   14.33600000
_cell_length_c   12.55520000
_cell_angle_alpha   90.00000000
_cell_angle_beta   113.22000000
_cell_angle_gamma   90.00000000
_symmetry_Int_Tables_number   1
_chemical_formula_structural   Ni3H16C28(NO7)2
_chemical_formula_sum   'Ni6 H32 C56 N4 O28'
_cell_volume   2014.06875483
_cell_formula_units_Z   2
loop_
 _symmetry_equiv_pos_site_id
 _symmetry_equiv_pos_as_xyz
  1  'x, y, z'
loop_
 _atom_site_type_symbol
 _atom_site_label
 _atom_site_symmetry_multiplicity
 _atom_site_fract_x
 _atom_site_fract_y
 _atom_site_fract_z
 _atom_site_occupancy
 _atom_site_charge
  Ni  Ni1  1  0.738370  0.637430  0.495300  1.0  0.9015
  Ni  Ni2  1  0.761630  0.137430  0.004700  1.0  0.9032
  Ni  Ni3  1  0.261630  0.362570  0.504700  1.0  0.8993
  Ni  Ni4  1  0.238370  0.862570  0.995300  1.0  0.8954
  Ni  Ni5  1  0.500000  0.500000  0.500000  1.0  0.9374
  Ni  Ni6  1  0.000000  0.000000  0.000000  1.0  0.9376
  H  H7  1  0.428300  0.661400  0.212500  1.0  0.1376
  H  H8  1  0.659000  0.457100  0.329200  1.0  0.1089
  H  H9  1  0.407900  0.702300  0.691700  1.0  0.1102
  H  H10  1  0.731600  0.811400  0.755000  1.0  0.1172
  H  H11  1  0.399100  0.625700  0.025300  1.0  0.128
  H  H12  1  0.633300  0.415100  0.144100  1.0  0.1247
  H  H13  1  0.516100  0.930500  0.890400  1.0  0.1171
  H  H14  1  0.517300  0.643800  0.386200  1.0  0.1891
  H  H15  1  0.071700  0.161400  0.287500  1.0  0.1378
  H  H16  1  0.841000  0.957100  0.170800  1.0  0.1083
  H  H17  1  0.092100  0.202300  0.808300  1.0  0.1101
  H  H18  1  0.768400  0.311400  0.745000  1.0  0.1178
  H  H19  1  0.100900  0.125700  0.474700  1.0  0.1275
  H  H20  1  0.866700  0.915100  0.355900  1.0  0.1246
  H  H21  1  0.983900  0.430500  0.609600  1.0  0.1176
  H  H22  1  0.982700  0.143800  0.113800  1.0  0.1886
  H  H23  1  0.571700  0.338600  0.787500  1.0  0.1381
  H  H24  1  0.341000  0.542900  0.670800  1.0  0.1087
  H  H25  1  0.592100  0.297700  0.308300  1.0  0.1095
  H  H26  1  0.268400  0.188600  0.245000  1.0  0.1178
  H  H27  1  0.600900  0.374300  0.974700  1.0  0.1276
  H  H28  1  0.366700  0.584900  0.855900  1.0  0.1244
  H  H29  1  0.483900  0.069500  0.109600  1.0  0.1176
  H  H30  1  0.482700  0.356200  0.613800  1.0  0.189
  H  H31  1  0.928300  0.838600  0.712500  1.0  0.1376
  H  H32  1  0.159000  0.042900  0.829200  1.0  0.1089
  H  H33  1  0.907900  0.797700  0.191700  1.0  0.1095
  H  H34  1  0.231600  0.688600  0.255000  1.0  0.1172
  H  H35  1  0.899100  0.874300  0.525300  1.0  0.1277
  H  H36  1  0.133300  0.084900  0.644100  1.0  0.1247
  H  H37  1  0.016100  0.569500  0.390400  1.0  0.1173
  H  H38  1  0.017300  0.856200  0.886200  1.0  0.1887
  C  C39  1  0.593700  0.667700  0.641200  1.0  0.7212
  C  C40  1  0.573000  0.744800  0.713100  1.0  -0.1427
  C  C41  1  0.469600  0.611900  0.197700  1.0  0.0121
  C  C42  1  0.606100  0.490600  0.266500  1.0  -0.0301
  C  C43  1  0.465600  0.747600  0.726700  1.0  0.0287
  C  C44  1  0.660300  0.812200  0.765800  1.0  0.0339
  C  C45  1  0.451200  0.589800  0.085800  1.0  -0.102
  C  C46  1  0.590300  0.464900  0.155600  1.0  -0.1428
  C  C47  1  0.443200  0.817600  0.792300  1.0  -0.1517
  C  C48  1  0.640300  0.880700  0.834800  1.0  -0.1532
  C  C49  1  0.510000  0.513400  0.060900  1.0  0.0886
  C  C50  1  0.530500  0.883700  0.846200  1.0  0.0436
  C  C51  1  0.328200  0.813500  0.812300  1.0  0.7269
  C  C52  1  0.736000  0.949600  0.901000  1.0  0.7021
  C  C53  1  0.906300  0.167700  0.858800  1.0  0.7215
  C  C54  1  0.927000  0.244800  0.786900  1.0  -0.144
  C  C55  1  0.030400  0.111900  0.302300  1.0  0.0134
  C  C56  1  0.893900  0.990600  0.233500  1.0  -0.0293
  C  C57  1  0.034400  0.247600  0.773300  1.0  0.0284
  C  C58  1  0.839700  0.312200  0.734200  1.0  0.0345
  C  C59  1  0.048800  0.089800  0.414200  1.0  -0.1028
  C  C60  1  0.909700  0.964900  0.344400  1.0  -0.1421
  C  C61  1  0.056800  0.317600  0.707700  1.0  -0.1525
  C  C62  1  0.859700  0.380700  0.665200  1.0  -0.1533
  C  C63  1  0.990000  0.013400  0.439100  1.0  0.0882
  C  C64  1  0.969500  0.383700  0.653800  1.0  0.0447
  C  C65  1  0.171800  0.313500  0.687700  1.0  0.7261
  C  C66  1  0.764000  0.449600  0.599000  1.0  0.7033
  C  C67  1  0.406300  0.332300  0.358800  1.0  0.7223
  C  C68  1  0.427000  0.255200  0.286900  1.0  -0.1444
  C  C69  1  0.530400  0.388100  0.802300  1.0  0.0133
  C  C70  1  0.393900  0.509400  0.733500  1.0  -0.0295
  C  C71  1  0.534400  0.252400  0.273300  1.0  0.0281
  C  C72  1  0.339700  0.187800  0.234200  1.0  0.0344
  C  C73  1  0.548800  0.410200  0.914200  1.0  -0.1032
  C  C74  1  0.409700  0.535100  0.844400  1.0  -0.1412
  C  C75  1  0.556800  0.182400  0.207700  1.0  -0.1527
  C  C76  1  0.359700  0.119300  0.165200  1.0  -0.1535
  C  C77  1  0.490000  0.486600  0.939100  1.0  0.0883
  C  C78  1  0.469500  0.116300  0.153800  1.0  0.0448
  C  C79  1  0.671800  0.186500  0.187700  1.0  0.7261
  C  C80  1  0.264000  0.050400  0.099000  1.0  0.7028
  C  C81  1  0.093700  0.832300  0.141200  1.0  0.7214
  C  C82  1  0.073000  0.755200  0.213100  1.0  -0.1434
  C  C83  1  0.969600  0.888100  0.697700  1.0  0.0129
  C  C84  1  0.106100  0.009400  0.766500  1.0  -0.0307
  C  C85  1  0.965600  0.752400  0.226700  1.0  0.0286
  C  C86  1  0.160300  0.687800  0.265800  1.0  0.0338
  C  C87  1  0.951200  0.910200  0.585800  1.0  -0.1022
  C  C88  1  0.090300  0.035100  0.655600  1.0  -0.1427
  C  C89  1  0.943200  0.682400  0.292300  1.0  -0.153
  C  C90  1  0.140300  0.619300  0.334800  1.0  -0.1533
  C  C91  1  0.010000  0.986600  0.560900  1.0  0.0886
  C  C92  1  0.030500  0.616300  0.346200  1.0  0.0449
  C  C93  1  0.828200  0.686500  0.312300  1.0  0.7269
  C  C94  1  0.236000  0.550400  0.401000  1.0  0.7016
  N  N95  1  0.546900  0.562400  0.285700  1.0  0.2082
  N  N96  1  0.953100  0.062400  0.214300  1.0  0.2082
  N  N97  1  0.453100  0.437600  0.714300  1.0  0.2078
  N  N98  1  0.046900  0.937600  0.785700  1.0  0.2079
  O  O99  1  0.691600  0.668570  0.629000  1.0  -0.6067
  O  O100  1  0.566400  0.587560  0.397600  1.0  -0.7612
  O  O101  1  0.313500  0.876970  0.874600  1.0  -0.5989
  O  O102  1  0.710200  0.003840  0.966100  1.0  -0.5826
  O  O103  1  0.510600  0.609570  0.600100  1.0  -0.5675
  O  O104  1  0.833760  0.946380  0.889200  1.0  -0.5844
  O  O105  1  0.257500  0.748350  0.765900  1.0  -0.54
  O  O106  1  0.808400  0.168570  0.871000  1.0  -0.6092
  O  O107  1  0.933600  0.087560  0.102400  1.0  -0.76
  O  O108  1  0.186500  0.376970  0.625400  1.0  -0.5996
  O  O109  1  0.789800  0.503840  0.533900  1.0  -0.584
  O  O110  1  0.989400  0.109570  0.899900  1.0  -0.5687
  O  O111  1  0.666240  0.446380  0.610800  1.0  -0.5836
  O  O112  1  0.242500  0.248350  0.734100  1.0  -0.541
  O  O113  1  0.308400  0.331430  0.371000  1.0  -0.6089
  O  O114  1  0.433600  0.412440  0.602400  1.0  -0.7603
  O  O115  1  0.686500  0.123030  0.125400  1.0  -0.5997
  O  O116  1  0.289800  0.996160  0.033900  1.0  -0.5846
  O  O117  1  0.489400  0.390430  0.399900  1.0  -0.5695
  O  O118  1  0.166240  0.053620  0.110800  1.0  -0.5837
  O  O119  1  0.742500  0.251650  0.234100  1.0  -0.5403
  O  O120  1  0.191600  0.831430  0.129000  1.0  -0.6065
  O  O121  1  0.066400  0.912440  0.897600  1.0  -0.7615
  O  O122  1  0.813500  0.623030  0.374600  1.0  -0.5986
  O  O123  1  0.210200  0.496160  0.466100  1.0  -0.5826
  O  O124  1  0.010600  0.890430  0.100100  1.0  -0.5683
  O  O125  1  0.333760  0.553620  0.389200  1.0  -0.5842
  O  O126  1  0.757500  0.751650  0.265900  1.0  -0.5396
