# generated using pymatgen
data_Co3H16C28(NO7)2
_symmetry_space_group_name_H-M   'P 1'
_cell_length_a   12.28210000
_cell_length_b   14.42600000
_cell_length_c   12.57330000
_cell_angle_alpha   90.00000000
_cell_angle_beta   113.90900000
_cell_angle_gamma   90.00000000
_symmetry_Int_Tables_number   1
_chemical_formula_structural   Co3H16C28(NO7)2
_chemical_formula_sum   'Co6 H32 C56 N4 O28'
_cell_volume   2036.59393413
_cell_formula_units_Z   2
loop_
 _symmetry_equiv_pos_site_id
 _symmetry_equiv_pos_as_xyz
  1  'x, y, z'
loop_
 _atom_site_type_symbol
 _atom_site_label
 _atom_site_symmetry_multiplicity
 _atom_site_fract_x
 _atom_site_fract_y
 _atom_site_fract_z
 _atom_site_occupancy
 _atom_site_charge
  Co  Co1  1  0.759770  0.362570  0.503550  1.0  1.0315
  Co  Co2  1  0.740230  0.862570  0.996450  1.0  1.0275
  Co  Co3  1  0.240230  0.637430  0.496450  1.0  1.0316
  Co  Co4  1  0.259770  0.137430  0.003550  1.0  1.0327
  Co  Co5  1  0.000000  0.500000  0.500000  1.0  0.9679
  Co  Co6  1  0.500000  0.000000  0.000000  1.0  0.9678
  H  H7  1  0.090400  0.297400  0.309600  1.0  0.1011
  H  H8  1  0.983300  0.070600  0.110600  1.0  0.1146
  H  H9  1  0.768800  0.188900  0.242000  1.0  0.1125
  H  H10  1  0.842100  0.541500  0.669400  1.0  0.1182
  H  H11  1  0.869100  0.584600  0.853900  1.0  0.1197
  H  H12  1  0.102700  0.376400  0.979000  1.0  0.1225
  H  H13  1  0.070900  0.337600  0.791500  1.0  0.1326
  H  H14  1  0.983000  0.355000  0.617500  1.0  0.1825
  H  H15  1  0.409600  0.797400  0.190400  1.0  0.1012
  H  H16  1  0.516700  0.570600  0.389400  1.0  0.1145
  H  H17  1  0.731200  0.688900  0.258000  1.0  0.1124
  H  H18  1  0.657900  0.041500  0.830600  1.0  0.1184
  H  H19  1  0.630900  0.084600  0.646100  1.0  0.1201
  H  H20  1  0.397300  0.876400  0.521000  1.0  0.1226
  H  H21  1  0.429100  0.837600  0.708500  1.0  0.132
  H  H22  1  0.517000  0.855000  0.882500  1.0  0.1826
  H  H23  1  0.909600  0.702600  0.690400  1.0  0.1018
  H  H24  1  0.016700  0.929400  0.889400  1.0  0.1143
  H  H25  1  0.231200  0.811100  0.758000  1.0  0.1123
  H  H26  1  0.157900  0.458500  0.330600  1.0  0.1185
  H  H27  1  0.130900  0.415400  0.146100  1.0  0.1197
  H  H28  1  0.897300  0.623600  0.021000  1.0  0.1231
  H  H29  1  0.929100  0.662400  0.208500  1.0  0.1321
  H  H30  1  0.017000  0.645000  0.382500  1.0  0.1824
  H  H31  1  0.590400  0.202600  0.809600  1.0  0.1016
  H  H32  1  0.483300  0.429400  0.610600  1.0  0.1147
  H  H33  1  0.268800  0.311100  0.742000  1.0  0.1125
  H  H34  1  0.342100  0.958500  0.169400  1.0  0.118
  H  H35  1  0.369100  0.915400  0.353900  1.0  0.1192
  H  H36  1  0.602700  0.123600  0.479000  1.0  0.1228
  H  H37  1  0.570900  0.162400  0.291500  1.0  0.1323
  H  H38  1  0.483000  0.145000  0.117500  1.0  0.1815
  C  C39  1  0.926400  0.254800  0.286900  1.0  -0.153
  C  C40  1  0.033100  0.252400  0.273700  1.0  0.0183
  C  C41  1  0.055700  0.183700  0.207800  1.0  -0.1678
  C  C42  1  0.968900  0.117300  0.154300  1.0  0.0424
  C  C43  1  0.860800  0.119700  0.165100  1.0  -0.1509
  C  C44  1  0.840300  0.188000  0.232900  1.0  0.0409
  C  C45  1  0.904300  0.331400  0.356700  1.0  0.7285
  C  C46  1  0.168900  0.187000  0.189100  1.0  0.7108
  C  C47  1  0.764400  0.051200  0.098000  1.0  0.7038
  C  C48  1  0.894900  0.508600  0.732900  1.0  -0.0452
  C  C49  1  0.911100  0.534400  0.843200  1.0  -0.1254
  C  C50  1  0.990000  0.486100  0.939300  1.0  0.0916
  C  C51  1  0.049700  0.410900  0.917300  1.0  -0.13
  C  C52  1  0.030500  0.387600  0.805100  1.0  0.0125
  C  C53  1  0.573600  0.754800  0.213100  1.0  -0.1529
  C  C54  1  0.466900  0.752400  0.226300  1.0  0.0197
  C  C55  1  0.444300  0.683700  0.292200  1.0  -0.1673
  C  C56  1  0.531100  0.617300  0.345700  1.0  0.0428
  C  C57  1  0.639200  0.619700  0.334900  1.0  -0.151
  C  C58  1  0.659700  0.688000  0.267100  1.0  0.0402
  C  C59  1  0.595700  0.831400  0.143300  1.0  0.7281
  C  C60  1  0.331100  0.687000  0.310900  1.0  0.7115
  C  C61  1  0.735600  0.551200  0.402000  1.0  0.7038
  C  C62  1  0.605100  0.008600  0.767100  1.0  -0.048
  C  C63  1  0.588900  0.034400  0.656800  1.0  -0.1269
  C  C64  1  0.510000  0.986100  0.560700  1.0  0.0918
  C  C65  1  0.450300  0.910900  0.582700  1.0  -0.1282
  C  C66  1  0.469500  0.887600  0.694900  1.0  0.0102
  C  C67  1  0.073600  0.745200  0.713100  1.0  -0.1527
  C  C68  1  0.966900  0.747600  0.726300  1.0  0.0198
  C  C69  1  0.944300  0.816300  0.792200  1.0  -0.1661
  C  C70  1  0.031100  0.882700  0.845700  1.0  0.0411
  C  C71  1  0.139200  0.880300  0.834900  1.0  -0.1505
  C  C72  1  0.159700  0.812000  0.767100  1.0  0.0404
  C  C73  1  0.095700  0.668600  0.643300  1.0  0.7282
  C  C74  1  0.831100  0.813000  0.810900  1.0  0.7114
  C  C75  1  0.235600  0.948800  0.902000  1.0  0.7047
  C  C76  1  0.105100  0.491400  0.267100  1.0  -0.0477
  C  C77  1  0.088900  0.465600  0.156800  1.0  -0.1278
  C  C78  1  0.010000  0.513900  0.060700  1.0  0.0917
  C  C79  1  0.950300  0.589100  0.082700  1.0  -0.1222
  C  C80  1  0.969500  0.612400  0.194900  1.0  0.0092
  C  C81  1  0.426400  0.245200  0.786900  1.0  -0.1528
  C  C82  1  0.533100  0.247600  0.773700  1.0  0.0184
  C  C83  1  0.555700  0.316300  0.707800  1.0  -0.1677
  C  C84  1  0.468900  0.382700  0.654300  1.0  0.0424
  C  C85  1  0.360800  0.380300  0.665100  1.0  -0.1502
  C  C86  1  0.340300  0.312000  0.732900  1.0  0.0411
  C  C87  1  0.404300  0.168600  0.856700  1.0  0.7282
  C  C88  1  0.668900  0.313000  0.689100  1.0  0.7107
  C  C89  1  0.264400  0.448800  0.598000  1.0  0.7042
  C  C90  1  0.394900  0.991400  0.232900  1.0  -0.0455
  C  C91  1  0.411100  0.965600  0.343200  1.0  -0.1268
  C  C92  1  0.490000  0.013900  0.439300  1.0  0.0916
  C  C93  1  0.549700  0.089100  0.417300  1.0  -0.1244
  C  C94  1  0.530500  0.112400  0.305100  1.0  0.0119
  N  N95  1  0.954300  0.436200  0.715700  1.0  0.2107
  N  N96  1  0.545700  0.936200  0.784300  1.0  0.2104
  N  N97  1  0.045700  0.563800  0.284300  1.0  0.2099
  N  N98  1  0.454300  0.063800  0.215700  1.0  0.2103
  O  O99  1  0.808300  0.330340  0.368800  1.0  -0.618
  O  O100  1  0.986300  0.391140  0.397300  1.0  -0.5854
  O  O101  1  0.238600  0.253700  0.233700  1.0  -0.5412
  O  O102  1  0.184300  0.124850  0.126400  1.0  -0.6076
  O  O103  1  0.788700  0.998780  0.029900  1.0  -0.5942
  O  O104  1  0.668900  0.052370  0.111000  1.0  -0.5868
  O  O105  1  0.934600  0.411110  0.605800  1.0  -0.7752
  O  O106  1  0.691700  0.830340  0.131200  1.0  -0.6171
  O  O107  1  0.513700  0.891140  0.102700  1.0  -0.5851
  O  O108  1  0.261400  0.753700  0.266300  1.0  -0.5414
  O  O109  1  0.315700  0.624850  0.373600  1.0  -0.6061
  O  O110  1  0.711300  0.498780  0.470100  1.0  -0.5925
  O  O111  1  0.831100  0.552370  0.389000  1.0  -0.5875
  O  O112  1  0.565400  0.911110  0.894200  1.0  -0.775
  O  O113  1  0.191700  0.669660  0.631200  1.0  -0.6172
  O  O114  1  0.013700  0.608860  0.602700  1.0  -0.5847
  O  O115  1  0.761400  0.746300  0.766300  1.0  -0.5406
  O  O116  1  0.815700  0.875150  0.873600  1.0  -0.6062
  O  O117  1  0.211300  0.001220  0.970100  1.0  -0.5926
  O  O118  1  0.331100  0.947630  0.889000  1.0  -0.5878
  O  O119  1  0.065400  0.588890  0.394200  1.0  -0.7749
  O  O120  1  0.308300  0.169660  0.868800  1.0  -0.6185
  O  O121  1  0.486300  0.108860  0.897300  1.0  -0.5854
  O  O122  1  0.738600  0.246300  0.733700  1.0  -0.5415
  O  O123  1  0.684300  0.375150  0.626400  1.0  -0.6072
  O  O124  1  0.288700  0.501220  0.529900  1.0  -0.5936
  O  O125  1  0.168900  0.447630  0.611000  1.0  -0.5871
  O  O126  1  0.434600  0.088890  0.105800  1.0  -0.7748
