# generated using pymatgen
data_BaH24(C17O6)2
_symmetry_space_group_name_H-M   'P 1'
_cell_length_a   9.03620000
_cell_length_b   17.48400000
_cell_length_c   24.77200000
_cell_angle_alpha   69.71700000
_cell_angle_beta   84.87300000
_cell_angle_gamma   82.90400000
_symmetry_Int_Tables_number   1
_chemical_formula_structural   BaH24(C17O6)2
_chemical_formula_sum   'Ba4 H96 C136 O48'
_cell_volume   3638.34567144
_cell_formula_units_Z   4
loop_
 _symmetry_equiv_pos_site_id
 _symmetry_equiv_pos_as_xyz
  1  'x, y, z'
loop_
 _atom_site_type_symbol
 _atom_site_label
 _atom_site_symmetry_multiplicity
 _atom_site_fract_x
 _atom_site_fract_y
 _atom_site_fract_z
 _atom_site_occupancy
 _atom_site_charge
  Ba  Ba1  1  0.748530  0.816120  0.689820  1.0  1.6296
  Ba  Ba2  1  0.248320  0.735730  0.769870  1.0  1.6353
  Ba  Ba3  1  0.251470  0.183880  0.310180  1.0  1.6301
  Ba  Ba4  1  0.751680  0.264270  0.230130  1.0  1.6346
  H  H5  1  0.680100  0.996800  0.736300  1.0  0.4312
  H  H6  1  0.088300  0.865000  0.914300  1.0  0.3788
  H  H7  1  0.316000  0.523200  0.757700  1.0  0.4181
  H  H8  1  0.850400  0.916800  0.932900  1.0  0.093
  H  H9  1  0.283200  0.922200  0.701200  1.0  0.0845
  H  H10  1  0.560800  0.619300  0.590900  1.0  0.0931
  H  H11  1  0.145200  0.588700  0.562600  1.0  0.1017
  H  H12  1  0.214600  0.746200  0.642100  1.0  0.0902
  H  H13  1  0.435900  0.893100  0.901500  1.0  0.0938
  H  H14  1  0.717800  0.619500  0.769300  1.0  0.0701
  H  H15  1  0.781900  0.799500  0.825000  1.0  0.0832
  H  H16  1  0.935200  0.064900  0.737900  1.0  0.0955
  H  H17  1  0.350300  0.119300  0.740700  1.0  0.097
  H  H18  1  0.062100  0.457600  0.757500  1.0  0.0955
  H  H19  1  0.361200  0.445700  0.640100  1.0  0.0939
  H  H20  1  0.101400  0.194700  0.638100  1.0  0.0973
  H  H21  1  0.606600  0.296200  0.528700  1.0  0.0901
  H  H22  1  0.364100  0.935600  0.139800  1.0  0.0932
  H  H23  1  0.600900  0.159700  0.574200  1.0  0.0889
  H  H24  1  0.671500  0.108300  0.633100  1.0  0.081
  H  H25  1  0.735100  0.190300  0.594300  1.0  0.0787
  H  H26  1  0.133200  0.080100  0.851000  1.0  0.0795
  H  H27  1  0.645600  0.398000  0.765000  1.0  0.1016
  H  H28  1  0.596600  0.797000  0.021400  1.0  0.0819
  H  H29  1  0.235700  0.355900  0.717900  1.0  0.0805
  H  H30  1  0.392600  0.367900  0.734500  1.0  0.084
  H  H31  1  0.314200  0.289500  0.770500  1.0  0.1002
  H  H32  1  0.101200  0.980900  0.935400  1.0  0.0907
  H  H33  1  0.175900  0.963800  0.993700  1.0  0.0972
  H  H34  1  0.260700  0.007600  0.935100  1.0  0.0795
  H  H35  1  0.862200  0.438800  0.651200  1.0  0.0852
  H  H36  1  0.803000  0.547600  0.507200  1.0  0.092
  H  H37  1  0.892200  0.538600  0.560800  1.0  0.0871
  H  H38  1  0.735000  0.505600  0.569600  1.0  0.0748
  H  H39  1  0.237000  0.846200  0.213300  1.0  0.0779
  H  H40  1  0.394100  0.849500  0.234200  1.0  0.0903
  H  H41  1  0.304500  0.773600  0.265400  1.0  0.1028
  H  H42  1  0.897200  0.323300  0.866200  1.0  0.0948
  H  H43  1  0.159900  0.247400  0.491900  1.0  0.1076
  H  H44  1  0.085000  0.187800  0.547600  1.0  0.0963
  H  H45  1  0.221100  0.232200  0.552400  1.0  0.0785
  H  H46  1  0.583800  0.656800  0.062800  1.0  0.0956
  H  H47  1  0.652400  0.603300  0.121600  1.0  0.1163
  H  H48  1  0.718100  0.685400  0.084400  1.0  0.081
  H  H49  1  0.814600  0.659900  0.617300  1.0  0.4254
  H  H50  1  0.765500  0.267400  0.961600  1.0  0.092
  H  H51  1  0.892300  0.322900  0.957800  1.0  0.1032
  H  H52  1  0.846400  0.258600  0.017200  1.0  0.0923
  H  H53  1  0.319900  0.003200  0.263700  1.0  0.4318
  H  H54  1  0.911700  0.135000  0.085700  1.0  0.3789
  H  H55  1  0.684000  0.476800  0.242300  1.0  0.418
  H  H56  1  0.149600  0.083200  0.067100  1.0  0.0934
  H  H57  1  0.716800  0.077800  0.298800  1.0  0.0847
  H  H58  1  0.439200  0.380700  0.409100  1.0  0.0928
  H  H59  1  0.854800  0.411300  0.437400  1.0  0.1019
  H  H60  1  0.785400  0.253800  0.357900  1.0  0.0913
  H  H61  1  0.564100  0.106900  0.098500  1.0  0.0938
  H  H62  1  0.282200  0.380500  0.230700  1.0  0.07
  H  H63  1  0.218100  0.200500  0.175000  1.0  0.0836
  H  H64  1  0.064800  0.935100  0.262100  1.0  0.0963
  H  H65  1  0.649700  0.880700  0.259300  1.0  0.0966
  H  H66  1  0.937900  0.542400  0.242500  1.0  0.0949
  H  H67  1  0.638800  0.554300  0.359900  1.0  0.0939
  H  H68  1  0.898600  0.805300  0.361900  1.0  0.0974
  H  H69  1  0.393400  0.703800  0.471300  1.0  0.0888
  H  H70  1  0.635900  0.064400  0.860200  1.0  0.093
  H  H71  1  0.399100  0.840300  0.425800  1.0  0.0878
  H  H72  1  0.328500  0.891700  0.366900  1.0  0.0822
  H  H73  1  0.264900  0.809700  0.405700  1.0  0.0784
  H  H74  1  0.866800  0.919900  0.149000  1.0  0.079
  H  H75  1  0.354400  0.602000  0.235000  1.0  0.1018
  H  H76  1  0.403400  0.203000  0.978600  1.0  0.0814
  H  H77  1  0.764300  0.644100  0.282100  1.0  0.0802
  H  H78  1  0.607400  0.632100  0.265500  1.0  0.0848
  H  H79  1  0.685800  0.710500  0.229500  1.0  0.1002
  H  H80  1  0.898800  0.019100  0.064600  1.0  0.0903
  H  H81  1  0.824100  0.036200  0.006300  1.0  0.0981
  H  H82  1  0.739300  0.992400  0.064900  1.0  0.0782
  H  H83  1  0.137800  0.561200  0.348800  1.0  0.0846
  H  H84  1  0.197000  0.452400  0.492800  1.0  0.0916
  H  H85  1  0.107800  0.461400  0.439200  1.0  0.0879
  H  H86  1  0.265000  0.494400  0.430400  1.0  0.0762
  H  H87  1  0.763000  0.153800  0.786700  1.0  0.0755
  H  H88  1  0.605900  0.150500  0.765800  1.0  0.0907
  H  H89  1  0.695500  0.226400  0.734600  1.0  0.1034
  H  H90  1  0.102800  0.676700  0.133800  1.0  0.0955
  H  H91  1  0.840100  0.752600  0.508100  1.0  0.1093
  H  H92  1  0.915000  0.812200  0.452400  1.0  0.0964
  H  H93  1  0.778900  0.767800  0.447600  1.0  0.0791
  H  H94  1  0.416200  0.343200  0.937200  1.0  0.0961
  H  H95  1  0.347600  0.396700  0.878400  1.0  0.1161
  H  H96  1  0.281900  0.314600  0.915600  1.0  0.0847
  H  H97  1  0.185400  0.340100  0.382700  1.0  0.4262
  H  H98  1  0.234500  0.732600  0.038400  1.0  0.0939
  H  H99  1  0.107700  0.677100  0.042200  1.0  0.1029
  H  H100  1  0.153600  0.741400  0.982800  1.0  0.0929
  C  C101  1  0.507000  0.726500  0.646500  1.0  0.7391
  C  C102  1  0.363000  0.596700  0.569900  1.0  -0.0092
  C  C103  1  0.455800  0.459800  0.558700  1.0  -0.0217
  C  C104  1  0.634300  0.912900  0.923000  1.0  -0.0124
  C  C105  1  0.405000  0.687300  0.621100  1.0  -0.1615
  C  C106  1  0.487200  0.813000  0.825800  1.0  0.7023
  C  C107  1  0.785400  0.898100  0.914300  1.0  -0.0759
  C  C108  1  0.245000  0.966200  0.712800  1.0  -0.0334
  C  C109  1  0.458300  0.632800  0.593800  1.0  -0.0742
  C  C110  1  0.022800  0.250100  0.697000  1.0  -0.0549
  C  C111  1  0.210400  0.614200  0.576300  1.0  -0.0696
  C  C112  1  0.591300  0.841700  0.858000  1.0  -0.1881
  C  C113  1  0.134200  0.104200  0.740800  1.0  0.0255
  C  C114  1  0.525500  0.913000  0.020400  1.0  -0.0078
  C  C115  1  0.429700  0.546400  0.534400  1.0  -0.0437
  C  C116  1  0.252100  0.707600  0.625100  1.0  -0.0378
  C  C117  1  0.952500  0.325300  0.701300  1.0  0.0028
  C  C118  1  0.090800  0.981700  0.721600  1.0  -0.1384
  C  C119  1  0.538400  0.883900  0.895000  1.0  -0.0658
  C  C120  1  0.543800  0.044000  0.941700  1.0  -0.0402
  C  C121  1  0.527600  0.415100  0.523800  1.0  0.0142
  C  C122  1  0.988800  0.925100  0.713900  1.0  0.7194
  C  C123  1  0.568500  0.958400  0.963300  1.0  -0.1333
  C  C124  1  0.068100  0.184000  0.747500  1.0  -0.0655
  C  C125  1  0.754700  0.568900  0.766400  1.0  -0.0363
  C  C126  1  0.041400  0.193700  0.801500  1.0  -0.013
  C  C127  1  0.744200  0.827700  0.849700  1.0  -0.0651
  C  C128  1  0.037700  0.052100  0.734000  1.0  -0.0516
  C  C129  1  0.906200  0.549700  0.762000  1.0  -0.1595
  C  C130  1  0.285300  0.085600  0.735300  1.0  -0.0645
  C  C131  1  0.972100  0.268700  0.806100  1.0  0.03
  C  C132  1  0.861500  0.415400  0.760600  1.0  0.0363
  C  C133  1  0.928100  0.334300  0.756100  1.0  -0.0383
  C  C134  1  0.959600  0.471900  0.759700  1.0  -0.0656
  C  C135  1  0.154500  0.670700  0.603800  1.0  -0.1502
  C  C136  1  0.932400  0.380100  0.597400  1.0  0.2365
  C  C137  1  0.410500  0.416700  0.617500  1.0  -0.1237
  C  C138  1  0.005600  0.305500  0.593100  1.0  0.1968
  C  C139  1  0.434900  0.826200  0.135000  1.0  0.2377
  C  C140  1  0.438800  0.334400  0.640200  1.0  0.1985
  C  C141  1  0.051200  0.242700  0.641600  1.0  -0.2134
  C  C142  1  0.558000  0.326800  0.550300  1.0  -0.2008
  C  C143  1  0.411100  0.909000  0.115300  1.0  -0.1872
  C  C144  1  0.646000  0.162700  0.607000  1.0  0.0008
  C  C145  1  0.085900  0.129100  0.853700  1.0  -0.1766
  C  C146  1  0.711200  0.435500  0.764200  1.0  -0.0476
  C  C147  1  0.549800  0.825900  0.044500  1.0  -0.1997
  C  C148  1  0.503800  0.991700  0.713900  1.0  0.6577
  C  C149  1  0.330000  0.328400  0.732600  1.0  -0.0082
  C  C150  1  0.341600  0.016800  0.721600  1.0  -0.1668
  C  C151  1  0.990000  0.210200  0.911200  1.0  0.1919
  C  C152  1  0.062200  0.136400  0.905900  1.0  0.2185
  C  C153  1  0.655100  0.513700  0.766700  1.0  -0.1719
  C  C154  1  0.164600  0.001500  0.955200  1.0  -0.022
  C  C155  1  0.507500  0.784100  0.099100  1.0  0.2098
  C  C156  1  0.908600  0.389300  0.649100  1.0  -0.1904
  C  C157  1  0.842800  0.854700  0.877400  1.0  -0.1586
  C  C158  1  0.003700  0.836500  0.864100  1.0  0.6153
  C  C159  1  0.825600  0.513200  0.545700  1.0  -0.0248
  C  C160  1  0.327400  0.814300  0.228900  1.0  -0.0238
  C  C161  1  0.945200  0.275100  0.862300  1.0  -0.1624
  C  C162  1  0.516100  0.288500  0.606400  1.0  0.2137
  C  C163  1  0.494600  0.542700  0.769300  1.0  0.6614
  C  C164  1  0.133000  0.237400  0.532000  1.0  -0.0138
  C  C165  1  0.629000  0.658200  0.096100  1.0  -0.0257
  C  C166  1  0.010400  0.612200  0.758600  1.0  0.7142
  C  C167  1  0.992400  0.696800  0.611900  1.0  0.6416
  C  C168  1  0.859000  0.269500  0.976400  1.0  0.0003
  C  C169  1  0.493000  0.273500  0.353500  1.0  0.74
  C  C170  1  0.637000  0.403300  0.430100  1.0  -0.0081
  C  C171  1  0.544200  0.540200  0.441300  1.0  -0.0213
  C  C172  1  0.365700  0.087100  0.077000  1.0  -0.0129
  C  C173  1  0.595000  0.312700  0.378900  1.0  -0.1623
  C  C174  1  0.512800  0.187000  0.174200  1.0  0.7029
  C  C175  1  0.214600  0.101900  0.085700  1.0  -0.076
  C  C176  1  0.755000  0.033800  0.287200  1.0  -0.0354
  C  C177  1  0.541700  0.367200  0.406200  1.0  -0.0722
  C  C178  1  0.977200  0.749900  0.303000  1.0  -0.0544
  C  C179  1  0.789600  0.385800  0.423700  1.0  -0.0696
  C  C180  1  0.408700  0.158300  0.142000  1.0  -0.1893
  C  C181  1  0.865800  0.895800  0.259200  1.0  0.026
  C  C182  1  0.474500  0.087000  0.979600  1.0  -0.0085
  C  C183  1  0.570300  0.453600  0.465600  1.0  -0.0433
  C  C184  1  0.747900  0.292400  0.374900  1.0  -0.0382
  C  C185  1  0.047500  0.674700  0.298700  1.0  0.002
  C  C186  1  0.909200  0.018300  0.278400  1.0  -0.1391
  C  C187  1  0.461600  0.116100  0.105000  1.0  -0.0667
  C  C188  1  0.456200  0.956000  0.058300  1.0  -0.0403
  C  C189  1  0.472400  0.584900  0.476200  1.0  0.0144
  C  C190  1  0.011200  0.074900  0.286100  1.0  0.7182
  C  C191  1  0.431500  0.041600  0.036700  1.0  -0.1338
  C  C192  1  0.931900  0.816000  0.252500  1.0  -0.0656
  C  C193  1  0.245300  0.431100  0.233600  1.0  -0.0355
  C  C194  1  0.958600  0.806300  0.198500  1.0  -0.0131
  C  C195  1  0.255800  0.172300  0.150300  1.0  -0.0655
  C  C196  1  0.962300  0.947900  0.266000  1.0  -0.0527
  C  C197  1  0.093800  0.450300  0.238000  1.0  -0.1606
  C  C198  1  0.714700  0.914400  0.264700  1.0  -0.0619
  C  C199  1  0.027900  0.731300  0.193900  1.0  0.029
  C  C200  1  0.138500  0.584600  0.239400  1.0  0.0351
  C  C201  1  0.071900  0.665700  0.243900  1.0  -0.0386
  C  C202  1  0.040400  0.528100  0.240300  1.0  -0.0641
  C  C203  1  0.845500  0.329300  0.396200  1.0  -0.1507
  C  C204  1  0.067600  0.619900  0.402600  1.0  0.2379
  C  C205  1  0.589500  0.583300  0.382500  1.0  -0.1227
  C  C206  1  0.994400  0.694500  0.406900  1.0  0.1973
  C  C207  1  0.565100  0.173800  0.865000  1.0  0.2357
  C  C208  1  0.561200  0.665600  0.359800  1.0  0.1987
  C  C209  1  0.948800  0.757300  0.358400  1.0  -0.2133
  C  C210  1  0.442000  0.673200  0.449700  1.0  -0.1964
  C  C211  1  0.588900  0.091000  0.884700  1.0  -0.1847
  C  C212  1  0.354000  0.837300  0.393000  1.0  0.0032
  C  C213  1  0.914100  0.870900  0.146300  1.0  -0.1769
  C  C214  1  0.288800  0.564500  0.235800  1.0  -0.0483
  C  C215  1  0.450200  0.174100  0.955500  1.0  -0.2042
  C  C216  1  0.496200  0.008300  0.286100  1.0  0.6563
  C  C217  1  0.670000  0.671600  0.267400  1.0  -0.0087
  C  C218  1  0.658400  0.983200  0.278400  1.0  -0.1673
  C  C219  1  0.010000  0.789800  0.088800  1.0  0.191
  C  C220  1  0.937800  0.863600  0.094100  1.0  0.2188
  C  C221  1  0.344900  0.486300  0.233300  1.0  -0.1706
  C  C222  1  0.835400  0.998500  0.044800  1.0  -0.0212
  C  C223  1  0.492500  0.215900  0.900900  1.0  0.2107
  C  C224  1  0.091400  0.610700  0.350900  1.0  -0.1896
  C  C225  1  0.157200  0.145300  0.122600  1.0  -0.1572
  C  C226  1  0.996300  0.163500  0.135900  1.0  0.613
  C  C227  1  0.174400  0.486800  0.454300  1.0  -0.0251
  C  C228  1  0.672600  0.185700  0.771100  1.0  -0.0228
  C  C229  1  0.054800  0.724900  0.137700  1.0  -0.1623
  C  C230  1  0.483900  0.711500  0.393600  1.0  0.2137
  C  C231  1  0.505400  0.457300  0.230700  1.0  0.6619
  C  C232  1  0.867000  0.762600  0.468000  1.0  -0.0142
  C  C233  1  0.371000  0.341800  0.903900  1.0  -0.0269
  C  C234  1  0.989600  0.387800  0.241400  1.0  0.7123
  C  C235  1  0.007600  0.303200  0.388100  1.0  0.642
  C  C236  1  0.141000  0.730500  0.023600  1.0  -0.0013
  O  O237  1  0.543100  0.783100  0.788700  1.0  -0.7005
  O  O238  1  0.645700  0.711000  0.640200  1.0  -0.7137
  O  O239  1  0.351000  0.818300  0.839000  1.0  -0.6811
  O  O240  1  0.450700  0.772600  0.673000  1.0  -0.7052
  O  O241  1  0.595100  0.017600  0.740100  1.0  -0.5095
  O  O242  1  0.098500  0.874400  0.879500  1.0  -0.5399
  O  O243  1  0.851000  0.942700  0.717700  1.0  -0.6973
  O  O244  1  0.396600  0.775000  0.190200  1.0  -0.2727
  O  O245  1  0.454700  0.605900  0.778800  1.0  -0.597
  O  O246  1  0.527600  0.701200  0.124800  1.0  -0.2627
  O  O247  1  0.545100  0.950900  0.683300  1.0  -0.5993
  O  O248  1  0.099900  0.078400  0.957000  1.0  -0.2546
  O  O249  1  0.893600  0.437000  0.545200  1.0  -0.2543
  O  O250  1  0.399900  0.498500  0.760000  1.0  -0.5259
  O  O251  1  0.400200  0.287200  0.695700  1.0  -0.2461
  O  O252  1  0.544800  0.206600  0.635200  1.0  -0.2491
  O  O253  1  0.963200  0.211600  0.965700  1.0  -0.2477
  O  O254  1  0.033600  0.303800  0.537900  1.0  -0.2589
  O  O255  1  0.045200  0.863400  0.702600  1.0  -0.7028
  O  O256  1  0.953700  0.684500  0.753900  1.0  -0.7585
  O  O257  1  0.901100  0.642500  0.611900  1.0  -0.5216
  O  O258  1  0.950300  0.761400  0.617800  1.0  -0.5872
  O  O259  1  0.146400  0.591100  0.762100  1.0  -0.7079
  O  O260  1  0.042900  0.790300  0.838600  1.0  -0.5808
  O  O261  1  0.456900  0.216900  0.211300  1.0  -0.7023
  O  O262  1  0.354300  0.289000  0.359800  1.0  -0.7138
  O  O263  1  0.649000  0.181700  0.161000  1.0  -0.6822
  O  O264  1  0.549300  0.227400  0.327000  1.0  -0.7043
  O  O265  1  0.404900  0.982400  0.259900  1.0  -0.5092
  O  O266  1  0.901500  0.125600  0.120500  1.0  -0.539
  O  O267  1  0.149000  0.057300  0.282300  1.0  -0.6968
  O  O268  1  0.603400  0.225000  0.809800  1.0  -0.2718
  O  O269  1  0.545300  0.394100  0.221200  1.0  -0.5989
  O  O270  1  0.472400  0.298800  0.875200  1.0  -0.26
  O  O271  1  0.454900  0.049100  0.316700  1.0  -0.5999
  O  O272  1  0.900100  0.921600  0.043000  1.0  -0.2577
  O  O273  1  0.106400  0.563000  0.454800  1.0  -0.2531
  O  O274  1  0.600100  0.501500  0.240000  1.0  -0.5241
  O  O275  1  0.599800  0.712800  0.304300  1.0  -0.2474
  O  O276  1  0.455200  0.793400  0.364800  1.0  -0.2464
  O  O277  1  0.036800  0.788400  0.034300  1.0  -0.2508
  O  O278  1  0.966400  0.696200  0.462100  1.0  -0.2587
  O  O279  1  0.954800  0.136600  0.297400  1.0  -0.7022
  O  O280  1  0.046300  0.315500  0.246100  1.0  -0.757
  O  O281  1  0.098900  0.357500  0.388100  1.0  -0.5204
  O  O282  1  0.049700  0.238600  0.382200  1.0  -0.5878
  O  O283  1  0.853600  0.408900  0.237900  1.0  -0.7092
  O  O284  1  0.957100  0.209700  0.161400  1.0  -0.582
