# generated using pymatgen
data_Cd(CN)2
_symmetry_space_group_name_H-M   'P 1'
_cell_length_a   8.93640000
_cell_length_b   8.93640000
_cell_length_c   8.93640000
_cell_angle_alpha   60.00000000
_cell_angle_beta   60.00000000
_cell_angle_gamma   60.00000000
_symmetry_Int_Tables_number   1
_chemical_formula_structural   Cd(CN)2
_chemical_formula_sum   'Cd2 C4 N4'
_cell_volume   504.62969360
_cell_formula_units_Z   2
loop_
 _symmetry_equiv_pos_site_id
 _symmetry_equiv_pos_as_xyz
  1  'x, y, z'
loop_
 _atom_site_type_symbol
 _atom_site_label
 _atom_site_symmetry_multiplicity
 _atom_site_fract_x
 _atom_site_fract_y
 _atom_site_fract_z
 _atom_site_occupancy
 _atom_site_charge
  Cd  Cd1  1  0.875000  0.375000  0.375000  1.0  0.7953
  Cd  Cd2  1  0.125000  0.625000  0.625000  1.0  0.7953
  C  C3  1  0.581000  0.473000  0.473000  1.0  0.0074
  C  C4  1  0.973000  0.081000  0.473000  1.0  0.0085
  C  C5  1  0.027000  0.527000  0.919000  1.0  0.0063
  C  C6  1  0.027000  0.527000  0.527000  1.0  0.0056
  N  N7  1  0.973000  0.473000  0.081000  1.0  -0.4043
  N  N8  1  0.973000  0.473000  0.473000  1.0  -0.4037
  N  N9  1  0.027000  0.919000  0.527000  1.0  -0.4056
  N  N10  1  0.419000  0.527000  0.527000  1.0  -0.4049
