# generated using pymatgen
data_CuH4C14(NO3)4
_symmetry_space_group_name_H-M   'P 1'
_cell_length_a   45.64600000
_cell_length_b   45.64600000
_cell_length_c   10.91500000
_cell_angle_alpha   90.00000000
_cell_angle_beta   90.00000000
_cell_angle_gamma   120.00000000
_symmetry_Int_Tables_number   1
_chemical_formula_structural   CuH4C14(NO3)4
_chemical_formula_sum   'Cu18 H72 C252 N72 O216'
_cell_volume   19695.17407176
_cell_formula_units_Z   18
loop_
 _symmetry_equiv_pos_site_id
 _symmetry_equiv_pos_as_xyz
  1  'x, y, z'
loop_
 _atom_site_type_symbol
 _atom_site_label
 _atom_site_symmetry_multiplicity
 _atom_site_fract_x
 _atom_site_fract_y
 _atom_site_fract_z
 _atom_site_occupancy
 _atom_site_charge
  Cu  Cu1  1  0.154620  0.309270  0.419050  1.0  0.9272
  Cu  Cu2  1  0.821290  0.642600  0.752380  1.0  0.9272
  Cu  Cu3  1  0.487960  0.975930  0.085720  1.0  0.9268
  Cu  Cu4  1  0.690730  0.845360  0.419050  1.0  0.9269
  Cu  Cu5  1  0.357400  0.178690  0.752380  1.0  0.9269
  Cu  Cu6  1  0.024070  0.512020  0.085720  1.0  0.9272
  Cu  Cu7  1  0.154640  0.845380  0.419050  1.0  0.9263
  Cu  Cu8  1  0.821310  0.178710  0.752380  1.0  0.9263
  Cu  Cu9  1  0.487980  0.512040  0.085720  1.0  0.9264
  Cu  Cu10  1  0.845380  0.690730  0.580950  1.0  0.9283
  Cu  Cu11  1  0.512040  0.024070  0.914280  1.0  0.9279
  Cu  Cu12  1  0.178710  0.357400  0.247620  1.0  0.9283
  Cu  Cu13  1  0.309270  0.154640  0.580950  1.0  0.9275
  Cu  Cu14  1  0.975930  0.487980  0.914280  1.0  0.9279
  Cu  Cu15  1  0.642600  0.821310  0.247620  1.0  0.9275
  Cu  Cu16  1  0.845360  0.154620  0.580950  1.0  0.9251
  Cu  Cu17  1  0.512020  0.487960  0.914280  1.0  0.9252
  Cu  Cu18  1  0.178690  0.821290  0.247620  1.0  0.9251
  H  H19  1  0.092400  0.317700  0.012700  1.0  0.1385
  H  H20  1  0.055900  0.245200  0.269500  1.0  0.1382
  H  H21  1  0.907600  0.225100  0.988400  1.0  0.1354
  H  H22  1  0.944200  0.189500  0.731000  1.0  0.1359
  H  H23  1  0.759070  0.651030  0.346030  1.0  0.1385
  H  H24  1  0.722570  0.578530  0.602830  1.0  0.1382
  H  H25  1  0.574270  0.558430  0.321730  1.0  0.1354
  H  H26  1  0.610870  0.522830  0.064330  1.0  0.1359
  H  H27  1  0.425730  0.984370  0.679370  1.0  0.1385
  H  H28  1  0.389230  0.911870  0.936170  1.0  0.1382
  H  H29  1  0.240930  0.891770  0.655070  1.0  0.1354
  H  H30  1  0.277530  0.856170  0.397670  1.0  0.1359
  H  H31  1  0.682300  0.774700  0.012700  1.0  0.1381
  H  H32  1  0.754800  0.810700  0.269500  1.0  0.1378
  H  H33  1  0.774900  0.682500  0.988400  1.0  0.1357
  H  H34  1  0.810500  0.754700  0.731000  1.0  0.1357
  H  H35  1  0.348970  0.108030  0.346030  1.0  0.1381
  H  H36  1  0.421470  0.144030  0.602830  1.0  0.1378
  H  H37  1  0.441570  0.015830  0.321730  1.0  0.1357
  H  H38  1  0.477170  0.088030  0.064330  1.0  0.1357
  H  H39  1  0.015630  0.441370  0.679370  1.0  0.1379
  H  H40  1  0.088130  0.477370  0.936170  1.0  0.1378
  H  H41  1  0.108230  0.349170  0.655070  1.0  0.1357
  H  H42  1  0.143830  0.421370  0.397670  1.0  0.1357
  H  H43  1  0.225300  0.907600  0.012700  1.0  0.1383
  H  H44  1  0.189300  0.944100  0.269500  1.0  0.1384
  H  H45  1  0.317500  0.092400  0.988400  1.0  0.1357
  H  H46  1  0.245300  0.055800  0.731000  1.0  0.1364
  H  H47  1  0.891970  0.240930  0.346030  1.0  0.1383
  H  H48  1  0.855970  0.277430  0.602830  1.0  0.1384
  H  H49  1  0.984170  0.425730  0.321730  1.0  0.1357
  H  H50  1  0.911970  0.389130  0.064330  1.0  0.1364
  H  H51  1  0.558630  0.574270  0.679370  1.0  0.1383
  H  H52  1  0.522630  0.610770  0.936170  1.0  0.1384
  H  H53  1  0.650830  0.759070  0.655070  1.0  0.1357
  H  H54  1  0.578630  0.722470  0.397670  1.0  0.1364
  H  H55  1  0.907600  0.682300  0.987300  1.0  0.1386
  H  H56  1  0.944100  0.754800  0.730500  1.0  0.1375
  H  H57  1  0.092400  0.774900  0.011600  1.0  0.1357
  H  H58  1  0.055800  0.810500  0.269000  1.0  0.1352
  H  H59  1  0.574270  0.015630  0.320630  1.0  0.1386
  H  H60  1  0.610770  0.088130  0.063830  1.0  0.1375
  H  H61  1  0.759070  0.108230  0.344930  1.0  0.1357
  H  H62  1  0.722470  0.143830  0.602330  1.0  0.1352
  H  H63  1  0.240930  0.348970  0.653970  1.0  0.1386
  H  H64  1  0.277430  0.421470  0.397170  1.0  0.1375
  H  H65  1  0.425730  0.441570  0.678270  1.0  0.1357
  H  H66  1  0.389130  0.477170  0.935670  1.0  0.1352
  H  H67  1  0.317700  0.225300  0.987300  1.0  0.1384
  H  H68  1  0.245200  0.189300  0.730500  1.0  0.1376
  H  H69  1  0.225100  0.317500  0.011600  1.0  0.1358
  H  H70  1  0.189500  0.245300  0.269000  1.0  0.1358
  H  H71  1  0.984370  0.558630  0.320630  1.0  0.1384
  H  H72  1  0.911870  0.522630  0.063830  1.0  0.1376
  H  H73  1  0.891770  0.650830  0.344930  1.0  0.1358
  H  H74  1  0.856170  0.578630  0.602330  1.0  0.1358
  H  H75  1  0.651030  0.891970  0.653970  1.0  0.1384
  H  H76  1  0.578530  0.855970  0.397170  1.0  0.1376
  H  H77  1  0.558430  0.984170  0.678270  1.0  0.1358
  H  H78  1  0.522830  0.911970  0.935670  1.0  0.1358
  H  H79  1  0.774700  0.092400  0.987300  1.0  0.1383
  H  H80  1  0.810700  0.055900  0.730500  1.0  0.1387
  H  H81  1  0.682500  0.907600  0.011600  1.0  0.1355
  H  H82  1  0.754700  0.944200  0.269000  1.0  0.1363
  H  H83  1  0.441370  0.425730  0.320630  1.0  0.1383
  H  H84  1  0.477370  0.389230  0.063830  1.0  0.1387
  H  H85  1  0.349170  0.240930  0.344930  1.0  0.1355
  H  H86  1  0.421370  0.277530  0.602330  1.0  0.1363
  H  H87  1  0.108030  0.759070  0.653970  1.0  0.1383
  H  H88  1  0.144030  0.722570  0.397170  1.0  0.1387
  H  H89  1  0.015830  0.574270  0.678270  1.0  0.1355
  H  H90  1  0.088030  0.610870  0.935670  1.0  0.1363
  C  C91  1  0.111960  0.302660  0.219000  1.0  0.6903
  C  C92  1  0.078600  0.284830  0.153100  1.0  -0.122
  C  C93  1  0.983390  0.235490  0.968400  1.0  0.0252
  C  C94  1  0.043640  0.281600  0.986700  1.0  0.1045
  C  C95  1  0.016680  0.251820  0.031500  1.0  0.0143
  C  C96  1  0.074580  0.298010  0.045500  1.0  -0.041
  C  C97  1  0.052710  0.254860  0.199400  1.0  -0.0326
  C  C98  1  0.021780  0.239450  0.138900  1.0  0.0712
  C  C99  1  0.925410  0.223440  0.955100  1.0  -0.0346
  C  C100  1  0.921570  0.206380  0.845700  1.0  -0.1336
  C  C101  1  0.956350  0.237820  0.013000  1.0  0.1062
  C  C102  1  0.947390  0.202420  0.800900  1.0  -0.0287
  C  C103  1  0.978220  0.217800  0.860500  1.0  0.072
  C  C104  1  0.888090  0.190750  0.780800  1.0  0.6924
  C  C105  1  0.778630  0.635990  0.552330  1.0  0.6903
  C  C106  1  0.745270  0.618160  0.486430  1.0  -0.122
  C  C107  1  0.650060  0.568820  0.301730  1.0  0.0251
  C  C108  1  0.710310  0.614930  0.320030  1.0  0.1045
  C  C109  1  0.683350  0.585150  0.364830  1.0  0.0143
  C  C110  1  0.741250  0.631340  0.378830  1.0  -0.041
  C  C111  1  0.719380  0.588190  0.532730  1.0  -0.0326
  C  C112  1  0.688450  0.572780  0.472230  1.0  0.0712
  C  C113  1  0.592080  0.556770  0.288430  1.0  -0.0345
  C  C114  1  0.588240  0.539710  0.179030  1.0  -0.1334
  C  C115  1  0.623020  0.571150  0.346330  1.0  0.1062
  C  C116  1  0.614060  0.535750  0.134230  1.0  -0.0282
  C  C117  1  0.644890  0.551130  0.193830  1.0  0.072
  C  C118  1  0.554760  0.524080  0.114130  1.0  0.6924
  C  C119  1  0.445290  0.969330  0.885670  1.0  0.6903
  C  C120  1  0.411930  0.951500  0.819770  1.0  -0.122
  C  C121  1  0.316720  0.902160  0.635070  1.0  0.0252
  C  C122  1  0.376970  0.948270  0.653370  1.0  0.1046
  C  C123  1  0.350010  0.918490  0.698170  1.0  0.0143
  C  C124  1  0.407910  0.964680  0.712170  1.0  -0.041
  C  C125  1  0.386040  0.921530  0.866070  1.0  -0.0326
  C  C126  1  0.355110  0.906120  0.805570  1.0  0.0712
  C  C127  1  0.258740  0.890110  0.621770  1.0  -0.0346
  C  C128  1  0.254900  0.873050  0.512370  1.0  -0.1336
  C  C129  1  0.289680  0.904490  0.679670  1.0  0.1062
  C  C130  1  0.280720  0.869090  0.467570  1.0  -0.0287
  C  C131  1  0.311550  0.884470  0.527170  1.0  0.072
  C  C132  1  0.221420  0.857420  0.447470  1.0  0.6924
  C  C133  1  0.697340  0.809300  0.219000  1.0  0.6905
  C  C134  1  0.715170  0.793770  0.153100  1.0  -0.1214
  C  C135  1  0.764510  0.747900  0.968400  1.0  0.0265
  C  C136  1  0.718400  0.762040  0.986700  1.0  0.1042
  C  C137  1  0.748180  0.764860  0.031500  1.0  0.0133
  C  C138  1  0.701990  0.776570  0.045500  1.0  -0.0403
  C  C139  1  0.745140  0.797850  0.199400  1.0  -0.0308
  C  C140  1  0.760550  0.782330  0.138900  1.0  0.0712
  C  C141  1  0.776560  0.701970  0.955100  1.0  -0.0354
  C  C142  1  0.793620  0.715190  0.845700  1.0  -0.1328
  C  C143  1  0.762180  0.718530  0.013000  1.0  0.1064
  C  C144  1  0.797580  0.744970  0.800900  1.0  -0.0297
  C  C145  1  0.782200  0.760420  0.860500  1.0  0.0741
  C  C146  1  0.809250  0.697340  0.780800  1.0  0.6919
  C  C147  1  0.364010  0.142630  0.552330  1.0  0.6905
  C  C148  1  0.381840  0.127100  0.486430  1.0  -0.1214
  C  C149  1  0.431180  0.081230  0.301730  1.0  0.0265
  C  C150  1  0.385070  0.095370  0.320030  1.0  0.1042
  C  C151  1  0.414850  0.098190  0.364830  1.0  0.0133
  C  C152  1  0.368660  0.109900  0.378830  1.0  -0.0403
  C  C153  1  0.411810  0.131180  0.532730  1.0  -0.0308
  C  C154  1  0.427220  0.115660  0.472230  1.0  0.0712
  C  C155  1  0.443230  0.035300  0.288430  1.0  -0.0354
  C  C156  1  0.460290  0.048520  0.179030  1.0  -0.1328
  C  C157  1  0.428850  0.051860  0.346330  1.0  0.1064
  C  C158  1  0.464250  0.078300  0.134230  1.0  -0.03
  C  C159  1  0.448870  0.093750  0.193830  1.0  0.0741
  C  C160  1  0.475920  0.030670  0.114130  1.0  0.6919
  C  C161  1  0.030670  0.475970  0.885670  1.0  0.6903
  C  C162  1  0.048500  0.460440  0.819770  1.0  -0.1214
  C  C163  1  0.097840  0.414570  0.635070  1.0  0.0265
  C  C164  1  0.051730  0.428710  0.653370  1.0  0.1042
  C  C165  1  0.081510  0.431530  0.698170  1.0  0.0133
  C  C166  1  0.035320  0.443240  0.712170  1.0  -0.0403
  C  C167  1  0.078470  0.464520  0.866070  1.0  -0.0308
  C  C168  1  0.093880  0.449000  0.805570  1.0  0.0712
  C  C169  1  0.109890  0.368640  0.621770  1.0  -0.0354
  C  C170  1  0.126950  0.381860  0.512370  1.0  -0.1328
  C  C171  1  0.095510  0.385200  0.679670  1.0  0.1064
  C  C172  1  0.130910  0.411640  0.467570  1.0  -0.0297
  C  C173  1  0.115530  0.427090  0.527170  1.0  0.0741
  C  C174  1  0.142580  0.364010  0.447470  1.0  0.6919
  C  C175  1  0.190700  0.888040  0.219000  1.0  0.6901
  C  C176  1  0.206230  0.921400  0.153100  1.0  -0.121
  C  C177  1  0.252100  0.016610  0.968400  1.0  0.0252
  C  C178  1  0.237960  0.956360  0.986700  1.0  0.1033
  C  C179  1  0.235140  0.983320  0.031500  1.0  0.0144
  C  C180  1  0.223430  0.925420  0.045500  1.0  -0.0415
  C  C181  1  0.202150  0.947290  0.199400  1.0  -0.031
  C  C182  1  0.217670  0.978220  0.138900  1.0  0.0721
  C  C183  1  0.298030  0.074590  0.955100  1.0  -0.0365
  C  C184  1  0.284810  0.078430  0.845700  1.0  -0.132
  C  C185  1  0.281470  0.043650  0.013000  1.0  0.1068
  C  C186  1  0.255030  0.052610  0.800900  1.0  -0.0258
  C  C187  1  0.239580  0.021780  0.860500  1.0  0.0739
  C  C188  1  0.302660  0.111910  0.780800  1.0  0.6919
  C  C189  1  0.857370  0.221370  0.552330  1.0  0.6901
  C  C190  1  0.872900  0.254730  0.486430  1.0  -0.121
  C  C191  1  0.918770  0.349940  0.301730  1.0  0.0252
  C  C192  1  0.904630  0.289690  0.320030  1.0  0.1033
  C  C193  1  0.901810  0.316650  0.364830  1.0  0.0144
  C  C194  1  0.890100  0.258750  0.378830  1.0  -0.0415
  C  C195  1  0.868820  0.280620  0.532730  1.0  -0.031
  C  C196  1  0.884340  0.311550  0.472230  1.0  0.0721
  C  C197  1  0.964700  0.407920  0.288430  1.0  -0.0365
  C  C198  1  0.951480  0.411760  0.179030  1.0  -0.132
  C  C199  1  0.948140  0.376980  0.346330  1.0  0.1068
  C  C200  1  0.921700  0.385940  0.134230  1.0  -0.0258
  C  C201  1  0.906250  0.355110  0.193830  1.0  0.0739
  C  C202  1  0.969330  0.445240  0.114130  1.0  0.6919
  C  C203  1  0.524030  0.554710  0.885670  1.0  0.6903
  C  C204  1  0.539560  0.588070  0.819770  1.0  -0.121
  C  C205  1  0.585430  0.683280  0.635070  1.0  0.0252
  C  C206  1  0.571290  0.623030  0.653370  1.0  0.1034
  C  C207  1  0.568470  0.649990  0.698170  1.0  0.0144
  C  C208  1  0.556760  0.592090  0.712170  1.0  -0.0415
  C  C209  1  0.535480  0.613960  0.866070  1.0  -0.031
  C  C210  1  0.551000  0.644890  0.805570  1.0  0.0721
  C  C211  1  0.631360  0.741260  0.621770  1.0  -0.0365
  C  C212  1  0.618140  0.745100  0.512370  1.0  -0.132
  C  C213  1  0.614800  0.710320  0.679670  1.0  0.1068
  C  C214  1  0.588360  0.719280  0.467570  1.0  -0.0258
  C  C215  1  0.572910  0.688450  0.527170  1.0  0.0739
  C  C216  1  0.635990  0.778580  0.447470  1.0  0.6919
  C  C217  1  0.888040  0.697340  0.781000  1.0  0.6905
  C  C218  1  0.921400  0.715170  0.846900  1.0  -0.1231
  C  C219  1  0.016610  0.764510  0.031600  1.0  0.0247
  C  C220  1  0.956360  0.718400  0.013300  1.0  0.104
  C  C221  1  0.983320  0.748180  0.968500  1.0  0.0147
  C  C222  1  0.925420  0.701990  0.954500  1.0  -0.0418
  C  C223  1  0.947290  0.745140  0.800600  1.0  -0.0326
  C  C224  1  0.978220  0.760550  0.861100  1.0  0.0737
  C  C225  1  0.074590  0.776560  0.044900  1.0  -0.0333
  C  C226  1  0.078430  0.793620  0.154300  1.0  -0.1341
  C  C227  1  0.043650  0.762180  0.987000  1.0  0.1069
  C  C228  1  0.052610  0.797580  0.199100  1.0  -0.0285
  C  C229  1  0.021780  0.782200  0.139500  1.0  0.0756
  C  C230  1  0.111910  0.809250  0.219200  1.0  0.6918
  C  C231  1  0.554710  0.030670  0.114330  1.0  0.6905
  C  C232  1  0.588070  0.048500  0.180230  1.0  -0.1231
  C  C233  1  0.683280  0.097840  0.364930  1.0  0.0247
  C  C234  1  0.623030  0.051730  0.346630  1.0  0.1041
  C  C235  1  0.649990  0.081510  0.301830  1.0  0.0147
  C  C236  1  0.592090  0.035320  0.287830  1.0  -0.0418
  C  C237  1  0.613960  0.078470  0.133930  1.0  -0.0326
  C  C238  1  0.644890  0.093880  0.194430  1.0  0.0737
  C  C239  1  0.741260  0.109890  0.378230  1.0  -0.0333
  C  C240  1  0.745100  0.126950  0.487630  1.0  -0.1341
  C  C241  1  0.710320  0.095510  0.320330  1.0  0.1069
  C  C242  1  0.719280  0.130910  0.532430  1.0  -0.0285
  C  C243  1  0.688450  0.115530  0.472830  1.0  0.0756
  C  C244  1  0.778580  0.142580  0.552530  1.0  0.6918
  C  C245  1  0.221370  0.364010  0.447670  1.0  0.6905
  C  C246  1  0.254730  0.381840  0.513570  1.0  -0.1231
  C  C247  1  0.349940  0.431180  0.698270  1.0  0.0246
  C  C248  1  0.289690  0.385070  0.679970  1.0  0.104
  C  C249  1  0.316650  0.414850  0.635170  1.0  0.0147
  C  C250  1  0.258750  0.368660  0.621170  1.0  -0.0418
  C  C251  1  0.280620  0.411810  0.467270  1.0  -0.0326
  C  C252  1  0.311550  0.427220  0.527770  1.0  0.0737
  C  C253  1  0.407920  0.443230  0.711570  1.0  -0.0333
  C  C254  1  0.411760  0.460290  0.820970  1.0  -0.1338
  C  C255  1  0.376980  0.428850  0.653670  1.0  0.1069
  C  C256  1  0.385940  0.464250  0.865770  1.0  -0.028
  C  C257  1  0.355110  0.448870  0.806170  1.0  0.0756
  C  C258  1  0.445240  0.475920  0.885870  1.0  0.6918
  C  C259  1  0.302660  0.190700  0.781000  1.0  0.6904
  C  C260  1  0.284830  0.206230  0.846900  1.0  -0.1223
  C  C261  1  0.235490  0.252100  0.031600  1.0  0.0258
  C  C262  1  0.281600  0.237960  0.013300  1.0  0.1041
  C  C263  1  0.251820  0.235140  0.968500  1.0  0.0128
  C  C264  1  0.298010  0.223430  0.954500  1.0  -0.0401
  C  C265  1  0.254860  0.202150  0.800600  1.0  -0.0313
  C  C266  1  0.239450  0.217670  0.861100  1.0  0.0735
  C  C267  1  0.223440  0.298030  0.044900  1.0  -0.0362
  C  C268  1  0.206380  0.284810  0.154300  1.0  -0.1342
  C  C269  1  0.237820  0.281470  0.987000  1.0  0.1062
  C  C270  1  0.202420  0.255030  0.199100  1.0  -0.0288
  C  C271  1  0.217800  0.239580  0.139500  1.0  0.0746
  C  C272  1  0.190750  0.302660  0.219200  1.0  0.6924
  C  C273  1  0.969330  0.524030  0.114330  1.0  0.6903
  C  C274  1  0.951500  0.539560  0.180230  1.0  -0.1223
  C  C275  1  0.902160  0.585430  0.364930  1.0  0.0258
  C  C276  1  0.948270  0.571290  0.346630  1.0  0.104
  C  C277  1  0.918490  0.568470  0.301830  1.0  0.0128
  C  C278  1  0.964680  0.556760  0.287830  1.0  -0.0401
  C  C279  1  0.921530  0.535480  0.133930  1.0  -0.0313
  C  C280  1  0.906120  0.551000  0.194430  1.0  0.0735
  C  C281  1  0.890110  0.631360  0.378230  1.0  -0.0362
  C  C282  1  0.873050  0.618140  0.487630  1.0  -0.1342
  C  C283  1  0.904490  0.614800  0.320330  1.0  0.1062
  C  C284  1  0.869090  0.588360  0.532430  1.0  -0.0288
  C  C285  1  0.884470  0.572910  0.472830  1.0  0.0746
  C  C286  1  0.857420  0.635990  0.552530  1.0  0.6924
  C  C287  1  0.635990  0.857370  0.447670  1.0  0.6904
  C  C288  1  0.618160  0.872900  0.513570  1.0  -0.1223
  C  C289  1  0.568820  0.918770  0.698270  1.0  0.0258
  C  C290  1  0.614930  0.904630  0.679970  1.0  0.1041
  C  C291  1  0.585150  0.901810  0.635170  1.0  0.0128
  C  C292  1  0.631340  0.890100  0.621170  1.0  -0.0401
  C  C293  1  0.588190  0.868820  0.467270  1.0  -0.0313
  C  C294  1  0.572780  0.884340  0.527770  1.0  0.0735
  C  C295  1  0.556770  0.964700  0.711570  1.0  -0.0362
  C  C296  1  0.539710  0.951480  0.820970  1.0  -0.1341
  C  C297  1  0.571150  0.948140  0.653670  1.0  0.1062
  C  C298  1  0.535750  0.921700  0.865770  1.0  -0.0291
  C  C299  1  0.551130  0.906250  0.806170  1.0  0.0746
  C  C300  1  0.524080  0.969330  0.885870  1.0  0.6923
  C  C301  1  0.809300  0.111960  0.781000  1.0  0.6902
  C  C302  1  0.793770  0.078600  0.846900  1.0  -0.1213
  C  C303  1  0.747900  0.983390  0.031600  1.0  0.0255
  C  C304  1  0.762040  0.043640  0.013300  1.0  0.1041
  C  C305  1  0.764860  0.016680  0.968500  1.0  0.0156
  C  C306  1  0.776570  0.074580  0.954500  1.0  -0.0426
  C  C307  1  0.797850  0.052710  0.800600  1.0  -0.0322
  C  C308  1  0.782330  0.021780  0.861100  1.0  0.0712
  C  C309  1  0.701970  0.925410  0.044900  1.0  -0.0342
  C  C310  1  0.715190  0.921570  0.154300  1.0  -0.1343
  C  C311  1  0.718530  0.956350  0.987000  1.0  0.1052
  C  C312  1  0.744970  0.947390  0.199100  1.0  -0.0277
  C  C313  1  0.760420  0.978220  0.139500  1.0  0.0745
  C  C314  1  0.697340  0.888090  0.219200  1.0  0.6921
  C  C315  1  0.475970  0.445290  0.114330  1.0  0.6904
  C  C316  1  0.460440  0.411930  0.180230  1.0  -0.1213
  C  C317  1  0.414570  0.316720  0.364930  1.0  0.0256
  C  C318  1  0.428710  0.376970  0.346630  1.0  0.1039
  C  C319  1  0.431530  0.350010  0.301830  1.0  0.0156
  C  C320  1  0.443240  0.407910  0.287830  1.0  -0.0426
  C  C321  1  0.464520  0.386040  0.133930  1.0  -0.0322
  C  C322  1  0.449000  0.355110  0.194430  1.0  0.0712
  C  C323  1  0.368640  0.258740  0.378230  1.0  -0.0342
  C  C324  1  0.381860  0.254900  0.487630  1.0  -0.1343
  C  C325  1  0.385200  0.289680  0.320330  1.0  0.1052
  C  C326  1  0.411640  0.280720  0.532430  1.0  -0.0277
  C  C327  1  0.427090  0.311550  0.472830  1.0  0.0745
  C  C328  1  0.364010  0.221420  0.552530  1.0  0.6921
  C  C329  1  0.142630  0.778630  0.447670  1.0  0.6902
  C  C330  1  0.127100  0.745270  0.513570  1.0  -0.1213
  C  C331  1  0.081230  0.650060  0.698270  1.0  0.0255
  C  C332  1  0.095370  0.710310  0.679970  1.0  0.1041
  C  C333  1  0.098190  0.683350  0.635170  1.0  0.0156
  C  C334  1  0.109900  0.741250  0.621170  1.0  -0.0426
  C  C335  1  0.131180  0.719380  0.467270  1.0  -0.0322
  C  C336  1  0.115660  0.688450  0.527770  1.0  0.0712
  C  C337  1  0.035300  0.592080  0.711570  1.0  -0.0342
  C  C338  1  0.048520  0.588240  0.820970  1.0  -0.1343
  C  C339  1  0.051860  0.623020  0.653670  1.0  0.1052
  C  C340  1  0.078300  0.614060  0.865770  1.0  -0.0277
  C  C341  1  0.093750  0.644890  0.806170  1.0  0.0745
  C  C342  1  0.030670  0.554760  0.885870  1.0  0.6921
  N  N343  1  0.042210  0.295110  0.873000  1.0  0.5802
  N  N344  1  0.001180  0.207720  0.818700  1.0  0.5768
  N  N345  1  0.957920  0.253010  0.126900  1.0  0.5559
  N  N346  1  0.998880  0.206650  0.182900  1.0  0.6401
  N  N347  1  0.708880  0.628440  0.206330  1.0  0.5802
  N  N348  1  0.667850  0.541050  0.152030  1.0  0.5768
  N  N349  1  0.624590  0.586340  0.460230  1.0  0.5563
  N  N350  1  0.665550  0.539980  0.516230  1.0  0.6401
  N  N351  1  0.375540  0.961780  0.539670  1.0  0.58
  N  N352  1  0.334510  0.874390  0.485370  1.0  0.5768
  N  N353  1  0.291250  0.919680  0.793570  1.0  0.5559
  N  N354  1  0.332210  0.873320  0.849570  1.0  0.6401
  N  N355  1  0.704890  0.747100  0.873000  1.0  0.5803
  N  N356  1  0.792280  0.793460  0.818700  1.0  0.5764
  N  N357  1  0.746990  0.704910  0.126900  1.0  0.5556
  N  N358  1  0.793350  0.792230  0.182900  1.0  0.6328
  N  N359  1  0.371560  0.080430  0.206330  1.0  0.5803
  N  N360  1  0.458950  0.126790  0.152030  1.0  0.5764
  N  N361  1  0.413660  0.038240  0.460230  1.0  0.5557
  N  N362  1  0.460020  0.125560  0.516230  1.0  0.6328
  N  N363  1  0.038220  0.413770  0.539670  1.0  0.5801
  N  N364  1  0.125610  0.460130  0.485370  1.0  0.5764
  N  N365  1  0.080320  0.371580  0.793570  1.0  0.5556
  N  N366  1  0.126680  0.458900  0.849570  1.0  0.6328
  N  N367  1  0.252900  0.957790  0.873000  1.0  0.5795
  N  N368  1  0.206540  0.998820  0.818700  1.0  0.5719
  N  N369  1  0.295090  0.042080  0.126900  1.0  0.5562
  N  N370  1  0.207770  0.001120  0.182900  1.0  0.6313
  N  N371  1  0.919570  0.291120  0.206330  1.0  0.5795
  N  N372  1  0.873210  0.332150  0.152030  1.0  0.5719
  N  N373  1  0.961760  0.375410  0.460230  1.0  0.5562
  N  N374  1  0.874440  0.334450  0.516230  1.0  0.6313
  N  N375  1  0.586230  0.624460  0.539670  1.0  0.5796
  N  N376  1  0.539870  0.665490  0.485370  1.0  0.5719
  N  N377  1  0.628420  0.708750  0.793570  1.0  0.5562
  N  N378  1  0.541100  0.667790  0.849570  1.0  0.6313
  N  N379  1  0.957790  0.704890  0.127000  1.0  0.5818
  N  N380  1  0.998820  0.792280  0.181300  1.0  0.5701
  N  N381  1  0.042080  0.746990  0.873100  1.0  0.5589
  N  N382  1  0.001120  0.793350  0.817100  1.0  0.6408
  N  N383  1  0.624460  0.038220  0.460330  1.0  0.5819
  N  N384  1  0.665490  0.125610  0.514630  1.0  0.5701
  N  N385  1  0.708750  0.080320  0.206430  1.0  0.5589
  N  N386  1  0.667790  0.126680  0.150430  1.0  0.6408
  N  N387  1  0.291120  0.371560  0.793670  1.0  0.5818
  N  N388  1  0.332150  0.458950  0.847970  1.0  0.5701
  N  N389  1  0.375410  0.413660  0.539770  1.0  0.5593
  N  N390  1  0.334450  0.460020  0.483770  1.0  0.6408
  N  N391  1  0.295110  0.252900  0.127000  1.0  0.5823
  N  N392  1  0.207720  0.206540  0.181300  1.0  0.5753
  N  N393  1  0.253010  0.295090  0.873100  1.0  0.5579
  N  N394  1  0.206650  0.207770  0.817100  1.0  0.6374
  N  N395  1  0.961780  0.586230  0.460330  1.0  0.5824
  N  N396  1  0.874390  0.539870  0.514630  1.0  0.5753
  N  N397  1  0.919680  0.628420  0.206430  1.0  0.5579
  N  N398  1  0.873320  0.541100  0.150430  1.0  0.6374
  N  N399  1  0.628440  0.919570  0.793670  1.0  0.5822
  N  N400  1  0.541050  0.873210  0.847970  1.0  0.5753
  N  N401  1  0.586340  0.961760  0.539770  1.0  0.5579
  N  N402  1  0.539980  0.874440  0.483770  1.0  0.6374
  N  N403  1  0.747100  0.042210  0.127000  1.0  0.5804
  N  N404  1  0.793460  0.001180  0.181300  1.0  0.5747
  N  N405  1  0.704910  0.957920  0.873100  1.0  0.5578
  N  N406  1  0.792230  0.998880  0.817100  1.0  0.632
  N  N407  1  0.413770  0.375540  0.460330  1.0  0.5801
  N  N408  1  0.460130  0.334510  0.514630  1.0  0.5747
  N  N409  1  0.371580  0.291250  0.206430  1.0  0.5578
  N  N410  1  0.458900  0.332210  0.150430  1.0  0.632
  N  N411  1  0.080430  0.708880  0.793670  1.0  0.5804
  N  N412  1  0.126790  0.667850  0.847970  1.0  0.5747
  N  N413  1  0.038240  0.624590  0.539770  1.0  0.5578
  N  N414  1  0.125560  0.665550  0.483770  1.0  0.632
  O  O415  1  0.114230  0.288980  0.316000  1.0  -0.5421
  O  O416  1  0.067250  0.306860  0.809300  1.0  -0.4522
  O  O417  1  0.015190  0.291710  0.835200  1.0  -0.3748
  O  O418  1  0.134870  0.329520  0.170800  1.0  -0.5394
  O  O419  1  0.885810  0.174840  0.683400  1.0  -0.5442
  O  O420  1  0.865180  0.194790  0.829000  1.0  -0.5412
  O  O421  1  0.027700  0.215950  0.872700  1.0  -0.3303
  O  O422  1  0.996500  0.194700  0.717500  1.0  -0.3754
  O  O423  1  0.932590  0.239370  0.191600  1.0  -0.468
  O  O424  1  0.984840  0.276580  0.164900  1.0  -0.3741
  O  O425  1  0.972410  0.188170  0.126400  1.0  -0.3509
  O  O426  1  0.003450  0.197700  0.281000  1.0  -0.324
  O  O427  1  0.780900  0.622310  0.649330  1.0  -0.5421
  O  O428  1  0.733920  0.640190  0.142630  1.0  -0.4522
  O  O429  1  0.681860  0.625040  0.168530  1.0  -0.3748
  O  O430  1  0.801540  0.662850  0.504130  1.0  -0.5394
  O  O431  1  0.552480  0.508170  0.016730  1.0  -0.5442
  O  O432  1  0.531850  0.528120  0.162330  1.0  -0.5412
  O  O433  1  0.694370  0.549280  0.206030  1.0  -0.3263
  O  O434  1  0.663170  0.528030  0.050830  1.0  -0.3754
  O  O435  1  0.599260  0.572700  0.524930  1.0  -0.4687
  O  O436  1  0.651510  0.609910  0.498230  1.0  -0.374
  O  O437  1  0.639080  0.521500  0.459730  1.0  -0.351
  O  O438  1  0.670120  0.531030  0.614330  1.0  -0.3221
  O  O439  1  0.447560  0.955650  0.982670  1.0  -0.542
  O  O440  1  0.400580  0.973530  0.475970  1.0  -0.451
  O  O441  1  0.348520  0.958380  0.501870  1.0  -0.3749
  O  O442  1  0.468200  0.996190  0.837470  1.0  -0.5399
  O  O443  1  0.219140  0.841510  0.350070  1.0  -0.5442
  O  O444  1  0.198510  0.861460  0.495670  1.0  -0.5412
  O  O445  1  0.361030  0.882620  0.539370  1.0  -0.3265
  O  O446  1  0.329830  0.861370  0.384170  1.0  -0.3754
  O  O447  1  0.265920  0.906040  0.858270  1.0  -0.468
  O  O448  1  0.318170  0.943250  0.831570  1.0  -0.3741
  O  O449  1  0.305740  0.854840  0.793070  1.0  -0.351
  O  O450  1  0.336780  0.864370  0.947670  1.0  -0.3216
  O  O451  1  0.711020  0.825250  0.316000  1.0  -0.5427
  O  O452  1  0.693140  0.760390  0.809300  1.0  -0.4495
  O  O453  1  0.708290  0.723480  0.835200  1.0  -0.3681
  O  O454  1  0.670480  0.805350  0.170800  1.0  -0.5397
  O  O455  1  0.825160  0.710970  0.683400  1.0  -0.5437
  O  O456  1  0.805210  0.670390  0.829000  1.0  -0.5408
  O  O457  1  0.784050  0.811750  0.872700  1.0  -0.3264
  O  O458  1  0.805300  0.801800  0.717500  1.0  -0.3789
  O  O459  1  0.760630  0.693220  0.191600  1.0  -0.4693
  O  O460  1  0.723420  0.708260  0.164900  1.0  -0.377
  O  O461  1  0.811830  0.784240  0.126400  1.0  -0.3508
  O  O462  1  0.802300  0.805750  0.281000  1.0  -0.3189
  O  O463  1  0.377690  0.158580  0.649330  1.0  -0.5427
  O  O464  1  0.359810  0.093720  0.142630  1.0  -0.4495
  O  O465  1  0.374960  0.056810  0.168530  1.0  -0.3681
  O  O466  1  0.337150  0.138680  0.504130  1.0  -0.5397
  O  O467  1  0.491830  0.044300  0.016730  1.0  -0.5439
  O  O468  1  0.471880  0.003720  0.162330  1.0  -0.5408
  O  O469  1  0.450720  0.145080  0.206030  1.0  -0.3264
  O  O470  1  0.471970  0.135130  0.050830  1.0  -0.3789
  O  O471  1  0.427300  0.026550  0.524930  1.0  -0.4691
  O  O472  1  0.390090  0.041590  0.498230  1.0  -0.3771
  O  O473  1  0.478500  0.117570  0.459730  1.0  -0.3498
  O  O474  1  0.468970  0.139080  0.614330  1.0  -0.3189
  O  O475  1  0.044350  0.491920  0.982670  1.0  -0.5428
  O  O476  1  0.026470  0.427060  0.475970  1.0  -0.4507
  O  O477  1  0.041620  0.390150  0.501870  1.0  -0.368
  O  O478  1  0.003810  0.472020  0.837470  1.0  -0.5402
  O  O479  1  0.158490  0.377640  0.350070  1.0  -0.5437
  O  O480  1  0.138540  0.337060  0.495670  1.0  -0.5408
  O  O481  1  0.117380  0.478420  0.539370  1.0  -0.3264
  O  O482  1  0.138630  0.468470  0.384170  1.0  -0.3789
  O  O483  1  0.093960  0.359890  0.858270  1.0  -0.4693
  O  O484  1  0.056750  0.374930  0.831570  1.0  -0.377
  O  O485  1  0.145160  0.450910  0.793070  1.0  -0.3498
  O  O486  1  0.135630  0.472420  0.947670  1.0  -0.3189
  O  O487  1  0.174750  0.885770  0.316000  1.0  -0.542
  O  O488  1  0.239610  0.932750  0.809300  1.0  -0.4505
  O  O489  1  0.276520  0.984810  0.835200  1.0  -0.3714
  O  O490  1  0.194650  0.865130  0.170800  1.0  -0.54
  O  O491  1  0.289030  0.114190  0.683400  1.0  -0.5439
  O  O492  1  0.329610  0.134820  0.829000  1.0  -0.5415
  O  O493  1  0.188250  0.972300  0.872700  1.0  -0.324
  O  O494  1  0.198200  0.003500  0.717500  1.0  -0.3764
  O  O495  1  0.306780  0.067410  0.191600  1.0  -0.469
  O  O496  1  0.291740  0.015160  0.164900  1.0  -0.3792
  O  O497  1  0.215760  0.027590  0.126400  1.0  -0.3535
  O  O498  1  0.194250  0.996550  0.281000  1.0  -0.321
  O  O499  1  0.841420  0.219100  0.649330  1.0  -0.542
  O  O500  1  0.906280  0.266080  0.142630  1.0  -0.4505
  O  O501  1  0.943190  0.318140  0.168530  1.0  -0.3714
  O  O502  1  0.861320  0.198460  0.504130  1.0  -0.54
  O  O503  1  0.955700  0.447520  0.016730  1.0  -0.5437
  O  O504  1  0.996280  0.468150  0.162330  1.0  -0.5415
  O  O505  1  0.854920  0.305630  0.206030  1.0  -0.3246
  O  O506  1  0.864870  0.336830  0.050830  1.0  -0.3764
  O  O507  1  0.973450  0.400740  0.524930  1.0  -0.4691
  O  O508  1  0.958410  0.348490  0.498230  1.0  -0.3792
  O  O509  1  0.882430  0.360920  0.459730  1.0  -0.3512
  O  O510  1  0.860920  0.329880  0.614330  1.0  -0.3187
  O  O511  1  0.508080  0.552440  0.982670  1.0  -0.5419
  O  O512  1  0.572940  0.599420  0.475970  1.0  -0.4493
  O  O513  1  0.609850  0.651480  0.501870  1.0  -0.3714
  O  O514  1  0.527980  0.531800  0.837470  1.0  -0.5405
  O  O515  1  0.622360  0.780860  0.350070  1.0  -0.5439
  O  O516  1  0.662940  0.801490  0.495670  1.0  -0.5415
  O  O517  1  0.521580  0.638970  0.539370  1.0  -0.3244
  O  O518  1  0.531530  0.670170  0.384170  1.0  -0.3764
  O  O519  1  0.640110  0.734080  0.858270  1.0  -0.469
  O  O520  1  0.625070  0.681830  0.831570  1.0  -0.3792
  O  O521  1  0.549090  0.694260  0.793070  1.0  -0.3512
  O  O522  1  0.527580  0.663220  0.947670  1.0  -0.3187
  O  O523  1  0.885770  0.711020  0.684000  1.0  -0.5419
  O  O524  1  0.932750  0.693140  0.190700  1.0  -0.4508
  O  O525  1  0.984810  0.708290  0.164800  1.0  -0.3732
  O  O526  1  0.865130  0.670480  0.829200  1.0  -0.5391
  O  O527  1  0.114190  0.825160  0.316600  1.0  -0.5438
  O  O528  1  0.134820  0.805210  0.171000  1.0  -0.5421
  O  O529  1  0.972300  0.784050  0.127300  1.0  -0.3322
  O  O530  1  0.003500  0.805300  0.282500  1.0  -0.3771
  O  O531  1  0.067410  0.760630  0.808400  1.0  -0.4689
  O  O532  1  0.015160  0.723420  0.835100  1.0  -0.3728
  O  O533  1  0.027590  0.811830  0.873600  1.0  -0.3502
  O  O534  1  0.996550  0.802300  0.719000  1.0  -0.3227
  O  O535  1  0.552440  0.044350  0.017330  1.0  -0.5419
  O  O536  1  0.599420  0.026470  0.524030  1.0  -0.4497
  O  O537  1  0.651480  0.041620  0.498130  1.0  -0.3732
  O  O538  1  0.531800  0.003810  0.162530  1.0  -0.5396
  O  O539  1  0.780860  0.158490  0.649930  1.0  -0.5438
  O  O540  1  0.801490  0.138540  0.504330  1.0  -0.5421
  O  O541  1  0.638970  0.117380  0.460630  1.0  -0.3274
  O  O542  1  0.670170  0.138630  0.615830  1.0  -0.3771
  O  O543  1  0.734080  0.093960  0.141730  1.0  -0.4689
  O  O544  1  0.681830  0.056750  0.168430  1.0  -0.3728
  O  O545  1  0.694260  0.145160  0.206930  1.0  -0.3512
  O  O546  1  0.663220  0.135630  0.052330  1.0  -0.3205
  O  O547  1  0.219100  0.377690  0.350670  1.0  -0.5419
  O  O548  1  0.266080  0.359810  0.857370  1.0  -0.4508
  O  O549  1  0.318140  0.374960  0.831470  1.0  -0.3732
  O  O550  1  0.198460  0.337150  0.495870  1.0  -0.5391
  O  O551  1  0.447520  0.491830  0.983270  1.0  -0.5438
  O  O552  1  0.468150  0.471880  0.837670  1.0  -0.5421
  O  O553  1  0.305630  0.450720  0.793970  1.0  -0.3271
  O  O554  1  0.336830  0.471970  0.949170  1.0  -0.3771
  O  O555  1  0.400740  0.427300  0.475070  1.0  -0.469
  O  O556  1  0.348490  0.390090  0.501770  1.0  -0.3728
  O  O557  1  0.360920  0.478500  0.540270  1.0  -0.3512
  O  O558  1  0.329880  0.468970  0.385670  1.0  -0.3207
  O  O559  1  0.288980  0.174750  0.684000  1.0  -0.5421
  O  O560  1  0.306860  0.239610  0.190700  1.0  -0.4496
  O  O561  1  0.291710  0.276520  0.164800  1.0  -0.366
  O  O562  1  0.329520  0.194650  0.829200  1.0  -0.5395
  O  O563  1  0.174840  0.289030  0.316600  1.0  -0.5427
  O  O564  1  0.194790  0.329610  0.171000  1.0  -0.5408
  O  O565  1  0.215950  0.188250  0.127300  1.0  -0.3286
  O  O566  1  0.194700  0.198200  0.282500  1.0  -0.3794
  O  O567  1  0.239370  0.306780  0.808400  1.0  -0.4675
  O  O568  1  0.276580  0.291740  0.835100  1.0  -0.3785
  O  O569  1  0.188170  0.215760  0.873600  1.0  -0.3509
  O  O570  1  0.197700  0.194250  0.719000  1.0  -0.3187
  O  O571  1  0.955650  0.508080  0.017330  1.0  -0.5421
  O  O572  1  0.973530  0.572940  0.524030  1.0  -0.4506
  O  O573  1  0.958380  0.609850  0.498130  1.0  -0.3671
  O  O574  1  0.996190  0.527980  0.162530  1.0  -0.5401
  O  O575  1  0.841510  0.622360  0.649930  1.0  -0.5427
  O  O576  1  0.861460  0.662940  0.504330  1.0  -0.5408
  O  O577  1  0.882620  0.521580  0.460630  1.0  -0.3286
  O  O578  1  0.861370  0.531530  0.615830  1.0  -0.3794
  O  O579  1  0.906040  0.640110  0.141730  1.0  -0.4675
  O  O580  1  0.943250  0.625070  0.168430  1.0  -0.3785
  O  O581  1  0.854840  0.549090  0.206930  1.0  -0.3487
  O  O582  1  0.864370  0.527580  0.052330  1.0  -0.3187
  O  O583  1  0.622310  0.841420  0.350670  1.0  -0.5421
  O  O584  1  0.640190  0.906280  0.857370  1.0  -0.4496
  O  O585  1  0.625040  0.943190  0.831470  1.0  -0.366
  O  O586  1  0.662850  0.861320  0.495870  1.0  -0.5395
  O  O587  1  0.508170  0.955700  0.983270  1.0  -0.5428
  O  O588  1  0.528120  0.996280  0.837670  1.0  -0.5408
  O  O589  1  0.549280  0.854920  0.793970  1.0  -0.3286
  O  O590  1  0.528030  0.864870  0.949170  1.0  -0.3794
  O  O591  1  0.572700  0.973450  0.475070  1.0  -0.4673
  O  O592  1  0.609910  0.958410  0.501770  1.0  -0.3785
  O  O593  1  0.521500  0.882430  0.540270  1.0  -0.3487
  O  O594  1  0.531030  0.860920  0.385670  1.0  -0.3187
  O  O595  1  0.825250  0.114230  0.684000  1.0  -0.5427
  O  O596  1  0.760390  0.067250  0.190700  1.0  -0.452
  O  O597  1  0.723480  0.015190  0.164800  1.0  -0.3728
  O  O598  1  0.805350  0.134870  0.829200  1.0  -0.5398
  O  O599  1  0.710970  0.885810  0.316600  1.0  -0.5438
  O  O600  1  0.670390  0.865180  0.171000  1.0  -0.5423
  O  O601  1  0.811750  0.027700  0.127300  1.0  -0.3268
  O  O602  1  0.801800  0.996500  0.282500  1.0  -0.3779
  O  O603  1  0.693220  0.932590  0.808400  1.0  -0.4698
  O  O604  1  0.708260  0.984840  0.835100  1.0  -0.3782
  O  O605  1  0.784240  0.972410  0.873600  1.0  -0.3506
  O  O606  1  0.805750  0.003450  0.719000  1.0  -0.3195
  O  O607  1  0.491920  0.447560  0.017330  1.0  -0.5425
  O  O608  1  0.427060  0.400580  0.524030  1.0  -0.4507
  O  O609  1  0.390150  0.348520  0.498130  1.0  -0.3728
  O  O610  1  0.472020  0.468200  0.162530  1.0  -0.5404
  O  O611  1  0.377640  0.219140  0.649930  1.0  -0.5438
  O  O612  1  0.337060  0.198510  0.504330  1.0  -0.5423
  O  O613  1  0.478420  0.361030  0.460630  1.0  -0.3271
  O  O614  1  0.468470  0.329830  0.615830  1.0  -0.3779
  O  O615  1  0.359890  0.265920  0.141730  1.0  -0.4698
  O  O616  1  0.374930  0.318170  0.168430  1.0  -0.3782
  O  O617  1  0.450910  0.305740  0.206930  1.0  -0.352
  O  O618  1  0.472420  0.336780  0.052330  1.0  -0.3174
  O  O619  1  0.158580  0.780900  0.350670  1.0  -0.5427
  O  O620  1  0.093720  0.733920  0.857370  1.0  -0.452
  O  O621  1  0.056810  0.681860  0.831470  1.0  -0.3728
  O  O622  1  0.138680  0.801540  0.495870  1.0  -0.5398
  O  O623  1  0.044300  0.552480  0.983270  1.0  -0.5437
  O  O624  1  0.003720  0.531850  0.837670  1.0  -0.5423
  O  O625  1  0.145080  0.694370  0.793970  1.0  -0.3273
  O  O626  1  0.135130  0.663170  0.949170  1.0  -0.3779
  O  O627  1  0.026550  0.599260  0.475070  1.0  -0.4699
  O  O628  1  0.041590  0.651510  0.501770  1.0  -0.3782
  O  O629  1  0.117570  0.639080  0.540270  1.0  -0.352
  O  O630  1  0.139080  0.670120  0.385670  1.0  -0.3174
