# generated using pymatgen
data_Cd3H20(C9O5)4
_symmetry_space_group_name_H-M   'P 1'
_cell_length_a   9.94280000
_cell_length_b   10.43940000
_cell_length_c   14.57790000
_cell_angle_alpha   107.05000000
_cell_angle_beta   109.12700000
_cell_angle_gamma   90.07900000
_symmetry_Int_Tables_number   1
_chemical_formula_structural   Cd3H20(C9O5)4
_chemical_formula_sum   'Cd3 H20 C36 O20'
_cell_volume   1358.79681137
_cell_formula_units_Z   1
loop_
 _symmetry_equiv_pos_site_id
 _symmetry_equiv_pos_as_xyz
  1  'x, y, z'
loop_
 _atom_site_type_symbol
 _atom_site_label
 _atom_site_symmetry_multiplicity
 _atom_site_fract_x
 _atom_site_fract_y
 _atom_site_fract_z
 _atom_site_occupancy
 _atom_site_charge
  Cd  Cd1  1  0.104280  0.297840  0.201770  1.0  1.1163
  Cd  Cd2  1  0.895720  0.702160  0.798230  1.0  1.1158
  Cd  Cd3  1  0.000000  0.000000  0.000000  1.0  1.1373
  H  H4  1  0.584800  0.275900  0.173600  1.0  0.1384
  H  H5  1  0.676800  0.119100  0.917400  1.0  0.1254
  H  H6  1  0.266500  0.112000  0.905900  1.0  0.1303
  H  H7  1  0.098800  0.758600  0.195600  1.0  0.1347
  H  H8  1  0.295100  0.710800  0.469000  1.0  0.1362
  H  H9  1  0.575500  0.934000  0.780800  1.0  0.0968
  H  H10  1  0.567800  0.054700  0.736200  1.0  0.1098
  H  H11  1  0.261900  0.086400  0.443700  1.0  0.1382
  H  H12  1  0.499000  0.836700  0.609200  1.0  0.0979
  H  H13  1  0.361100  0.829000  0.638700  1.0  0.0921
  H  H14  1  0.415200  0.724100  0.826400  1.0  0.1372
  H  H15  1  0.323200  0.880900  0.082600  1.0  0.1262
  H  H16  1  0.733500  0.888000  0.094100  1.0  0.1299
  H  H17  1  0.901200  0.241400  0.804400  1.0  0.1339
  H  H18  1  0.704900  0.289200  0.531000  1.0  0.1356
  H  H19  1  0.424500  0.066000  0.219200  1.0  0.098
  H  H20  1  0.432200  0.945300  0.263800  1.0  0.1105
  H  H21  1  0.738100  0.913600  0.556300  1.0  0.1392
  H  H22  1  0.501000  0.163300  0.390800  1.0  0.0977
  H  H23  1  0.638900  0.171000  0.361300  1.0  0.0917
  C  C24  1  0.808500  0.238400  0.114100  1.0  0.7161
  C  C25  1  0.408600  0.196800  0.047300  1.0  -0.13
  C  C26  1  0.554300  0.232800  0.103500  1.0  -0.0206
  C  C27  1  0.609200  0.138800  0.949600  1.0  -0.1681
  C  C28  1  0.651900  0.203700  0.054200  1.0  -0.1017
  C  C29  1  0.363800  0.133900  0.943100  1.0  -0.1102
  C  C30  1  0.151600  0.565400  0.279600  1.0  0.6729
  C  C31  1  0.462500  0.103200  0.893300  1.0  0.3024
  C  C32  1  0.128600  0.028400  0.242700  1.0  0.7236
  C  C33  1  0.298300  0.225600  0.100500  1.0  0.7071
  C  C34  1  0.146300  0.796700  0.265400  1.0  0.0146
  C  C35  1  0.190800  0.716200  0.327500  1.0  -0.1005
  C  C36  1  0.264800  0.767800  0.429500  1.0  -0.1516
  C  C37  1  0.174200  0.937300  0.309700  1.0  -0.1442
  C  C38  1  0.511100  0.982700  0.740700  1.0  0.0853
  C  C39  1  0.246200  0.993300  0.414200  1.0  -0.0997
  C  C40  1  0.294900  0.909400  0.474800  1.0  0.2425
  C  C41  1  0.433000  0.889900  0.636600  1.0  0.1046
  C  C42  1  0.191500  0.761600  0.885900  1.0  0.7157
  C  C43  1  0.591400  0.803200  0.952700  1.0  -0.1274
  C  C44  1  0.445700  0.767200  0.896500  1.0  -0.0208
  C  C45  1  0.390800  0.861200  0.050400  1.0  -0.1715
  C  C46  1  0.348100  0.796300  0.945800  1.0  -0.1009
  C  C47  1  0.636200  0.866100  0.056900  1.0  -0.1086
  C  C48  1  0.848400  0.434600  0.720400  1.0  0.6702
  C  C49  1  0.537500  0.896800  0.106700  1.0  0.3029
  C  C50  1  0.871400  0.971600  0.757300  1.0  0.7235
  C  C51  1  0.701700  0.774400  0.899500  1.0  0.708
  C  C52  1  0.853700  0.203300  0.734600  1.0  0.0139
  C  C53  1  0.809200  0.283800  0.672500  1.0  -0.1013
  C  C54  1  0.735200  0.232200  0.570500  1.0  -0.153
  C  C55  1  0.825800  0.062700  0.690300  1.0  -0.1447
  C  C56  1  0.488900  0.017300  0.259300  1.0  0.0866
  C  C57  1  0.753800  0.006700  0.585800  1.0  -0.1001
  C  C58  1  0.705100  0.090600  0.525200  1.0  0.2436
  C  C59  1  0.567000  0.110100  0.363400  1.0  0.1031
  O  O60  1  0.897400  0.185100  0.069700  1.0  -0.69
  O  O61  1  0.409300  0.040200  0.791300  1.0  -0.2691
  O  O62  1  0.853100  0.315800  0.201300  1.0  -0.6161
  O  O63  1  0.184000  0.492500  0.337800  1.0  -0.5702
  O  O64  1  0.334800  0.298200  0.189800  1.0  -0.5597
  O  O65  1  0.099100  0.516000  0.185000  1.0  -0.587
  O  O66  1  0.172100  0.177800  0.051600  1.0  -0.6794
  O  O67  1  0.086000  0.971000  0.149900  1.0  -0.6237
  O  O68  1  0.367200  0.970700  0.574700  1.0  -0.2613
  O  O69  1  0.140800  0.150900  0.285900  1.0  -0.5675
  O  O70  1  0.102600  0.814900  0.930300  1.0  -0.6897
  O  O71  1  0.590700  0.959800  0.208700  1.0  -0.2691
  O  O72  1  0.146900  0.684200  0.798700  1.0  -0.6152
  O  O73  1  0.816000  0.507500  0.662200  1.0  -0.5734
  O  O74  1  0.665200  0.701800  0.810200  1.0  -0.5609
  O  O75  1  0.900900  0.484000  0.815000  1.0  -0.5864
  O  O76  1  0.827900  0.822200  0.948400  1.0  -0.6792
  O  O77  1  0.914000  0.029000  0.850100  1.0  -0.6228
  O  O78  1  0.632800  0.029300  0.425300  1.0  -0.2625
  O  O79  1  0.859200  0.849100  0.714100  1.0  -0.5676
