# generated using pymatgen
data_MnH6(C3O)4
_symmetry_space_group_name_H-M   'P 1'
_cell_length_a   7.11600000
_cell_length_b   13.98700000
_cell_length_c   14.91600000
_cell_angle_alpha   90.00000000
_cell_angle_beta   101.59900000
_cell_angle_gamma   90.00000000
_symmetry_Int_Tables_number   1
_chemical_formula_structural   MnH6(C3O)4
_chemical_formula_sum   'Mn4 H24 C48 O16'
_cell_volume   1454.29412053
_cell_formula_units_Z   4
loop_
 _symmetry_equiv_pos_site_id
 _symmetry_equiv_pos_as_xyz
  1  'x, y, z'
loop_
 _atom_site_type_symbol
 _atom_site_label
 _atom_site_symmetry_multiplicity
 _atom_site_fract_x
 _atom_site_fract_y
 _atom_site_fract_z
 _atom_site_occupancy
 _atom_site_charge
  Mn  Mn1  1  0.233500  0.565360  0.032510  1.0  1.1485
  Mn  Mn2  1  0.766500  0.065360  0.467490  1.0  1.1444
  Mn  Mn3  1  0.766500  0.434640  0.967490  1.0  1.1495
  Mn  Mn4  1  0.233500  0.934640  0.532510  1.0  1.1462
  H  H5  1  0.896400  0.697200  0.369400  1.0  0.0951
  H  H6  1  0.669300  0.771400  0.989200  1.0  0.1058
  H  H7  1  0.807900  0.587300  0.252000  1.0  0.1052
  H  H8  1  0.831000  0.993400  0.224600  1.0  0.1025
  H  H9  1  0.679700  0.930400  0.957700  1.0  0.0972
  H  H10  1  0.762900  0.040900  0.073700  1.0  0.1012
  H  H11  1  0.103600  0.197200  0.130600  1.0  0.0951
  H  H12  1  0.330700  0.271400  0.510800  1.0  0.1058
  H  H13  1  0.192100  0.087300  0.248000  1.0  0.1053
  H  H14  1  0.169000  0.493400  0.275400  1.0  0.1034
  H  H15  1  0.320300  0.430400  0.542300  1.0  0.0978
  H  H16  1  0.237100  0.540900  0.426300  1.0  0.1012
  H  H17  1  0.103600  0.302800  0.630600  1.0  0.0951
  H  H18  1  0.330700  0.228600  0.010800  1.0  0.1045
  H  H19  1  0.192100  0.412700  0.748000  1.0  0.1056
  H  H20  1  0.169000  0.006600  0.775400  1.0  0.1029
  H  H21  1  0.320300  0.069600  0.042300  1.0  0.098
  H  H22  1  0.237100  0.959100  0.926300  1.0  0.1014
  H  H23  1  0.896400  0.802800  0.869400  1.0  0.0946
  H  H24  1  0.669300  0.728600  0.489200  1.0  0.1052
  H  H25  1  0.807900  0.912700  0.752000  1.0  0.1053
  H  H26  1  0.831000  0.506600  0.724600  1.0  0.1026
  H  H27  1  0.679700  0.569600  0.457700  1.0  0.0973
  H  H28  1  0.762900  0.459100  0.573700  1.0  0.1013
  C  C29  1  0.741800  0.781400  0.129100  1.0  0.0497
  C  C30  1  0.740100  0.682500  0.149400  1.0  -0.1234
  C  C31  1  0.845700  0.815800  0.293700  1.0  -0.1197
  C  C32  1  0.854400  0.719100  0.309900  1.0  -0.0647
  C  C33  1  0.672300  0.607600  0.077700  1.0  0.7438
  C  C34  1  0.792900  0.849300  0.201400  1.0  0.0587
  C  C35  1  0.701100  0.814900  0.037000  1.0  -0.125
  C  C36  1  0.801500  0.652300  0.238800  1.0  -0.0728
  C  C37  1  0.799000  0.948000  0.178500  1.0  -0.1406
  C  C38  1  0.893200  0.882500  0.374900  1.0  0.7307
  C  C39  1  0.708300  0.909800  0.018200  1.0  -0.0888
  C  C40  1  0.757700  0.976300  0.088100  1.0  -0.0827
  C  C41  1  0.258200  0.281400  0.370900  1.0  0.0497
  C  C42  1  0.259900  0.182500  0.350600  1.0  -0.123
  C  C43  1  0.154300  0.315800  0.206300  1.0  -0.1188
  C  C44  1  0.145600  0.219100  0.190100  1.0  -0.0614
  C  C45  1  0.327700  0.107600  0.422300  1.0  0.7439
  C  C46  1  0.207100  0.349300  0.298600  1.0  0.0586
  C  C47  1  0.298900  0.314900  0.463000  1.0  -0.1252
  C  C48  1  0.198500  0.152300  0.261200  1.0  -0.0732
  C  C49  1  0.201000  0.448000  0.321500  1.0  -0.1402
  C  C50  1  0.106800  0.382500  0.125100  1.0  0.7318
  C  C51  1  0.291700  0.409800  0.481800  1.0  -0.0878
  C  C52  1  0.242300  0.476300  0.411900  1.0  -0.0833
  C  C53  1  0.258200  0.218600  0.870900  1.0  0.0499
  C  C54  1  0.259900  0.317500  0.850600  1.0  -0.1231
  C  C55  1  0.154300  0.184200  0.706300  1.0  -0.1193
  C  C56  1  0.145600  0.280900  0.690100  1.0  -0.0617
  C  C57  1  0.327700  0.392400  0.922300  1.0  0.7439
  C  C58  1  0.207100  0.150700  0.798600  1.0  0.0586
  C  C59  1  0.298900  0.185100  0.963000  1.0  -0.1253
  C  C60  1  0.198500  0.347700  0.761200  1.0  -0.0747
  C  C61  1  0.201000  0.052000  0.821500  1.0  -0.1402
  C  C62  1  0.106800  0.117500  0.625100  1.0  0.7319
  C  C63  1  0.291700  0.090200  0.981800  1.0  -0.0875
  C  C64  1  0.242300  0.023700  0.911900  1.0  -0.0828
  C  C65  1  0.741800  0.718600  0.629100  1.0  0.0499
  C  C66  1  0.740100  0.817500  0.649400  1.0  -0.1232
  C  C67  1  0.845700  0.684200  0.793700  1.0  -0.1202
  C  C68  1  0.854400  0.780900  0.809900  1.0  -0.0647
  C  C69  1  0.672300  0.892400  0.577700  1.0  0.7443
  C  C70  1  0.792900  0.650700  0.701400  1.0  0.0587
  C  C71  1  0.701100  0.685100  0.537000  1.0  -0.1249
  C  C72  1  0.801500  0.847700  0.738800  1.0  -0.0746
  C  C73  1  0.799000  0.552000  0.678500  1.0  -0.1402
  C  C74  1  0.893200  0.617500  0.874900  1.0  0.7311
  C  C75  1  0.708300  0.590200  0.518200  1.0  -0.0887
  C  C76  1  0.757700  0.523700  0.588100  1.0  -0.0826
  O  O77  1  0.791200  0.955470  0.374910  1.0  -0.6046
  O  O78  1  0.782000  0.537350  0.075340  1.0  -0.6031
  O  O79  1  0.031500  0.857500  0.438400  1.0  -0.6462
  O  O80  1  0.510600  0.618460  0.025130  1.0  -0.6676
  O  O81  1  0.208800  0.455470  0.125090  1.0  -0.6058
  O  O82  1  0.218000  0.037350  0.424660  1.0  -0.6019
  O  O83  1  0.968500  0.357500  0.061600  1.0  -0.6466
  O  O84  1  0.489400  0.118460  0.474870  1.0  -0.6679
  O  O85  1  0.208800  0.044530  0.625090  1.0  -0.6059
  O  O86  1  0.218000  0.462650  0.924660  1.0  -0.6023
  O  O87  1  0.968500  0.142500  0.561600  1.0  -0.6466
  O  O88  1  0.489400  0.381540  0.974870  1.0  -0.6676
  O  O89  1  0.791200  0.544530  0.874910  1.0  -0.6048
  O  O90  1  0.782000  0.962650  0.575340  1.0  -0.604
  O  O91  1  0.031500  0.642500  0.938400  1.0  -0.6467
  O  O92  1  0.510600  0.881540  0.525130  1.0  -0.6677
