# generated using pymatgen
data_ZnH2C3N3O2
_symmetry_space_group_name_H-M   'P 1'
_cell_length_a   8.91470000
_cell_length_b   9.72970000
_cell_length_c   9.51790000
_cell_angle_alpha   90.00000000
_cell_angle_beta   115.74500000
_cell_angle_gamma   90.00000000
_symmetry_Int_Tables_number   1
_chemical_formula_structural   ZnH2C3N3O2
_chemical_formula_sum   'Zn4 H8 C12 N12 O8'
_cell_volume   743.60947048
_cell_formula_units_Z   4
loop_
 _symmetry_equiv_pos_site_id
 _symmetry_equiv_pos_as_xyz
  1  'x, y, z'
loop_
 _atom_site_type_symbol
 _atom_site_label
 _atom_site_symmetry_multiplicity
 _atom_site_fract_x
 _atom_site_fract_y
 _atom_site_fract_z
 _atom_site_occupancy
 _atom_site_charge
  Zn  Zn1  1  0.824630  0.058620  0.063300  1.0  0.8787
  Zn  Zn2  1  0.175370  0.558620  0.436700  1.0  0.8805
  Zn  Zn3  1  0.175370  0.941380  0.936700  1.0  0.8807
  Zn  Zn4  1  0.824630  0.441380  0.563300  1.0  0.879
  H  H5  1  0.086200  0.309500  0.203100  1.0  0.0742
  H  H6  1  0.749200  0.196400  0.332200  1.0  0.0623
  H  H7  1  0.913800  0.809500  0.296900  1.0  0.0749
  H  H8  1  0.250800  0.696400  0.167800  1.0  0.0626
  H  H9  1  0.913800  0.690500  0.796900  1.0  0.075
  H  H10  1  0.250800  0.803600  0.667800  1.0  0.0631
  H  H11  1  0.086200  0.190500  0.703100  1.0  0.0743
  H  H12  1  0.749200  0.303600  0.832200  1.0  0.0624
  C  C13  1  0.524100  0.968700  0.081600  1.0  0.618
  C  C14  1  0.017700  0.305600  0.253900  1.0  0.2379
  C  C15  1  0.834700  0.244900  0.323700  1.0  0.2477
  C  C16  1  0.475900  0.468700  0.418400  1.0  0.6184
  C  C17  1  0.982300  0.805600  0.246100  1.0  0.2369
  C  C18  1  0.165300  0.744900  0.176300  1.0  0.2468
  C  C19  1  0.475900  0.031300  0.918400  1.0  0.6084
  C  C20  1  0.982300  0.694400  0.746100  1.0  0.2367
  C  C21  1  0.165300  0.755100  0.676300  1.0  0.2471
  C  C22  1  0.524100  0.531300  0.581600  1.0  0.6066
  C  C23  1  0.017700  0.194400  0.753900  1.0  0.2379
  C  C24  1  0.834700  0.255100  0.823700  1.0  0.2476
  N  N25  1  0.898300  0.212000  0.223300  1.0  -0.4358
  N  N26  1  0.027400  0.392000  0.364300  1.0  -0.2517
  N  N27  1  0.906900  0.353100  0.408400  1.0  -0.2261
  N  N28  1  0.101700  0.712000  0.276700  1.0  -0.436
  N  N29  1  0.972600  0.892000  0.135700  1.0  -0.2516
  N  N30  1  0.093100  0.853100  0.091600  1.0  -0.2257
  N  N31  1  0.101700  0.788000  0.776700  1.0  -0.4355
  N  N32  1  0.972600  0.608000  0.635700  1.0  -0.253
  N  N33  1  0.093100  0.646900  0.591600  1.0  -0.2257
  N  N34  1  0.898300  0.288000  0.723300  1.0  -0.4357
  N  N35  1  0.027400  0.108000  0.864300  1.0  -0.2523
  N  N36  1  0.906900  0.146900  0.908400  1.0  -0.2257
  O  O37  1  0.674500  0.971400  0.173100  1.0  -0.6098
  O  O38  1  0.409400  0.922700  0.108600  1.0  -0.5919
  O  O39  1  0.325500  0.471400  0.326900  1.0  -0.6077
  O  O40  1  0.590600  0.422700  0.391400  1.0  -0.5923
  O  O41  1  0.325500  0.028600  0.826900  1.0  -0.6074
  O  O42  1  0.590600  0.077300  0.891400  1.0  -0.5919
  O  O43  1  0.674500  0.528600  0.673100  1.0  -0.6103
  O  O44  1  0.409400  0.577300  0.608600  1.0  -0.5917
