# generated using pymatgen
data_Tb2H8(C6O5)3
_symmetry_space_group_name_H-M   'P 1'
_cell_length_a   16.60520000
_cell_length_b   16.07390000
_cell_length_c   10.28190000
_cell_angle_alpha   90.00000000
_cell_angle_beta   94.40000000
_cell_angle_gamma   90.00000000
_symmetry_Int_Tables_number   1
_chemical_formula_structural   Tb2H8(C6O5)3
_chemical_formula_sum   'Tb8 H32 C72 O60'
_cell_volume   2736.25699775
_cell_formula_units_Z   4
loop_
 _symmetry_equiv_pos_site_id
 _symmetry_equiv_pos_as_xyz
  1  'x, y, z'
loop_
 _atom_site_type_symbol
 _atom_site_label
 _atom_site_symmetry_multiplicity
 _atom_site_fract_x
 _atom_site_fract_y
 _atom_site_fract_z
 _atom_site_occupancy
 _atom_site_charge
  Tb  Tb1  1  0.038110  0.622570  0.543040  1.0  2.2784
  Tb  Tb2  1  0.538100  0.122570  0.543040  1.0  2.2783
  Tb  Tb3  1  0.961890  0.622570  0.956960  1.0  2.278
  Tb  Tb4  1  0.461890  0.122570  0.956960  1.0  2.278
  Tb  Tb5  1  0.961890  0.377430  0.456960  1.0  2.2796
  Tb  Tb6  1  0.461890  0.877430  0.456960  1.0  2.2796
  Tb  Tb7  1  0.038110  0.377430  0.043040  1.0  2.2791
  Tb  Tb8  1  0.538100  0.877430  0.043040  1.0  2.279
  H  H9  1  0.348000  0.343000  0.401000  1.0  0.3994
  H  H10  1  0.275900  0.271100  0.837300  1.0  0.1159
  H  H11  1  0.239800  0.422900  0.451300  1.0  0.1196
  H  H12  1  0.967000  0.524000  0.723000  1.0  0.401
  H  H13  1  0.848000  0.843000  0.401000  1.0  0.3994
  H  H14  1  0.775900  0.771100  0.837300  1.0  0.1159
  H  H15  1  0.739800  0.922900  0.451300  1.0  0.1196
  H  H16  1  0.467000  0.024000  0.723000  1.0  0.4011
  H  H17  1  0.652000  0.343000  0.099000  1.0  0.3953
  H  H18  1  0.724100  0.271100  0.662700  1.0  0.116
  H  H19  1  0.760200  0.422900  0.048700  1.0  0.1202
  H  H20  1  0.033000  0.524000  0.777000  1.0  0.4033
  H  H21  1  0.152000  0.843000  0.099000  1.0  0.3953
  H  H22  1  0.224100  0.771100  0.662700  1.0  0.116
  H  H23  1  0.260200  0.922900  0.048700  1.0  0.1202
  H  H24  1  0.533000  0.024000  0.777000  1.0  0.4033
  H  H25  1  0.652000  0.657000  0.599000  1.0  0.3943
  H  H26  1  0.724100  0.728900  0.162700  1.0  0.1159
  H  H27  1  0.760200  0.577100  0.548700  1.0  0.1207
  H  H28  1  0.033000  0.476000  0.277000  1.0  0.4028
  H  H29  1  0.152000  0.157000  0.599000  1.0  0.3943
  H  H30  1  0.224100  0.228900  0.162700  1.0  0.1159
  H  H31  1  0.260200  0.077100  0.548700  1.0  0.1207
  H  H32  1  0.533000  0.976000  0.277000  1.0  0.4028
  H  H33  1  0.348000  0.657000  0.901000  1.0  0.3982
  H  H34  1  0.275900  0.728900  0.337300  1.0  0.1156
  H  H35  1  0.239800  0.577100  0.951300  1.0  0.1196
  H  H36  1  0.967000  0.476000  0.223000  1.0  0.4013
  H  H37  1  0.848000  0.157000  0.901000  1.0  0.3982
  H  H38  1  0.775900  0.228900  0.337300  1.0  0.1156
  H  H39  1  0.739800  0.077100  0.951300  1.0  0.1196
  H  H40  1  0.467000  0.976000  0.223000  1.0  0.4013
  C  C41  1  0.308870  0.332770  0.543700  1.0  0.2536
  C  C42  1  0.321350  0.288260  0.661300  1.0  -0.1664
  C  C43  1  0.268660  0.302060  0.758500  1.0  -0.0285
  C  C44  1  0.205960  0.359380  0.744400  1.0  -0.0938
  C  C45  1  0.196880  0.406060  0.628500  1.0  -0.0491
  C  C46  1  0.247260  0.391830  0.529900  1.0  -0.1639
  C  C47  1  0.389020  0.227860  0.689300  1.0  0.7561
  C  C48  1  0.150150  0.368280  0.850100  1.0  0.7119
  C  C49  1  0.136580  0.474330  0.606500  1.0  0.6754
  C  C50  1  0.808870  0.832770  0.543700  1.0  0.2536
  C  C51  1  0.821350  0.788260  0.661300  1.0  -0.1664
  C  C52  1  0.768660  0.802060  0.758500  1.0  -0.0285
  C  C53  1  0.705960  0.859380  0.744400  1.0  -0.0938
  C  C54  1  0.696880  0.906060  0.628500  1.0  -0.0491
  C  C55  1  0.747260  0.891830  0.529900  1.0  -0.1639
  C  C56  1  0.889020  0.727860  0.689300  1.0  0.7561
  C  C57  1  0.650150  0.868280  0.850100  1.0  0.7119
  C  C58  1  0.636580  0.974330  0.606500  1.0  0.6754
  C  C59  1  0.691130  0.332770  0.956300  1.0  0.2519
  C  C60  1  0.678650  0.288260  0.838700  1.0  -0.167
  C  C61  1  0.731340  0.302060  0.741500  1.0  -0.0266
  C  C62  1  0.794040  0.359380  0.755600  1.0  -0.0937
  C  C63  1  0.803120  0.406060  0.871500  1.0  -0.0509
  C  C64  1  0.752740  0.391830  0.970100  1.0  -0.1651
  C  C65  1  0.610980  0.227860  0.810700  1.0  0.7564
  C  C66  1  0.849850  0.368280  0.649900  1.0  0.7112
  C  C67  1  0.863420  0.474330  0.893500  1.0  0.6756
  C  C68  1  0.191130  0.832770  0.956300  1.0  0.2519
  C  C69  1  0.178650  0.788260  0.838700  1.0  -0.167
  C  C70  1  0.231340  0.802060  0.741500  1.0  -0.0266
  C  C71  1  0.294040  0.859380  0.755600  1.0  -0.0937
  C  C72  1  0.303120  0.906060  0.871500  1.0  -0.0509
  C  C73  1  0.252740  0.891830  0.970100  1.0  -0.1651
  C  C74  1  0.110980  0.727860  0.810700  1.0  0.7564
  C  C75  1  0.349850  0.868280  0.649900  1.0  0.7112
  C  C76  1  0.363420  0.974330  0.893500  1.0  0.6756
  C  C77  1  0.691130  0.667230  0.456300  1.0  0.2522
  C  C78  1  0.678650  0.711740  0.338700  1.0  -0.1682
  C  C79  1  0.731340  0.697940  0.241500  1.0  -0.0267
  C  C80  1  0.794040  0.640620  0.255600  1.0  -0.0944
  C  C81  1  0.803120  0.593940  0.371500  1.0  -0.0509
  C  C82  1  0.752740  0.608170  0.470100  1.0  -0.166
  C  C83  1  0.610980  0.772140  0.310700  1.0  0.7561
  C  C84  1  0.849850  0.631720  0.149900  1.0  0.712
  C  C85  1  0.863420  0.525670  0.393500  1.0  0.6754
  C  C86  1  0.191130  0.167230  0.456300  1.0  0.2522
  C  C87  1  0.178650  0.211740  0.338700  1.0  -0.1682
  C  C88  1  0.231340  0.197940  0.241500  1.0  -0.0267
  C  C89  1  0.294040  0.140620  0.255600  1.0  -0.0944
  C  C90  1  0.303120  0.093940  0.371500  1.0  -0.0509
  C  C91  1  0.252740  0.108170  0.470100  1.0  -0.166
  C  C92  1  0.110980  0.272140  0.310700  1.0  0.7561
  C  C93  1  0.349850  0.131720  0.149900  1.0  0.712
  C  C94  1  0.363420  0.025670  0.393500  1.0  0.6754
  C  C95  1  0.308870  0.667230  0.043700  1.0  0.2548
  C  C96  1  0.321350  0.711740  0.161300  1.0  -0.1675
  C  C97  1  0.268660  0.697940  0.258500  1.0  -0.0282
  C  C98  1  0.205960  0.640620  0.244400  1.0  -0.0938
  C  C99  1  0.196880  0.593940  0.128500  1.0  -0.0495
  C  C100  1  0.247260  0.608170  0.029900  1.0  -0.1651
  C  C101  1  0.389020  0.772140  0.189300  1.0  0.7555
  C  C102  1  0.150150  0.631720  0.350100  1.0  0.7122
  C  C103  1  0.136580  0.525670  0.106500  1.0  0.6755
  C  C104  1  0.808870  0.167230  0.043700  1.0  0.2548
  C  C105  1  0.821350  0.211740  0.161300  1.0  -0.1675
  C  C106  1  0.768660  0.197940  0.258500  1.0  -0.0282
  C  C107  1  0.705960  0.140620  0.244400  1.0  -0.0938
  C  C108  1  0.696880  0.093940  0.128500  1.0  -0.0495
  C  C109  1  0.747260  0.108170  0.029900  1.0  -0.1651
  C  C110  1  0.889020  0.272140  0.189300  1.0  0.7555
  C  C111  1  0.650150  0.131720  0.350100  1.0  0.7122
  C  C112  1  0.636580  0.025670  0.106500  1.0  0.6755
  O  O113  1  0.357130  0.320150  0.445610  1.0  -0.6977
  O  O114  1  0.420140  0.192910  0.596510  1.0  -0.7199
  O  O115  1  0.410020  0.215060  0.808290  1.0  -0.6537
  O  O116  1  0.157080  0.320780  0.947320  1.0  -0.6683
  O  O117  1  0.094380  0.423270  0.840790  1.0  -0.6777
  O  O118  1  0.067710  0.460910  0.548410  1.0  -0.7689
  O  O119  1  0.156860  0.547010  0.640850  1.0  -0.6389
  O  O120  1  0.857130  0.820150  0.445610  1.0  -0.6977
  O  O121  1  0.920140  0.692910  0.596510  1.0  -0.7199
  O  O122  1  0.910020  0.715060  0.808290  1.0  -0.6537
  O  O123  1  0.657080  0.820780  0.947320  1.0  -0.6683
  O  O124  1  0.594380  0.923270  0.840790  1.0  -0.6777
  O  O125  1  0.567710  0.960910  0.548410  1.0  -0.7689
  O  O126  1  0.656860  0.047010  0.640850  1.0  -0.6389
  O  O127  1  0.642870  0.320150  0.054390  1.0  -0.6988
  O  O128  1  0.579860  0.192910  0.903490  1.0  -0.7212
  O  O129  1  0.589980  0.215060  0.691710  1.0  -0.6551
  O  O130  1  0.842920  0.320780  0.552680  1.0  -0.6673
  O  O131  1  0.905620  0.423270  0.659210  1.0  -0.6771
  O  O132  1  0.932290  0.460910  0.951590  1.0  -0.7696
  O  O133  1  0.843140  0.547010  0.859150  1.0  -0.6406
  O  O134  1  0.142870  0.820150  0.054390  1.0  -0.6988
  O  O135  1  0.079860  0.692910  0.903490  1.0  -0.7212
  O  O136  1  0.089980  0.715060  0.691710  1.0  -0.6551
  O  O137  1  0.342920  0.820780  0.552680  1.0  -0.6673
  O  O138  1  0.405620  0.923270  0.659210  1.0  -0.6771
  O  O139  1  0.432290  0.960910  0.951590  1.0  -0.7696
  O  O140  1  0.343140  0.047010  0.859150  1.0  -0.6406
  O  O141  1  0.642870  0.679850  0.554390  1.0  -0.6993
  O  O142  1  0.579860  0.807090  0.403490  1.0  -0.7208
  O  O143  1  0.589980  0.784940  0.191710  1.0  -0.6545
  O  O144  1  0.842920  0.679220  0.052680  1.0  -0.6668
  O  O145  1  0.905620  0.576730  0.159210  1.0  -0.6777
  O  O146  1  0.932290  0.539090  0.451590  1.0  -0.7717
  O  O147  1  0.843140  0.452990  0.359150  1.0  -0.6379
  O  O148  1  0.142870  0.179850  0.554390  1.0  -0.6993
  O  O149  1  0.079860  0.307090  0.403490  1.0  -0.7208
  O  O150  1  0.089980  0.284940  0.191710  1.0  -0.6545
  O  O151  1  0.342920  0.179220  0.052680  1.0  -0.6668
  O  O152  1  0.405620  0.076730  0.159210  1.0  -0.6777
  O  O153  1  0.432290  0.039090  0.451590  1.0  -0.7717
  O  O154  1  0.343140  0.952990  0.359150  1.0  -0.6379
  O  O155  1  0.357130  0.679850  0.945610  1.0  -0.6974
  O  O156  1  0.420140  0.807090  0.096510  1.0  -0.7205
  O  O157  1  0.410020  0.784940  0.308290  1.0  -0.6542
  O  O158  1  0.157080  0.679220  0.447320  1.0  -0.6674
  O  O159  1  0.094380  0.576730  0.340790  1.0  -0.6778
  O  O160  1  0.067710  0.539090  0.048410  1.0  -0.7702
  O  O161  1  0.156860  0.452990  0.140850  1.0  -0.6417
  O  O162  1  0.857130  0.179850  0.945610  1.0  -0.6974
  O  O163  1  0.920140  0.307090  0.096510  1.0  -0.7205
  O  O164  1  0.910020  0.284940  0.308290  1.0  -0.6542
  O  O165  1  0.657080  0.179220  0.447320  1.0  -0.6674
  O  O166  1  0.594380  0.076730  0.340790  1.0  -0.6778
  O  O167  1  0.567710  0.039090  0.048410  1.0  -0.7702
  O  O168  1  0.656860  0.952990  0.140850  1.0  -0.6417
  O  O169  1  0.000000  0.552000  0.750000  1.0  -0.7527
  O  O170  1  0.500000  0.052000  0.750000  1.0  -0.7527
  O  O171  1  0.000000  0.448000  0.250000  1.0  -0.7593
  O  O172  1  0.500000  0.948000  0.250000  1.0  -0.7593
