# generated using pymatgen
data_ZnH9C13O4
_symmetry_space_group_name_H-M   'P 1'
_cell_length_a   14.77760000
_cell_length_b   12.40940000
_cell_length_c   29.95540000
_cell_angle_alpha   90.00000000
_cell_angle_beta   115.57200000
_cell_angle_gamma   90.00000000
_symmetry_Int_Tables_number   1
_chemical_formula_structural   ZnH9C13O4
_chemical_formula_sum   'Zn8 H72 C104 O32'
_cell_volume   4955.15599904
_cell_formula_units_Z   8
loop_
 _symmetry_equiv_pos_site_id
 _symmetry_equiv_pos_as_xyz
  1  'x, y, z'
loop_
 _atom_site_type_symbol
 _atom_site_label
 _atom_site_symmetry_multiplicity
 _atom_site_fract_x
 _atom_site_fract_y
 _atom_site_fract_z
 _atom_site_occupancy
 _atom_site_charge
  Zn  Zn1  1  0.747190  0.003150  0.760000  1.0  1.0407
  Zn  Zn2  1  0.377160  0.683180  0.824780  1.0  0.9949
  Zn  Zn3  1  0.252810  0.503150  0.740000  1.0  1.0406
  Zn  Zn4  1  0.622840  0.183180  0.675220  1.0  0.9949
  Zn  Zn5  1  0.252810  0.996850  0.240000  1.0  1.0415
  Zn  Zn6  1  0.622840  0.316820  0.175220  1.0  0.9956
  Zn  Zn7  1  0.747190  0.496850  0.260000  1.0  1.0408
  Zn  Zn8  1  0.377160  0.816820  0.324780  1.0  0.9939
  H  H9  1  0.981900  0.810300  0.872900  1.0  0.1145
  H  H10  1  0.478800  0.678700  0.228600  1.0  0.1106
  H  H11  1  0.244700  0.806500  0.113600  1.0  0.1101
  H  H12  1  0.409100  0.573200  0.091100  1.0  0.1166
  H  H13  1  0.980200  0.734400  0.742800  1.0  0.1202
  H  H14  1  0.208400  0.638900  0.868800  1.0  0.1154
  H  H15  1  0.224600  0.965700  0.955400  1.0  0.119
  H  H16  1  0.163500  0.908500  0.904500  1.0  0.113
  H  H17  1  0.280800  0.899400  0.930500  1.0  0.1187
  H  H18  1  0.005500  0.548100  0.930300  1.0  0.1298
  H  H19  1  0.096200  0.468800  0.944400  1.0  0.1036
  H  H20  1  0.062300  0.540200  0.896700  1.0  0.1106
  H  H21  1  0.330600  0.944600  0.020100  1.0  0.1036
  H  H22  1  0.395600  0.866500  0.063200  1.0  0.1207
  H  H23  1  0.300200  0.921600  0.063300  1.0  0.1238
  H  H24  1  0.199600  0.539600  0.073300  1.0  0.1131
  H  H25  1  0.214900  0.462200  0.035700  1.0  0.1188
  H  H26  1  0.107200  0.504100  0.024800  1.0  0.1145
  H  H27  1  0.018100  0.310300  0.627100  1.0  0.1147
  H  H28  1  0.521200  0.178700  0.271400  1.0  0.1101
  H  H29  1  0.755300  0.306500  0.386400  1.0  0.1104
  H  H30  1  0.590900  0.073200  0.408900  1.0  0.1171
  H  H31  1  0.019800  0.234400  0.757200  1.0  0.1207
  H  H32  1  0.791600  0.138900  0.631200  1.0  0.1159
  H  H33  1  0.775400  0.465700  0.544600  1.0  0.1207
  H  H34  1  0.836500  0.408500  0.595500  1.0  0.112
  H  H35  1  0.719200  0.399400  0.569500  1.0  0.1177
  H  H36  1  0.994500  0.048100  0.569700  1.0  0.1325
  H  H37  1  0.903800  0.968800  0.555600  1.0  0.1035
  H  H38  1  0.937700  0.040200  0.603300  1.0  0.1106
  H  H39  1  0.669400  0.444600  0.479900  1.0  0.1024
  H  H40  1  0.604400  0.366500  0.436800  1.0  0.1218
  H  H41  1  0.699800  0.421600  0.436700  1.0  0.124
  H  H42  1  0.800400  0.039600  0.426700  1.0  0.1131
  H  H43  1  0.785100  0.962200  0.464300  1.0  0.119
  H  H44  1  0.892800  0.004100  0.475200  1.0  0.1117
  H  H45  1  0.018100  0.189700  0.127100  1.0  0.1149
  H  H46  1  0.521200  0.321300  0.771400  1.0  0.1102
  H  H47  1  0.755300  0.193500  0.886400  1.0  0.1099
  H  H48  1  0.590900  0.426800  0.908900  1.0  0.1167
  H  H49  1  0.019800  0.265600  0.257200  1.0  0.1206
  H  H50  1  0.791600  0.361100  0.131200  1.0  0.1157
  H  H51  1  0.775400  0.034300  0.044600  1.0  0.1194
  H  H52  1  0.836500  0.091500  0.095500  1.0  0.1136
  H  H53  1  0.719200  0.100600  0.069500  1.0  0.1184
  H  H54  1  0.994500  0.451900  0.069700  1.0  0.1324
  H  H55  1  0.903800  0.531200  0.055600  1.0  0.1048
  H  H56  1  0.937700  0.459800  0.103300  1.0  0.1099
  H  H57  1  0.669400  0.055400  0.979900  1.0  0.1029
  H  H58  1  0.604400  0.133500  0.936800  1.0  0.1221
  H  H59  1  0.699800  0.078400  0.936700  1.0  0.124
  H  H60  1  0.800400  0.460400  0.926700  1.0  0.1127
  H  H61  1  0.785100  0.537800  0.964300  1.0  0.1186
  H  H62  1  0.892800  0.495900  0.975200  1.0  0.1122
  H  H63  1  0.981900  0.689700  0.372900  1.0  0.1146
  H  H64  1  0.478800  0.821300  0.728600  1.0  0.1106
  H  H65  1  0.244700  0.693500  0.613600  1.0  0.11
  H  H66  1  0.409100  0.926800  0.591100  1.0  0.116
  H  H67  1  0.980200  0.765600  0.242800  1.0  0.1201
  H  H68  1  0.208400  0.861100  0.368800  1.0  0.1158
  H  H69  1  0.224600  0.534300  0.455400  1.0  0.1191
  H  H70  1  0.163500  0.591500  0.404500  1.0  0.1134
  H  H71  1  0.280800  0.600600  0.430500  1.0  0.1194
  H  H72  1  0.005500  0.951900  0.430300  1.0  0.1301
  H  H73  1  0.096200  0.031200  0.444400  1.0  0.1048
  H  H74  1  0.062300  0.959800  0.396700  1.0  0.1102
  H  H75  1  0.330600  0.555400  0.520100  1.0  0.104
  H  H76  1  0.395600  0.633500  0.563200  1.0  0.1207
  H  H77  1  0.300200  0.578400  0.563300  1.0  0.1244
  H  H78  1  0.199600  0.960400  0.573300  1.0  0.1131
  H  H79  1  0.214900  0.037800  0.535700  1.0  0.1183
  H  H80  1  0.107200  0.995900  0.524800  1.0  0.1141
  C  C81  1  0.873700  0.848700  0.777930  1.0  0.6699
  C  C82  1  0.966800  0.782200  0.804460  1.0  -0.1485
  C  C83  1  0.011800  0.776600  0.854980  1.0  -0.0523
  C  C84  1  0.336100  0.822900  0.211690  1.0  0.717
  C  C85  1  0.357100  0.752900  0.176420  1.0  -0.1522
  C  C86  1  0.437900  0.681200  0.194810  1.0  0.0353
  C  C87  1  0.298100  0.758300  0.125710  1.0  -0.0565
  C  C88  1  0.316400  0.694300  0.092740  1.0  0.0581
  C  C89  1  0.256200  0.703500  0.038470  1.0  -0.0337
  C  C90  1  0.265000  0.796700  0.013990  1.0  0.0647
  C  C91  1  0.192900  0.619700  0.011750  1.0  0.0706
  C  C92  1  0.544900  0.538400  0.183700  1.0  0.7176
  C  C93  1  0.457700  0.614300  0.163350  1.0  -0.1435
  C  C94  1  0.396800  0.619300  0.112370  1.0  -0.0315
  C  C95  1  0.144000  0.621400  0.770860  1.0  0.6496
  C  C96  1  0.100200  0.676400  0.801400  1.0  -0.1493
  C  C97  1  0.010900  0.731300  0.777160  1.0  0.0441
  C  C98  1  0.146800  0.673200  0.852630  1.0  -0.0519
  C  C99  1  0.101700  0.721300  0.880000  1.0  0.0383
  C  C100  1  0.152600  0.717100  0.935790  1.0  -0.0447
  C  C101  1  0.141000  0.626100  0.960250  1.0  0.0569
  C  C102  1  0.213300  0.803500  0.962550  1.0  0.0609
  C  C103  1  0.221300  0.903300  0.935830  1.0  -0.3318
  C  C104  1  0.069700  0.537700  0.930150  1.0  -0.3714
  C  C105  1  0.328700  0.891000  0.042810  1.0  -0.3801
  C  C106  1  0.177200  0.522400  0.038920  1.0  -0.3824
  C  C107  1  0.126300  0.348700  0.722070  1.0  0.6705
  C  C108  1  0.033200  0.282200  0.695540  1.0  -0.1478
  C  C109  1  0.988200  0.276600  0.645020  1.0  -0.0533
  C  C110  1  0.663900  0.322900  0.288310  1.0  0.7165
  C  C111  1  0.642900  0.252900  0.323580  1.0  -0.1512
  C  C112  1  0.562100  0.181200  0.305190  1.0  0.0367
  C  C113  1  0.701900  0.258300  0.374290  1.0  -0.0575
  C  C114  1  0.683600  0.194300  0.407260  1.0  0.058
  C  C115  1  0.743800  0.203500  0.461530  1.0  -0.0331
  C  C116  1  0.735000  0.296700  0.486010  1.0  0.0645
  C  C117  1  0.807100  0.119700  0.488250  1.0  0.0699
  C  C118  1  0.455100  0.038400  0.316300  1.0  0.7197
  C  C119  1  0.542300  0.114300  0.336650  1.0  -0.144
  C  C120  1  0.603200  0.119300  0.387630  1.0  -0.0332
  C  C121  1  0.856000  0.121400  0.729140  1.0  0.6497
  C  C122  1  0.899800  0.176400  0.698600  1.0  -0.1485
  C  C123  1  0.989100  0.231300  0.722840  1.0  0.0438
  C  C124  1  0.853200  0.173200  0.647370  1.0  -0.0507
  C  C125  1  0.898300  0.221300  0.620000  1.0  0.0396
  C  C126  1  0.847400  0.217100  0.564210  1.0  -0.044
  C  C127  1  0.859000  0.126100  0.539750  1.0  0.0554
  C  C128  1  0.786700  0.303500  0.537450  1.0  0.0622
  C  C129  1  0.778700  0.403300  0.564170  1.0  -0.3322
  C  C130  1  0.930300  0.037700  0.569850  1.0  -0.3742
  C  C131  1  0.671300  0.391000  0.457190  1.0  -0.3788
  C  C132  1  0.822800  0.022400  0.461080  1.0  -0.3829
  C  C133  1  0.126300  0.151300  0.222070  1.0  0.6711
  C  C134  1  0.033200  0.217800  0.195540  1.0  -0.1477
  C  C135  1  0.988200  0.223400  0.145020  1.0  -0.0527
  C  C136  1  0.663900  0.177100  0.788310  1.0  0.7166
  C  C137  1  0.642900  0.247100  0.823580  1.0  -0.1519
  C  C138  1  0.562100  0.318800  0.805190  1.0  0.0367
  C  C139  1  0.701900  0.241700  0.874290  1.0  -0.0579
  C  C140  1  0.683600  0.305700  0.907260  1.0  0.058
  C  C141  1  0.743800  0.296500  0.961530  1.0  -0.0331
  C  C142  1  0.735000  0.203300  0.986010  1.0  0.0646
  C  C143  1  0.807100  0.380300  0.988250  1.0  0.0702
  C  C144  1  0.455100  0.461600  0.816300  1.0  0.7345
  C  C145  1  0.542300  0.385700  0.836650  1.0  -0.1432
  C  C146  1  0.603200  0.380700  0.887630  1.0  -0.0327
  C  C147  1  0.856000  0.378600  0.229140  1.0  0.6494
  C  C148  1  0.899800  0.323600  0.198600  1.0  -0.1484
  C  C149  1  0.989100  0.268700  0.222840  1.0  0.0437
  C  C150  1  0.853200  0.326800  0.147370  1.0  -0.0505
  C  C151  1  0.898300  0.278700  0.120000  1.0  0.0396
  C  C152  1  0.847400  0.282900  0.064210  1.0  -0.0441
  C  C153  1  0.859000  0.373900  0.039750  1.0  0.055
  C  C154  1  0.786700  0.196500  0.037450  1.0  0.0626
  C  C155  1  0.778700  0.096700  0.064170  1.0  -0.3312
  C  C156  1  0.930300  0.462300  0.069850  1.0  -0.37
  C  C157  1  0.671300  0.109000  0.957190  1.0  -0.3784
  C  C158  1  0.822800  0.477600  0.961080  1.0  -0.3819
  C  C159  1  0.873700  0.651300  0.277930  1.0  0.6709
  C  C160  1  0.966800  0.717800  0.304460  1.0  -0.1486
  C  C161  1  0.011800  0.723400  0.354980  1.0  -0.0524
  C  C162  1  0.336100  0.677100  0.711690  1.0  0.7166
  C  C163  1  0.357100  0.747100  0.676420  1.0  -0.1517
  C  C164  1  0.437900  0.818800  0.694810  1.0  0.0351
  C  C165  1  0.298100  0.741700  0.625710  1.0  -0.0571
  C  C166  1  0.316400  0.805700  0.592740  1.0  0.0581
  C  C167  1  0.256200  0.796500  0.538470  1.0  -0.0336
  C  C168  1  0.265000  0.703300  0.513990  1.0  0.0643
  C  C169  1  0.192900  0.880300  0.511750  1.0  0.0713
  C  C170  1  0.544900  0.961600  0.683700  1.0  0.7175
  C  C171  1  0.457700  0.885700  0.663350  1.0  -0.1435
  C  C172  1  0.396800  0.880700  0.612370  1.0  -0.0323
  C  C173  1  0.144000  0.878600  0.270860  1.0  0.6497
  C  C174  1  0.100200  0.823600  0.301400  1.0  -0.1484
  C  C175  1  0.010900  0.768700  0.277160  1.0  0.0442
  C  C176  1  0.146800  0.826800  0.352630  1.0  -0.0518
  C  C177  1  0.101700  0.778700  0.380000  1.0  0.0383
  C  C178  1  0.152600  0.782900  0.435790  1.0  -0.0448
  C  C179  1  0.141000  0.873900  0.460250  1.0  0.0559
  C  C180  1  0.213300  0.696500  0.462550  1.0  0.0612
  C  C181  1  0.221300  0.596700  0.435830  1.0  -0.3312
  C  C182  1  0.069700  0.962300  0.430150  1.0  -0.3714
  C  C183  1  0.328700  0.609000  0.542810  1.0  -0.3783
  C  C184  1  0.177200  0.977600  0.538920  1.0  -0.3813
  O  O185  1  0.838600  0.860100  0.732450  1.0  -0.6049
  O  O186  1  0.836710  0.893300  0.804650  1.0  -0.5982
  O  O187  1  0.382600  0.802100  0.256970  1.0  -0.6857
  O  O188  1  0.093500  0.602500  0.726880  1.0  -0.6147
  O  O189  1  0.611800  0.561600  0.225930  1.0  -0.5856
  O  O190  1  0.545700  0.460600  0.157050  1.0  -0.6346
  O  O191  1  0.239380  0.594200  0.793090  1.0  -0.6901
  O  O192  1  0.272640  0.896200  0.193240  1.0  -0.5598
  O  O193  1  0.161400  0.360100  0.767550  1.0  -0.6068
  O  O194  1  0.163290  0.393300  0.695350  1.0  -0.5954
  O  O195  1  0.617400  0.302100  0.243030  1.0  -0.6855
  O  O196  1  0.906500  0.102500  0.773120  1.0  -0.6163
  O  O197  1  0.388200  0.061600  0.274070  1.0  -0.5855
  O  O198  1  0.454300  0.960600  0.342950  1.0  -0.6354
  O  O199  1  0.760620  0.094200  0.706910  1.0  -0.6929
  O  O200  1  0.727360  0.396200  0.306760  1.0  -0.5603
  O  O201  1  0.161400  0.139900  0.267550  1.0  -0.6069
  O  O202  1  0.163290  0.106700  0.195350  1.0  -0.5959
  O  O203  1  0.617400  0.197900  0.743030  1.0  -0.6855
  O  O204  1  0.906500  0.397500  0.273120  1.0  -0.6157
  O  O205  1  0.388200  0.438400  0.774070  1.0  -0.5856
  O  O206  1  0.454300  0.539400  0.842950  1.0  -0.6319
  O  O207  1  0.760620  0.405800  0.206910  1.0  -0.6919
  O  O208  1  0.727360  0.103800  0.806760  1.0  -0.5597
  O  O209  1  0.838600  0.639900  0.232450  1.0  -0.6056
  O  O210  1  0.836710  0.606700  0.304650  1.0  -0.5976
  O  O211  1  0.382600  0.697900  0.756970  1.0  -0.6856
  O  O212  1  0.093500  0.897500  0.226880  1.0  -0.6144
  O  O213  1  0.611800  0.938400  0.725930  1.0  -0.5852
  O  O214  1  0.545700  0.039400  0.657050  1.0  -0.6335
  O  O215  1  0.239380  0.905800  0.293090  1.0  -0.692
  O  O216  1  0.272640  0.603800  0.693240  1.0  -0.5602
