# generated using pymatgen
data_CdH10(C11O4)2
_symmetry_space_group_name_H-M   'P 1'
_cell_length_a   24.30800000
_cell_length_b   9.36400000
_cell_length_c   19.13090000
_cell_angle_alpha   90.00000000
_cell_angle_beta   125.63600000
_cell_angle_gamma   90.00000000
_symmetry_Int_Tables_number   1
_chemical_formula_structural   CdH10(C11O4)2
_chemical_formula_sum   'Cd4 H40 C88 O32'
_cell_volume   3539.11693791
_cell_formula_units_Z   4
loop_
 _symmetry_equiv_pos_site_id
 _symmetry_equiv_pos_as_xyz
  1  'x, y, z'
loop_
 _atom_site_type_symbol
 _atom_site_label
 _atom_site_symmetry_multiplicity
 _atom_site_fract_x
 _atom_site_fract_y
 _atom_site_fract_z
 _atom_site_occupancy
 _atom_site_charge
  Cd  Cd1  1  0.500000  0.496560  0.250000  1.0  1.0972
  Cd  Cd2  1  0.000000  0.996560  0.250000  1.0  1.0972
  Cd  Cd3  1  0.500000  0.503440  0.750000  1.0  1.0975
  Cd  Cd4  1  0.000000  0.003440  0.750000  1.0  1.0975
  H  H5  1  0.724600  0.640900  0.376900  1.0  0.1336
  H  H6  1  0.631200  0.517500  0.516800  1.0  0.1233
  H  H7  1  0.569600  0.491900  0.572400  1.0  0.124
  H  H8  1  0.615100  0.892800  0.661000  1.0  0.1308
  H  H9  1  0.676400  0.920200  0.604700  1.0  0.1346
  H  H10  1  0.224600  0.140900  0.376900  1.0  0.1336
  H  H11  1  0.131200  0.017500  0.516800  1.0  0.1233
  H  H12  1  0.069600  0.991900  0.572400  1.0  0.124
  H  H13  1  0.115100  0.392800  0.661000  1.0  0.1308
  H  H14  1  0.176400  0.420200  0.604700  1.0  0.1346
  H  H15  1  0.275400  0.640900  0.123100  1.0  0.1337
  H  H16  1  0.368800  0.517500  0.983200  1.0  0.1237
  H  H17  1  0.430400  0.491900  0.927600  1.0  0.1237
  H  H18  1  0.384900  0.892800  0.839000  1.0  0.1306
  H  H19  1  0.323600  0.920200  0.895300  1.0  0.135
  H  H20  1  0.775400  0.140900  0.123100  1.0  0.1337
  H  H21  1  0.868800  0.017500  0.983200  1.0  0.1237
  H  H22  1  0.930400  0.991900  0.927600  1.0  0.1237
  H  H23  1  0.884900  0.392800  0.839000  1.0  0.1306
  H  H24  1  0.823600  0.420200  0.895300  1.0  0.135
  H  H25  1  0.275400  0.359100  0.623100  1.0  0.1334
  H  H26  1  0.368800  0.482500  0.483200  1.0  0.1238
  H  H27  1  0.430400  0.508100  0.427600  1.0  0.1234
  H  H28  1  0.384900  0.107200  0.339000  1.0  0.1302
  H  H29  1  0.323600  0.079800  0.395300  1.0  0.1352
  H  H30  1  0.775400  0.859100  0.623100  1.0  0.1334
  H  H31  1  0.868800  0.982500  0.483200  1.0  0.1238
  H  H32  1  0.930400  0.008100  0.427600  1.0  0.1234
  H  H33  1  0.884900  0.607200  0.339000  1.0  0.1302
  H  H34  1  0.823600  0.579800  0.395300  1.0  0.1356
  H  H35  1  0.724600  0.359100  0.876900  1.0  0.1334
  H  H36  1  0.631200  0.482500  0.016800  1.0  0.1237
  H  H37  1  0.569600  0.508100  0.072400  1.0  0.1241
  H  H38  1  0.615100  0.107200  0.161000  1.0  0.1312
  H  H39  1  0.676400  0.079800  0.104700  1.0  0.1354
  H  H40  1  0.224600  0.859100  0.876900  1.0  0.1334
  H  H41  1  0.131200  0.982500  0.016800  1.0  0.1237
  H  H42  1  0.069600  0.008100  0.072400  1.0  0.1241
  H  H43  1  0.115100  0.607200  0.161000  1.0  0.1312
  H  H44  1  0.176400  0.579800  0.104700  1.0  0.1359
  C  C45  1  0.623790  0.596900  0.383130  1.0  0.7107
  C  C46  1  0.550900  0.666100  0.666830  1.0  0.7272
  C  C47  1  0.734950  0.685600  0.426680  1.0  -0.0994
  C  C48  1  0.690110  0.671300  0.448690  1.0  -0.0622
  C  C49  1  0.705200  0.736300  0.524480  1.0  0.0202
  C  C50  1  0.661340  0.721300  0.555210  1.0  0.0728
  C  C51  1  0.628440  0.593200  0.546050  1.0  -0.101
  C  C52  1  0.591800  0.577600  0.579980  1.0  -0.0275
  C  C53  1  0.587550  0.687900  0.625250  1.0  -0.1046
  C  C54  1  0.618820  0.816700  0.632750  1.0  -0.0394
  C  C55  1  0.655490  0.833400  0.598620  1.0  -0.125
  C  C56  1  0.123790  0.096900  0.383130  1.0  0.7107
  C  C57  1  0.050900  0.166100  0.666830  1.0  0.7272
  C  C58  1  0.234950  0.185600  0.426680  1.0  -0.0994
  C  C59  1  0.190110  0.171300  0.448690  1.0  -0.0622
  C  C60  1  0.205200  0.236300  0.524480  1.0  0.0202
  C  C61  1  0.161340  0.221300  0.555210  1.0  0.0728
  C  C62  1  0.128440  0.093200  0.546050  1.0  -0.101
  C  C63  1  0.091800  0.077600  0.579980  1.0  -0.0275
  C  C64  1  0.087550  0.187900  0.625250  1.0  -0.1046
  C  C65  1  0.118820  0.316700  0.632750  1.0  -0.0394
  C  C66  1  0.155490  0.333400  0.598620  1.0  -0.125
  C  C67  1  0.376210  0.596900  0.116870  1.0  0.7103
  C  C68  1  0.449100  0.666100  0.833170  1.0  0.7289
  C  C69  1  0.265050  0.685600  0.073320  1.0  -0.0969
  C  C70  1  0.309890  0.671300  0.051310  1.0  -0.0618
  C  C71  1  0.294800  0.736300  0.975520  1.0  0.0199
  C  C72  1  0.338660  0.721300  0.944790  1.0  0.0726
  C  C73  1  0.371560  0.593200  0.953950  1.0  -0.101
  C  C74  1  0.408200  0.577600  0.920020  1.0  -0.0272
  C  C75  1  0.412450  0.687900  0.874750  1.0  -0.1048
  C  C76  1  0.381180  0.816700  0.867250  1.0  -0.0412
  C  C77  1  0.344510  0.833400  0.901380  1.0  -0.1248
  C  C78  1  0.876210  0.096900  0.116870  1.0  0.7103
  C  C79  1  0.949100  0.166100  0.833170  1.0  0.7289
  C  C80  1  0.765050  0.185600  0.073320  1.0  -0.0969
  C  C81  1  0.809890  0.171300  0.051310  1.0  -0.0618
  C  C82  1  0.794800  0.236300  0.975520  1.0  0.0199
  C  C83  1  0.838660  0.221300  0.944790  1.0  0.0726
  C  C84  1  0.871560  0.093200  0.953950  1.0  -0.101
  C  C85  1  0.908200  0.077600  0.920020  1.0  -0.0272
  C  C86  1  0.912450  0.187900  0.874750  1.0  -0.1048
  C  C87  1  0.881180  0.316700  0.867250  1.0  -0.0412
  C  C88  1  0.844510  0.333400  0.901380  1.0  -0.1248
  C  C89  1  0.376210  0.403100  0.616870  1.0  0.7108
  C  C90  1  0.449100  0.333900  0.333170  1.0  0.7276
  C  C91  1  0.265050  0.314400  0.573320  1.0  -0.0972
  C  C92  1  0.309890  0.328700  0.551310  1.0  -0.0627
  C  C93  1  0.294800  0.263700  0.475520  1.0  0.02
  C  C94  1  0.338660  0.278700  0.444790  1.0  0.0728
  C  C95  1  0.371560  0.406800  0.453950  1.0  -0.1006
  C  C96  1  0.408200  0.422400  0.420020  1.0  -0.0281
  C  C97  1  0.412450  0.312100  0.374750  1.0  -0.1055
  C  C98  1  0.381180  0.183300  0.367250  1.0  -0.0421
  C  C99  1  0.344510  0.166600  0.401380  1.0  -0.1272
  C  C100  1  0.876210  0.903100  0.616870  1.0  0.7108
  C  C101  1  0.949100  0.833900  0.333170  1.0  0.7276
  C  C102  1  0.765050  0.814400  0.573320  1.0  -0.0972
  C  C103  1  0.809890  0.828700  0.551310  1.0  -0.0627
  C  C104  1  0.794800  0.763700  0.475520  1.0  0.02
  C  C105  1  0.838660  0.778700  0.444790  1.0  0.0704
  C  C106  1  0.871560  0.906800  0.453950  1.0  -0.1007
  C  C107  1  0.908200  0.922400  0.420020  1.0  -0.0281
  C  C108  1  0.912450  0.812100  0.374750  1.0  -0.1046
  C  C109  1  0.881180  0.683300  0.367250  1.0  -0.0419
  C  C110  1  0.844510  0.666667  0.401380  1.0  -0.1256
  C  C111  1  0.623790  0.403100  0.883130  1.0  0.7113
  C  C112  1  0.550900  0.333900  0.166830  1.0  0.7276
  C  C113  1  0.734950  0.314400  0.926680  1.0  -0.0997
  C  C114  1  0.690110  0.328700  0.948690  1.0  -0.0623
  C  C115  1  0.705200  0.263700  0.024480  1.0  0.0203
  C  C116  1  0.661340  0.278700  0.055210  1.0  0.0731
  C  C117  1  0.628440  0.406800  0.046050  1.0  -0.1008
  C  C118  1  0.591800  0.422400  0.079980  1.0  -0.0284
  C  C119  1  0.587550  0.312100  0.125250  1.0  -0.1051
  C  C120  1  0.618820  0.183300  0.132750  1.0  -0.0419
  C  C121  1  0.655490  0.166600  0.098620  1.0  -0.1278
  C  C122  1  0.123790  0.903100  0.883130  1.0  0.7113
  C  C123  1  0.050900  0.833900  0.166830  1.0  0.7276
  C  C124  1  0.234950  0.814400  0.926680  1.0  -0.0997
  C  C125  1  0.190110  0.828700  0.948690  1.0  -0.0623
  C  C126  1  0.205200  0.763700  0.024480  1.0  0.0203
  C  C127  1  0.161340  0.778700  0.055210  1.0  0.0707
  C  C128  1  0.128440  0.906800  0.046050  1.0  -0.1007
  C  C129  1  0.091800  0.922400  0.079980  1.0  -0.0284
  C  C130  1  0.087550  0.812100  0.125250  1.0  -0.1041
  C  C131  1  0.118820  0.683300  0.132750  1.0  -0.0417
  C  C132  1  0.155490  0.666667  0.098620  1.0  -0.1262
  O  O133  1  0.623150  0.465200  0.372290  1.0  -0.5638
  O  O134  1  0.572860  0.675800  0.340330  1.0  -0.5835
  O  O135  1  0.530890  0.540500  0.663870  1.0  -0.5614
  O  O136  1  0.543530  0.768200  0.702500  1.0  -0.4563
  O  O137  1  0.123150  0.965200  0.372290  1.0  -0.5638
  O  O138  1  0.072860  0.175800  0.340330  1.0  -0.5835
  O  O139  1  0.030890  0.040500  0.663870  1.0  -0.5614
  O  O140  1  0.043530  0.268200  0.702500  1.0  -0.4563
  O  O141  1  0.376850  0.465200  0.127710  1.0  -0.564
  O  O142  1  0.427140  0.675800  0.159670  1.0  -0.5853
  O  O143  1  0.469110  0.540500  0.836130  1.0  -0.5626
  O  O144  1  0.456470  0.768200  0.797500  1.0  -0.4533
  O  O145  1  0.876850  0.965200  0.127710  1.0  -0.564
  O  O146  1  0.927140  0.175800  0.159670  1.0  -0.5853
  O  O147  1  0.969110  0.040500  0.836130  1.0  -0.5626
  O  O148  1  0.956470  0.268200  0.797500  1.0  -0.4533
  O  O149  1  0.376850  0.534800  0.627710  1.0  -0.5647
  O  O150  1  0.427140  0.324200  0.659670  1.0  -0.5854
  O  O151  1  0.469110  0.459500  0.336130  1.0  -0.5637
  O  O152  1  0.456470  0.231800  0.297500  1.0  -0.4517
  O  O153  1  0.876850  0.034800  0.627710  1.0  -0.5647
  O  O154  1  0.927140  0.824200  0.659670  1.0  -0.5854
  O  O155  1  0.969110  0.959500  0.336130  1.0  -0.5637
  O  O156  1  0.956470  0.731800  0.297500  1.0  -0.4517
  O  O157  1  0.623150  0.534800  0.872290  1.0  -0.5643
  O  O158  1  0.572860  0.324200  0.840330  1.0  -0.5855
  O  O159  1  0.530890  0.459500  0.163870  1.0  -0.5624
  O  O160  1  0.543530  0.231800  0.202500  1.0  -0.4543
  O  O161  1  0.123150  0.034800  0.872290  1.0  -0.5643
  O  O162  1  0.072860  0.824200  0.840330  1.0  -0.5855
  O  O163  1  0.030890  0.959500  0.163870  1.0  -0.5624
  O  O164  1  0.043530  0.731800  0.202500  1.0  -0.4543
