# generated using pymatgen
data_CdH10(C11O4)2
_symmetry_space_group_name_H-M   'P 1'
_cell_length_a   15.71660000
_cell_length_b   15.71660000
_cell_length_c   32.13700000
_cell_angle_alpha   90.00000000
_cell_angle_beta   90.00000000
_cell_angle_gamma   90.00000000
_symmetry_Int_Tables_number   1
_chemical_formula_structural   CdH10(C11O4)2
_chemical_formula_sum   'Cd8 H80 C176 O64'
_cell_volume   7938.20907555
_cell_formula_units_Z   8
loop_
 _symmetry_equiv_pos_site_id
 _symmetry_equiv_pos_as_xyz
  1  'x, y, z'
loop_
 _atom_site_type_symbol
 _atom_site_label
 _atom_site_symmetry_multiplicity
 _atom_site_fract_x
 _atom_site_fract_y
 _atom_site_fract_z
 _atom_site_occupancy
 _atom_site_charge
  Cd  Cd1  1  0.271990  0.728290  0.079570  1.0  1.082
  Cd  Cd2  1  0.728010  0.271710  0.579570  1.0  1.0822
  Cd  Cd3  1  0.771710  0.771990  0.829570  1.0  1.082
  Cd  Cd4  1  0.228290  0.228010  0.329570  1.0  1.0816
  Cd  Cd5  1  0.228010  0.228290  0.670430  1.0  1.0823
  Cd  Cd6  1  0.771990  0.771710  0.170430  1.0  1.0823
  Cd  Cd7  1  0.728290  0.271990  0.920430  1.0  1.0819
  Cd  Cd8  1  0.271710  0.728010  0.420430  1.0  1.0822
  H  H9  1  0.085400  0.406000  0.207700  1.0  0.1434
  H  H10  1  0.334700  0.423500  0.236600  1.0  0.1519
  H  H11  1  0.351700  0.512700  0.178700  1.0  0.1368
  H  H12  1  0.890200  0.436700  0.028100  1.0  0.1349
  H  H13  1  0.651200  0.515200  0.003600  1.0  0.1491
  H  H14  1  0.662400  0.607000  0.059000  1.0  0.1286
  H  H15  1  0.134200  0.499900  0.087400  1.0  0.1415
  H  H16  1  0.014200  0.513700  0.047100  1.0  0.1198
  H  H17  1  0.870400  0.535400  0.150100  1.0  0.1397
  H  H18  1  0.989400  0.519900  0.190000  1.0  0.1354
  H  H19  1  0.914600  0.594000  0.707700  1.0  0.1434
  H  H20  1  0.665300  0.576500  0.736600  1.0  0.152
  H  H21  1  0.648300  0.487300  0.678700  1.0  0.137
  H  H22  1  0.109800  0.563300  0.528100  1.0  0.1357
  H  H23  1  0.348800  0.484800  0.503600  1.0  0.1492
  H  H24  1  0.337600  0.393000  0.559000  1.0  0.1287
  H  H25  1  0.865800  0.500100  0.587400  1.0  0.1417
  H  H26  1  0.985800  0.486300  0.547100  1.0  0.1202
  H  H27  1  0.129600  0.464600  0.650100  1.0  0.1395
  H  H28  1  0.010600  0.480100  0.690000  1.0  0.1349
  H  H29  1  0.094000  0.585400  0.957700  1.0  0.1433
  H  H30  1  0.076500  0.834700  0.986600  1.0  0.1525
  H  H31  1  0.987300  0.851700  0.928700  1.0  0.1373
  H  H32  1  0.063300  0.390200  0.778100  1.0  0.1357
  H  H33  1  0.984800  0.151200  0.753600  1.0  0.1486
  H  H34  1  0.893000  0.162400  0.809000  1.0  0.1287
  H  H35  1  0.000100  0.634200  0.837400  1.0  0.1404
  H  H36  1  0.986300  0.514200  0.797100  1.0  0.1204
  H  H37  1  0.964600  0.370400  0.900100  1.0  0.1381
  H  H38  1  0.980100  0.489400  0.940000  1.0  0.1351
  H  H39  1  0.906000  0.414600  0.457700  1.0  0.1433
  H  H40  1  0.923500  0.165300  0.486600  1.0  0.1522
  H  H41  1  0.012700  0.148300  0.428700  1.0  0.1367
  H  H42  1  0.936700  0.609800  0.278100  1.0  0.1334
  H  H43  1  0.015200  0.848800  0.253600  1.0  0.1489
  H  H44  1  0.107000  0.837600  0.309000  1.0  0.1284
  H  H45  1  0.999900  0.365800  0.337400  1.0  0.1403
  H  H46  1  0.013700  0.485800  0.297100  1.0  0.1204
  H  H47  1  0.035400  0.629600  0.400100  1.0  0.1393
  H  H48  1  0.019900  0.510600  0.440000  1.0  0.1348
  H  H49  1  0.414600  0.906000  0.542300  1.0  0.143
  H  H50  1  0.165300  0.923500  0.513400  1.0  0.1519
  H  H51  1  0.148300  0.012700  0.571300  1.0  0.1368
  H  H52  1  0.609800  0.936700  0.721900  1.0  0.1339
  H  H53  1  0.848800  0.015200  0.746400  1.0  0.1484
  H  H54  1  0.837600  0.107000  0.691000  1.0  0.1288
  H  H55  1  0.365800  0.999900  0.662600  1.0  0.1419
  H  H56  1  0.485800  0.013700  0.702900  1.0  0.12
  H  H57  1  0.629600  0.035400  0.599900  1.0  0.139
  H  H58  1  0.510600  0.019900  0.560000  1.0  0.1355
  H  H59  1  0.585400  0.094000  0.042300  1.0  0.1428
  H  H60  1  0.834700  0.076500  0.013400  1.0  0.1521
  H  H61  1  0.851700  0.987300  0.071300  1.0  0.1364
  H  H62  1  0.390200  0.063300  0.221900  1.0  0.1348
  H  H63  1  0.151200  0.984800  0.246400  1.0  0.1484
  H  H64  1  0.162400  0.893000  0.191000  1.0  0.1285
  H  H65  1  0.634200  0.000100  0.162600  1.0  0.1414
  H  H66  1  0.514200  0.986300  0.202900  1.0  0.1197
  H  H67  1  0.370400  0.964600  0.099900  1.0  0.1388
  H  H68  1  0.489400  0.980100  0.060000  1.0  0.1354
  H  H69  1  0.406000  0.085400  0.792300  1.0  0.1428
  H  H70  1  0.423500  0.334700  0.763400  1.0  0.1528
  H  H71  1  0.512700  0.351700  0.821300  1.0  0.1373
  H  H72  1  0.436700  0.890200  0.971900  1.0  0.1356
  H  H73  1  0.515200  0.651200  0.996400  1.0  0.1482
  H  H74  1  0.607000  0.662400  0.941000  1.0  0.1286
  H  H75  1  0.499900  0.134200  0.912600  1.0  0.1407
  H  H76  1  0.513700  0.014200  0.952900  1.0  0.1202
  H  H77  1  0.535400  0.870400  0.849900  1.0  0.1384
  H  H78  1  0.519900  0.989400  0.810000  1.0  0.1354
  H  H79  1  0.594000  0.914600  0.292300  1.0  0.1441
  H  H80  1  0.576500  0.665300  0.263400  1.0  0.152
  H  H81  1  0.487300  0.648300  0.321300  1.0  0.1363
  H  H82  1  0.563300  0.109800  0.471900  1.0  0.1347
  H  H83  1  0.484800  0.348800  0.496400  1.0  0.148
  H  H84  1  0.393000  0.337600  0.441000  1.0  0.1288
  H  H85  1  0.500100  0.865800  0.412600  1.0  0.1398
  H  H86  1  0.486300  0.985800  0.452900  1.0  0.1204
  H  H87  1  0.464600  0.129600  0.349900  1.0  0.1389
  H  H88  1  0.480100  0.010600  0.310000  1.0  0.1347
  C  C89  1  0.246000  0.596700  0.130600  1.0  0.6842
  C  C90  1  0.196900  0.345000  0.263100  1.0  0.7199
  C  C91  1  0.229800  0.517400  0.162400  1.0  -0.022
  C  C92  1  0.150300  0.484000  0.169300  1.0  0.0533
  C  C93  1  0.139100  0.428600  0.202600  1.0  -0.0677
  C  C94  1  0.206200  0.406400  0.228400  1.0  -0.1441
  C  C95  1  0.288400  0.438100  0.220100  1.0  -0.0592
  C  C96  1  0.297800  0.492900  0.185700  1.0  -0.0362
  C  C97  1  0.784200  0.650200  0.110200  1.0  0.666
  C  C98  1  0.762100  0.397200  0.976500  1.0  0.7293
  C  C99  1  0.781300  0.580800  0.076000  1.0  -0.0484
  C  C100  1  0.850800  0.525200  0.068400  1.0  0.0277
  C  C101  1  0.843900  0.470800  0.035000  1.0  -0.0858
  C  C102  1  0.766900  0.464400  0.009900  1.0  -0.0947
  C  C103  1  0.701000  0.516800  0.019200  1.0  -0.0863
  C  C104  1  0.708800  0.572800  0.052400  1.0  -0.0406
  C  C105  1  0.075300  0.502800  0.143300  1.0  0.0852
  C  C106  1  0.081400  0.505000  0.100200  1.0  -0.1016
  C  C107  1  0.008500  0.514800  0.075900  1.0  -0.1028
  C  C108  1  0.929200  0.526000  0.092300  1.0  0.0771
  C  C109  1  0.923000  0.527500  0.137400  1.0  -0.0994
  C  C110  1  0.994200  0.517300  0.161200  1.0  -0.1241
  C  C111  1  0.754000  0.403300  0.630600  1.0  0.6833
  C  C112  1  0.803100  0.655000  0.763100  1.0  0.7196
  C  C113  1  0.770200  0.482600  0.662400  1.0  -0.0206
  C  C114  1  0.849700  0.516000  0.669300  1.0  0.051
  C  C115  1  0.860900  0.571400  0.702600  1.0  -0.0682
  C  C116  1  0.793800  0.593600  0.728400  1.0  -0.1429
  C  C117  1  0.711600  0.561900  0.720100  1.0  -0.0629
  C  C118  1  0.702200  0.507100  0.685700  1.0  -0.0365
  C  C119  1  0.215800  0.349800  0.610200  1.0  0.6682
  C  C120  1  0.237900  0.602800  0.476500  1.0  0.7291
  C  C121  1  0.218700  0.419200  0.576000  1.0  -0.0487
  C  C122  1  0.149200  0.474800  0.568400  1.0  0.0356
  C  C123  1  0.156100  0.529200  0.535000  1.0  -0.0867
  C  C124  1  0.233100  0.535600  0.509900  1.0  -0.0949
  C  C125  1  0.299000  0.483200  0.519200  1.0  -0.0855
  C  C126  1  0.291200  0.427200  0.552400  1.0  -0.0378
  C  C127  1  0.924700  0.497200  0.643300  1.0  0.0856
  C  C128  1  0.918600  0.495000  0.600200  1.0  -0.1012
  C  C129  1  0.991500  0.485200  0.575900  1.0  -0.106
  C  C130  1  0.070800  0.474000  0.592300  1.0  0.0765
  C  C131  1  0.077000  0.472500  0.637400  1.0  -0.0988
  C  C132  1  0.005800  0.482700  0.661200  1.0  -0.125
  C  C133  1  0.903300  0.746000  0.880600  1.0  0.6828
  C  C134  1  0.155000  0.696900  0.013100  1.0  0.7208
  C  C135  1  0.982600  0.729800  0.912400  1.0  -0.0216
  C  C136  1  0.016000  0.650300  0.919300  1.0  0.0543
  C  C137  1  0.071400  0.639100  0.952600  1.0  -0.0647
  C  C138  1  0.093600  0.706200  0.978400  1.0  -0.1437
  C  C139  1  0.061900  0.788400  0.970100  1.0  -0.0556
  C  C140  1  0.007100  0.797800  0.935700  1.0  -0.037
  C  C141  1  0.849800  0.284200  0.860200  1.0  0.6671
  C  C142  1  0.102800  0.262100  0.726500  1.0  0.7283
  C  C143  1  0.919200  0.281300  0.826000  1.0  -0.0495
  C  C144  1  0.974800  0.350800  0.818400  1.0  0.028
  C  C145  1  0.029200  0.343900  0.785000  1.0  -0.0879
  C  C146  1  0.035600  0.266900  0.759900  1.0  -0.0957
  C  C147  1  0.983200  0.201000  0.769200  1.0  -0.0877
  C  C148  1  0.927200  0.208800  0.802400  1.0  -0.0428
  C  C149  1  0.997200  0.575300  0.893300  1.0  0.0831
  C  C150  1  0.995000  0.581400  0.850200  1.0  -0.1004
  C  C151  1  0.985200  0.508500  0.825900  1.0  -0.1061
  C  C152  1  0.974000  0.429200  0.842300  1.0  0.0759
  C  C153  1  0.972500  0.423000  0.887400  1.0  -0.0972
  C  C154  1  0.982700  0.494200  0.911200  1.0  -0.1233
  C  C155  1  0.096700  0.254000  0.380600  1.0  0.6825
  C  C156  1  0.845000  0.303100  0.513100  1.0  0.72
  C  C157  1  0.017400  0.270200  0.412400  1.0  -0.0199
  C  C158  1  0.984000  0.349700  0.419300  1.0  0.0532
  C  C159  1  0.928600  0.360900  0.452600  1.0  -0.0661
  C  C160  1  0.906400  0.293800  0.478400  1.0  -0.1434
  C  C161  1  0.938100  0.211600  0.470100  1.0  -0.06
  C  C162  1  0.992900  0.202200  0.435700  1.0  -0.0391
  C  C163  1  0.150200  0.715800  0.360200  1.0  0.6628
  C  C164  1  0.897200  0.737900  0.226500  1.0  0.7286
  C  C165  1  0.080800  0.718700  0.326000  1.0  -0.0492
  C  C166  1  0.025200  0.649200  0.318400  1.0  0.0341
  C  C167  1  0.970800  0.656100  0.285000  1.0  -0.0847
  C  C168  1  0.964400  0.733100  0.259900  1.0  -0.0954
  C  C169  1  0.016800  0.799000  0.269200  1.0  -0.0858
  C  C170  1  0.072800  0.791200  0.302400  1.0  -0.0415
  C  C171  1  0.002800  0.424700  0.393300  1.0  0.0822
  C  C172  1  0.005000  0.418600  0.350200  1.0  -0.0976
  C  C173  1  0.014800  0.491500  0.325900  1.0  -0.1047
  C  C174  1  0.026000  0.570800  0.342300  1.0  0.0758
  C  C175  1  0.027500  0.577000  0.387400  1.0  -0.0989
  C  C176  1  0.017300  0.505800  0.411200  1.0  -0.1253
  C  C177  1  0.254000  0.096700  0.619400  1.0  0.6835
  C  C178  1  0.303100  0.845000  0.486900  1.0  0.7192
  C  C179  1  0.270200  0.017400  0.587600  1.0  -0.0206
  C  C180  1  0.349700  0.984000  0.580700  1.0  0.0503
  C  C181  1  0.360900  0.928600  0.547400  1.0  -0.0678
  C  C182  1  0.293800  0.906400  0.521600  1.0  -0.1444
  C  C183  1  0.211600  0.938100  0.529900  1.0  -0.0573
  C  C184  1  0.202200  0.992900  0.564300  1.0  -0.037
  C  C185  1  0.715800  0.150200  0.639800  1.0  0.6649
  C  C186  1  0.737900  0.897200  0.773500  1.0  0.7298
  C  C187  1  0.718700  0.080800  0.674000  1.0  -0.0478
  C  C188  1  0.649200  0.025200  0.681600  1.0  0.0355
  C  C189  1  0.656100  0.970800  0.715000  1.0  -0.0822
  C  C190  1  0.733100  0.964400  0.740100  1.0  -0.0952
  C  C191  1  0.799000  0.016800  0.730800  1.0  -0.0868
  C  C192  1  0.791200  0.072800  0.697600  1.0  -0.0381
  C  C193  1  0.424700  0.002800  0.606700  1.0  0.0857
  C  C194  1  0.418600  0.005000  0.649800  1.0  -0.1008
  C  C195  1  0.491500  0.014800  0.674100  1.0  -0.1061
  C  C196  1  0.570800  0.026000  0.657700  1.0  0.0766
  C  C197  1  0.577000  0.027500  0.612600  1.0  -0.0997
  C  C198  1  0.505800  0.017300  0.588800  1.0  -0.1243
  C  C199  1  0.746000  0.903300  0.119400  1.0  0.6844
  C  C200  1  0.696900  0.155000  0.986900  1.0  0.7195
  C  C201  1  0.729800  0.982600  0.087600  1.0  -0.0216
  C  C202  1  0.650300  0.016000  0.080700  1.0  0.0539
  C  C203  1  0.639100  0.071400  0.047400  1.0  -0.069
  C  C204  1  0.706200  0.093600  0.021600  1.0  -0.1432
  C  C205  1  0.788400  0.061900  0.029900  1.0  -0.0545
  C  C206  1  0.797800  0.007100  0.064300  1.0  -0.0351
  C  C207  1  0.284200  0.849800  0.139800  1.0  0.6692
  C  C208  1  0.262100  0.102800  0.273500  1.0  0.7294
  C  C209  1  0.281300  0.919200  0.174000  1.0  -0.0485
  C  C210  1  0.350800  0.974800  0.181600  1.0  0.0249
  C  C211  1  0.343900  0.029200  0.215000  1.0  -0.0859
  C  C212  1  0.266900  0.035600  0.240100  1.0  -0.0939
  C  C213  1  0.201000  0.983200  0.230800  1.0  -0.0864
  C  C214  1  0.208800  0.927200  0.197600  1.0  -0.0415
  C  C215  1  0.575300  0.997200  0.106700  1.0  0.0855
  C  C216  1  0.581400  0.995000  0.149800  1.0  -0.0993
  C  C217  1  0.508500  0.985200  0.174100  1.0  -0.1064
  C  C218  1  0.429200  0.974000  0.157700  1.0  0.077
  C  C219  1  0.423000  0.972500  0.112600  1.0  -0.1007
  C  C220  1  0.494200  0.982700  0.088800  1.0  -0.1231
  C  C221  1  0.596700  0.246000  0.869400  1.0  0.6823
  C  C222  1  0.345000  0.196900  0.736900  1.0  0.7198
  C  C223  1  0.517400  0.229800  0.837600  1.0  -0.021
  C  C224  1  0.484000  0.150300  0.830700  1.0  0.0538
  C  C225  1  0.428600  0.139100  0.797400  1.0  -0.0664
  C  C226  1  0.406400  0.206200  0.771600  1.0  -0.1438
  C  C227  1  0.438100  0.288400  0.779900  1.0  -0.0559
  C  C228  1  0.492900  0.297800  0.814300  1.0  -0.0381
  C  C229  1  0.650200  0.784200  0.889800  1.0  0.6646
  C  C230  1  0.397200  0.762100  0.023500  1.0  0.7289
  C  C231  1  0.580800  0.781300  0.924000  1.0  -0.0488
  C  C232  1  0.525200  0.850800  0.931600  1.0  0.0355
  C  C233  1  0.470800  0.843900  0.965000  1.0  -0.0873
  C  C234  1  0.464400  0.766900  0.990100  1.0  -0.0953
  C  C235  1  0.516800  0.701000  0.980800  1.0  -0.0879
  C  C236  1  0.572800  0.708800  0.947600  1.0  -0.0436
  C  C237  1  0.502800  0.075300  0.856700  1.0  0.0825
  C  C238  1  0.505000  0.081400  0.899800  1.0  -0.0969
  C  C239  1  0.514800  0.008500  0.924100  1.0  -0.1019
  C  C240  1  0.526000  0.929200  0.907700  1.0  0.0757
  C  C241  1  0.527500  0.923000  0.862600  1.0  -0.0983
  C  C242  1  0.517300  0.994200  0.838800  1.0  -0.1234
  C  C243  1  0.403300  0.754000  0.369400  1.0  0.6825
  C  C244  1  0.655000  0.803100  0.236900  1.0  0.7203
  C  C245  1  0.482600  0.770200  0.337600  1.0  -0.0226
  C  C246  1  0.516000  0.849700  0.330700  1.0  0.0511
  C  C247  1  0.571400  0.860900  0.297400  1.0  -0.0657
  C  C248  1  0.593600  0.793800  0.271600  1.0  -0.1438
  C  C249  1  0.561900  0.711600  0.279900  1.0  -0.0544
  C  C250  1  0.507100  0.702200  0.314300  1.0  -0.0379
  C  C251  1  0.349800  0.215800  0.389800  1.0  0.666
  C  C252  1  0.602800  0.237900  0.523500  1.0  0.7291
  C  C253  1  0.419200  0.218700  0.424000  1.0  -0.0489
  C  C254  1  0.474800  0.149200  0.431600  1.0  0.0271
  C  C255  1  0.529200  0.156100  0.465000  1.0  -0.086
  C  C256  1  0.535600  0.233100  0.490100  1.0  -0.0957
  C  C257  1  0.483200  0.299000  0.480800  1.0  -0.0847
  C  C258  1  0.427200  0.291200  0.447600  1.0  -0.0446
  C  C259  1  0.497200  0.924700  0.356700  1.0  0.0835
  C  C260  1  0.495000  0.918600  0.399800  1.0  -0.0982
  C  C261  1  0.485200  0.991500  0.424100  1.0  -0.1058
  C  C262  1  0.474000  0.070800  0.407700  1.0  0.0761
  C  C263  1  0.472500  0.077000  0.362600  1.0  -0.0996
  C  C264  1  0.482700  0.005800  0.338800  1.0  -0.1227
  O  O265  1  0.309400  0.586500  0.109500  1.0  -0.5757
  O  O266  1  0.194000  0.650300  0.128900  1.0  -0.489
  O  O267  1  0.259400  0.340400  0.289200  1.0  -0.5554
  O  O268  1  0.131300  0.303800  0.266300  1.0  -0.4865
  O  O269  1  0.722100  0.648500  0.133600  1.0  -0.5832
  O  O270  1  0.842800  0.701500  0.111200  1.0  -0.5349
  O  O271  1  0.695400  0.390700  0.957900  1.0  -0.5678
  O  O272  1  0.825600  0.351700  0.969800  1.0  -0.6046
  O  O273  1  0.690600  0.413500  0.609500  1.0  -0.5765
  O  O274  1  0.806000  0.349700  0.628900  1.0  -0.4891
  O  O275  1  0.740600  0.659600  0.789200  1.0  -0.5549
  O  O276  1  0.868700  0.696200  0.766300  1.0  -0.4824
  O  O277  1  0.277900  0.351500  0.633600  1.0  -0.5838
  O  O278  1  0.157200  0.298500  0.611200  1.0  -0.535
  O  O279  1  0.304600  0.609300  0.457900  1.0  -0.5657
  O  O280  1  0.174400  0.648300  0.469800  1.0  -0.6031
  O  O281  1  0.913500  0.809400  0.859500  1.0  -0.573
  O  O282  1  0.849700  0.694000  0.878900  1.0  -0.49
  O  O283  1  0.159600  0.759400  0.039200  1.0  -0.5579
  O  O284  1  0.196200  0.631300  0.016300  1.0  -0.4831
  O  O285  1  0.851500  0.222100  0.883600  1.0  -0.5806
  O  O286  1  0.798500  0.342800  0.861200  1.0  -0.5369
  O  O287  1  0.109300  0.195400  0.707900  1.0  -0.5645
  O  O288  1  0.148300  0.325600  0.719800  1.0  -0.6043
  O  O289  1  0.086500  0.190600  0.359500  1.0  -0.5754
  O  O290  1  0.150300  0.306000  0.378900  1.0  -0.4916
  O  O291  1  0.840400  0.240600  0.539200  1.0  -0.5566
  O  O292  1  0.803800  0.368700  0.516300  1.0  -0.4832
  O  O293  1  0.148500  0.777900  0.383600  1.0  -0.5847
  O  O294  1  0.201500  0.657200  0.361200  1.0  -0.5361
  O  O295  1  0.890700  0.804600  0.207900  1.0  -0.562
  O  O296  1  0.851700  0.674400  0.219800  1.0  -0.6028
  O  O297  1  0.190600  0.086500  0.640500  1.0  -0.5776
  O  O298  1  0.306000  0.150300  0.621100  1.0  -0.4891
  O  O299  1  0.240600  0.840400  0.460800  1.0  -0.5554
  O  O300  1  0.368700  0.803800  0.483700  1.0  -0.4838
  O  O301  1  0.777900  0.148500  0.616400  1.0  -0.5849
  O  O302  1  0.657200  0.201500  0.638800  1.0  -0.5351
  O  O303  1  0.804600  0.890700  0.792100  1.0  -0.5654
  O  O304  1  0.674400  0.851700  0.780200  1.0  -0.6041
  O  O305  1  0.809400  0.913500  0.140500  1.0  -0.5765
  O  O306  1  0.694000  0.849700  0.121100  1.0  -0.4884
  O  O307  1  0.759400  0.159600  0.960800  1.0  -0.5552
  O  O308  1  0.631300  0.196200  0.983700  1.0  -0.4836
  O  O309  1  0.222100  0.851500  0.116400  1.0  -0.5832
  O  O310  1  0.342800  0.798500  0.138800  1.0  -0.5351
  O  O311  1  0.195400  0.109300  0.292100  1.0  -0.5675
  O  O312  1  0.325600  0.148300  0.280200  1.0  -0.6051
  O  O313  1  0.586500  0.309400  0.890500  1.0  -0.5749
  O  O314  1  0.650300  0.194000  0.871100  1.0  -0.4887
  O  O315  1  0.340400  0.259400  0.710800  1.0  -0.5573
  O  O316  1  0.303800  0.131300  0.733700  1.0  -0.486
  O  O317  1  0.648500  0.722100  0.866400  1.0  -0.5833
  O  O318  1  0.701500  0.842800  0.888800  1.0  -0.5374
  O  O319  1  0.390700  0.695400  0.042100  1.0  -0.5633
  O  O320  1  0.351700  0.825600  0.030200  1.0  -0.6029
  O  O321  1  0.413500  0.690600  0.390500  1.0  -0.5744
  O  O322  1  0.349700  0.806000  0.371100  1.0  -0.4894
  O  O323  1  0.659600  0.740600  0.210800  1.0  -0.5562
  O  O324  1  0.696200  0.868700  0.233700  1.0  -0.4832
  O  O325  1  0.351500  0.277900  0.366400  1.0  -0.5816
  O  O326  1  0.298500  0.157200  0.388800  1.0  -0.537
  O  O327  1  0.609300  0.304600  0.542100  1.0  -0.5619
  O  O328  1  0.648300  0.174400  0.530200  1.0  -0.6051
