# generated using pymatgen
data_ZnH12C18N2O5
_symmetry_space_group_name_H-M   'P 1'
_cell_length_a   11.47200000
_cell_length_b   19.94000000
_cell_length_c   12.00250000
_cell_angle_alpha   90.00000000
_cell_angle_beta   101.47500000
_cell_angle_gamma   90.00000000
_symmetry_Int_Tables_number   1
_chemical_formula_structural   ZnH12C18N2O5
_chemical_formula_sum   'Zn4 H48 C72 N8 O20'
_cell_volume   2690.71205280
_cell_formula_units_Z   4
loop_
 _symmetry_equiv_pos_site_id
 _symmetry_equiv_pos_as_xyz
  1  'x, y, z'
loop_
 _atom_site_type_symbol
 _atom_site_label
 _atom_site_symmetry_multiplicity
 _atom_site_fract_x
 _atom_site_fract_y
 _atom_site_fract_z
 _atom_site_occupancy
 _atom_site_charge
  Zn  Zn1  1  0.495130  0.081610  0.081490  1.0  0.8671
  Zn  Zn2  1  0.504870  0.581610  0.418510  1.0  0.8671
  Zn  Zn3  1  0.504870  0.918390  0.918510  1.0  0.866
  Zn  Zn4  1  0.495130  0.418390  0.581490  1.0  0.8663
  H  H5  1  0.472800  0.377400  0.876800  1.0  0.383
  H  H6  1  0.472500  0.319300  0.317600  1.0  0.1041
  H  H7  1  0.466900  0.283000  0.987000  1.0  0.1099
  H  H8  1  0.120700  0.057800  0.245700  1.0  0.118
  H  H9  1  0.051300  0.102700  0.915700  1.0  0.1177
  H  H10  1  0.460200  0.472300  0.097900  1.0  0.1104
  H  H11  1  0.739200  0.059800  0.240700  1.0  0.078
  H  H12  1  0.674300  0.106400  0.920700  1.0  0.0631
  H  H13  1  0.938500  0.061700  0.248600  1.0  0.1278
  H  H14  1  0.316900  0.051900  0.238200  1.0  0.0659
  H  H15  1  0.871200  0.107200  0.917000  1.0  0.1167
  H  H16  1  0.249700  0.100400  0.919700  1.0  0.0845
  H  H17  1  0.527200  0.877400  0.623200  1.0  0.3843
  H  H18  1  0.527500  0.819300  0.182400  1.0  0.1044
  H  H19  1  0.533100  0.783000  0.513000  1.0  0.1096
  H  H20  1  0.879300  0.557800  0.254300  1.0  0.1179
  H  H21  1  0.948700  0.602700  0.584300  1.0  0.1181
  H  H22  1  0.539800  0.972300  0.402100  1.0  0.1101
  H  H23  1  0.260800  0.559800  0.259300  1.0  0.0786
  H  H24  1  0.325700  0.606400  0.579300  1.0  0.0627
  H  H25  1  0.061500  0.561700  0.251400  1.0  0.1276
  H  H26  1  0.683100  0.551900  0.261800  1.0  0.0665
  H  H27  1  0.128800  0.607200  0.583000  1.0  0.1165
  H  H28  1  0.750300  0.600400  0.580300  1.0  0.084
  H  H29  1  0.527200  0.622600  0.123200  1.0  0.3826
  H  H30  1  0.527500  0.680700  0.682400  1.0  0.1047
  H  H31  1  0.533100  0.717000  0.013000  1.0  0.1093
  H  H32  1  0.879300  0.942200  0.754300  1.0  0.118
  H  H33  1  0.948700  0.897300  0.084300  1.0  0.1183
  H  H34  1  0.539800  0.527700  0.902100  1.0  0.1103
  H  H35  1  0.260800  0.940200  0.759300  1.0  0.0786
  H  H36  1  0.325700  0.893600  0.079300  1.0  0.0633
  H  H37  1  0.061500  0.938300  0.751400  1.0  0.1279
  H  H38  1  0.683100  0.948100  0.761800  1.0  0.0664
  H  H39  1  0.128800  0.892800  0.083000  1.0  0.1174
  H  H40  1  0.750300  0.899600  0.080300  1.0  0.0835
  H  H41  1  0.472800  0.122600  0.376800  1.0  0.3823
  H  H42  1  0.472500  0.180700  0.817600  1.0  0.104
  H  H43  1  0.466900  0.217000  0.487000  1.0  0.11
  H  H44  1  0.120700  0.442200  0.745700  1.0  0.1179
  H  H45  1  0.051300  0.397300  0.415700  1.0  0.1175
  H  H46  1  0.460200  0.027700  0.597900  1.0  0.1104
  H  H47  1  0.739200  0.440200  0.740700  1.0  0.0783
  H  H48  1  0.674300  0.393600  0.420700  1.0  0.0635
  H  H49  1  0.938500  0.438300  0.748600  1.0  0.1278
  H  H50  1  0.316900  0.448100  0.738200  1.0  0.0657
  H  H51  1  0.871200  0.392800  0.417000  1.0  0.117
  H  H52  1  0.249700  0.399600  0.419700  1.0  0.0842
  C  C53  1  0.472000  0.289100  0.156100  1.0  -0.1591
  C  C54  1  0.468050  0.452230  0.316200  1.0  0.6641
  C  C55  1  0.059800  0.081190  0.081600  1.0  0.1002
  C  C56  1  0.470400  0.334650  0.244050  1.0  -0.0213
  C  C57  1  0.466900  0.313050  0.046300  1.0  -0.1229
  C  C58  1  0.144200  0.066130  0.177300  1.0  -0.187
  C  C59  1  0.103600  0.093140  0.983500  1.0  -0.1971
  C  C60  1  0.479100  0.214750  0.178200  1.0  0.7367
  C  C61  1  0.461800  0.381090  0.024800  1.0  0.3341
  C  C62  1  0.465500  0.403030  0.221480  1.0  -0.1408
  C  C63  1  0.931400  0.083210  0.082000  1.0  0.0575
  C  C64  1  0.462200  0.426440  0.112400  1.0  -0.1146
  C  C65  1  0.766300  0.069690  0.174500  1.0  0.1758
  C  C66  1  0.728200  0.096550  0.987400  1.0  0.1737
  C  C67  1  0.886700  0.070110  0.180000  1.0  -0.1961
  C  C68  1  0.262800  0.063280  0.172400  1.0  0.1705
  C  C69  1  0.846900  0.097250  0.984500  1.0  -0.1843
  C  C70  1  0.223300  0.090860  0.986400  1.0  0.1736
  C  C71  1  0.528000  0.789100  0.343900  1.0  -0.1591
  C  C72  1  0.531950  0.952230  0.183800  1.0  0.6642
  C  C73  1  0.940200  0.581190  0.418400  1.0  0.0996
  C  C74  1  0.529600  0.834650  0.255950  1.0  -0.0207
  C  C75  1  0.533100  0.813050  0.453700  1.0  -0.1244
  C  C76  1  0.855800  0.566130  0.322700  1.0  -0.185
  C  C77  1  0.896400  0.593140  0.516500  1.0  -0.1969
  C  C78  1  0.520900  0.714750  0.321800  1.0  0.7367
  C  C79  1  0.538200  0.881090  0.475200  1.0  0.3331
  C  C80  1  0.534500  0.903030  0.278520  1.0  -0.1395
  C  C81  1  0.068600  0.583210  0.418000  1.0  0.0574
  C  C82  1  0.537800  0.926440  0.387600  1.0  -0.1138
  C  C83  1  0.233700  0.569690  0.325500  1.0  0.1781
  C  C84  1  0.271800  0.596550  0.512600  1.0  0.1734
  C  C85  1  0.113300  0.570110  0.320000  1.0  -0.1956
  C  C86  1  0.737200  0.563280  0.327600  1.0  0.1705
  C  C87  1  0.153100  0.597250  0.515500  1.0  -0.1831
  C  C88  1  0.776700  0.590860  0.513600  1.0  0.1724
  C  C89  1  0.528000  0.710900  0.843900  1.0  -0.1586
  C  C90  1  0.531950  0.547770  0.683800  1.0  0.6621
  C  C91  1  0.940200  0.918810  0.918400  1.0  0.0985
  C  C92  1  0.529600  0.665350  0.755950  1.0  -0.0212
  C  C93  1  0.533100  0.686950  0.953700  1.0  -0.1245
  C  C94  1  0.855800  0.933870  0.822700  1.0  -0.185
  C  C95  1  0.896400  0.906860  0.016500  1.0  -0.1967
  C  C96  1  0.520900  0.785250  0.821800  1.0  0.7376
  C  C97  1  0.538200  0.618910  0.975200  1.0  0.3328
  C  C98  1  0.534500  0.596970  0.778520  1.0  -0.14
  C  C99  1  0.068600  0.916790  0.918000  1.0  0.0566
  C  C100  1  0.537800  0.573560  0.887600  1.0  -0.1115
  C  C101  1  0.233700  0.930310  0.825500  1.0  0.1774
  C  C102  1  0.271800  0.903450  0.012600  1.0  0.1741
  C  C103  1  0.113300  0.929890  0.820000  1.0  -0.1959
  C  C104  1  0.737200  0.936720  0.827600  1.0  0.1702
  C  C105  1  0.153100  0.902750  0.015500  1.0  -0.1827
  C  C106  1  0.776700  0.909140  0.013600  1.0  0.1742
  C  C107  1  0.472000  0.210900  0.656100  1.0  -0.1588
  C  C108  1  0.468050  0.047770  0.816200  1.0  0.6623
  C  C109  1  0.059800  0.418810  0.581600  1.0  0.0994
  C  C110  1  0.470400  0.165350  0.744050  1.0  -0.0211
  C  C111  1  0.466900  0.186950  0.546300  1.0  -0.1231
  C  C112  1  0.144200  0.433870  0.677300  1.0  -0.1865
  C  C113  1  0.103600  0.406860  0.483500  1.0  -0.196
  C  C114  1  0.479100  0.285250  0.678200  1.0  0.7377
  C  C115  1  0.461800  0.118910  0.524800  1.0  0.3339
  C  C116  1  0.465500  0.096970  0.721480  1.0  -0.141
  C  C117  1  0.931400  0.416790  0.582000  1.0  0.0571
  C  C118  1  0.462200  0.073560  0.612400  1.0  -0.112
  C  C119  1  0.766300  0.430310  0.674500  1.0  0.1759
  C  C120  1  0.728200  0.403450  0.487400  1.0  0.1738
  C  C121  1  0.886700  0.429890  0.680000  1.0  -0.1966
  C  C122  1  0.262800  0.436720  0.672400  1.0  0.1704
  C  C123  1  0.846900  0.402750  0.484500  1.0  -0.1827
  C  C124  1  0.223300  0.409140  0.486400  1.0  0.1746
  N  N125  1  0.685130  0.082480  0.080520  1.0  -0.3344
  N  N126  1  0.304470  0.075860  0.078750  1.0  -0.3174
  N  N127  1  0.314870  0.582480  0.419480  1.0  -0.3354
  N  N128  1  0.695530  0.575860  0.421250  1.0  -0.3188
  N  N129  1  0.314870  0.917520  0.919480  1.0  -0.3356
  N  N130  1  0.695530  0.924140  0.921250  1.0  -0.3197
  N  N131  1  0.685130  0.417520  0.580520  1.0  -0.3345
  N  N132  1  0.304470  0.424140  0.578750  1.0  -0.3172
  O  O133  1  0.458800  0.406690  0.918530  1.0  -0.5254
  O  O134  1  0.458460  0.430140  0.411500  1.0  -0.6314
  O  O135  1  0.494990  0.179370  0.095890  1.0  -0.6183
  O  O136  1  0.469500  0.193550  0.271370  1.0  -0.6073
  O  O137  1  0.478630  0.513350  0.294300  1.0  -0.5778
  O  O138  1  0.541200  0.906690  0.581470  1.0  -0.5255
  O  O139  1  0.541540  0.930140  0.088500  1.0  -0.6318
  O  O140  1  0.505010  0.679370  0.404110  1.0  -0.6191
  O  O141  1  0.530500  0.693550  0.228630  1.0  -0.607
  O  O142  1  0.521370  0.013350  0.205700  1.0  -0.5769
  O  O143  1  0.541200  0.593310  0.081470  1.0  -0.5253
  O  O144  1  0.541540  0.569860  0.588500  1.0  -0.6313
  O  O145  1  0.505010  0.820630  0.904110  1.0  -0.6185
  O  O146  1  0.530500  0.806450  0.728630  1.0  -0.6067
  O  O147  1  0.521370  0.486650  0.705700  1.0  -0.5772
  O  O148  1  0.458800  0.093310  0.418530  1.0  -0.5246
  O  O149  1  0.458460  0.069860  0.911500  1.0  -0.6321
  O  O150  1  0.494990  0.320630  0.595890  1.0  -0.6174
  O  O151  1  0.469500  0.306450  0.771370  1.0  -0.6069
  O  O152  1  0.478630  0.986650  0.794300  1.0  -0.5768
