# generated using pymatgen
data_Zr3H14(C3O2)8
_symmetry_space_group_name_H-M   'P 1'
_cell_length_a   14.62220000
_cell_length_b   14.62220000
_cell_length_c   14.62220000
_cell_angle_alpha   93.40190000
_cell_angle_beta   118.05600000
_cell_angle_gamma   118.05600000
_symmetry_Int_Tables_number   1
_chemical_formula_structural   Zr3H14(C3O2)8
_chemical_formula_sum   'Zr6 H28 C48 O32'
_cell_volume   2271.28405446
_cell_formula_units_Z   2
loop_
 _symmetry_equiv_pos_site_id
 _symmetry_equiv_pos_as_xyz
  1  'x, y, z'
loop_
 _atom_site_type_symbol
 _atom_site_label
 _atom_site_symmetry_multiplicity
 _atom_site_fract_x
 _atom_site_fract_y
 _atom_site_fract_z
 _atom_site_occupancy
 _atom_site_charge
  Zr  Zr1  1  0.000000  0.118440  0.881560  1.0  1.9142
  Zr  Zr2  1  0.000000  0.875590  0.875590  1.0  1.9133
  Zr  Zr3  1  0.000000  0.124430  0.124430  1.0  1.9089
  Zr  Zr4  1  0.000000  0.881580  0.118440  1.0  1.9098
  Zr  Zr5  1  0.236880  0.118440  0.118440  1.0  1.9119
  Zr  Zr6  1  0.763140  0.881580  0.881580  1.0  1.9175
  H  H7  1  0.186060  0.088710  0.902650  1.0  0.3451
  H  H8  1  0.018600  0.409060  0.865760  1.0  0.1239
  H  H9  1  0.725740  0.139840  0.580180  1.0  0.1342
  H  H10  1  0.981740  0.141660  0.419280  1.0  0.1311
  H  H11  1  0.722380  0.141660  0.159920  1.0  0.1333
  H  H12  1  0.559660  0.139840  0.414100  1.0  0.1348
  H  H13  1  0.186080  0.097360  0.283420  1.0  0.3465
  H  H14  1  0.018580  0.609560  0.152840  1.0  0.1249
  H  H15  1  0.440340  0.854430  0.580150  1.0  0.1352
  H  H16  1  0.456760  0.847220  0.865740  1.0  0.1244
  H  H17  1  0.543280  0.409040  0.390440  1.0  0.1235
  H  H18  1  0.018200  0.437480  0.159880  1.0  0.1275
  H  H19  1  0.456720  0.609560  0.590980  1.0  0.1236
  H  H20  1  0.725720  0.585830  0.145470  1.0  0.1319
  H  H21  1  0.813940  0.716620  0.902680  1.0  0.3502
  H  H22  1  0.277620  0.840150  0.858310  1.0  0.1335
  H  H23  1  0.440360  0.585830  0.860110  1.0  0.1306
  H  H24  1  0.981480  0.847220  0.390460  1.0  0.1245
  H  H25  1  0.559660  0.419760  0.145480  1.0  0.1322
  H  H26  1  0.543240  0.134190  0.152870  1.0  0.1255
  H  H27  1  0.277600  0.437480  0.419280  1.0  0.1303
  H  H28  1  0.722400  0.580730  0.562550  1.0  0.1298
  H  H29  1  0.018180  0.580730  0.858330  1.0  0.1278
  H  H30  1  0.981320  0.134190  0.590950  1.0  0.1261
  H  H31  1  0.981840  0.840150  0.562530  1.0  0.1321
  H  H32  1  0.813940  0.097360  0.911280  1.0  0.3477
  H  H33  1  0.274280  0.854430  0.414090  1.0  0.1356
  H  H34  1  0.274280  0.419760  0.860100  1.0  0.1331
  C  C35  1  0.375280  0.905160  0.923760  1.0  -0.0665
  C  C36  1  0.695420  0.998100  0.693520  1.0  0.6741
  C  C37  1  0.017520  0.602850  0.004830  1.0  -0.0851
  C  C38  1  0.526340  0.454220  0.435460  1.0  -0.0728
  C  C39  1  0.626580  0.549340  0.082880  1.0  -0.0743
  C  C40  1  0.018640  0.470160  0.094860  1.0  -0.0659
  C  C41  1  0.401980  0.414680  0.397160  1.0  -0.0823
  C  C42  1  0.018780  0.564570  0.090910  1.0  -0.0714
  C  C43  1  0.982480  0.995190  0.397170  1.0  -0.0825
  C  C44  1  0.624700  0.076210  0.094870  1.0  -0.076
  C  C45  1  0.701520  0.000870  0.012190  1.0  0.671
  C  C46  1  0.981400  0.905160  0.529880  1.0  -0.0692
  C  C47  1  0.526320  0.072080  0.090920  1.0  -0.0761
  C  C48  1  0.298480  0.987800  0.999160  1.0  0.6712
  C  C49  1  0.304580  0.306460  0.001880  1.0  0.6717
  C  C50  1  0.598020  0.602850  0.585330  1.0  -0.0833
  C  C51  1  0.011320  0.700670  0.999170  1.0  0.6684
  C  C52  1  0.695440  0.697340  0.001900  1.0  0.6748
  C  C53  1  0.981260  0.909120  0.435460  1.0  -0.0741
  C  C54  1  0.598040  0.995200  0.012720  1.0  -0.0748
  C  C55  1  0.473660  0.564570  0.545790  1.0  -0.0734
  C  C56  1  0.373420  0.456300  0.922740  1.0  -0.0733
  C  C57  1  0.466460  0.549340  0.922760  1.0  -0.0723
  C  C58  1  0.988660  0.987810  0.689330  1.0  0.6715
  C  C59  1  0.017520  0.414680  0.012700  1.0  -0.0855
  C  C60  1  0.018600  0.548490  0.923770  1.0  -0.0633
  C  C61  1  0.401980  0.987290  0.004830  1.0  -0.086
  C  C62  1  0.533560  0.077200  0.450620  1.0  -0.0748
  C  C63  1  0.466460  0.917060  0.543640  1.0  -0.0709
  C  C64  1  0.018760  0.454220  0.927880  1.0  -0.073
  C  C65  1  0.624700  0.548470  0.529870  1.0  -0.0675
  C  C66  1  0.981340  0.076220  0.451520  1.0  -0.071
  C  C67  1  0.594540  0.597240  0.002700  1.0  -0.0749
  C  C68  1  0.533560  0.456300  0.082880  1.0  -0.0743
  C  C69  1  0.473660  0.909120  0.927860  1.0  -0.0728
  C  C70  1  0.626580  0.077200  0.543640  1.0  -0.0754
  C  C71  1  0.298520  0.310690  0.299350  1.0  0.6693
  C  C72  1  0.304580  0.998100  0.302680  1.0  0.67
  C  C73  1  0.982460  0.987290  0.585310  1.0  -0.0858
  C  C74  1  0.405480  0.408170  0.002690  1.0  -0.076
  C  C75  1  0.405480  0.997270  0.402730  1.0  -0.0753
  C  C76  1  0.373420  0.917060  0.450600  1.0  -0.0672
  C  C77  1  0.011340  0.310690  0.012170  1.0  0.6856
  C  C78  1  0.594540  0.997270  0.591790  1.0  -0.0755
  C  C79  1  0.375300  0.470160  0.451520  1.0  -0.0681
  C  C80  1  0.988680  0.000870  0.299350  1.0  0.6741
  C  C81  1  0.981160  0.072080  0.545760  1.0  -0.0782
  C  C82  1  0.701500  0.700670  0.689350  1.0  0.6726
  O  O83  1  0.867100  0.069770  0.936850  1.0  -0.856
  O  O84  1  0.006560  0.733850  0.919170  1.0  -0.606
  O  O85  1  0.667760  0.924200  0.932660  1.0  -0.601
  O  O86  1  0.993440  0.080870  0.266170  1.0  -0.6033
  O  O87  1  0.659200  0.735850  0.925650  1.0  -0.6274
  O  O88  1  0.189820  0.266440  0.925620  1.0  -0.6266
  O  O89  1  0.185300  0.272720  0.266140  1.0  -0.5927
  O  O90  1  0.132900  0.063140  0.930240  1.0  -0.8553
  O  O91  1  0.991540  0.924200  0.256440  1.0  -0.6017
  O  O92  1  0.659200  0.923360  0.733560  1.0  -0.6255
  O  O93  1  0.006580  0.272720  0.087420  1.0  -0.5984
  O  O94  1  0.189800  0.923360  0.264160  1.0  -0.6273
  O  O95  1  0.185280  0.912560  0.919160  1.0  -0.6025
  O  O96  1  0.340820  0.074370  0.264170  1.0  -0.6263
  O  O97  1  0.097580  0.148950  0.051370  1.0  -0.82
  O  O98  1  0.008420  0.743540  0.075820  1.0  -0.6021
  O  O99  1  0.814700  0.080870  0.087430  1.0  -0.6064
  O  O100  1  0.667720  0.743540  0.735120  1.0  -0.6007
  O  O101  1  0.132920  0.069770  0.202670  1.0  -0.856
  O  O102  1  0.867100  0.797360  0.930260  1.0  -0.8543
  O  O103  1  0.814680  0.733850  0.727290  1.0  -0.6017
  O  O104  1  0.332240  0.067340  0.075820  1.0  -0.6009
  O  O105  1  0.993400  0.912560  0.727280  1.0  -0.6022
  O  O106  1  0.991520  0.067340  0.735100  1.0  -0.6011
  O  O107  1  0.332280  0.264920  0.256440  1.0  -0.6021
  O  O108  1  0.340820  0.266440  0.076620  1.0  -0.6284
  O  O109  1  0.008480  0.264920  0.932640  1.0  -0.6039
  O  O110  1  0.097580  0.948640  0.046220  1.0  -0.8269
  O  O111  1  0.810200  0.735850  0.076650  1.0  -0.6277
  O  O112  1  0.810200  0.074370  0.733550  1.0  -0.6252
  O  O113  1  0.902420  0.948640  0.851060  1.0  -0.8252
  O  O114  1  0.902420  0.953800  0.051380  1.0  -0.8253
