# generated using pymatgen
data_Hf3H14(C3O2)8
_symmetry_space_group_name_H-M   'P 1'
_cell_length_a   14.87750000
_cell_length_b   14.87750000
_cell_length_c   14.87750000
_cell_angle_alpha   60.00000000
_cell_angle_beta   60.00000000
_cell_angle_gamma   60.00000000
_symmetry_Int_Tables_number   1
_chemical_formula_structural   Hf3H14(C3O2)8
_chemical_formula_sum   'Hf6 H28 C48 O32'
_cell_volume   2328.49269064
_cell_formula_units_Z   2
loop_
 _symmetry_equiv_pos_site_id
 _symmetry_equiv_pos_as_xyz
  1  'x, y, z'
loop_
 _atom_site_type_symbol
 _atom_site_label
 _atom_site_symmetry_multiplicity
 _atom_site_fract_x
 _atom_site_fract_y
 _atom_site_fract_z
 _atom_site_occupancy
 _atom_site_charge
  Hf  Hf1  1  0.120890  0.879110  0.120890  1.0  2.2689
  Hf  Hf2  1  0.120890  0.879110  0.879110  1.0  2.2672
  Hf  Hf3  1  0.879110  0.879110  0.120890  1.0  2.2708
  Hf  Hf4  1  0.879110  0.120890  0.120890  1.0  2.2706
  Hf  Hf5  1  0.879110  0.120890  0.879110  1.0  2.2657
  Hf  Hf6  1  0.120890  0.120890  0.879110  1.0  2.2662
  H  H7  1  0.862700  0.577440  0.151480  1.0  0.1211
  H  H8  1  0.408380  0.577440  0.862700  1.0  0.1196
  H  H9  1  0.577440  0.408380  0.151480  1.0  0.1211
  H  H10  1  0.151480  0.577440  0.862700  1.0  0.1214
  H  H11  1  0.151480  0.408380  0.577440  1.0  0.1211
  H  H12  1  0.408380  0.862700  0.151480  1.0  0.1243
  H  H13  1  0.862700  0.151480  0.408380  1.0  0.1218
  H  H14  1  0.577440  0.408380  0.862700  1.0  0.1203
  H  H15  1  0.408380  0.862700  0.577440  1.0  0.1246
  H  H16  1  0.285600  0.904800  0.904800  1.0  0.3727
  H  H17  1  0.577440  0.151480  0.408380  1.0  0.1237
  H  H18  1  0.862700  0.151480  0.577440  1.0  0.122
  H  H19  1  0.577440  0.862700  0.151480  1.0  0.1221
  H  H20  1  0.904800  0.285600  0.904800  1.0  0.3776
  H  H21  1  0.862700  0.408380  0.151480  1.0  0.1213
  H  H22  1  0.151480  0.862700  0.408380  1.0  0.1221
  H  H23  1  0.904800  0.904800  0.904800  1.0  0.3709
  H  H24  1  0.577440  0.151480  0.862700  1.0  0.1244
  H  H25  1  0.904800  0.904800  0.285600  1.0  0.37
  H  H26  1  0.151480  0.577440  0.408380  1.0  0.1205
  H  H27  1  0.862700  0.577440  0.408380  1.0  0.1206
  H  H28  1  0.408380  0.151480  0.862700  1.0  0.1221
  H  H29  1  0.862700  0.408380  0.577440  1.0  0.1218
  H  H30  1  0.577440  0.862700  0.408380  1.0  0.1219
  H  H31  1  0.408380  0.577440  0.151480  1.0  0.1202
  H  H32  1  0.151480  0.862700  0.577440  1.0  0.1219
  H  H33  1  0.151480  0.408380  0.862700  1.0  0.1214
  H  H34  1  0.408380  0.151480  0.577440  1.0  0.1222
  C  C35  1  0.446090  0.539490  0.925570  1.0  -0.0955
  C  C36  1  0.004340  0.301420  0.004340  1.0  0.6612
  C  C37  1  0.925570  0.539490  0.446090  1.0  -0.0952
  C  C38  1  0.088850  0.925570  0.446090  1.0  -0.0983
  C  C39  1  0.006750  0.006750  0.399390  1.0  -0.1044
  C  C40  1  0.925570  0.088850  0.446090  1.0  -0.104
  C  C41  1  0.539490  0.925570  0.446090  1.0  -0.0974
  C  C42  1  0.446090  0.088850  0.925570  1.0  -0.1007
  C  C43  1  0.539490  0.446090  0.088850  1.0  -0.0927
  C  C44  1  0.088850  0.539490  0.925570  1.0  -0.0949
  C  C45  1  0.587110  0.006750  0.399390  1.0  -0.1028
  C  C46  1  0.539490  0.088850  0.446090  1.0  -0.102
  C  C47  1  0.587110  0.399390  0.006750  1.0  -0.1028
  C  C48  1  0.689900  0.004340  0.004340  1.0  0.6619
  C  C49  1  0.004340  0.689900  0.004340  1.0  0.6761
  C  C50  1  0.004340  0.004340  0.689900  1.0  0.6625
  C  C51  1  0.301420  0.004340  0.689900  1.0  0.6639
  C  C52  1  0.539490  0.925570  0.088850  1.0  -0.0942
  C  C53  1  0.689900  0.301420  0.004340  1.0  0.6761
  C  C54  1  0.088850  0.446090  0.925570  1.0  -0.0936
  C  C55  1  0.925570  0.539490  0.088850  1.0  -0.0962
  C  C56  1  0.925570  0.088850  0.539490  1.0  -0.1011
  C  C57  1  0.399390  0.006750  0.006750  1.0  -0.102
  C  C58  1  0.006750  0.399390  0.587110  1.0  -0.1021
  C  C59  1  0.006750  0.399390  0.006750  1.0  -0.1023
  C  C60  1  0.399390  0.006750  0.587110  1.0  -0.102
  C  C61  1  0.088850  0.446090  0.539490  1.0  -0.0963
  C  C62  1  0.399390  0.587110  0.006750  1.0  -0.1026
  C  C63  1  0.539490  0.446090  0.925570  1.0  -0.0951
  C  C64  1  0.587110  0.006750  0.006750  1.0  -0.1025
  C  C65  1  0.006750  0.587110  0.399390  1.0  -0.1027
  C  C66  1  0.006750  0.006750  0.587110  1.0  -0.1018
  C  C67  1  0.088850  0.539490  0.446090  1.0  -0.0966
  C  C68  1  0.006750  0.587110  0.006750  1.0  -0.1023
  C  C69  1  0.925570  0.446090  0.088850  1.0  -0.0931
  C  C70  1  0.088850  0.925570  0.539490  1.0  -0.0967
  C  C71  1  0.446090  0.925570  0.539490  1.0  -0.0942
  C  C72  1  0.301420  0.689900  0.004340  1.0  0.6626
  C  C73  1  0.446090  0.925570  0.088850  1.0  -0.0963
  C  C74  1  0.539490  0.088850  0.925570  1.0  -0.0996
  C  C75  1  0.004340  0.301420  0.689900  1.0  0.6629
  C  C76  1  0.446090  0.088850  0.539490  1.0  -0.1003
  C  C77  1  0.446090  0.539490  0.088850  1.0  -0.0951
  C  C78  1  0.301420  0.004340  0.004340  1.0  0.6635
  C  C79  1  0.689900  0.004340  0.301420  1.0  0.6618
  C  C80  1  0.925570  0.446090  0.539490  1.0  -0.0936
  C  C81  1  0.004340  0.004340  0.301420  1.0  0.6768
  C  C82  1  0.004340  0.689900  0.301420  1.0  0.6615
  O  O83  1  0.729980  0.264460  0.079680  1.0  -0.6363
  O  O84  1  0.845500  0.051500  0.051500  1.0  -0.8933
  O  O85  1  0.264460  0.925880  0.079680  1.0  -0.6357
  O  O86  1  0.079680  0.264460  0.729980  1.0  -0.6369
  O  O87  1  0.729980  0.079680  0.925880  1.0  -0.6373
  O  O88  1  0.264460  0.925880  0.729980  1.0  -0.6356
  O  O89  1  0.264460  0.079680  0.729980  1.0  -0.6378
  O  O90  1  0.925880  0.079680  0.264460  1.0  -0.6385
  O  O91  1  0.051500  0.051500  0.051500  1.0  -0.8935
  O  O92  1  0.729980  0.079680  0.264460  1.0  -0.6385
  O  O93  1  0.925880  0.079680  0.729980  1.0  -0.6378
  O  O94  1  0.729980  0.264460  0.925880  1.0  -0.636
  O  O95  1  0.931470  0.205590  0.931470  1.0  -0.8982
  O  O96  1  0.925880  0.264460  0.729980  1.0  -0.6339
  O  O97  1  0.264460  0.729980  0.925880  1.0  -0.6353
  O  O98  1  0.079680  0.729980  0.925880  1.0  -0.6343
  O  O99  1  0.079680  0.264460  0.925880  1.0  -0.6362
  O  O100  1  0.264460  0.079680  0.925880  1.0  -0.6369
  O  O101  1  0.051500  0.845500  0.051500  1.0  -0.8959
  O  O102  1  0.925880  0.729980  0.264460  1.0  -0.6358
  O  O103  1  0.729980  0.925880  0.079680  1.0  -0.6388
  O  O104  1  0.079680  0.925880  0.729980  1.0  -0.6385
  O  O105  1  0.205590  0.931470  0.931470  1.0  -0.9012
  O  O106  1  0.925880  0.729980  0.079680  1.0  -0.6358
  O  O107  1  0.729980  0.925880  0.264460  1.0  -0.6395
  O  O108  1  0.264460  0.729980  0.079680  1.0  -0.6347
  O  O109  1  0.051500  0.051500  0.845500  1.0  -0.8946
  O  O110  1  0.079680  0.729980  0.264460  1.0  -0.6356
  O  O111  1  0.931470  0.931470  0.931470  1.0  -0.9023
  O  O112  1  0.931470  0.931470  0.205590  1.0  -0.9029
  O  O113  1  0.079680  0.925880  0.264460  1.0  -0.6393
  O  O114  1  0.925880  0.264460  0.079680  1.0  -0.6349
