# generated using pymatgen
data_Ti3H14(C3O2)8
_symmetry_space_group_name_H-M   'P 1'
_cell_length_a   14.33910000
_cell_length_b   14.33910000
_cell_length_c   14.33910000
_cell_angle_alpha   60.00000000
_cell_angle_beta   60.00000000
_cell_angle_gamma   60.00000000
_symmetry_Int_Tables_number   1
_chemical_formula_structural   Ti3H14(C3O2)8
_chemical_formula_sum   'Ti6 H28 C48 O32'
_cell_volume   2084.73415980
_cell_formula_units_Z   2
loop_
 _symmetry_equiv_pos_site_id
 _symmetry_equiv_pos_as_xyz
  1  'x, y, z'
loop_
 _atom_site_type_symbol
 _atom_site_label
 _atom_site_symmetry_multiplicity
 _atom_site_fract_x
 _atom_site_fract_y
 _atom_site_fract_z
 _atom_site_occupancy
 _atom_site_charge
  Ti  Ti1  1  0.116930  0.883070  0.116930  1.0  1.593
  Ti  Ti2  1  0.883070  0.116930  0.883070  1.0  1.5928
  Ti  Ti3  1  0.116930  0.116930  0.883070  1.0  1.5913
  Ti  Ti4  1  0.883070  0.883070  0.116930  1.0  1.5931
  Ti  Ti5  1  0.883070  0.116930  0.116930  1.0  1.594
  Ti  Ti6  1  0.116930  0.883070  0.883070  1.0  1.591
  H  H7  1  0.594850  0.843150  0.419170  1.0  0.1443
  H  H8  1  0.093040  0.720880  0.093040  1.0  0.3364
  H  H9  1  0.843150  0.419170  0.594850  1.0  0.1462
  H  H10  1  0.093040  0.093040  0.720880  1.0  0.3326
  H  H11  1  0.594850  0.142830  0.419170  1.0  0.1475
  H  H12  1  0.843150  0.142830  0.594850  1.0  0.1462
  H  H13  1  0.843150  0.419170  0.142830  1.0  0.1452
  H  H14  1  0.419170  0.142830  0.594850  1.0  0.1452
  H  H15  1  0.142830  0.419170  0.843150  1.0  0.1452
  H  H16  1  0.419170  0.843150  0.594850  1.0  0.1477
  H  H17  1  0.843150  0.594850  0.419170  1.0  0.1451
  H  H18  1  0.142830  0.843150  0.419170  1.0  0.1453
  H  H19  1  0.419170  0.843150  0.142830  1.0  0.1469
  H  H20  1  0.594850  0.419170  0.142830  1.0  0.1455
  H  H21  1  0.594850  0.142830  0.843150  1.0  0.1476
  H  H22  1  0.594850  0.419170  0.843150  1.0  0.1447
  H  H23  1  0.142830  0.594850  0.843150  1.0  0.1454
  H  H24  1  0.142830  0.843150  0.594850  1.0  0.1448
  H  H25  1  0.419170  0.142830  0.843150  1.0  0.1459
  H  H26  1  0.720880  0.093040  0.093040  1.0  0.3329
  H  H27  1  0.594850  0.843150  0.142830  1.0  0.1451
  H  H28  1  0.142830  0.419170  0.594850  1.0  0.144
  H  H29  1  0.142830  0.594850  0.419170  1.0  0.145
  H  H30  1  0.843150  0.142830  0.419170  1.0  0.1465
  H  H31  1  0.843150  0.594850  0.142830  1.0  0.1462
  H  H32  1  0.419170  0.594850  0.142830  1.0  0.1455
  H  H33  1  0.093040  0.093040  0.093040  1.0  0.3304
  H  H34  1  0.419170  0.594850  0.843150  1.0  0.1448
  C  C35  1  0.555610  0.458730  0.077650  1.0  -0.063
  C  C36  1  0.705460  0.995880  0.302780  1.0  0.6926
  C  C37  1  0.077650  0.555610  0.458730  1.0  -0.0658
  C  C38  1  0.458730  0.555610  0.908010  1.0  -0.064
  C  C39  1  0.077650  0.458730  0.908010  1.0  -0.0663
  C  C40  1  0.458730  0.077650  0.908010  1.0  -0.0703
  C  C41  1  0.993320  0.603900  0.993320  1.0  -0.0658
  C  C42  1  0.993320  0.993320  0.603900  1.0  -0.0663
  C  C43  1  0.603900  0.993320  0.409460  1.0  -0.0673
  C  C44  1  0.995880  0.302780  0.705460  1.0  0.6797
  C  C45  1  0.458730  0.908010  0.555610  1.0  -0.0684
  C  C46  1  0.908010  0.077650  0.555610  1.0  -0.0721
  C  C47  1  0.077650  0.908010  0.458730  1.0  -0.0701
  C  C48  1  0.993320  0.603900  0.409460  1.0  -0.0661
  C  C49  1  0.555610  0.077650  0.458730  1.0  -0.0701
  C  C50  1  0.302780  0.995880  0.705460  1.0  0.681
  C  C51  1  0.705460  0.302780  0.995880  1.0  0.6824
  C  C52  1  0.077650  0.555610  0.908010  1.0  -0.0643
  C  C53  1  0.409460  0.993320  0.603900  1.0  -0.0671
  C  C54  1  0.458730  0.908010  0.077650  1.0  -0.0692
  C  C55  1  0.077650  0.458730  0.555610  1.0  -0.064
  C  C56  1  0.908010  0.555610  0.458730  1.0  -0.0662
  C  C57  1  0.458730  0.077650  0.555610  1.0  -0.0729
  C  C58  1  0.993320  0.409460  0.603900  1.0  -0.0677
  C  C59  1  0.302780  0.995880  0.995880  1.0  0.6829
  C  C60  1  0.409460  0.993320  0.993320  1.0  -0.0668
  C  C61  1  0.555610  0.458730  0.908010  1.0  -0.064
  C  C62  1  0.555610  0.077650  0.908010  1.0  -0.0716
  C  C63  1  0.302780  0.705460  0.995880  1.0  0.6816
  C  C64  1  0.995880  0.705460  0.995880  1.0  0.6814
  C  C65  1  0.908010  0.555610  0.077650  1.0  -0.0649
  C  C66  1  0.077650  0.908010  0.555610  1.0  -0.0671
  C  C67  1  0.993320  0.409460  0.993320  1.0  -0.0675
  C  C68  1  0.603900  0.409460  0.993320  1.0  -0.068
  C  C69  1  0.555610  0.908010  0.077650  1.0  -0.069
  C  C70  1  0.995880  0.995880  0.302780  1.0  0.6812
  C  C71  1  0.908010  0.077650  0.458730  1.0  -0.0726
  C  C72  1  0.458730  0.555610  0.077650  1.0  -0.0649
  C  C73  1  0.995880  0.302780  0.995880  1.0  0.6918
  C  C74  1  0.555610  0.908010  0.458730  1.0  -0.0657
  C  C75  1  0.908010  0.458730  0.555610  1.0  -0.0678
  C  C76  1  0.995880  0.705460  0.302780  1.0  0.6807
  C  C77  1  0.908010  0.458730  0.077650  1.0  -0.0682
  C  C78  1  0.409460  0.603900  0.993320  1.0  -0.0665
  C  C79  1  0.705460  0.995880  0.995880  1.0  0.68
  C  C80  1  0.995880  0.995880  0.705460  1.0  0.6797
  C  C81  1  0.993320  0.993320  0.409460  1.0  -0.0667
  C  C82  1  0.603900  0.993320  0.993320  1.0  -0.0669
  O  O83  1  0.077200  0.261120  0.743700  1.0  -0.5619
  O  O84  1  0.917980  0.077200  0.261120  1.0  -0.5618
  O  O85  1  0.743700  0.917980  0.261120  1.0  -0.5594
  O  O86  1  0.077200  0.743700  0.261120  1.0  -0.5649
  O  O87  1  0.077200  0.917980  0.743700  1.0  -0.5641
  O  O88  1  0.917980  0.261120  0.077200  1.0  -0.5627
  O  O89  1  0.951070  0.146790  0.951070  1.0  -0.8808
  O  O90  1  0.917980  0.743700  0.261120  1.0  -0.562
  O  O91  1  0.261120  0.917980  0.743700  1.0  -0.5648
  O  O92  1  0.146790  0.951070  0.951070  1.0  -0.8808
  O  O93  1  0.917980  0.743700  0.077200  1.0  -0.5623
  O  O94  1  0.261120  0.743700  0.917980  1.0  -0.5628
  O  O95  1  0.743700  0.077200  0.261120  1.0  -0.564
  O  O96  1  0.804070  0.065310  0.065310  1.0  -0.7856
  O  O97  1  0.261120  0.743700  0.077200  1.0  -0.5617
  O  O98  1  0.077200  0.743700  0.917980  1.0  -0.5639
  O  O99  1  0.917980  0.261120  0.743700  1.0  -0.5612
  O  O100  1  0.261120  0.077200  0.743700  1.0  -0.5614
  O  O101  1  0.261120  0.077200  0.917980  1.0  -0.56
  O  O102  1  0.261120  0.917980  0.077200  1.0  -0.5649
  O  O103  1  0.917980  0.077200  0.743700  1.0  -0.5612
  O  O104  1  0.743700  0.077200  0.917980  1.0  -0.5635
  O  O105  1  0.077200  0.261120  0.917980  1.0  -0.5614
  O  O106  1  0.065310  0.804070  0.065310  1.0  -0.7819
  O  O107  1  0.951070  0.951070  0.146790  1.0  -0.8779
  O  O108  1  0.065310  0.065310  0.804070  1.0  -0.7871
  O  O109  1  0.065310  0.065310  0.065310  1.0  -0.7864
  O  O110  1  0.077200  0.917980  0.261120  1.0  -0.5627
  O  O111  1  0.743700  0.261120  0.077200  1.0  -0.5611
  O  O112  1  0.743700  0.917980  0.077200  1.0  -0.5604
  O  O113  1  0.951070  0.951070  0.951070  1.0  -0.8781
  O  O114  1  0.743700  0.261120  0.917980  1.0  -0.561
