# generated using pymatgen
data_Zr3H14(C3O2)8
_symmetry_space_group_name_H-M   'P 1'
_cell_length_a   14.38580000
_cell_length_b   14.76160000
_cell_length_c   14.76160000
_cell_angle_alpha   61.62910000
_cell_angle_beta   60.83870000
_cell_angle_gamma   60.83860000
_symmetry_Int_Tables_number   1
_chemical_formula_structural   Zr3H14(C3O2)8
_chemical_formula_sum   'Zr6 H28 C48 O32'
_cell_volume   2271.30195807
_cell_formula_units_Z   2
loop_
 _symmetry_equiv_pos_site_id
 _symmetry_equiv_pos_as_xyz
  1  'x, y, z'
loop_
 _atom_site_type_symbol
 _atom_site_label
 _atom_site_symmetry_multiplicity
 _atom_site_fract_x
 _atom_site_fract_y
 _atom_site_fract_z
 _atom_site_occupancy
 _atom_site_charge
  Zr  Zr1  1  0.877320  0.122000  0.881480  1.0  1.8746
  Zr  Zr2  1  0.119200  0.122000  0.881480  1.0  1.8789
  Zr  Zr3  1  0.877910  0.122070  0.122110  1.0  1.881
  Zr  Zr4  1  0.119220  0.881460  0.121980  1.0  1.8764
  Zr  Zr5  1  0.118830  0.881170  0.881170  1.0  1.9171
  Zr  Zr6  1  0.877340  0.881460  0.121980  1.0  1.8777
  H  H7  1  0.845150  0.422970  0.588150  1.0  0.1366
  H  H8  1  0.419820  0.592180  0.140900  1.0  0.1321
  H  H9  1  0.712480  0.096240  0.096280  1.0  0.3728
  H  H10  1  0.847070  0.140850  0.592210  1.0  0.1346
  H  H11  1  0.091760  0.095600  0.720880  1.0  0.3424
  H  H12  1  0.137150  0.848590  0.423130  1.0  0.1302
  H  H13  1  0.428790  0.125410  0.841090  1.0  0.1281
  H  H14  1  0.422650  0.847010  0.595150  1.0  0.1357
  H  H15  1  0.588310  0.420290  0.142450  1.0  0.1333
  H  H16  1  0.604710  0.125410  0.841090  1.0  0.1309
  H  H17  1  0.419870  0.140850  0.592210  1.0  0.1336
  H  H18  1  0.135070  0.595210  0.846910  1.0  0.1325
  H  H19  1  0.845130  0.588150  0.422990  1.0  0.1353
  H  H20  1  0.591130  0.848590  0.423130  1.0  0.1303
  H  H21  1  0.604740  0.841100  0.125360  1.0  0.1279
  H  H22  1  0.422810  0.595210  0.846910  1.0  0.131
  H  H23  1  0.095000  0.096240  0.096280  1.0  0.371
  H  H24  1  0.847100  0.592180  0.140900  1.0  0.1302
  H  H25  1  0.143730  0.422970  0.588150  1.0  0.1354
  H  H26  1  0.588370  0.142370  0.420310  1.0  0.1347
  H  H27  1  0.848950  0.420290  0.142450  1.0  0.1323
  H  H28  1  0.591270  0.423190  0.848530  1.0  0.1311
  H  H29  1  0.091770  0.720890  0.095570  1.0  0.3467
  H  H30  1  0.143730  0.588150  0.422990  1.0  0.1367
  H  H31  1  0.428800  0.841100  0.125360  1.0  0.1305
  H  H32  1  0.135190  0.847010  0.595150  1.0  0.1317
  H  H33  1  0.848950  0.142370  0.420310  1.0  0.1331
  H  H34  1  0.137010  0.423190  0.848530  1.0  0.1306
  C  C35  1  0.909990  0.554450  0.077270  1.0  -0.0673
  C  C36  1  0.911080  0.459440  0.078200  1.0  -0.0753
  C  C37  1  0.909990  0.077250  0.554450  1.0  -0.0744
  C  C38  1  0.995560  0.310060  0.698820  1.0  0.6862
  C  C39  1  0.469240  0.901820  0.063780  1.0  -0.0757
  C  C40  1  0.458290  0.554450  0.077270  1.0  -0.0713
  C  C41  1  0.993580  0.995940  0.411960  1.0  -0.0846
  C  C42  1  0.994590  0.599510  0.411310  1.0  -0.0767
  C  C43  1  0.420580  0.984520  0.984500  1.0  -0.0782
  C  C44  1  0.910680  0.551860  0.459280  1.0  -0.0674
  C  C45  1  0.552940  0.461040  0.912020  1.0  -0.0591
  C  C46  1  0.910680  0.459280  0.551860  1.0  -0.0634
  C  C47  1  0.565150  0.063790  0.901810  1.0  -0.0764
  C  C48  1  0.411810  0.994110  0.602770  1.0  -0.078
  C  C49  1  0.994590  0.411310  0.599510  1.0  -0.0789
  C  C50  1  0.072880  0.556100  0.911100  1.0  -0.066
  C  C51  1  0.552860  0.912060  0.461000  1.0  -0.0623
  C  C52  1  0.565160  0.901820  0.063780  1.0  -0.0745
  C  C53  1  0.996460  0.998860  0.308280  1.0  0.6775
  C  C54  1  0.992430  0.702610  0.995510  1.0  0.6823
  C  C55  1  0.551280  0.459440  0.078200  1.0  -0.0753
  C  C56  1  0.078180  0.551860  0.459280  1.0  -0.064
  C  C57  1  0.992420  0.995540  0.702620  1.0  0.6813
  C  C58  1  0.309420  0.995540  0.702620  1.0  0.6776
  C  C59  1  0.991290  0.602790  0.994070  1.0  -0.0825
  C  C60  1  0.074080  0.912060  0.461000  1.0  -0.0651
  C  C61  1  0.309450  0.702610  0.995510  1.0  0.6975
  C  C62  1  0.411850  0.602790  0.994070  1.0  -0.0855
  C  C63  1  0.551300  0.078160  0.459440  1.0  -0.0885
  C  C64  1  0.074000  0.461040  0.912020  1.0  -0.0606
  C  C65  1  0.311120  0.992480  0.992460  1.0  0.6868
  C  C66  1  0.610400  0.984520  0.984500  1.0  -0.0778
  C  C67  1  0.911100  0.078160  0.459440  1.0  -0.0742
  C  C68  1  0.469250  0.063790  0.901810  1.0  -0.0794
  C  C69  1  0.996430  0.308270  0.998890  1.0  0.6726
  C  C70  1  0.078180  0.459280  0.551860  1.0  -0.0636
  C  C71  1  0.993520  0.411960  0.995980  1.0  -0.0881
  C  C72  1  0.995570  0.698810  0.310050  1.0  0.689
  C  C73  1  0.458310  0.077250  0.554450  1.0  -0.0776
  C  C74  1  0.459820  0.911140  0.556080  1.0  -0.0641
  C  C75  1  0.703940  0.992480  0.992460  1.0  0.6842
  C  C76  1  0.696400  0.998860  0.308280  1.0  0.6725
  C  C77  1  0.696410  0.308270  0.998890  1.0  0.6743
  C  C78  1  0.072960  0.911140  0.556080  1.0  -0.0677
  C  C79  1  0.598540  0.411960  0.995980  1.0  -0.0885
  C  C80  1  0.459920  0.556120  0.911080  1.0  -0.0672
  C  C81  1  0.598520  0.995940  0.411960  1.0  -0.0848
  C  C82  1  0.991310  0.994110  0.602770  1.0  -0.0862
  O  O83  1  0.917560  0.737440  0.269740  1.0  -0.6212
  O  O84  1  0.268510  0.740910  0.073810  1.0  -0.5987
  O  O85  1  0.075340  0.923640  0.266580  1.0  -0.601
  O  O86  1  0.734500  0.077320  0.267200  1.0  -0.5994
  O  O87  1  0.075260  0.737420  0.269760  1.0  -0.621
  O  O88  1  0.916770  0.740910  0.073810  1.0  -0.5978
  O  O89  1  0.268220  0.741800  0.919660  1.0  -0.6052
  O  O90  1  0.734440  0.923640  0.266580  1.0  -0.6008
  O  O91  1  0.067320  0.069040  0.069060  1.0  -0.8616
  O  O92  1  0.739310  0.921430  0.072030  1.0  -0.6073
  O  O93  1  0.146510  0.952770  0.952790  1.0  -0.8259
  O  O94  1  0.734490  0.266550  0.923670  1.0  -0.6018
  O  O95  1  0.065690  0.800250  0.068370  1.0  -0.9384
  O  O96  1  0.916750  0.073810  0.740930  1.0  -0.6005
  O  O97  1  0.739290  0.072050  0.921450  1.0  -0.6087
  O  O98  1  0.917550  0.269750  0.737450  1.0  -0.6221
  O  O99  1  0.794580  0.069040  0.069060  1.0  -0.8604
  O  O100  1  0.947930  0.952770  0.952790  1.0  -0.8244
  O  O101  1  0.268200  0.919680  0.741800  1.0  -0.5985
  O  O102  1  0.065680  0.068380  0.800260  1.0  -0.9403
  O  O103  1  0.267210  0.072050  0.921450  1.0  -0.6088
  O  O104  1  0.070320  0.741800  0.919660  1.0  -0.6052
  O  O105  1  0.075250  0.269750  0.737450  1.0  -0.6237
  O  O106  1  0.070320  0.919680  0.741800  1.0  -0.6039
  O  O107  1  0.267240  0.921440  0.072020  1.0  -0.6078
  O  O108  1  0.734480  0.267180  0.077380  1.0  -0.6007
  O  O109  1  0.268510  0.073810  0.740930  1.0  -0.5994
  O  O110  1  0.920960  0.267180  0.077380  1.0  -0.5956
  O  O111  1  0.920980  0.077320  0.267200  1.0  -0.5951
  O  O112  1  0.075290  0.266550  0.923670  1.0  -0.6013
  O  O113  1  0.947850  0.151310  0.952990  1.0  -0.8267
  O  O114  1  0.947860  0.952980  0.151300  1.0  -0.8256
