# generated using pymatgen
data_Zr3H14(C3O2)8
_symmetry_space_group_name_H-M   'P 1'
_cell_length_a   14.75470000
_cell_length_b   14.75470000
_cell_length_c   14.75470000
_cell_angle_alpha   60.00000000
_cell_angle_beta   60.00000000
_cell_angle_gamma   60.00000000
_symmetry_Int_Tables_number   1
_chemical_formula_structural   Zr3H14(C3O2)8
_chemical_formula_sum   'Zr6 H28 C48 O32'
_cell_volume   2271.30864057
_cell_formula_units_Z   2
loop_
 _symmetry_equiv_pos_site_id
 _symmetry_equiv_pos_as_xyz
  1  'x, y, z'
loop_
 _atom_site_type_symbol
 _atom_site_label
 _atom_site_symmetry_multiplicity
 _atom_site_fract_x
 _atom_site_fract_y
 _atom_site_fract_z
 _atom_site_occupancy
 _atom_site_charge
  Zr  Zr1  1  0.879560  0.120440  0.879560  1.0  1.8775
  Zr  Zr2  1  0.120440  0.120440  0.879560  1.0  1.8766
  Zr  Zr3  1  0.879560  0.120440  0.120440  1.0  1.8767
  Zr  Zr4  1  0.879560  0.879560  0.120440  1.0  1.8825
  Zr  Zr5  1  0.120440  0.879560  0.879560  1.0  1.8758
  Zr  Zr6  1  0.120440  0.879560  0.120440  1.0  1.8743
  H  H7  1  0.577910  0.152950  0.861670  1.0  0.1338
  H  H8  1  0.861660  0.407460  0.577920  1.0  0.1325
  H  H9  1  0.905580  0.905580  0.283240  1.0  0.3559
  H  H10  1  0.861670  0.152950  0.407450  1.0  0.1295
  H  H11  1  0.577920  0.152940  0.407460  1.0  0.1334
  H  H12  1  0.152940  0.407460  0.861660  1.0  0.1303
  H  H13  1  0.577920  0.861660  0.152940  1.0  0.1296
  H  H14  1  0.861660  0.577920  0.152940  1.0  0.1269
  H  H15  1  0.861660  0.577920  0.407460  1.0  0.1286
  H  H16  1  0.283250  0.905590  0.905570  1.0  0.3577
  H  H17  1  0.152940  0.861680  0.407460  1.0  0.1285
  H  H18  1  0.577920  0.861660  0.407460  1.0  0.1316
  H  H19  1  0.152940  0.861680  0.577920  1.0  0.1276
  H  H20  1  0.905580  0.905580  0.905580  1.0  0.3561
  H  H21  1  0.152940  0.407460  0.577920  1.0  0.1292
  H  H22  1  0.407450  0.152950  0.861670  1.0  0.1302
  H  H23  1  0.407460  0.577920  0.861660  1.0  0.1317
  H  H24  1  0.407460  0.152940  0.577920  1.0  0.1314
  H  H25  1  0.905590  0.283250  0.905570  1.0  0.3609
  H  H26  1  0.152940  0.577920  0.407460  1.0  0.1308
  H  H27  1  0.861670  0.152950  0.577910  1.0  0.1311
  H  H28  1  0.152940  0.577920  0.861660  1.0  0.1334
  H  H29  1  0.861660  0.407460  0.152940  1.0  0.1309
  H  H30  1  0.407460  0.861680  0.152940  1.0  0.1336
  H  H31  1  0.407460  0.861680  0.577920  1.0  0.1316
  H  H32  1  0.577920  0.407460  0.152940  1.0  0.1306
  H  H33  1  0.407460  0.577920  0.152940  1.0  0.1309
  H  H34  1  0.577920  0.407460  0.861660  1.0  0.1296
  C  C35  1  0.300020  0.004540  0.690900  1.0  0.6778
  C  C36  1  0.445560  0.539700  0.089740  1.0  -0.0702
  C  C37  1  0.539700  0.089740  0.445580  1.0  -0.0638
  C  C38  1  0.004540  0.300020  0.004540  1.0  0.6808
  C  C39  1  0.006920  0.398640  0.587540  1.0  -0.0866
  C  C40  1  0.004540  0.690900  0.004540  1.0  0.6823
  C  C41  1  0.925000  0.539700  0.089740  1.0  -0.0738
  C  C42  1  0.539700  0.089740  0.925000  1.0  -0.0722
  C  C43  1  0.004540  0.690900  0.300020  1.0  0.6745
  C  C44  1  0.539700  0.445580  0.925000  1.0  -0.0754
  C  C45  1  0.690900  0.004540  0.004540  1.0  0.6773
  C  C46  1  0.925000  0.539700  0.445580  1.0  -0.0763
  C  C47  1  0.300020  0.690900  0.004540  1.0  0.6778
  C  C48  1  0.587540  0.398640  0.006920  1.0  -0.0874
  C  C49  1  0.089740  0.539700  0.445580  1.0  -0.0631
  C  C50  1  0.089740  0.539700  0.925000  1.0  -0.0796
  C  C51  1  0.398650  0.006910  0.006910  1.0  -0.0864
  C  C52  1  0.690900  0.300020  0.004540  1.0  0.6835
  C  C53  1  0.398640  0.006920  0.587540  1.0  -0.088
  C  C54  1  0.587540  0.006920  0.398640  1.0  -0.0879
  C  C55  1  0.004540  0.300020  0.690900  1.0  0.6985
  C  C56  1  0.006920  0.587540  0.398640  1.0  -0.0867
  C  C57  1  0.006910  0.587550  0.006910  1.0  -0.0874
  C  C58  1  0.690900  0.004540  0.300020  1.0  0.6771
  C  C59  1  0.089740  0.925000  0.539700  1.0  -0.082
  C  C60  1  0.398640  0.587540  0.006920  1.0  -0.088
  C  C61  1  0.925000  0.445580  0.089740  1.0  -0.0676
  C  C62  1  0.445560  0.089740  0.539700  1.0  -0.0717
  C  C63  1  0.925000  0.445580  0.539700  1.0  -0.0779
  C  C64  1  0.089740  0.445580  0.925000  1.0  -0.0744
  C  C65  1  0.089740  0.445580  0.539700  1.0  -0.0634
  C  C66  1  0.925000  0.089740  0.539700  1.0  -0.0812
  C  C67  1  0.445560  0.539700  0.925000  1.0  -0.073
  C  C68  1  0.587550  0.006910  0.006910  1.0  -0.0881
  C  C69  1  0.006910  0.006910  0.398650  1.0  -0.0915
  C  C70  1  0.925000  0.089740  0.445560  1.0  -0.0851
  C  C71  1  0.539700  0.925000  0.445580  1.0  -0.0733
  C  C72  1  0.004540  0.004540  0.300020  1.0  0.6804
  C  C73  1  0.539700  0.445580  0.089740  1.0  -0.0574
  C  C74  1  0.006910  0.006910  0.587550  1.0  -0.0873
  C  C75  1  0.539700  0.925000  0.089740  1.0  -0.0748
  C  C76  1  0.445560  0.925000  0.089740  1.0  -0.0725
  C  C77  1  0.445560  0.925000  0.539700  1.0  -0.0722
  C  C78  1  0.300020  0.004540  0.004540  1.0  0.6808
  C  C79  1  0.006910  0.398650  0.006910  1.0  -0.0896
  C  C80  1  0.004540  0.004540  0.690900  1.0  0.6815
  C  C81  1  0.445560  0.089740  0.925000  1.0  -0.0794
  C  C82  1  0.089740  0.925000  0.445580  1.0  -0.0729
  O  O83  1  0.261740  0.732280  0.080000  1.0  -0.5901
  O  O84  1  0.932490  0.202530  0.932490  1.0  -0.8847
  O  O85  1  0.080000  0.261740  0.732280  1.0  -0.5981
  O  O86  1  0.925980  0.080000  0.261740  1.0  -0.6009
  O  O87  1  0.261740  0.080000  0.732280  1.0  -0.5985
  O  O88  1  0.049640  0.049640  0.851080  1.0  -0.8256
  O  O89  1  0.925980  0.261740  0.732280  1.0  -0.5971
  O  O90  1  0.732280  0.261740  0.080000  1.0  -0.597
  O  O91  1  0.261740  0.925980  0.080000  1.0  -0.5898
  O  O92  1  0.049640  0.049640  0.049660  1.0  -0.8249
  O  O93  1  0.261740  0.732280  0.925980  1.0  -0.6002
  O  O94  1  0.732280  0.925980  0.080000  1.0  -0.5998
  O  O95  1  0.925980  0.261740  0.080000  1.0  -0.6006
  O  O96  1  0.080000  0.925980  0.261740  1.0  -0.5928
  O  O97  1  0.932490  0.932490  0.202530  1.0  -0.8849
  O  O98  1  0.080000  0.732280  0.261740  1.0  -0.5905
  O  O99  1  0.080000  0.925980  0.732280  1.0  -0.6016
  O  O100  1  0.732280  0.080000  0.261740  1.0  -0.5972
  O  O101  1  0.932490  0.932490  0.932490  1.0  -0.8865
  O  O102  1  0.080000  0.261740  0.925980  1.0  -0.6023
  O  O103  1  0.732280  0.080000  0.925980  1.0  -0.602
  O  O104  1  0.851070  0.049650  0.049650  1.0  -0.8251
  O  O105  1  0.261740  0.925980  0.732280  1.0  -0.6024
  O  O106  1  0.925980  0.732280  0.261740  1.0  -0.5898
  O  O107  1  0.732280  0.925980  0.261740  1.0  -0.5921
  O  O108  1  0.261740  0.080000  0.925980  1.0  -0.6013
  O  O109  1  0.732280  0.261740  0.925980  1.0  -0.5996
  O  O110  1  0.202530  0.932490  0.932490  1.0  -0.8859
  O  O111  1  0.925980  0.080000  0.732280  1.0  -0.6029
  O  O112  1  0.049650  0.851070  0.049650  1.0  -0.8285
  O  O113  1  0.925980  0.732280  0.080000  1.0  -0.5982
  O  O114  1  0.080000  0.732280  0.925980  1.0  -0.6051
