# generated using pymatgen
data_Cu3H4(C5O4)4
_symmetry_space_group_name_H-M   'P 1'
_cell_length_a   7.99730000
_cell_length_b   9.77430000
_cell_length_c   10.86270000
_cell_angle_alpha   87.19400000
_cell_angle_beta   84.67900000
_cell_angle_gamma   74.74400000
_symmetry_Int_Tables_number   1
_chemical_formula_structural   Cu3H4(C5O4)4
_chemical_formula_sum   'Cu3 H4 C20 O16'
_cell_volume   815.39604619
_cell_formula_units_Z   1
loop_
 _symmetry_equiv_pos_site_id
 _symmetry_equiv_pos_as_xyz
  1  'x, y, z'
loop_
 _atom_site_type_symbol
 _atom_site_label
 _atom_site_symmetry_multiplicity
 _atom_site_fract_x
 _atom_site_fract_y
 _atom_site_fract_z
 _atom_site_occupancy
 _atom_site_charge
  Cu  Cu1  1  0.877130  0.929440  0.013040  1.0  0.945
  Cu  Cu2  1  0.122870  0.070560  0.986960  1.0  0.9446
  Cu  Cu3  1  0.500000  0.500000  0.500000  1.0  0.6404
  H  H4  1  0.822400  0.182000  0.628600  1.0  0.1599
  H  H5  1  0.215900  0.512800  0.966100  1.0  0.1567
  H  H6  1  0.177600  0.818000  0.371400  1.0  0.1587
  H  H7  1  0.784100  0.487200  0.033900  1.0  0.156
  C  C8  1  0.014400  0.987600  0.627900  1.0  -0.0433
  C  C9  1  0.116300  0.882000  0.549900  1.0  -0.1165
  C  C10  1  0.899600  0.103800  0.577300  1.0  -0.0473
  C  C11  1  0.020900  0.984000  0.766600  1.0  0.7461
  C  C12  1  0.248600  0.754900  0.597200  1.0  0.7307
  C  C13  1  0.375200  0.630800  0.008600  1.0  -0.0747
  C  C14  1  0.548700  0.621900  0.028100  1.0  -0.0298
  C  C15  1  0.328600  0.508600  0.981800  1.0  0.0287
  C  C16  1  0.237700  0.770100  0.010300  1.0  0.7211
  C  C17  1  0.608400  0.744700  0.071600  1.0  0.7499
  C  C18  1  0.985600  0.012400  0.372100  1.0  -0.0442
  C  C19  1  0.883700  0.118000  0.450100  1.0  -0.1105
  C  C20  1  0.100400  0.896200  0.422700  1.0  -0.0482
  C  C21  1  0.979100  0.016000  0.233400  1.0  0.7452
  C  C22  1  0.751400  0.245100  0.402800  1.0  0.7291
  C  C23  1  0.624800  0.369200  0.991400  1.0  -0.0728
  C  C24  1  0.451300  0.378100  0.971900  1.0  -0.0297
  C  C25  1  0.671400  0.491400  0.018200  1.0  0.0312
  C  C26  1  0.762300  0.229900  0.989700  1.0  0.7215
  C  C27  1  0.391600  0.255300  0.928400  1.0  0.752
  O  O28  1  0.910900  0.933000  0.829900  1.0  -0.5252
  O  O29  1  0.125800  0.044100  0.807500  1.0  -0.5305
  O  O30  1  0.355100  0.689900  0.513000  1.0  -0.5624
  O  O31  1  0.248600  0.727000  0.709700  1.0  -0.4697
  O  O32  1  0.081800  0.765500  0.023400  1.0  -0.5335
  O  O33  1  0.289600  0.881900  0.995600  1.0  -0.5252
  O  O34  1  0.566800  0.778300  0.181000  1.0  -0.5049
  O  O35  1  0.703000  0.798900  0.994800  1.0  -0.5969
  O  O36  1  0.089100  0.067000  0.170100  1.0  -0.5251
  O  O37  1  0.874200  0.955900  0.192500  1.0  -0.5319
  O  O38  1  0.644900  0.310100  0.487000  1.0  -0.5639
  O  O39  1  0.751400  0.273000  0.290300  1.0  -0.4699
  O  O40  1  0.918200  0.234500  0.976600  1.0  -0.5337
  O  O41  1  0.710400  0.118100  0.004400  1.0  -0.5244
  O  O42  1  0.433200  0.221700  0.819000  1.0  -0.5063
  O  O43  1  0.297000  0.201100  0.005200  1.0  -0.5965
