# generated using pymatgen
data_Eu2H9C24(NO6)3
_symmetry_space_group_name_H-M   'P 1'
_cell_length_a   13.68610000
_cell_length_b   13.68610000
_cell_length_c   16.38300000
_cell_angle_alpha   67.07070000
_cell_angle_beta   67.07070000
_cell_angle_gamma   75.64970000
_symmetry_Int_Tables_number   1
_chemical_formula_structural   Eu2H9C24(NO6)3
_chemical_formula_sum   'Eu4 H18 C48 N6 O36'
_cell_volume   2586.16270316
_cell_formula_units_Z   2
loop_
 _symmetry_equiv_pos_site_id
 _symmetry_equiv_pos_as_xyz
  1  'x, y, z'
loop_
 _atom_site_type_symbol
 _atom_site_label
 _atom_site_symmetry_multiplicity
 _atom_site_fract_x
 _atom_site_fract_y
 _atom_site_fract_z
 _atom_site_occupancy
 _atom_site_charge
  Eu  Eu1  1  0.832370  0.545860  0.501840  1.0  2.1312
  Eu  Eu2  1  0.454140  0.167630  0.998160  1.0  2.1309
  Eu  Eu3  1  0.167630  0.454140  0.498160  1.0  2.1331
  Eu  Eu4  1  0.545860  0.832370  0.001840  1.0  2.1317
  H  H5  1  0.223500  0.338500  0.243000  1.0  0.1156
  H  H6  1  0.081700  0.345900  0.066900  1.0  0.1249
  H  H7  1  0.913500  0.453300  0.284700  1.0  0.1224
  H  H8  1  0.080000  0.128000  0.652800  1.0  0.1242
  H  H9  1  0.661500  0.776500  0.257000  1.0  0.1162
  H  H10  1  0.654100  0.918300  0.433100  1.0  0.1253
  H  H11  1  0.546700  0.086500  0.215300  1.0  0.1232
  H  H12  1  0.872000  0.920000  0.847200  1.0  0.1248
  H  H13  1  0.776500  0.661500  0.757000  1.0  0.1158
  H  H14  1  0.918300  0.654100  0.933100  1.0  0.125
  H  H15  1  0.086500  0.546700  0.715300  1.0  0.1233
  H  H16  1  0.920000  0.872000  0.347200  1.0  0.125
  H  H17  1  0.338500  0.223500  0.743000  1.0  0.1159
  H  H18  1  0.345900  0.081700  0.566900  1.0  0.125
  H  H19  1  0.453300  0.913500  0.784700  1.0  0.1234
  H  H20  1  0.128000  0.080000  0.152800  1.0  0.1244
  H  H21  1  0.769000  0.231000  0.750000  1.0  0.1172
  H  H22  1  0.231000  0.769000  0.250000  1.0  0.117
  C  C23  1  0.063730  0.427510  0.359300  1.0  0.8112
  C  C24  1  0.269280  0.280900  0.092100  1.0  0.6803
  C  C25  1  0.068420  0.401300  0.276500  1.0  -0.1634
  C  C26  1  0.163250  0.355050  0.224900  1.0  0.0393
  C  C27  1  0.168750  0.333390  0.146900  1.0  -0.1249
  C  C28  1  0.078800  0.358200  0.119800  1.0  -0.0034
  C  C29  1  0.985330  0.401350  0.172700  1.0  -0.0264
  C  C30  1  0.977740  0.423800  0.250600  1.0  -0.0144
  C  C31  1  0.950610  0.308250  0.622600  1.0  0.8198
  C  C32  1  0.010330  0.114850  0.690800  1.0  -0.0174
  C  C33  1  0.927110  0.196770  0.689600  1.0  -0.16
  C  C34  1  0.572490  0.936270  0.140700  1.0  0.8099
  C  C35  1  0.719100  0.730720  0.407900  1.0  0.6829
  C  C36  1  0.598700  0.931580  0.223500  1.0  -0.1628
  C  C37  1  0.644950  0.836750  0.275100  1.0  0.0394
  C  C38  1  0.666667  0.831250  0.353100  1.0  -0.1238
  C  C39  1  0.641800  0.921200  0.380200  1.0  -0.0064
  C  C40  1  0.598650  0.014670  0.327300  1.0  -0.0255
  C  C41  1  0.576200  0.022260  0.249400  1.0  -0.0125
  C  C42  1  0.691750  0.049390  0.877400  1.0  0.8209
  C  C43  1  0.885150  0.989670  0.809200  1.0  -0.0167
  C  C44  1  0.803230  0.072890  0.810400  1.0  -0.1615
  C  C45  1  0.936270  0.572490  0.640700  1.0  0.809
  C  C46  1  0.730720  0.719100  0.907900  1.0  0.6823
  C  C47  1  0.931580  0.598700  0.723500  1.0  -0.1629
  C  C48  1  0.836750  0.644950  0.775100  1.0  0.0377
  C  C49  1  0.831250  0.666667  0.853100  1.0  -0.123
  C  C50  1  0.921200  0.641800  0.880200  1.0  -0.0052
  C  C51  1  0.014670  0.598650  0.827300  1.0  -0.0258
  C  C52  1  0.022260  0.576200  0.749400  1.0  -0.0137
  C  C53  1  0.049390  0.691750  0.377400  1.0  0.8199
  C  C54  1  0.989670  0.885150  0.309200  1.0  -0.0181
  C  C55  1  0.072890  0.803230  0.310400  1.0  -0.1611
  C  C56  1  0.427510  0.063730  0.859300  1.0  0.8105
  C  C57  1  0.280900  0.269280  0.592100  1.0  0.6819
  C  C58  1  0.401300  0.068420  0.776500  1.0  -0.163
  C  C59  1  0.355050  0.163250  0.724900  1.0  0.0401
  C  C60  1  0.333390  0.168750  0.646900  1.0  -0.125
  C  C61  1  0.358200  0.078800  0.619800  1.0  -0.0056
  C  C62  1  0.401350  0.985330  0.672700  1.0  -0.0255
  C  C63  1  0.423800  0.977740  0.750600  1.0  -0.0121
  C  C64  1  0.308250  0.950610  0.122600  1.0  0.8181
  C  C65  1  0.114850  0.010330  0.190800  1.0  -0.0151
  C  C66  1  0.196770  0.927110  0.189600  1.0  -0.1609
  C  C67  1  0.986700  0.013300  0.750000  1.0  -0.0529
  C  C68  1  0.824400  0.175600  0.750000  1.0  0.0383
  C  C69  1  0.013300  0.986700  0.250000  1.0  -0.0535
  C  C70  1  0.175600  0.824400  0.250000  1.0  0.0384
  N  N71  1  0.889360  0.423200  0.145500  1.0  0.6168
  N  N72  1  0.576800  0.110640  0.354500  1.0  0.6164
  N  N73  1  0.110640  0.576800  0.854500  1.0  0.6192
  N  N74  1  0.423200  0.889360  0.645500  1.0  0.6204
  N  N75  1  0.074700  0.925300  0.750000  1.0  0.614
  N  N76  1  0.925300  0.074700  0.250000  1.0  0.6143
  O  O77  1  0.347340  0.246160  0.122540  1.0  -0.7098
  O  O78  1  0.047170  0.324290  0.585990  1.0  -0.714
  O  O79  1  0.975760  0.468620  0.402280  1.0  -0.8127
  O  O80  1  0.147920  0.407300  0.379080  1.0  -0.6744
  O  O81  1  0.872680  0.375120  0.608920  1.0  -0.7942
  O  O82  1  0.901030  0.422330  0.068160  1.0  -0.372
  O  O83  1  0.271980  0.273140  0.017240  1.0  -0.6538
  O  O84  1  0.802980  0.441760  0.201500  1.0  -0.3578
  O  O85  1  0.051730  0.833850  0.790750  1.0  -0.3557
  O  O86  1  0.753840  0.652660  0.377460  1.0  -0.7093
  O  O87  1  0.675710  0.952830  0.914010  1.0  -0.7132
  O  O88  1  0.531380  0.024240  0.097720  1.0  -0.8136
  O  O89  1  0.592700  0.852080  0.120920  1.0  -0.6689
  O  O90  1  0.624880  0.127320  0.891080  1.0  -0.7889
  O  O91  1  0.577670  0.098970  0.431840  1.0  -0.3706
  O  O92  1  0.726860  0.728020  0.482760  1.0  -0.6549
  O  O93  1  0.558240  0.197020  0.298500  1.0  -0.3554
  O  O94  1  0.166150  0.948270  0.709250  1.0  -0.3539
  O  O95  1  0.652660  0.753840  0.877460  1.0  -0.711
  O  O96  1  0.952830  0.675710  0.414010  1.0  -0.7137
  O  O97  1  0.024240  0.531380  0.597720  1.0  -0.8128
  O  O98  1  0.852080  0.592700  0.620920  1.0  -0.6743
  O  O99  1  0.127320  0.624880  0.391080  1.0  -0.7923
  O  O100  1  0.098970  0.577670  0.931840  1.0  -0.3725
  O  O101  1  0.728020  0.726860  0.982760  1.0  -0.6532
  O  O102  1  0.197020  0.558240  0.798500  1.0  -0.358
  O  O103  1  0.948270  0.166150  0.209250  1.0  -0.355
  O  O104  1  0.246160  0.347340  0.622540  1.0  -0.7128
  O  O105  1  0.324290  0.047170  0.085990  1.0  -0.7149
  O  O106  1  0.468620  0.975760  0.902280  1.0  -0.812
  O  O107  1  0.407300  0.147920  0.879080  1.0  -0.6712
  O  O108  1  0.375120  0.872680  0.108920  1.0  -0.7868
  O  O109  1  0.422330  0.901030  0.568160  1.0  -0.3722
  O  O110  1  0.273140  0.271980  0.517240  1.0  -0.6552
  O  O111  1  0.441760  0.802980  0.701500  1.0  -0.3607
  O  O112  1  0.833850  0.051730  0.290750  1.0  -0.3523
