# generated using pymatgen
data_Cu2H3W6C5N2O17
_symmetry_space_group_name_H-M   'P 1'
_cell_length_a   12.71370000
_cell_length_b   13.33010000
_cell_length_c   13.40340000
_cell_angle_alpha   64.67600000
_cell_angle_beta   61.81000000
_cell_angle_gamma   84.07900000
_symmetry_Int_Tables_number   1
_chemical_formula_structural   Cu2H3W6C5N2O17
_chemical_formula_sum   'Cu4 H6 W12 C10 N4 O34'
_cell_volume   1795.70836592
_cell_formula_units_Z   2
loop_
 _symmetry_equiv_pos_site_id
 _symmetry_equiv_pos_as_xyz
  1  'x, y, z'
loop_
 _atom_site_type_symbol
 _atom_site_label
 _atom_site_symmetry_multiplicity
 _atom_site_fract_x
 _atom_site_fract_y
 _atom_site_fract_z
 _atom_site_occupancy
 _atom_site_charge
  Cu  Cu1  1  0.989000  0.997000  0.009000  1.0  0.8461
  Cu  Cu2  1  0.011000  0.003000  0.991000  1.0  0.8404
  Cu  Cu3  1  0.000000  0.500000  0.500000  1.0  0.7641
  Cu  Cu4  1  0.500000  0.500000  0.000000  1.0  0.803
  H  H5  1  0.933200  0.456500  0.762200  1.0  0.153
  H  H6  1  0.739300  0.517500  0.591000  1.0  0.1767
  H  H7  1  0.765500  0.453700  0.939200  1.0  0.1743
  H  H8  1  0.066800  0.543500  0.237800  1.0  0.1525
  H  H9  1  0.260700  0.482500  0.409000  1.0  0.1763
  H  H10  1  0.234500  0.546300  0.060800  1.0  0.1742
  W  W11  1  0.851690  0.263080  0.544950  1.0  1.3536
  W  W12  1  0.974490  0.742660  0.763130  1.0  1.5139
  W  W13  1  0.825950  0.965260  0.752270  1.0  1.5595
  W  W14  1  0.003820  0.205660  0.701310  1.0  0.7349
  W  W15  1  0.850800  0.016180  0.291840  1.0  1.4564
  W  W16  1  0.827910  0.821730  0.596190  1.0  1.5082
  W  W17  1  0.148310  0.736920  0.455050  1.0  1.3588
  W  W18  1  0.025510  0.257340  0.236870  1.0  1.5222
  W  W19  1  0.174050  0.034740  0.247730  1.0  1.5617
  W  W20  1  0.996180  0.794340  0.298690  1.0  0.7325
  W  W21  1  0.149200  0.983820  0.708160  1.0  1.4565
  W  W22  1  0.172090  0.178270  0.403810  1.0  1.5127
  C  C23  1  0.860500  0.470100  0.760900  1.0  0.1717
  C  C24  1  0.746800  0.506500  0.660600  1.0  0.2184
  C  C25  1  0.647300  0.506600  0.767200  1.0  0.2745
  C  C26  1  0.759600  0.469000  0.867700  1.0  0.1819
  C  C27  1  0.530600  0.529300  0.773700  1.0  0.7529
  C  C28  1  0.139500  0.529900  0.239100  1.0  0.1723
  C  C29  1  0.253200  0.493500  0.339400  1.0  0.215
  C  C30  1  0.352700  0.493400  0.232800  1.0  0.2756
  C  C31  1  0.240400  0.531000  0.132300  1.0  0.1839
  C  C32  1  0.469400  0.470700  0.226300  1.0  0.7535
  N  N33  1  0.855600  0.490100  0.658400  1.0  -0.2518
  N  N34  1  0.654400  0.489700  0.867600  1.0  -0.249
  N  N35  1  0.144400  0.509900  0.341600  1.0  -0.2516
  N  N36  1  0.345600  0.510300  0.132400  1.0  -0.2491
  O  O37  1  0.908000  0.407700  0.483100  1.0  -0.7047
  O  O38  1  0.826500  0.088100  0.620300  1.0  -0.688
  O  O39  1  0.863900  0.699400  0.731800  1.0  -0.6998
  O  O40  1  0.835200  0.958500  0.472500  1.0  -0.6672
  O  O41  1  0.739300  0.871800  0.728900  1.0  -0.6453
  O  O42  1  0.862900  0.814400  0.856500  1.0  -0.6455
  O  O43  1  0.036000  0.219700  0.515400  1.0  -0.7994
  O  O44  1  0.099900  0.842000  0.735600  1.0  -0.7665
  O  O45  1  0.846600  0.855100  0.340900  1.0  -0.6516
  O  O46  1  0.960700  0.026300  0.742700  1.0  -0.7635
  O  O47  1  0.960600  0.901700  0.616000  1.0  -0.9379
  O  O48  1  0.852100  0.225200  0.703500  1.0  -0.6309
  O  O49  1  0.895700  0.264400  0.388300  1.0  -0.7255
  O  O50  1  0.899200  0.044900  0.131200  1.0  -0.7978
  O  O51  1  0.450600  0.537700  0.873600  1.0  -0.4863
  O  O52  1  0.514500  0.550000  0.680900  1.0  -0.4106
  O  O53  1  0.858800  0.910000  0.037700  1.0  -0.3423
  O  O54  1  0.092000  0.592300  0.516900  1.0  -0.7041
  O  O55  1  0.173500  0.911900  0.379700  1.0  -0.6852
  O  O56  1  0.136100  0.300600  0.268200  1.0  -0.6988
  O  O57  1  0.164800  0.041500  0.527500  1.0  -0.6665
  O  O58  1  0.260700  0.128200  0.271100  1.0  -0.6455
  O  O59  1  0.137100  0.185600  0.143500  1.0  -0.6471
  O  O60  1  0.964000  0.780300  0.484600  1.0  -0.8001
  O  O61  1  0.900100  0.158000  0.264400  1.0  -0.7729
  O  O62  1  0.153400  0.144900  0.659100  1.0  -0.6528
  O  O63  1  0.039300  0.973700  0.257300  1.0  -0.763
  O  O64  1  0.039400  0.098300  0.384000  1.0  -0.9389
  O  O65  1  0.147900  0.774800  0.296500  1.0  -0.6332
  O  O66  1  0.104300  0.735600  0.611700  1.0  -0.7239
  O  O67  1  0.100800  0.955100  0.868800  1.0  -0.7956
  O  O68  1  0.549400  0.462300  0.126400  1.0  -0.4896
  O  O69  1  0.485500  0.450000  0.319100  1.0  -0.4059
  O  O70  1  0.141200  0.090000  0.962300  1.0  -0.3434
