# generated using pymatgen
data_Pr2H9C24(NO6)3
_symmetry_space_group_name_H-M   'P 1'
_cell_length_a   13.78660000
_cell_length_b   13.78660000
_cell_length_c   16.52200000
_cell_angle_alpha   67.08740000
_cell_angle_beta   67.08740000
_cell_angle_gamma   75.50610000
_symmetry_Int_Tables_number   1
_chemical_formula_structural   Pr2H9C24(NO6)3
_chemical_formula_sum   'Pr4 H18 C48 N6 O36'
_cell_volume   2646.25343481
_cell_formula_units_Z   2
loop_
 _symmetry_equiv_pos_site_id
 _symmetry_equiv_pos_as_xyz
  1  'x, y, z'
loop_
 _atom_site_type_symbol
 _atom_site_label
 _atom_site_symmetry_multiplicity
 _atom_site_fract_x
 _atom_site_fract_y
 _atom_site_fract_z
 _atom_site_occupancy
 _atom_site_charge
  Pr  Pr1  1  0.831580  0.546000  0.502540  1.0  2.1489
  Pr  Pr2  1  0.454000  0.168420  0.997460  1.0  2.1497
  Pr  Pr3  1  0.168420  0.454000  0.497460  1.0  2.1514
  Pr  Pr4  1  0.546000  0.831580  0.002540  1.0  2.1512
  H  H5  1  0.913300  0.452100  0.286000  1.0  0.1149
  H  H6  1  0.078000  0.347600  0.068000  1.0  0.1224
  H  H7  1  0.222200  0.340600  0.240500  1.0  0.1159
  H  H8  1  0.920100  0.874300  0.346700  1.0  0.1246
  H  H9  1  0.547900  0.086700  0.214000  1.0  0.116
  H  H10  1  0.652400  0.922000  0.432000  1.0  0.1226
  H  H11  1  0.659400  0.777800  0.259500  1.0  0.1164
  H  H12  1  0.125700  0.079900  0.153300  1.0  0.124
  H  H13  1  0.086700  0.547900  0.714000  1.0  0.1159
  H  H14  1  0.922000  0.652400  0.932000  1.0  0.1224
  H  H15  1  0.777800  0.659400  0.759500  1.0  0.116
  H  H16  1  0.079900  0.125700  0.653300  1.0  0.1247
  H  H17  1  0.452100  0.913300  0.786000  1.0  0.1167
  H  H18  1  0.347600  0.078000  0.568000  1.0  0.1223
  H  H19  1  0.340600  0.222200  0.740500  1.0  0.1162
  H  H20  1  0.874300  0.920100  0.846700  1.0  0.1243
  H  H21  1  0.229100  0.770900  0.250000  1.0  0.1132
  H  H22  1  0.770900  0.229100  0.750000  1.0  0.1135
  C  C23  1  0.065800  0.425800  0.358100  1.0  0.8029
  C  C24  1  0.067900  0.402300  0.275700  1.0  -0.1745
  C  C25  1  0.977000  0.423800  0.251200  1.0  -0.0011
  C  C26  1  0.982800  0.402400  0.174200  1.0  -0.0308
  C  C27  1  0.076000  0.360000  0.120100  1.0  0.0161
  C  C28  1  0.166400  0.336600  0.145800  1.0  -0.1314
  C  C29  1  0.161900  0.357100  0.223200  1.0  0.027
  C  C30  1  0.266000  0.285400  0.089900  1.0  0.6766
  C  C31  1  0.049400  0.694000  0.376000  1.0  0.8076
  C  C32  1  0.071400  0.805200  0.310400  1.0  -0.1613
  C  C33  1  0.989300  0.887100  0.308800  1.0  0.0043
  C  C34  1  0.574200  0.934200  0.141900  1.0  0.803
  C  C35  1  0.597700  0.932100  0.224300  1.0  -0.1737
  C  C36  1  0.576200  0.023000  0.248800  1.0  0.0004
  C  C37  1  0.597600  0.017200  0.325800  1.0  -0.0304
  C  C38  1  0.640000  0.924000  0.379900  1.0  0.0165
  C  C39  1  0.663400  0.833600  0.354200  1.0  -0.1322
  C  C40  1  0.642900  0.838100  0.276800  1.0  0.0257
  C  C41  1  0.714600  0.734000  0.410100  1.0  0.6771
  C  C42  1  0.306000  0.950600  0.124000  1.0  0.8071
  C  C43  1  0.194800  0.928600  0.189600  1.0  -0.1617
  C  C44  1  0.112900  0.010700  0.191200  1.0  0.0062
  C  C45  1  0.934200  0.574200  0.641900  1.0  0.8033
  C  C46  1  0.932100  0.597700  0.724300  1.0  -0.1738
  C  C47  1  0.023000  0.576200  0.748800  1.0  -0.001
  C  C48  1  0.017200  0.597600  0.825800  1.0  -0.0311
  C  C49  1  0.924000  0.640000  0.879900  1.0  0.0165
  C  C50  1  0.833600  0.663400  0.854200  1.0  -0.1312
  C  C51  1  0.838100  0.642900  0.776800  1.0  0.0245
  C  C52  1  0.734000  0.714600  0.910100  1.0  0.6774
  C  C53  1  0.950600  0.306000  0.624000  1.0  0.8071
  C  C54  1  0.928600  0.194800  0.689600  1.0  -0.1598
  C  C55  1  0.010700  0.112900  0.691200  1.0  0.004
  C  C56  1  0.425800  0.065800  0.858100  1.0  0.8038
  C  C57  1  0.402300  0.067900  0.775700  1.0  -0.1741
  C  C58  1  0.423800  0.977000  0.751200  1.0  0.0016
  C  C59  1  0.402400  0.982800  0.674200  1.0  -0.0304
  C  C60  1  0.360000  0.076000  0.620100  1.0  0.0153
  C  C61  1  0.336600  0.166400  0.645800  1.0  -0.131
  C  C62  1  0.357100  0.161900  0.723200  1.0  0.0273
  C  C63  1  0.285400  0.266000  0.589900  1.0  0.6767
  C  C64  1  0.694000  0.049400  0.876000  1.0  0.8084
  C  C65  1  0.805200  0.071400  0.810400  1.0  -0.1625
  C  C66  1  0.887100  0.989300  0.808800  1.0  0.0057
  C  C67  1  0.174000  0.826000  0.250000  1.0  0.0361
  C  C68  1  0.012200  0.987800  0.250000  1.0  -0.0381
  C  C69  1  0.826000  0.174000  0.750000  1.0  0.0359
  C  C70  1  0.987800  0.012200  0.750000  1.0  -0.0376
  N  N71  1  0.887600  0.424400  0.147700  1.0  0.6163
  N  N72  1  0.575600  0.112400  0.352300  1.0  0.6178
  N  N73  1  0.112400  0.575600  0.852300  1.0  0.617
  N  N74  1  0.424400  0.887600  0.647700  1.0  0.6183
  N  N75  1  0.925100  0.074900  0.250000  1.0  0.6012
  N  N76  1  0.074900  0.925100  0.750000  1.0  0.6004
  O  O77  1  0.801600  0.441800  0.205000  1.0  -0.3796
  O  O78  1  0.897400  0.424200  0.071400  1.0  -0.3722
  O  O79  1  0.978690  0.467090  0.402500  1.0  -0.8047
  O  O80  1  0.150330  0.405330  0.375900  1.0  -0.6878
  O  O81  1  0.344600  0.252400  0.120200  1.0  -0.7128
  O  O82  1  0.268300  0.275900  0.017000  1.0  -0.6351
  O  O83  1  0.953710  0.678310  0.412700  1.0  -0.7003
  O  O84  1  0.127030  0.628030  0.388900  1.0  -0.7839
  O  O85  1  0.833100  0.053100  0.290500  1.0  -0.3672
  O  O86  1  0.558200  0.198400  0.295000  1.0  -0.3789
  O  O87  1  0.575800  0.102600  0.428600  1.0  -0.3698
  O  O88  1  0.532910  0.021310  0.097500  1.0  -0.8065
  O  O89  1  0.594670  0.849670  0.124100  1.0  -0.6814
  O  O90  1  0.747600  0.655400  0.379800  1.0  -0.7123
  O  O91  1  0.724100  0.731700  0.483000  1.0  -0.6369
  O  O92  1  0.321690  0.046290  0.087300  1.0  -0.6994
  O  O93  1  0.371970  0.872970  0.111100  1.0  -0.7781
  O  O94  1  0.946900  0.166900  0.209500  1.0  -0.3702
  O  O95  1  0.198400  0.558200  0.795000  1.0  -0.3806
  O  O96  1  0.102600  0.575800  0.928600  1.0  -0.3709
  O  O97  1  0.021310  0.532910  0.597500  1.0  -0.805
  O  O98  1  0.849670  0.594670  0.624100  1.0  -0.6872
  O  O99  1  0.655400  0.747600  0.879800  1.0  -0.7126
  O  O100  1  0.731700  0.724100  0.983000  1.0  -0.6357
  O  O101  1  0.046290  0.321690  0.587300  1.0  -0.7008
  O  O102  1  0.872970  0.371970  0.611100  1.0  -0.786
  O  O103  1  0.166900  0.946900  0.709500  1.0  -0.3687
  O  O104  1  0.441800  0.801600  0.705000  1.0  -0.3805
  O  O105  1  0.424200  0.897400  0.571400  1.0  -0.3708
  O  O106  1  0.467090  0.978690  0.902500  1.0  -0.8044
  O  O107  1  0.405330  0.150330  0.875900  1.0  -0.6819
  O  O108  1  0.252400  0.344600  0.620200  1.0  -0.7131
  O  O109  1  0.275900  0.268300  0.517000  1.0  -0.6359
  O  O110  1  0.678310  0.953710  0.912700  1.0  -0.6993
  O  O111  1  0.628030  0.127030  0.888900  1.0  -0.78
  O  O112  1  0.053100  0.833100  0.790500  1.0  -0.3696
