# generated using pymatgen
data_Sm2H9C24(NO6)3
_symmetry_space_group_name_H-M   'P 1'
_cell_length_a   13.72170000
_cell_length_b   13.72170000
_cell_length_c   16.41990000
_cell_angle_alpha   67.08040000
_cell_angle_beta   67.08040000
_cell_angle_gamma   75.65020000
_symmetry_Int_Tables_number   1
_chemical_formula_structural   Sm2H9C24(NO6)3
_chemical_formula_sum   'Sm4 H18 C48 N6 O36'
_cell_volume   2605.82772291
_cell_formula_units_Z   2
loop_
 _symmetry_equiv_pos_site_id
 _symmetry_equiv_pos_as_xyz
  1  'x, y, z'
loop_
 _atom_site_type_symbol
 _atom_site_label
 _atom_site_symmetry_multiplicity
 _atom_site_fract_x
 _atom_site_fract_y
 _atom_site_fract_z
 _atom_site_occupancy
 _atom_site_charge
  Sm  Sm1  1  0.167440  0.454020  0.998250  1.0  2.2623
  Sm  Sm2  1  0.545980  0.832560  0.501750  1.0  2.2616
  Sm  Sm3  1  0.832560  0.545980  0.001750  1.0  2.2611
  Sm  Sm4  1  0.454020  0.167440  0.498250  1.0  2.2609
  H  H5  1  0.336900  0.221500  0.246000  1.0  0.1134
  H  H6  1  0.453600  0.917200  0.283200  1.0  0.1082
  H  H7  1  0.343900  0.080100  0.070200  1.0  0.1245
  H  H8  1  0.072300  0.124500  0.156100  1.0  0.1204
  H  H9  1  0.778500  0.663100  0.254000  1.0  0.1132
  H  H10  1  0.082800  0.546400  0.216800  1.0  0.1083
  H  H11  1  0.919900  0.656100  0.429800  1.0  0.1247
  H  H12  1  0.875500  0.927700  0.343900  1.0  0.1144
  H  H13  1  0.663100  0.778500  0.754000  1.0  0.1133
  H  H14  1  0.546400  0.082800  0.716800  1.0  0.1082
  H  H15  1  0.656100  0.919900  0.929800  1.0  0.1249
  H  H16  1  0.927700  0.875500  0.843900  1.0  0.12
  H  H17  1  0.221500  0.336900  0.746000  1.0  0.1137
  H  H18  1  0.917200  0.453600  0.783200  1.0  0.1085
  H  H19  1  0.080100  0.343900  0.570200  1.0  0.1245
  H  H20  1  0.124500  0.072300  0.656100  1.0  0.1132
  H  H21  1  0.770200  0.229800  0.250000  1.0  0.1061
  H  H22  1  0.229800  0.770200  0.750000  1.0  0.1049
  C  C23  1  0.427070  0.063710  0.358940  1.0  0.8241
  C  C24  1  0.401340  0.068560  0.276140  1.0  -0.1897
  C  C25  1  0.333450  0.168390  0.147150  1.0  -0.1358
  C  C26  1  0.281300  0.269060  0.092140  1.0  0.6831
  C  C27  1  0.358110  0.078530  0.120040  1.0  0.0124
  C  C28  1  0.926740  0.197040  0.189910  1.0  -0.1838
  C  C29  1  0.950220  0.307760  0.123070  1.0  0.8225
  C  C30  1  0.009710  0.114910  0.191030  1.0  0.0348
  C  C31  1  0.355000  0.162620  0.224980  1.0  0.0002
  C  C32  1  0.423480  0.978060  0.250640  1.0  0.0063
  C  C33  1  0.401210  0.985810  0.172910  1.0  -0.0323
  C  C34  1  0.936290  0.572930  0.141060  1.0  0.8225
  C  C35  1  0.931440  0.598660  0.223860  1.0  -0.1896
  C  C36  1  0.831610  0.666550  0.352850  1.0  -0.1347
  C  C37  1  0.730940  0.718700  0.407860  1.0  0.6839
  C  C38  1  0.921470  0.641890  0.379960  1.0  0.0139
  C  C39  1  0.802960  0.073260  0.310090  1.0  -0.185
  C  C40  1  0.692240  0.049780  0.376930  1.0  0.8233
  C  C41  1  0.885090  0.990290  0.308970  1.0  0.0342
  C  C42  1  0.837380  0.645000  0.275020  1.0  -0.0019
  C  C43  1  0.021940  0.576520  0.249360  1.0  0.0055
  C  C44  1  0.014190  0.598790  0.327090  1.0  -0.0328
  C  C45  1  0.572930  0.936290  0.641060  1.0  0.8233
  C  C46  1  0.598660  0.931440  0.723860  1.0  -0.1899
  C  C47  1  0.666550  0.831610  0.852850  1.0  -0.1358
  C  C48  1  0.718700  0.730940  0.907860  1.0  0.6838
  C  C49  1  0.641890  0.921470  0.879960  1.0  0.0128
  C  C50  1  0.073260  0.802960  0.810090  1.0  -0.1849
  C  C51  1  0.049780  0.692240  0.876930  1.0  0.8222
  C  C52  1  0.990290  0.885090  0.808970  1.0  0.0341
  C  C53  1  0.645000  0.837380  0.775020  1.0  -0.0
  C  C54  1  0.576520  0.021940  0.749360  1.0  0.0053
  C  C55  1  0.598790  0.014190  0.827090  1.0  -0.0322
  C  C56  1  0.063710  0.427070  0.858940  1.0  0.824
  C  C57  1  0.068560  0.401340  0.776140  1.0  -0.1895
  C  C58  1  0.168390  0.333450  0.647150  1.0  -0.1352
  C  C59  1  0.269060  0.281300  0.592140  1.0  0.6819
  C  C60  1  0.078530  0.358110  0.620040  1.0  0.0151
  C  C61  1  0.197040  0.926740  0.689910  1.0  -0.1851
  C  C62  1  0.307760  0.950220  0.623070  1.0  0.8212
  C  C63  1  0.114910  0.009710  0.691030  1.0  0.0329
  C  C64  1  0.162620  0.355000  0.724980  1.0  0.0011
  C  C65  1  0.978060  0.423480  0.750640  1.0  0.0047
  C  C66  1  0.985810  0.401210  0.672910  1.0  -0.0335
  C  C67  1  0.824080  0.175920  0.250000  1.0  0.0843
  C  C68  1  0.986560  0.013440  0.250000  1.0  -0.0707
  C  C69  1  0.175920  0.824080  0.750000  1.0  0.0847
  C  C70  1  0.013440  0.986560  0.750000  1.0  -0.0711
  N  N71  1  0.423510  0.889810  0.145630  1.0  0.6189
  N  N72  1  0.110190  0.576490  0.354370  1.0  0.6178
  N  N73  1  0.576490  0.110190  0.854370  1.0  0.6181
  N  N74  1  0.889810  0.423510  0.645630  1.0  0.6176
  N  N75  1  0.073940  0.926060  0.250000  1.0  0.612
  N  N76  1  0.926060  0.073940  0.750000  1.0  0.6124
  O  O77  1  0.046340  0.323880  0.086720  1.0  -0.7123
  O  O78  1  0.406700  0.148020  0.378790  1.0  -0.7034
  O  O79  1  0.272900  0.271520  0.017790  1.0  -0.6686
  O  O80  1  0.872530  0.374670  0.109430  1.0  -0.8056
  O  O81  1  0.468060  0.976280  0.402280  1.0  -0.8223
  O  O82  1  0.246780  0.346640  0.122860  1.0  -0.7267
  O  O83  1  0.442070  0.803870  0.201430  1.0  -0.3744
  O  O84  1  0.421990  0.901490  0.068740  1.0  -0.3735
  O  O85  1  0.165200  0.948620  0.208800  1.0  -0.3669
  O  O86  1  0.676120  0.953660  0.413280  1.0  -0.7107
  O  O87  1  0.851980  0.593300  0.121210  1.0  -0.7057
  O  O88  1  0.728480  0.727100  0.482210  1.0  -0.6673
  O  O89  1  0.625330  0.127470  0.390570  1.0  -0.8
  O  O90  1  0.023720  0.531940  0.097720  1.0  -0.8239
  O  O91  1  0.653360  0.753220  0.377140  1.0  -0.725
  O  O92  1  0.196130  0.557930  0.298570  1.0  -0.3728
  O  O93  1  0.098510  0.578010  0.431260  1.0  -0.3749
  O  O94  1  0.051380  0.834800  0.291200  1.0  -0.3681
  O  O95  1  0.953660  0.676120  0.913280  1.0  -0.712
  O  O96  1  0.593300  0.851980  0.621210  1.0  -0.7018
  O  O97  1  0.727100  0.728480  0.982210  1.0  -0.6687
  O  O98  1  0.127470  0.625330  0.890570  1.0  -0.805
  O  O99  1  0.531940  0.023720  0.597720  1.0  -0.8235
  O  O100  1  0.753220  0.653360  0.877140  1.0  -0.7219
  O  O101  1  0.557930  0.196130  0.798570  1.0  -0.37
  O  O102  1  0.578010  0.098510  0.931260  1.0  -0.3735
  O  O103  1  0.834800  0.051380  0.791200  1.0  -0.3659
  O  O104  1  0.323880  0.046340  0.586720  1.0  -0.712
  O  O105  1  0.148020  0.406700  0.878790  1.0  -0.7058
  O  O106  1  0.271520  0.272900  0.517790  1.0  -0.6672
  O  O107  1  0.374670  0.872530  0.609430  1.0  -0.8001
  O  O108  1  0.976280  0.468060  0.902280  1.0  -0.8235
  O  O109  1  0.346640  0.246780  0.622860  1.0  -0.7244
  O  O110  1  0.803870  0.442070  0.701430  1.0  -0.3721
  O  O111  1  0.901490  0.421990  0.568740  1.0  -0.3742
  O  O112  1  0.948620  0.165200  0.708800  1.0  -0.3672
