# generated using pymatgen
data_Zn4H24C51(O7F9)2
_symmetry_space_group_name_H-M   'P 1'
_cell_length_a   7.54170000
_cell_length_b   17.88500000
_cell_length_c   23.76400000
_cell_angle_alpha   92.49800000
_cell_angle_beta   90.00000000
_cell_angle_gamma   90.00000000
_symmetry_Int_Tables_number   1
_chemical_formula_structural   Zn4H24C51(O7F9)2
_chemical_formula_sum   'Zn8 H48 C102 O28 F36'
_cell_volume   3202.32092770
_cell_formula_units_Z   2
loop_
 _symmetry_equiv_pos_site_id
 _symmetry_equiv_pos_as_xyz
  1  'x, y, z'
loop_
 _atom_site_type_symbol
 _atom_site_label
 _atom_site_symmetry_multiplicity
 _atom_site_fract_x
 _atom_site_fract_y
 _atom_site_fract_z
 _atom_site_occupancy
 _atom_site_charge
  Zn  Zn1  1  0.973850  0.921560  0.968610  1.0  1.0989
  Zn  Zn2  1  0.294440  0.990510  0.912670  1.0  1.0219
  Zn  Zn3  1  0.973850  0.578440  0.531390  1.0  1.0991
  Zn  Zn4  1  0.294440  0.509490  0.587330  1.0  1.0213
  Zn  Zn5  1  0.026150  0.078440  0.031390  1.0  1.0982
  Zn  Zn6  1  0.705560  0.009490  0.087330  1.0  1.0212
  Zn  Zn7  1  0.026150  0.421560  0.468610  1.0  1.0984
  Zn  Zn8  1  0.705560  0.490510  0.412670  1.0  1.0218
  H  H9  1  0.495000  0.909900  0.731200  1.0  0.1209
  H  H10  1  0.743000  0.176200  0.728800  1.0  0.1107
  H  H11  1  0.739700  0.826100  0.640100  1.0  0.1168
  H  H12  1  0.065400  0.004900  0.758500  1.0  0.1066
  H  H13  1  0.933700  0.009300  0.670000  1.0  0.1062
  H  H14  1  0.077000  0.212500  0.860500  1.0  0.1168
  H  H15  1  0.163000  0.798300  0.571900  1.0  0.1078
  H  H16  1  0.555100  0.108900  0.785600  1.0  0.1024
  H  H17  1  0.887200  0.146700  0.917200  1.0  0.0884
  H  H18  1  0.624200  0.909300  0.819900  1.0  0.1021
  H  H19  1  0.629400  0.707200  0.617700  1.0  0.1044
  H  H20  1  0.276200  0.917600  0.591800  1.0  0.1068
  H  H21  1  0.495000  0.590100  0.768800  1.0  0.1209
  H  H22  1  0.743000  0.323800  0.771200  1.0  0.11
  H  H23  1  0.739700  0.673900  0.859900  1.0  0.1166
  H  H24  1  0.065400  0.495100  0.741500  1.0  0.1065
  H  H25  1  0.933700  0.490700  0.830000  1.0  0.1068
  H  H26  1  0.077000  0.287500  0.639500  1.0  0.1166
  H  H27  1  0.163000  0.701700  0.928100  1.0  0.108
  H  H28  1  0.555100  0.391100  0.714400  1.0  0.102
  H  H29  1  0.887200  0.353300  0.582800  1.0  0.088
  H  H30  1  0.624200  0.590700  0.680100  1.0  0.1025
  H  H31  1  0.629400  0.792800  0.882300  1.0  0.1038
  H  H32  1  0.276200  0.582400  0.908200  1.0  0.1064
  H  H33  1  0.505000  0.090100  0.268800  1.0  0.1207
  H  H34  1  0.257000  0.823800  0.271200  1.0  0.1102
  H  H35  1  0.260300  0.173900  0.359900  1.0  0.1166
  H  H36  1  0.934600  0.995100  0.241500  1.0  0.1062
  H  H37  1  0.066300  0.990700  0.330000  1.0  0.1066
  H  H38  1  0.923000  0.787500  0.139500  1.0  0.1162
  H  H39  1  0.837000  0.201700  0.428100  1.0  0.108
  H  H40  1  0.444900  0.891100  0.214400  1.0  0.1018
  H  H41  1  0.112800  0.853300  0.082800  1.0  0.0874
  H  H42  1  0.375800  0.090700  0.180100  1.0  0.1026
  H  H43  1  0.370600  0.292800  0.382300  1.0  0.1041
  H  H44  1  0.723800  0.082400  0.408200  1.0  0.1067
  H  H45  1  0.505000  0.409900  0.231200  1.0  0.1204
  H  H46  1  0.257000  0.676200  0.228800  1.0  0.1109
  H  H47  1  0.260300  0.326100  0.140100  1.0  0.1169
  H  H48  1  0.934600  0.504900  0.258500  1.0  0.1061
  H  H49  1  0.066300  0.509300  0.170000  1.0  0.1057
  H  H50  1  0.923000  0.712500  0.360500  1.0  0.1162
  H  H51  1  0.837000  0.298300  0.071900  1.0  0.1078
  H  H52  1  0.444900  0.608900  0.285600  1.0  0.1023
  H  H53  1  0.112800  0.646700  0.417200  1.0  0.0882
  H  H54  1  0.375800  0.409300  0.319900  1.0  0.1023
  H  H55  1  0.370600  0.207200  0.117700  1.0  0.1039
  H  H56  1  0.723800  0.417600  0.091800  1.0  0.1067
  C  C57  1  0.308600  0.664090  0.580510  1.0  0.7147
  C  C58  1  0.610800  0.929800  0.736730  1.0  -0.1389
  C  C59  1  0.925600  0.204150  0.789480  1.0  0.0841
  C  C60  1  0.771500  0.171150  0.767400  1.0  -0.1406
  C  C61  1  0.699400  0.123280  0.857520  1.0  -0.1415
  C  C62  1  0.945100  0.957210  0.854240  1.0  0.6904
  C  C63  1  0.603000  0.961040  0.634240  1.0  -0.3008
  C  C64  1  0.518700  0.883900  0.618990  1.0  0.0896
  C  C65  1  0.701000  0.959600  0.691380  1.0  0.0874
  C  C66  1  0.857900  0.957060  0.797510  1.0  -0.1493
  C  C67  1  0.622200  0.820570  0.626060  1.0  -0.1487
  C  C68  1  0.948600  0.986140  0.752910  1.0  -0.0038
  C  C69  1  0.462500  0.024660  0.640500  1.0  0.6887
  C  C70  1  0.871000  0.988260  0.700200  1.0  -0.1589
  C  C71  1  0.969200  0.192900  0.845410  1.0  -0.1464
  C  C72  1  0.162500  0.306630  0.782680  1.0  0.6882
  C  C73  1  0.280800  0.803960  0.585620  1.0  -0.0226
  C  C74  1  0.659700  0.131130  0.801190  1.0  -0.0203
  C  C75  1  0.727400  0.979440  0.584940  1.0  0.6881
  C  C76  1  0.856800  0.153410  0.878950  1.0  -0.009
  C  C77  1  0.574400  0.082640  0.894540  1.0  0.6241
  C  C78  1  0.687500  0.928980  0.789350  1.0  -0.015
  C  C79  1  0.556600  0.749860  0.613050  1.0  -0.0241
  C  C80  1  0.347400  0.874930  0.597840  1.0  -0.1442
  C  C81  1  0.384100  0.740800  0.593100  1.0  -0.1481
  C  C82  1  0.308600  0.835910  0.919490  1.0  0.7148
  C  C83  1  0.610800  0.570200  0.763270  1.0  -0.1396
  C  C84  1  0.925600  0.295850  0.710520  1.0  0.0839
  C  C85  1  0.771500  0.328850  0.732600  1.0  -0.1412
  C  C86  1  0.699400  0.376720  0.642480  1.0  -0.1416
  C  C87  1  0.945100  0.542790  0.645760  1.0  0.69
  C  C88  1  0.603000  0.538960  0.865760  1.0  -0.2995
  C  C89  1  0.518700  0.616100  0.881010  1.0  0.0903
  C  C90  1  0.701000  0.540400  0.808620  1.0  0.0871
  C  C91  1  0.857900  0.542940  0.702490  1.0  -0.1475
  C  C92  1  0.622200  0.679430  0.873940  1.0  -0.148
  C  C93  1  0.948600  0.513860  0.747090  1.0  -0.0048
  C  C94  1  0.462500  0.475340  0.859500  1.0  0.6884
  C  C95  1  0.871000  0.511740  0.799800  1.0  -0.16
  C  C96  1  0.969200  0.307100  0.654590  1.0  -0.1454
  C  C97  1  0.162500  0.193370  0.717320  1.0  0.6784
  C  C98  1  0.280800  0.696040  0.914380  1.0  -0.0234
  C  C99  1  0.659700  0.368870  0.698810  1.0  -0.0196
  C  C100  1  0.727400  0.520560  0.915060  1.0  0.6897
  C  C101  1  0.856800  0.346590  0.621050  1.0  -0.0099
  C  C102  1  0.574400  0.417360  0.605460  1.0  0.6258
  C  C103  1  0.687500  0.571020  0.710650  1.0  -0.0155
  C  C104  1  0.556600  0.750140  0.886950  1.0  -0.0234
  C  C105  1  0.347400  0.625070  0.902160  1.0  -0.1445
  C  C106  1  0.384100  0.759200  0.906900  1.0  -0.1471
  C  C107  1  0.691400  0.335910  0.419490  1.0  0.7151
  C  C108  1  0.389200  0.070200  0.263270  1.0  -0.1412
  C  C109  1  0.074400  0.795850  0.210520  1.0  0.0834
  C  C110  1  0.228500  0.828850  0.232600  1.0  -0.1413
  C  C111  1  0.300600  0.876720  0.142480  1.0  -0.1406
  C  C112  1  0.054900  0.042790  0.145760  1.0  0.6902
  C  C113  1  0.397000  0.038960  0.365760  1.0  -0.2994
  C  C114  1  0.481300  0.116100  0.381010  1.0  0.0905
  C  C115  1  0.299000  0.040400  0.308620  1.0  0.0865
  C  C116  1  0.142100  0.042940  0.202490  1.0  -0.1494
  C  C117  1  0.377800  0.179430  0.373940  1.0  -0.1469
  C  C118  1  0.051400  0.013860  0.247090  1.0  -0.0037
  C  C119  1  0.537500  0.975340  0.359500  1.0  0.6885
  C  C120  1  0.129000  0.011740  0.299800  1.0  -0.1583
  C  C121  1  0.030800  0.807100  0.154590  1.0  -0.1442
  C  C122  1  0.837500  0.693370  0.217320  1.0  0.6873
  C  C123  1  0.719200  0.196040  0.414380  1.0  -0.0195
  C  C124  1  0.340300  0.868870  0.198810  1.0  -0.0186
  C  C125  1  0.272600  0.020560  0.415060  1.0  0.6878
  C  C126  1  0.143200  0.846590  0.121050  1.0  -0.0089
  C  C127  1  0.425600  0.917360  0.105460  1.0  0.6259
  C  C128  1  0.312500  0.071020  0.210650  1.0  -0.0146
  C  C129  1  0.443400  0.250140  0.386950  1.0  -0.0241
  C  C130  1  0.652600  0.125070  0.402160  1.0  -0.146
  C  C131  1  0.615900  0.259200  0.406900  1.0  -0.147
  C  C132  1  0.691400  0.164090  0.080510  1.0  0.7149
  C  C133  1  0.389200  0.429800  0.236730  1.0  -0.1413
  C  C134  1  0.074400  0.704150  0.289480  1.0  0.0839
  C  C135  1  0.228500  0.671150  0.267400  1.0  -0.1406
  C  C136  1  0.300600  0.623280  0.357520  1.0  -0.1402
  C  C137  1  0.054900  0.457210  0.354240  1.0  0.6901
  C  C138  1  0.397000  0.461040  0.134240  1.0  -0.3007
  C  C139  1  0.481300  0.383900  0.118990  1.0  0.0898
  C  C140  1  0.299000  0.459600  0.191380  1.0  0.0867
  C  C141  1  0.142100  0.457060  0.297510  1.0  -0.1492
  C  C142  1  0.377800  0.320570  0.126060  1.0  -0.147
  C  C143  1  0.051400  0.486140  0.252910  1.0  -0.0026
  C  C144  1  0.537500  0.524660  0.140500  1.0  0.689
  C  C145  1  0.129000  0.488260  0.200200  1.0  -0.1578
  C  C146  1  0.030800  0.692900  0.345410  1.0  -0.1473
  C  C147  1  0.837500  0.806630  0.282680  1.0  0.6789
  C  C148  1  0.719200  0.303960  0.085620  1.0  -0.0199
  C  C149  1  0.340300  0.631130  0.301190  1.0  -0.0197
  C  C150  1  0.272600  0.479440  0.084940  1.0  0.6875
  C  C151  1  0.143200  0.653410  0.378950  1.0  -0.0096
  C  C152  1  0.425600  0.582640  0.394540  1.0  0.6272
  C  C153  1  0.312500  0.428980  0.289350  1.0  -0.0159
  C  C154  1  0.443400  0.249860  0.113050  1.0  -0.0237
  C  C155  1  0.652600  0.374930  0.097840  1.0  -0.145
  C  C156  1  0.615900  0.240800  0.093100  1.0  -0.1479
  C  C157  1  0.041700  0.250000  0.750000  1.0  -0.3006
  C  C158  1  0.958300  0.750000  0.250000  1.0  -0.3012
  O  O159  1  0.430400  0.060460  0.871480  1.0  -0.5614
  O  O160  1  0.154200  0.660490  0.561400  1.0  -0.6287
  O  O161  1  0.859000  0.932120  0.894630  1.0  -0.5769
  O  O162  1  0.610300  0.074380  0.944890  1.0  -0.435
  O  O163  1  0.099900  0.982460  0.857150  1.0  -0.5908
  O  O164  1  0.406200  0.609040  0.590750  1.0  -0.5619
  O  O165  1  0.174400  0.996900  0.986280  1.0  -0.7675
  O  O166  1  0.430400  0.439540  0.628520  1.0  -0.5573
  O  O167  1  0.154200  0.839510  0.938600  1.0  -0.6283
  O  O168  1  0.859000  0.567880  0.605370  1.0  -0.5772
  O  O169  1  0.610300  0.425620  0.555110  1.0  -0.4359
  O  O170  1  0.099900  0.517540  0.642850  1.0  -0.5909
  O  O171  1  0.406200  0.890960  0.909250  1.0  -0.5619
  O  O172  1  0.174400  0.503100  0.513720  1.0  -0.7662
  O  O173  1  0.569600  0.939540  0.128520  1.0  -0.5564
  O  O174  1  0.845800  0.339510  0.438600  1.0  -0.6288
  O  O175  1  0.141000  0.067880  0.105370  1.0  -0.5772
  O  O176  1  0.389700  0.925620  0.055110  1.0  -0.4339
  O  O177  1  0.900100  0.017540  0.142850  1.0  -0.5907
  O  O178  1  0.593800  0.390960  0.409250  1.0  -0.5618
  O  O179  1  0.825600  0.003100  0.013720  1.0  -0.7661
  O  O180  1  0.569600  0.560460  0.371480  1.0  -0.5605
  O  O181  1  0.845800  0.160490  0.061400  1.0  -0.6293
  O  O182  1  0.141000  0.432120  0.394630  1.0  -0.5769
  O  O183  1  0.389700  0.574380  0.444890  1.0  -0.433
  O  O184  1  0.900100  0.482460  0.357150  1.0  -0.5906
  O  O185  1  0.593800  0.109040  0.090750  1.0  -0.5623
  O  O186  1  0.825600  0.496900  0.486280  1.0  -0.7671
  F  F187  1  0.237600  0.354880  0.748430  1.0  -0.1926
  F  F188  1  0.295400  0.274800  0.810360  1.0  -0.2029
  F  F189  1  0.869700  0.934950  0.582760  1.0  -0.1931
  F  F190  1  0.787600  0.050190  0.587890  1.0  -0.207
  F  F191  1  0.069600  0.347660  0.820860  1.0  -0.1924
  F  F192  1  0.534700  0.088190  0.661680  1.0  -0.1988
  F  F193  1  0.330800  0.006900  0.674810  1.0  -0.1831
  F  F194  1  0.645700  0.970150  0.535160  1.0  -0.2052
  F  F195  1  0.388100  0.041210  0.591210  1.0  -0.2065
  F  F196  1  0.237600  0.145120  0.751570  1.0  -0.1933
  F  F197  1  0.295400  0.225200  0.689640  1.0  -0.2029
  F  F198  1  0.869700  0.565050  0.917240  1.0  -0.1936
  F  F199  1  0.787600  0.449810  0.912110  1.0  -0.2071
  F  F200  1  0.069600  0.152340  0.679140  1.0  -0.1931
  F  F201  1  0.534700  0.411810  0.838320  1.0  -0.1983
  F  F202  1  0.330800  0.493100  0.825190  1.0  -0.1827
  F  F203  1  0.645700  0.529850  0.964840  1.0  -0.2058
  F  F204  1  0.388100  0.458790  0.908790  1.0  -0.2066
  F  F205  1  0.762400  0.645120  0.251570  1.0  -0.1935
  F  F206  1  0.704600  0.725200  0.189640  1.0  -0.2018
  F  F207  1  0.130300  0.065050  0.417240  1.0  -0.1925
  F  F208  1  0.212400  0.949810  0.412110  1.0  -0.207
  F  F209  1  0.930400  0.652340  0.179140  1.0  -0.1936
  F  F210  1  0.465300  0.911810  0.338320  1.0  -0.1979
  F  F211  1  0.669200  0.993100  0.325190  1.0  -0.1833
  F  F212  1  0.354300  0.029850  0.464840  1.0  -0.206
  F  F213  1  0.611900  0.958790  0.408790  1.0  -0.2064
  F  F214  1  0.762400  0.854880  0.248430  1.0  -0.1932
  F  F215  1  0.704600  0.774800  0.310360  1.0  -0.2029
  F  F216  1  0.130300  0.434950  0.082760  1.0  -0.1927
  F  F217  1  0.212400  0.550190  0.087890  1.0  -0.2066
  F  F218  1  0.930400  0.847660  0.320860  1.0  -0.1931
  F  F219  1  0.465300  0.588190  0.161680  1.0  -0.1979
  F  F220  1  0.669200  0.506900  0.174810  1.0  -0.1838
  F  F221  1  0.354300  0.470150  0.035160  1.0  -0.2049
  F  F222  1  0.611900  0.541210  0.091210  1.0  -0.2064
