# generated using pymatgen
data_Zn5H18(C17O9)2
_symmetry_space_group_name_H-M   'P 1'
_cell_length_a   8.62900000
_cell_length_b   9.83970000
_cell_length_c   24.95000000
_cell_angle_alpha   90.51200000
_cell_angle_beta   90.00000000
_cell_angle_gamma   90.00000000
_symmetry_Int_Tables_number   1
_chemical_formula_structural   Zn5H18(C17O9)2
_chemical_formula_sum   'Zn10 H36 C68 O36'
_cell_volume   2118.33936258
_cell_formula_units_Z   2
loop_
 _symmetry_equiv_pos_site_id
 _symmetry_equiv_pos_as_xyz
  1  'x, y, z'
loop_
 _atom_site_type_symbol
 _atom_site_label
 _atom_site_symmetry_multiplicity
 _atom_site_fract_x
 _atom_site_fract_y
 _atom_site_fract_z
 _atom_site_occupancy
 _atom_site_charge
  Zn  Zn1  1  0.200580  0.687310  0.398750  1.0  1.0741
  Zn  Zn2  1  0.314870  0.767060  0.078620  1.0  1.0749
  Zn  Zn3  1  0.700580  0.812690  0.101250  1.0  1.0741
  Zn  Zn4  1  0.814870  0.732940  0.421380  1.0  1.0763
  Zn  Zn5  1  0.799420  0.312690  0.601250  1.0  1.075
  Zn  Zn6  1  0.685130  0.232940  0.921380  1.0  1.076
  Zn  Zn7  1  0.299420  0.187310  0.898750  1.0  1.0739
  Zn  Zn8  1  0.185130  0.267060  0.578620  1.0  1.0773
  Zn  Zn9  1  0.500000  0.000000  0.000000  1.0  1.1495
  Zn  Zn10  1  0.000000  0.500000  0.500000  1.0  1.1495
  H  H11  1  0.265500  0.310400  0.070900  1.0  0.1092
  H  H12  1  0.972400  0.458300  0.182300  1.0  0.1118
  H  H13  1  0.021900  0.053400  0.164700  1.0  0.1055
  H  H14  1  0.794500  0.145900  0.215100  1.0  0.1106
  H  H15  1  0.788200  0.302700  0.227000  1.0  0.1087
  H  H16  1  0.958000  0.396100  0.298900  1.0  0.1057
  H  H17  1  0.142900  0.147000  0.406800  1.0  0.1135
  H  H18  1  0.932200  0.996000  0.274100  1.0  0.1277
  H  H19  1  0.530300  0.757800  0.019700  1.0  0.4649
  H  H20  1  0.765500  0.189600  0.429100  1.0  0.1114
  H  H21  1  0.472400  0.041700  0.317700  1.0  0.1119
  H  H22  1  0.521900  0.446600  0.335300  1.0  0.1053
  H  H23  1  0.294500  0.354100  0.284900  1.0  0.1107
  H  H24  1  0.288200  0.197300  0.273000  1.0  0.1087
  H  H25  1  0.458000  0.103900  0.201100  1.0  0.108
  H  H26  1  0.642900  0.353000  0.093200  1.0  0.1135
  H  H27  1  0.432200  0.504000  0.225900  1.0  0.1275
  H  H28  1  0.030300  0.742200  0.480300  1.0  0.4644
  H  H29  1  0.734500  0.689600  0.929100  1.0  0.1102
  H  H30  1  0.027600  0.541700  0.817700  1.0  0.112
  H  H31  1  0.978100  0.946600  0.835300  1.0  0.1052
  H  H32  1  0.205500  0.854100  0.784900  1.0  0.11
  H  H33  1  0.211800  0.697300  0.773000  1.0  0.1085
  H  H34  1  0.042000  0.603900  0.701100  1.0  0.1083
  H  H35  1  0.857100  0.853000  0.593200  1.0  0.1133
  H  H36  1  0.067800  0.004000  0.725900  1.0  0.1279
  H  H37  1  0.469700  0.242200  0.980300  1.0  0.464
  H  H38  1  0.234500  0.810400  0.570900  1.0  0.1088
  H  H39  1  0.527600  0.958300  0.682300  1.0  0.1118
  H  H40  1  0.478100  0.553400  0.664700  1.0  0.1055
  H  H41  1  0.705500  0.645900  0.715100  1.0  0.1106
  H  H42  1  0.711800  0.802700  0.727000  1.0  0.1081
  H  H43  1  0.542000  0.896100  0.798900  1.0  0.1058
  H  H44  1  0.357100  0.647000  0.906800  1.0  0.1141
  H  H45  1  0.567800  0.496000  0.774100  1.0  0.128
  H  H46  1  0.969700  0.257800  0.519700  1.0  0.4643
  C  C47  1  0.155500  0.160400  0.114560  1.0  -0.1502
  C  C48  1  0.196200  0.295600  0.098800  1.0  -0.0132
  C  C49  1  0.128800  0.404400  0.126660  1.0  -0.1205
  C  C50  1  0.018400  0.384000  0.165370  1.0  -0.067
  C  C51  1  0.973700  0.249200  0.179860  1.0  0.0645
  C  C52  1  0.046700  0.141500  0.154530  1.0  -0.0775
  C  C53  1  0.856900  0.224900  0.224080  1.0  -0.2106
  C  C54  1  0.937500  0.202300  0.277850  1.0  0.0795
  C  C55  1  0.980600  0.308300  0.309910  1.0  -0.0749
  C  C56  1  0.056300  0.291100  0.358000  1.0  -0.1464
  C  C57  1  0.090600  0.160500  0.374670  1.0  -0.0132
  C  C58  1  0.046100  0.049200  0.343050  1.0  -0.1144
  C  C59  1  0.965800  0.069700  0.294560  1.0  -0.083
  C  C60  1  0.237600  0.040700  0.089180  1.0  0.6874
  C  C61  1  0.175500  0.547000  0.112550  1.0  0.6722
  C  C62  1  0.105700  0.412200  0.391470  1.0  0.6905
  C  C63  1  0.083100  0.909200  0.361960  1.0  0.6655
  C  C64  1  0.655500  0.339600  0.385440  1.0  -0.1491
  C  C65  1  0.696200  0.204400  0.401200  1.0  -0.0134
  C  C66  1  0.628800  0.095600  0.373340  1.0  -0.1199
  C  C67  1  0.518400  0.116000  0.334630  1.0  -0.0669
  C  C68  1  0.473700  0.250800  0.320140  1.0  0.0634
  C  C69  1  0.546700  0.358500  0.345470  1.0  -0.0754
  C  C70  1  0.356900  0.275100  0.275920  1.0  -0.211
  C  C71  1  0.437500  0.297700  0.222150  1.0  0.0787
  C  C72  1  0.480600  0.191700  0.190090  1.0  -0.0736
  C  C73  1  0.556300  0.208900  0.142000  1.0  -0.146
  C  C74  1  0.590600  0.339500  0.125330  1.0  -0.0146
  C  C75  1  0.546100  0.450800  0.156950  1.0  -0.1149
  C  C76  1  0.465800  0.430300  0.205440  1.0  -0.0846
  C  C77  1  0.737600  0.459300  0.410820  1.0  0.6872
  C  C78  1  0.675500  0.953000  0.387450  1.0  0.6712
  C  C79  1  0.605700  0.087800  0.108530  1.0  0.6899
  C  C80  1  0.583100  0.590800  0.138040  1.0  0.6643
  C  C81  1  0.844500  0.839600  0.885440  1.0  -0.149
  C  C82  1  0.803800  0.704400  0.901200  1.0  -0.0133
  C  C83  1  0.871200  0.595600  0.873340  1.0  -0.1198
  C  C84  1  0.981600  0.616000  0.834630  1.0  -0.0667
  C  C85  1  0.026300  0.750800  0.820140  1.0  0.0628
  C  C86  1  0.953300  0.858500  0.845470  1.0  -0.0743
  C  C87  1  0.143100  0.775100  0.775920  1.0  -0.212
  C  C88  1  0.062500  0.797700  0.722150  1.0  0.0788
  C  C89  1  0.019400  0.691700  0.690090  1.0  -0.0734
  C  C90  1  0.943700  0.708900  0.642000  1.0  -0.147
  C  C91  1  0.909400  0.839500  0.625330  1.0  -0.0132
  C  C92  1  0.953900  0.950800  0.656950  1.0  -0.1148
  C  C93  1  0.034200  0.930300  0.705440  1.0  -0.0833
  C  C94  1  0.762400  0.959300  0.910820  1.0  0.6874
  C  C95  1  0.824500  0.453000  0.887450  1.0  0.6715
  C  C96  1  0.894300  0.587800  0.608530  1.0  0.6899
  C  C97  1  0.916900  0.090800  0.638040  1.0  0.6642
  C  C98  1  0.344500  0.660400  0.614560  1.0  -0.1506
  C  C99  1  0.303800  0.795600  0.598800  1.0  -0.0142
  C  C100  1  0.371200  0.904400  0.626660  1.0  -0.1205
  C  C101  1  0.481600  0.884000  0.665370  1.0  -0.0666
  C  C102  1  0.526300  0.749200  0.679860  1.0  0.064
  C  C103  1  0.453300  0.641500  0.654530  1.0  -0.077
  C  C104  1  0.643100  0.724900  0.724080  1.0  -0.2119
  C  C105  1  0.562500  0.702300  0.777850  1.0  0.0795
  C  C106  1  0.519400  0.808300  0.809910  1.0  -0.0747
  C  C107  1  0.443700  0.791100  0.858000  1.0  -0.1462
  C  C108  1  0.409400  0.660500  0.874670  1.0  -0.0141
  C  C109  1  0.453900  0.549200  0.843050  1.0  -0.114
  C  C110  1  0.534200  0.569700  0.794560  1.0  -0.0829
  C  C111  1  0.262400  0.540700  0.589180  1.0  0.688
  C  C112  1  0.324500  0.047000  0.612550  1.0  0.6722
  C  C113  1  0.394300  0.912200  0.891470  1.0  0.6899
  C  C114  1  0.416900  0.409200  0.861960  1.0  0.6653
  O  O115  1  0.237800  0.933300  0.113450  1.0  -0.5617
  O  O116  1  0.292500  0.060400  0.041990  1.0  -0.6749
  O  O117  1  0.290800  0.565500  0.080470  1.0  -0.64
  O  O118  1  0.116600  0.645100  0.134180  1.0  -0.6004
  O  O119  1  0.123000  0.521600  0.365200  1.0  -0.5905
  O  O120  1  0.131000  0.397800  0.439340  1.0  -0.6152
  O  O121  1  0.185600  0.895700  0.398160  1.0  -0.5999
  O  O122  1  0.011000  0.809800  0.344840  1.0  -0.5989
  O  O123  1  0.511200  0.819800  0.042520  1.0  -0.9916
  O  O124  1  0.737800  0.566700  0.386550  1.0  -0.5625
  O  O125  1  0.792500  0.439600  0.458010  1.0  -0.6745
  O  O126  1  0.790800  0.934500  0.419530  1.0  -0.6361
  O  O127  1  0.616600  0.854900  0.365820  1.0  -0.603
  O  O128  1  0.623000  0.978400  0.134800  1.0  -0.5907
  O  O129  1  0.631000  0.102200  0.060660  1.0  -0.615
  O  O130  1  0.685600  0.604300  0.101840  1.0  -0.6004
  O  O131  1  0.511000  0.690200  0.155160  1.0  -0.5979
  O  O132  1  0.011200  0.680200  0.457480  1.0  -0.9922
  O  O133  1  0.762200  0.066700  0.886550  1.0  -0.5616
  O  O134  1  0.707500  0.939600  0.958010  1.0  -0.674
  O  O135  1  0.709200  0.434500  0.919530  1.0  -0.6393
  O  O136  1  0.883400  0.354900  0.865820  1.0  -0.602
  O  O137  1  0.877000  0.478400  0.634800  1.0  -0.5905
  O  O138  1  0.869000  0.602200  0.560660  1.0  -0.6147
  O  O139  1  0.814400  0.104300  0.601840  1.0  -0.5973
  O  O140  1  0.989000  0.190200  0.655160  1.0  -0.5985
  O  O141  1  0.488800  0.180200  0.957480  1.0  -0.992
  O  O142  1  0.262200  0.433300  0.613450  1.0  -0.5618
  O  O143  1  0.207500  0.560400  0.541990  1.0  -0.6748
  O  O144  1  0.209200  0.065500  0.580470  1.0  -0.6396
  O  O145  1  0.383400  0.145100  0.634180  1.0  -0.5996
  O  O146  1  0.377000  0.021600  0.865200  1.0  -0.5912
  O  O147  1  0.369000  0.897800  0.939340  1.0  -0.6146
  O  O148  1  0.314400  0.395700  0.898160  1.0  -0.5966
  O  O149  1  0.489000  0.309800  0.844840  1.0  -0.5994
  O  O150  1  0.988800  0.319800  0.542520  1.0  -0.9915
