# generated using pymatgen
data_Cu3H6C12N6O7
_symmetry_space_group_name_H-M   'P 1'
_cell_length_a   21.35140000
_cell_length_b   21.35140000
_cell_length_c   21.35140000
_cell_angle_alpha   60.00000000
_cell_angle_beta   60.00000000
_cell_angle_gamma   60.00000000
_symmetry_Int_Tables_number   1
_chemical_formula_structural   Cu3H6C12N6O7
_chemical_formula_sum   'Cu24 H48 C96 N48 O56'
_cell_volume   6882.78292191
_cell_formula_units_Z   8
loop_
 _symmetry_equiv_pos_site_id
 _symmetry_equiv_pos_as_xyz
  1  'x, y, z'
loop_
 _atom_site_type_symbol
 _atom_site_label
 _atom_site_symmetry_multiplicity
 _atom_site_fract_x
 _atom_site_fract_y
 _atom_site_fract_z
 _atom_site_occupancy
 _atom_site_charge
  Cu  Cu1  1  0.339870  0.750000  0.660130  1.0  0.8964
  Cu  Cu2  1  0.250000  0.839870  0.250000  1.0  0.8966
  Cu  Cu3  1  0.160130  0.250000  0.839870  1.0  0.8961
  Cu  Cu4  1  0.750000  0.660130  0.750000  1.0  0.8943
  Cu  Cu5  1  0.339870  0.660130  0.250000  1.0  0.8952
  Cu  Cu6  1  0.250000  0.250000  0.660130  1.0  0.8964
  Cu  Cu7  1  0.160130  0.839870  0.750000  1.0  0.8956
  Cu  Cu8  1  0.750000  0.750000  0.839870  1.0  0.8966
  Cu  Cu9  1  0.339870  0.250000  0.750000  1.0  0.8974
  Cu  Cu10  1  0.250000  0.660130  0.839870  1.0  0.8953
  Cu  Cu11  1  0.160130  0.750000  0.250000  1.0  0.8951
  Cu  Cu12  1  0.750000  0.839870  0.660130  1.0  0.8954
  Cu  Cu13  1  0.660130  0.250000  0.339870  1.0  0.8961
  Cu  Cu14  1  0.750000  0.160130  0.750000  1.0  0.8943
  Cu  Cu15  1  0.839870  0.750000  0.160130  1.0  0.8964
  Cu  Cu16  1  0.250000  0.339870  0.250000  1.0  0.8966
  Cu  Cu17  1  0.660130  0.339870  0.750000  1.0  0.8956
  Cu  Cu18  1  0.750000  0.750000  0.339870  1.0  0.8966
  Cu  Cu19  1  0.839870  0.160130  0.250000  1.0  0.8952
  Cu  Cu20  1  0.250000  0.250000  0.160130  1.0  0.8964
  Cu  Cu21  1  0.660130  0.750000  0.250000  1.0  0.8951
  Cu  Cu22  1  0.750000  0.339870  0.160130  1.0  0.8954
  Cu  Cu23  1  0.839870  0.250000  0.750000  1.0  0.8974
  Cu  Cu24  1  0.250000  0.160130  0.339870  1.0  0.8953
  H  H25  1  0.496400  0.606400  0.643400  1.0  0.1301
  H  H26  1  0.106400  0.996400  0.253800  1.0  0.1312
  H  H27  1  0.143400  0.253800  0.996400  1.0  0.1323
  H  H28  1  0.753800  0.643400  0.606400  1.0  0.1319
  H  H29  1  0.496400  0.643400  0.253800  1.0  0.1312
  H  H30  1  0.106400  0.253800  0.643400  1.0  0.1313
  H  H31  1  0.143400  0.996400  0.606400  1.0  0.1308
  H  H32  1  0.753800  0.606400  0.996400  1.0  0.1318
  H  H33  1  0.496400  0.253800  0.606400  1.0  0.1294
  H  H34  1  0.106400  0.643400  0.996400  1.0  0.1311
  H  H35  1  0.143400  0.606400  0.253800  1.0  0.1302
  H  H36  1  0.753800  0.996400  0.643400  1.0  0.1302
  H  H37  1  0.393600  0.503600  0.856600  1.0  0.1314
  H  H38  1  0.003600  0.893600  0.246200  1.0  0.1304
  H  H39  1  0.746200  0.856600  0.503600  1.0  0.1321
  H  H40  1  0.356600  0.246200  0.893600  1.0  0.1317
  H  H41  1  0.356600  0.503600  0.246200  1.0  0.1302
  H  H42  1  0.746200  0.893600  0.856600  1.0  0.1321
  H  H43  1  0.003600  0.856600  0.893600  1.0  0.1307
  H  H44  1  0.393600  0.246200  0.503600  1.0  0.1317
  H  H45  1  0.746200  0.503600  0.893600  1.0  0.13
  H  H46  1  0.356600  0.893600  0.503600  1.0  0.1307
  H  H47  1  0.393600  0.856600  0.246200  1.0  0.131
  H  H48  1  0.003600  0.246200  0.856600  1.0  0.1295
  H  H49  1  0.503600  0.393600  0.356600  1.0  0.1304
  H  H50  1  0.893600  0.003600  0.746200  1.0  0.1312
  H  H51  1  0.856600  0.746200  0.003600  1.0  0.1313
  H  H52  1  0.246200  0.356600  0.393600  1.0  0.1322
  H  H53  1  0.503600  0.356600  0.746200  1.0  0.1311
  H  H54  1  0.893600  0.746200  0.356600  1.0  0.132
  H  H55  1  0.856600  0.003600  0.393600  1.0  0.1302
  H  H56  1  0.246200  0.393600  0.003600  1.0  0.1316
  H  H57  1  0.503600  0.746200  0.393600  1.0  0.1298
  H  H58  1  0.893600  0.356600  0.003600  1.0  0.131
  H  H59  1  0.856600  0.393600  0.746200  1.0  0.1305
  H  H60  1  0.246200  0.003600  0.356600  1.0  0.13
  H  H61  1  0.606400  0.496400  0.143400  1.0  0.1312
  H  H62  1  0.996400  0.106400  0.753800  1.0  0.1303
  H  H63  1  0.253800  0.143400  0.496400  1.0  0.1321
  H  H64  1  0.643400  0.753800  0.106400  1.0  0.1323
  H  H65  1  0.643400  0.496400  0.753800  1.0  0.1305
  H  H66  1  0.253800  0.106400  0.143400  1.0  0.1312
  H  H67  1  0.996400  0.143400  0.106400  1.0  0.1312
  H  H68  1  0.606400  0.753800  0.496400  1.0  0.1317
  H  H69  1  0.253800  0.496400  0.106400  1.0  0.1296
  H  H70  1  0.643400  0.106400  0.496400  1.0  0.1301
  H  H71  1  0.606400  0.143400  0.753800  1.0  0.1311
  H  H72  1  0.996400  0.753800  0.143400  1.0  0.13
  C  C73  1  0.459900  0.595900  0.691900  1.0  0.049
  C  C74  1  0.095900  0.959900  0.252300  1.0  0.0483
  C  C75  1  0.191900  0.252300  0.959900  1.0  0.0489
  C  C76  1  0.752300  0.691900  0.595900  1.0  0.0479
  C  C77  1  0.459900  0.691900  0.252300  1.0  0.0482
  C  C78  1  0.095900  0.252300  0.691900  1.0  0.0485
  C  C79  1  0.191900  0.959900  0.595900  1.0  0.0493
  C  C80  1  0.752300  0.595900  0.959900  1.0  0.0472
  C  C81  1  0.459900  0.252300  0.595900  1.0  0.0489
  C  C82  1  0.095900  0.691900  0.959900  1.0  0.0482
  C  C83  1  0.191900  0.595900  0.252300  1.0  0.0491
  C  C84  1  0.752300  0.959900  0.691900  1.0  0.0491
  C  C85  1  0.404100  0.540100  0.808100  1.0  0.049
  C  C86  1  0.040100  0.904100  0.247700  1.0  0.049
  C  C87  1  0.747700  0.808100  0.540100  1.0  0.0479
  C  C88  1  0.308100  0.247700  0.904100  1.0  0.0501
  C  C89  1  0.308100  0.540100  0.247700  1.0  0.0498
  C  C90  1  0.747700  0.904100  0.808100  1.0  0.047
  C  C91  1  0.040100  0.808100  0.904100  1.0  0.0483
  C  C92  1  0.404100  0.247700  0.540100  1.0  0.0487
  C  C93  1  0.747700  0.540100  0.904100  1.0  0.0491
  C  C94  1  0.308100  0.904100  0.540100  1.0  0.0494
  C  C95  1  0.404100  0.808100  0.247700  1.0  0.0478
  C  C96  1  0.040100  0.247700  0.808100  1.0  0.05
  C  C97  1  0.540100  0.404100  0.308100  1.0  0.0486
  C  C98  1  0.904100  0.040100  0.747700  1.0  0.0493
  C  C99  1  0.808100  0.747700  0.040100  1.0  0.0504
  C  C100  1  0.247700  0.308100  0.404100  1.0  0.0477
  C  C101  1  0.540100  0.308100  0.747700  1.0  0.0481
  C  C102  1  0.904100  0.747700  0.308100  1.0  0.0479
  C  C103  1  0.808100  0.040100  0.404100  1.0  0.0498
  C  C104  1  0.247700  0.404100  0.040100  1.0  0.0476
  C  C105  1  0.540100  0.747700  0.404100  1.0  0.0505
  C  C106  1  0.904100  0.308100  0.040100  1.0  0.048
  C  C107  1  0.808100  0.404100  0.747700  1.0  0.0494
  C  C108  1  0.247700  0.040100  0.308100  1.0  0.0487
  C  C109  1  0.595900  0.459900  0.191900  1.0  0.0492
  C  C110  1  0.959900  0.095900  0.752300  1.0  0.0485
  C  C111  1  0.252300  0.191900  0.459900  1.0  0.048
  C  C112  1  0.691900  0.752300  0.095900  1.0  0.049
  C  C113  1  0.691900  0.459900  0.752300  1.0  0.0494
  C  C114  1  0.252300  0.095900  0.191900  1.0  0.0473
  C  C115  1  0.959900  0.191900  0.095900  1.0  0.0481
  C  C116  1  0.595900  0.752300  0.459900  1.0  0.048
  C  C117  1  0.252300  0.459900  0.095900  1.0  0.0483
  C  C118  1  0.691900  0.095900  0.459900  1.0  0.0491
  C  C119  1  0.595900  0.191900  0.752300  1.0  0.0481
  C  C120  1  0.959900  0.752300  0.191900  1.0  0.0496
  C  C121  1  0.470400  0.529600  0.750000  1.0  -0.0018
  C  C122  1  0.540600  0.459400  0.750000  1.0  0.6247
  C  C123  1  0.029600  0.970400  0.250000  1.0  -0.0025
  C  C124  1  0.959400  0.040600  0.250000  1.0  0.6252
  C  C125  1  0.250000  0.250000  0.970400  1.0  -0.0015
  C  C126  1  0.250000  0.250000  0.040600  1.0  0.6252
  C  C127  1  0.750000  0.750000  0.529600  1.0  -0.001
  C  C128  1  0.750000  0.750000  0.459400  1.0  0.6249
  C  C129  1  0.470400  0.750000  0.250000  1.0  -0.0037
  C  C130  1  0.540600  0.750000  0.250000  1.0  0.6244
  C  C131  1  0.029600  0.250000  0.750000  1.0  -0.0039
  C  C132  1  0.959400  0.250000  0.750000  1.0  0.6245
  C  C133  1  0.250000  0.970400  0.529600  1.0  -0.0011
  C  C134  1  0.250000  0.040600  0.459400  1.0  0.6254
  C  C135  1  0.750000  0.529600  0.970400  1.0  -0.0038
  C  C136  1  0.750000  0.459400  0.040600  1.0  0.6253
  C  C137  1  0.470400  0.250000  0.529600  1.0  -0.0028
  C  C138  1  0.540600  0.250000  0.459400  1.0  0.6241
  C  C139  1  0.029600  0.750000  0.970400  1.0  -0.0045
  C  C140  1  0.959400  0.750000  0.040600  1.0  0.6248
  C  C141  1  0.250000  0.529600  0.250000  1.0  -0.0032
  C  C142  1  0.250000  0.459400  0.250000  1.0  0.625
  C  C143  1  0.750000  0.970400  0.750000  1.0  -0.002
  C  C144  1  0.750000  0.040600  0.750000  1.0  0.6257
  C  C145  1  0.529600  0.470400  0.250000  1.0  -0.0025
  C  C146  1  0.459400  0.540600  0.250000  1.0  0.6252
  C  C147  1  0.970400  0.029600  0.750000  1.0  -0.0018
  C  C148  1  0.040600  0.959400  0.750000  1.0  0.6247
  C  C149  1  0.750000  0.750000  0.029600  1.0  -0.001
  C  C150  1  0.750000  0.750000  0.959400  1.0  0.6249
  C  C151  1  0.250000  0.250000  0.470400  1.0  -0.0015
  C  C152  1  0.250000  0.250000  0.540600  1.0  0.6252
  C  C153  1  0.529600  0.250000  0.750000  1.0  -0.0039
  C  C154  1  0.459400  0.250000  0.750000  1.0  0.6245
  C  C155  1  0.970400  0.750000  0.250000  1.0  -0.0037
  C  C156  1  0.040600  0.750000  0.250000  1.0  0.6244
  C  C157  1  0.750000  0.029600  0.470400  1.0  -0.0038
  C  C158  1  0.750000  0.959400  0.540600  1.0  0.6253
  C  C159  1  0.250000  0.470400  0.029600  1.0  -0.0011
  C  C160  1  0.250000  0.540600  0.959400  1.0  0.6254
  C  C161  1  0.529600  0.750000  0.470400  1.0  -0.0045
  C  C162  1  0.459400  0.750000  0.540600  1.0  0.6248
  C  C163  1  0.970400  0.250000  0.029600  1.0  -0.0028
  C  C164  1  0.040600  0.250000  0.959400  1.0  0.6241
  C  C165  1  0.750000  0.470400  0.750000  1.0  -0.002
  C  C166  1  0.750000  0.540600  0.750000  1.0  0.6257
  C  C167  1  0.250000  0.029600  0.250000  1.0  -0.0032
  C  C168  1  0.250000  0.959400  0.250000  1.0  0.625
  N  N169  1  0.389500  0.644500  0.713900  1.0  -0.2106
  N  N170  1  0.144500  0.889500  0.252100  1.0  -0.2126
  N  N171  1  0.213900  0.252100  0.889500  1.0  -0.2123
  N  N172  1  0.752100  0.713900  0.644500  1.0  -0.2116
  N  N173  1  0.389500  0.713900  0.252100  1.0  -0.2114
  N  N174  1  0.144500  0.252100  0.713900  1.0  -0.214
  N  N175  1  0.213900  0.889500  0.644500  1.0  -0.2101
  N  N176  1  0.752100  0.644500  0.889500  1.0  -0.2091
  N  N177  1  0.389500  0.252100  0.644500  1.0  -0.21
  N  N178  1  0.144500  0.713900  0.889500  1.0  -0.2115
  N  N179  1  0.213900  0.644500  0.252100  1.0  -0.2104
  N  N180  1  0.752100  0.889500  0.713900  1.0  -0.2093
  N  N181  1  0.355500  0.610500  0.786100  1.0  -0.2107
  N  N182  1  0.110500  0.855500  0.247900  1.0  -0.2067
  N  N183  1  0.747900  0.786100  0.610500  1.0  -0.2109
  N  N184  1  0.286100  0.247900  0.855500  1.0  -0.2113
  N  N185  1  0.286100  0.610500  0.247900  1.0  -0.2144
  N  N186  1  0.747900  0.855500  0.786100  1.0  -0.209
  N  N187  1  0.110500  0.786100  0.855500  1.0  -0.2146
  N  N188  1  0.355500  0.247900  0.610500  1.0  -0.212
  N  N189  1  0.747900  0.610500  0.855500  1.0  -0.2114
  N  N190  1  0.286100  0.855500  0.610500  1.0  -0.2097
  N  N191  1  0.355500  0.786100  0.247900  1.0  -0.2122
  N  N192  1  0.110500  0.247900  0.786100  1.0  -0.2116
  N  N193  1  0.610500  0.355500  0.286100  1.0  -0.2087
  N  N194  1  0.855500  0.110500  0.747900  1.0  -0.2112
  N  N195  1  0.786100  0.747900  0.110500  1.0  -0.2138
  N  N196  1  0.247900  0.286100  0.355500  1.0  -0.2112
  N  N197  1  0.610500  0.286100  0.747900  1.0  -0.2131
  N  N198  1  0.855500  0.747900  0.286100  1.0  -0.2102
  N  N199  1  0.786100  0.110500  0.355500  1.0  -0.2117
  N  N200  1  0.247900  0.355500  0.110500  1.0  -0.2073
  N  N201  1  0.610500  0.747900  0.355500  1.0  -0.2094
  N  N202  1  0.855500  0.286100  0.110500  1.0  -0.2113
  N  N203  1  0.786100  0.355500  0.747900  1.0  -0.2083
  N  N204  1  0.247900  0.110500  0.286100  1.0  -0.2107
  N  N205  1  0.644500  0.389500  0.213900  1.0  -0.2106
  N  N206  1  0.889500  0.144500  0.752100  1.0  -0.2098
  N  N207  1  0.252100  0.213900  0.389500  1.0  -0.2093
  N  N208  1  0.713900  0.752100  0.144500  1.0  -0.2115
  N  N209  1  0.713900  0.389500  0.752100  1.0  -0.2121
  N  N210  1  0.252100  0.144500  0.213900  1.0  -0.211
  N  N211  1  0.889500  0.213900  0.144500  1.0  -0.2133
  N  N212  1  0.644500  0.752100  0.389500  1.0  -0.2158
  N  N213  1  0.252100  0.389500  0.144500  1.0  -0.2119
  N  N214  1  0.713900  0.144500  0.389500  1.0  -0.2112
  N  N215  1  0.644500  0.213900  0.752100  1.0  -0.2134
  N  N216  1  0.889500  0.752100  0.213900  1.0  -0.2107
  O  O217  1  0.592300  0.457700  0.684100  1.0  -0.5795
  O  O218  1  0.957700  0.092300  0.265900  1.0  -0.5771
  O  O219  1  0.184100  0.265900  0.092300  1.0  -0.575
  O  O220  1  0.765900  0.684100  0.457700  1.0  -0.577
  O  O221  1  0.592300  0.684100  0.265900  1.0  -0.5745
  O  O222  1  0.957700  0.265900  0.684100  1.0  -0.5751
  O  O223  1  0.184100  0.092300  0.457700  1.0  -0.5737
  O  O224  1  0.765900  0.457700  0.092300  1.0  -0.5794
  O  O225  1  0.592300  0.265900  0.457700  1.0  -0.5789
  O  O226  1  0.957700  0.684100  0.092300  1.0  -0.5759
  O  O227  1  0.184100  0.457700  0.265900  1.0  -0.5749
  O  O228  1  0.765900  0.092300  0.684100  1.0  -0.5769
  O  O229  1  0.542300  0.407700  0.815900  1.0  -0.5807
  O  O230  1  0.907700  0.042300  0.234100  1.0  -0.5773
  O  O231  1  0.734100  0.815900  0.407700  1.0  -0.5741
  O  O232  1  0.315900  0.234100  0.042300  1.0  -0.5804
  O  O233  1  0.315900  0.407700  0.234100  1.0  -0.5799
  O  O234  1  0.734100  0.042300  0.815900  1.0  -0.581
  O  O235  1  0.907700  0.815900  0.042300  1.0  -0.5721
  O  O236  1  0.542300  0.234100  0.407700  1.0  -0.5765
  O  O237  1  0.734100  0.407700  0.042300  1.0  -0.5785
  O  O238  1  0.315900  0.042300  0.407700  1.0  -0.5782
  O  O239  1  0.542300  0.815900  0.234100  1.0  -0.5729
  O  O240  1  0.907700  0.234100  0.815900  1.0  -0.5799
  O  O241  1  0.407700  0.542300  0.315900  1.0  -0.5801
  O  O242  1  0.042300  0.907700  0.734100  1.0  -0.5778
  O  O243  1  0.815900  0.734100  0.907700  1.0  -0.5804
  O  O244  1  0.234100  0.315900  0.542300  1.0  -0.5737
  O  O245  1  0.407700  0.315900  0.734100  1.0  -0.5726
  O  O246  1  0.042300  0.734100  0.315900  1.0  -0.5797
  O  O247  1  0.815900  0.907700  0.542300  1.0  -0.5797
  O  O248  1  0.234100  0.542300  0.907700  1.0  -0.5768
  O  O249  1  0.407700  0.734100  0.542300  1.0  -0.5772
  O  O250  1  0.042300  0.315900  0.907700  1.0  -0.5726
  O  O251  1  0.815900  0.542300  0.734100  1.0  -0.5786
  O  O252  1  0.234100  0.907700  0.315900  1.0  -0.5806
  O  O253  1  0.457700  0.592300  0.184100  1.0  -0.5755
  O  O254  1  0.092300  0.957700  0.765900  1.0  -0.5815
  O  O255  1  0.265900  0.184100  0.592300  1.0  -0.5758
  O  O256  1  0.684100  0.765900  0.957700  1.0  -0.5751
  O  O257  1  0.684100  0.592300  0.765900  1.0  -0.5736
  O  O258  1  0.265900  0.957700  0.184100  1.0  -0.5772
  O  O259  1  0.092300  0.184100  0.957700  1.0  -0.5748
  O  O260  1  0.457700  0.765900  0.592300  1.0  -0.5761
  O  O261  1  0.265900  0.592300  0.957700  1.0  -0.5787
  O  O262  1  0.684100  0.957700  0.592300  1.0  -0.5751
  O  O263  1  0.457700  0.184100  0.765900  1.0  -0.576
  O  O264  1  0.092300  0.765900  0.184100  1.0  -0.5774
  O  O265  1  0.250000  0.750000  0.750000  1.0  -0.9034
  O  O266  1  0.250000  0.750000  0.250000  1.0  -0.9034
  O  O267  1  0.250000  0.250000  0.750000  1.0  -0.9034
  O  O268  1  0.750000  0.750000  0.750000  1.0  -0.9034
  O  O269  1  0.750000  0.250000  0.250000  1.0  -0.9034
  O  O270  1  0.750000  0.250000  0.750000  1.0  -0.9034
  O  O271  1  0.750000  0.750000  0.250000  1.0  -0.9034
  O  O272  1  0.250000  0.250000  0.250000  1.0  -0.9034
