# generated using pymatgen
data_U6(SO4)7
_symmetry_space_group_name_H-M   'P 1'
_cell_length_a   10.27760000
_cell_length_b   18.33900000
_cell_length_c   22.78800000
_cell_angle_alpha   90.00000000
_cell_angle_beta   90.00000000
_cell_angle_gamma   90.00000000
_symmetry_Int_Tables_number   1
_chemical_formula_structural   U6(SO4)7
_chemical_formula_sum   'U24 S28 O112'
_cell_volume   4295.10289504
_cell_formula_units_Z   4
loop_
 _symmetry_equiv_pos_site_id
 _symmetry_equiv_pos_as_xyz
  1  'x, y, z'
loop_
 _atom_site_type_symbol
 _atom_site_label
 _atom_site_symmetry_multiplicity
 _atom_site_fract_x
 _atom_site_fract_y
 _atom_site_fract_z
 _atom_site_occupancy
 _atom_site_charge
  U  U1  1  0.955320  0.740660  0.974530  1.0  1.7896
  U  U2  1  0.124990  0.531690  0.116670  1.0  1.5624
  U  U3  1  0.756850  0.740370  0.745960  1.0  1.7431
  U  U4  1  0.455320  0.240660  0.974530  1.0  1.7896
  U  U5  1  0.624990  0.031690  0.116670  1.0  1.5624
  U  U6  1  0.256850  0.240370  0.745960  1.0  1.7431
  U  U7  1  0.044680  0.259340  0.474530  1.0  1.7871
  U  U8  1  0.875010  0.468310  0.616670  1.0  1.5623
  U  U9  1  0.243150  0.259630  0.245960  1.0  1.7433
  U  U10  1  0.544680  0.759340  0.474530  1.0  1.7871
  U  U11  1  0.375010  0.968310  0.616670  1.0  1.5623
  U  U12  1  0.743150  0.759630  0.245960  1.0  1.7433
  U  U13  1  0.044680  0.740660  0.525470  1.0  1.7894
  U  U14  1  0.875010  0.531690  0.383330  1.0  1.5624
  U  U15  1  0.243150  0.740370  0.754040  1.0  1.747
  U  U16  1  0.544680  0.240660  0.525470  1.0  1.7894
  U  U17  1  0.375010  0.031690  0.383330  1.0  1.5624
  U  U18  1  0.743150  0.240370  0.754040  1.0  1.747
  U  U19  1  0.955320  0.259340  0.025470  1.0  1.7877
  U  U20  1  0.124990  0.468310  0.883330  1.0  1.5627
  U  U21  1  0.756850  0.259630  0.254040  1.0  1.7476
  U  U22  1  0.455320  0.759340  0.025470  1.0  1.7877
  U  U23  1  0.624990  0.968310  0.883330  1.0  1.5627
  U  U24  1  0.256850  0.759630  0.254040  1.0  1.7476
  S  S25  1  0.148700  0.732300  0.105500  1.0  1.5688
  S  S26  1  0.241300  0.614700  0.979400  1.0  1.5781
  S  S27  1  0.989500  0.644200  0.836500  1.0  1.5156
  S  S28  1  0.648700  0.232300  0.105500  1.0  1.5688
  S  S29  1  0.741300  0.114700  0.979400  1.0  1.5781
  S  S30  1  0.489500  0.144200  0.836500  1.0  1.5156
  S  S31  1  0.851300  0.267700  0.605500  1.0  1.5703
  S  S32  1  0.758700  0.385300  0.479400  1.0  1.5777
  S  S33  1  0.010500  0.355800  0.336500  1.0  1.516
  S  S34  1  0.351300  0.767700  0.605500  1.0  1.5703
  S  S35  1  0.258700  0.885300  0.479400  1.0  1.5777
  S  S36  1  0.510500  0.855800  0.336500  1.0  1.516
  S  S37  1  0.851300  0.732300  0.394500  1.0  1.5688
  S  S38  1  0.758700  0.614700  0.520600  1.0  1.577
  S  S39  1  0.010500  0.644200  0.663500  1.0  1.516
  S  S40  1  0.351300  0.232300  0.394500  1.0  1.5688
  S  S41  1  0.258700  0.114700  0.520600  1.0  1.577
  S  S42  1  0.510500  0.144200  0.663500  1.0  1.516
  S  S43  1  0.148700  0.267700  0.894500  1.0  1.5702
  S  S44  1  0.241300  0.385300  0.020600  1.0  1.5763
  S  S45  1  0.989500  0.355800  0.163500  1.0  1.516
  S  S46  1  0.648700  0.767700  0.894500  1.0  1.5702
  S  S47  1  0.741300  0.885300  0.020600  1.0  1.5763
  S  S48  1  0.489500  0.855800  0.163500  1.0  1.516
  S  S49  1  0.000000  0.614700  0.250000  1.0  1.5977
  S  S50  1  0.500000  0.114700  0.250000  1.0  1.5977
  S  S51  1  0.000000  0.385300  0.750000  1.0  1.5972
  S  S52  1  0.500000  0.885300  0.750000  1.0  1.5972
  O  O53  1  0.091000  0.662900  0.114100  1.0  -0.6641
  O  O54  1  0.077900  0.774200  0.059000  1.0  -0.8203
  O  O55  1  0.282200  0.718100  0.086500  1.0  -0.7246
  O  O56  1  0.942200  0.655800  0.897000  1.0  -0.7566
  O  O57  1  0.998000  0.572400  0.196600  1.0  -0.697
  O  O58  1  0.878400  0.644800  0.794900  1.0  -0.831
  O  O59  1  0.146900  0.772700  0.161000  1.0  -0.7359
  O  O60  1  0.238500  0.568900  0.925800  1.0  -0.7816
  O  O61  1  0.055900  0.573900  0.831500  1.0  -0.7001
  O  O62  1  0.083700  0.704100  0.821400  1.0  -0.9019
  O  O63  1  0.133000  0.668300  0.979300  1.0  -0.8298
  O  O64  1  0.359000  0.658500  0.977800  1.0  -0.7136
  O  O65  1  0.239000  0.572800  0.032200  1.0  -0.6749
  O  O66  1  0.890000  0.661700  0.252000  1.0  -0.7243
  O  O67  1  0.591000  0.162900  0.114100  1.0  -0.6641
  O  O68  1  0.577900  0.274200  0.059000  1.0  -0.8203
  O  O69  1  0.782200  0.218100  0.086500  1.0  -0.7246
  O  O70  1  0.442200  0.155800  0.897000  1.0  -0.7566
  O  O71  1  0.498000  0.072400  0.196600  1.0  -0.697
  O  O72  1  0.378400  0.144800  0.794900  1.0  -0.831
  O  O73  1  0.646900  0.272700  0.161000  1.0  -0.7359
  O  O74  1  0.738500  0.068900  0.925800  1.0  -0.7816
  O  O75  1  0.555900  0.073900  0.831500  1.0  -0.7001
  O  O76  1  0.583700  0.204100  0.821400  1.0  -0.9019
  O  O77  1  0.633000  0.168300  0.979300  1.0  -0.8298
  O  O78  1  0.859000  0.158500  0.977800  1.0  -0.7136
  O  O79  1  0.739000  0.072800  0.032200  1.0  -0.6749
  O  O80  1  0.390000  0.161700  0.252000  1.0  -0.7243
  O  O81  1  0.909000  0.337100  0.614100  1.0  -0.6628
  O  O82  1  0.922100  0.225800  0.559000  1.0  -0.8185
  O  O83  1  0.717800  0.281900  0.586500  1.0  -0.7227
  O  O84  1  0.057800  0.344200  0.397000  1.0  -0.7554
  O  O85  1  0.002000  0.427600  0.696600  1.0  -0.6966
  O  O86  1  0.121600  0.355200  0.294900  1.0  -0.8308
  O  O87  1  0.853100  0.227300  0.661000  1.0  -0.7367
  O  O88  1  0.761500  0.431100  0.425800  1.0  -0.7807
  O  O89  1  0.944100  0.426100  0.331500  1.0  -0.7024
  O  O90  1  0.916300  0.295900  0.321400  1.0  -0.8997
  O  O91  1  0.867000  0.331700  0.479300  1.0  -0.8313
  O  O92  1  0.641000  0.341500  0.477800  1.0  -0.7157
  O  O93  1  0.761000  0.427200  0.532200  1.0  -0.6764
  O  O94  1  0.110000  0.338300  0.752000  1.0  -0.7261
  O  O95  1  0.409000  0.837100  0.614100  1.0  -0.6628
  O  O96  1  0.422100  0.725800  0.559000  1.0  -0.8185
  O  O97  1  0.217800  0.781900  0.586500  1.0  -0.7227
  O  O98  1  0.557800  0.844200  0.397000  1.0  -0.7554
  O  O99  1  0.502000  0.927600  0.696600  1.0  -0.6966
  O  O100  1  0.621600  0.855200  0.294900  1.0  -0.8308
  O  O101  1  0.353100  0.727300  0.661000  1.0  -0.7367
  O  O102  1  0.261500  0.931100  0.425800  1.0  -0.7807
  O  O103  1  0.444100  0.926100  0.331500  1.0  -0.7024
  O  O104  1  0.416300  0.795900  0.321400  1.0  -0.8997
  O  O105  1  0.367000  0.831700  0.479300  1.0  -0.8313
  O  O106  1  0.141000  0.841500  0.477800  1.0  -0.7157
  O  O107  1  0.261000  0.927200  0.532200  1.0  -0.6764
  O  O108  1  0.610000  0.838300  0.752000  1.0  -0.7261
  O  O109  1  0.909000  0.662900  0.385900  1.0  -0.6632
  O  O110  1  0.922100  0.774200  0.441000  1.0  -0.8194
  O  O111  1  0.717800  0.718100  0.413500  1.0  -0.7222
  O  O112  1  0.057800  0.655800  0.603000  1.0  -0.7568
  O  O113  1  0.002000  0.572400  0.303400  1.0  -0.7
  O  O114  1  0.121600  0.644800  0.705100  1.0  -0.8317
  O  O115  1  0.853100  0.772700  0.339000  1.0  -0.7347
  O  O116  1  0.761500  0.568900  0.574200  1.0  -0.7842
  O  O117  1  0.944100  0.573900  0.668500  1.0  -0.7034
  O  O118  1  0.916300  0.704100  0.678600  1.0  -0.9004
  O  O119  1  0.867000  0.668300  0.520700  1.0  -0.8305
  O  O120  1  0.641000  0.658500  0.522200  1.0  -0.7151
  O  O121  1  0.761000  0.572800  0.467800  1.0  -0.6756
  O  O122  1  0.110000  0.661700  0.248000  1.0  -0.7246
  O  O123  1  0.409000  0.162900  0.385900  1.0  -0.6632
  O  O124  1  0.422100  0.274200  0.441000  1.0  -0.8194
  O  O125  1  0.217800  0.218100  0.413500  1.0  -0.7222
  O  O126  1  0.557800  0.155800  0.603000  1.0  -0.7568
  O  O127  1  0.502000  0.072400  0.303400  1.0  -0.7
  O  O128  1  0.621600  0.144800  0.705100  1.0  -0.8317
  O  O129  1  0.353100  0.272700  0.339000  1.0  -0.7347
  O  O130  1  0.261500  0.068900  0.574200  1.0  -0.7842
  O  O131  1  0.444100  0.073900  0.668500  1.0  -0.7034
  O  O132  1  0.416300  0.204100  0.678600  1.0  -0.9004
  O  O133  1  0.367000  0.168300  0.520700  1.0  -0.8305
  O  O134  1  0.141000  0.158500  0.522200  1.0  -0.7151
  O  O135  1  0.261000  0.072800  0.467800  1.0  -0.6756
  O  O136  1  0.610000  0.161700  0.248000  1.0  -0.7246
  O  O137  1  0.091000  0.337100  0.885900  1.0  -0.6628
  O  O138  1  0.077900  0.225800  0.941000  1.0  -0.8201
  O  O139  1  0.282200  0.281900  0.913500  1.0  -0.7238
  O  O140  1  0.942200  0.344200  0.103000  1.0  -0.757
  O  O141  1  0.998000  0.427600  0.803400  1.0  -0.6999
  O  O142  1  0.878400  0.355200  0.205100  1.0  -0.8325
  O  O143  1  0.146900  0.227300  0.839000  1.0  -0.7349
  O  O144  1  0.238500  0.431100  0.074200  1.0  -0.7838
  O  O145  1  0.055900  0.426100  0.168500  1.0  -0.6997
  O  O146  1  0.083700  0.295900  0.178600  1.0  -0.9004
  O  O147  1  0.133000  0.331700  0.020700  1.0  -0.83
  O  O148  1  0.359000  0.341500  0.022200  1.0  -0.714
  O  O149  1  0.239000  0.427200  0.967800  1.0  -0.6744
  O  O150  1  0.890000  0.338300  0.748000  1.0  -0.724
  O  O151  1  0.591000  0.837100  0.885900  1.0  -0.6628
  O  O152  1  0.577900  0.725800  0.941000  1.0  -0.8201
  O  O153  1  0.782200  0.781900  0.913500  1.0  -0.7238
  O  O154  1  0.442200  0.844200  0.103000  1.0  -0.757
  O  O155  1  0.498000  0.927600  0.803400  1.0  -0.6999
  O  O156  1  0.378400  0.855200  0.205100  1.0  -0.8325
  O  O157  1  0.646900  0.727300  0.839000  1.0  -0.7349
  O  O158  1  0.738500  0.931100  0.074200  1.0  -0.7838
  O  O159  1  0.555900  0.926100  0.168500  1.0  -0.6997
  O  O160  1  0.583700  0.795900  0.178600  1.0  -0.9004
  O  O161  1  0.633000  0.831700  0.020700  1.0  -0.83
  O  O162  1  0.859000  0.841500  0.022200  1.0  -0.714
  O  O163  1  0.739000  0.927200  0.967800  1.0  -0.6744
  O  O164  1  0.390000  0.838300  0.748000  1.0  -0.724
