# generated using pymatgen
data_U5(SO4)9
_symmetry_space_group_name_H-M   'P 1'
_cell_length_a   9.45860000
_cell_length_b   26.76900000
_cell_length_c   32.37700000
_cell_angle_alpha   90.00000000
_cell_angle_beta   90.00000000
_cell_angle_gamma   90.00000000
_symmetry_Int_Tables_number   1
_chemical_formula_structural   U5(SO4)9
_chemical_formula_sum   'U20 S36 O144'
_cell_volume   8197.76779710
_cell_formula_units_Z   4
loop_
 _symmetry_equiv_pos_site_id
 _symmetry_equiv_pos_as_xyz
  1  'x, y, z'
loop_
 _atom_site_type_symbol
 _atom_site_label
 _atom_site_symmetry_multiplicity
 _atom_site_fract_x
 _atom_site_fract_y
 _atom_site_fract_z
 _atom_site_occupancy
 _atom_site_charge
  U  U1  1  0.238520  0.725610  0.851420  1.0  1.9011
  U  U2  1  0.736790  0.608660  0.902150  1.0  1.9124
  U  U3  1  0.723990  0.945870  0.654600  1.0  1.8124
  U  U4  1  0.754300  0.803580  0.545720  1.0  1.8258
  U  U5  1  0.774110  0.761950  0.708470  1.0  1.9364
  U  U6  1  0.261480  0.274390  0.351420  1.0  1.9031
  U  U7  1  0.763210  0.391340  0.402150  1.0  1.9137
  U  U8  1  0.776010  0.054130  0.154600  1.0  1.8131
  U  U9  1  0.745700  0.196420  0.045720  1.0  1.8254
  U  U10  1  0.725890  0.238050  0.208470  1.0  1.9368
  U  U11  1  0.761480  0.225610  0.648580  1.0  1.9003
  U  U12  1  0.263210  0.108660  0.597850  1.0  1.911
  U  U13  1  0.276010  0.445870  0.845400  1.0  1.8147
  U  U14  1  0.245700  0.303580  0.954280  1.0  1.8214
  U  U15  1  0.225890  0.261950  0.791530  1.0  1.9366
  U  U16  1  0.738520  0.774390  0.148580  1.0  1.9017
  U  U17  1  0.236790  0.891340  0.097850  1.0  1.9119
  U  U18  1  0.223990  0.554130  0.345400  1.0  1.8132
  U  U19  1  0.254300  0.696420  0.454280  1.0  1.8217
  U  U20  1  0.274110  0.738050  0.291530  1.0  1.936
  S  S21  1  0.474600  0.712780  0.767080  1.0  1.508
  S  S22  1  0.014100  0.715230  0.761070  1.0  1.578
  S  S23  1  0.957400  0.840240  0.633850  1.0  1.5201
  S  S24  1  0.540600  0.828880  0.640970  1.0  1.5847
  S  S25  1  0.013600  0.701950  0.919230  1.0  1.5312
  S  S26  1  0.512200  0.526310  0.841420  1.0  1.6512
  S  S27  1  0.511200  0.689110  0.925310  1.0  1.5856
  S  S28  1  0.957500  0.776650  0.474410  1.0  1.6157
  S  S29  1  0.974400  0.531720  0.843890  1.0  1.5047
  S  S30  1  0.025400  0.287220  0.267080  1.0  1.5082
  S  S31  1  0.485900  0.284770  0.261070  1.0  1.5782
  S  S32  1  0.542600  0.159760  0.133850  1.0  1.5181
  S  S33  1  0.959400  0.171120  0.140970  1.0  1.5853
  S  S34  1  0.486400  0.298050  0.419230  1.0  1.5324
  S  S35  1  0.987800  0.473690  0.341420  1.0  1.6513
  S  S36  1  0.988800  0.310890  0.425310  1.0  1.5861
  S  S37  1  0.542500  0.223350  0.974410  1.0  1.6164
  S  S38  1  0.525600  0.468280  0.343890  1.0  1.5036
  S  S39  1  0.525400  0.212780  0.732920  1.0  1.5075
  S  S40  1  0.985900  0.215230  0.738930  1.0  1.5778
  S  S41  1  0.042600  0.340240  0.866150  1.0  1.5177
  S  S42  1  0.459400  0.328880  0.859030  1.0  1.5852
  S  S43  1  0.986400  0.201950  0.580770  1.0  1.5309
  S  S44  1  0.487800  0.026310  0.658580  1.0  1.6512
  S  S45  1  0.488800  0.189110  0.574690  1.0  1.586
  S  S46  1  0.042500  0.276650  0.025590  1.0  1.6157
  S  S47  1  0.025600  0.031720  0.656110  1.0  1.5043
  S  S48  1  0.974600  0.787220  0.232920  1.0  1.5084
  S  S49  1  0.514100  0.784770  0.238930  1.0  1.5779
  S  S50  1  0.457400  0.659760  0.366150  1.0  1.5201
  S  S51  1  0.040600  0.671120  0.359030  1.0  1.5847
  S  S52  1  0.513600  0.798050  0.080770  1.0  1.5315
  S  S53  1  0.012200  0.973690  0.158580  1.0  1.6506
  S  S54  1  0.011200  0.810890  0.074690  1.0  1.5862
  S  S55  1  0.457500  0.723350  0.525590  1.0  1.6163
  S  S56  1  0.474400  0.968280  0.156110  1.0  1.5053
  O  O57  1  0.095100  0.740300  0.794600  1.0  -0.7062
  O  O58  1  0.416800  0.738500  0.804100  1.0  -0.6684
  O  O59  1  0.591600  0.543200  0.878300  1.0  -0.6606
  O  O60  1  0.488000  0.636100  0.915000  1.0  -0.6602
  O  O61  1  0.903700  0.885900  0.657300  1.0  -0.7523
  O  O62  1  0.990900  0.721300  0.876500  1.0  -0.7208
  O  O63  1  0.388900  0.827500  0.636600  1.0  -0.5693
  O  O64  1  0.921100  0.843300  0.590200  1.0  -0.6167
  O  O65  1  0.584100  0.873900  0.663000  1.0  -0.6189
  O  O66  1  0.895100  0.794100  0.651600  1.0  -0.717
  O  O67  1  0.458600  0.702900  0.965200  1.0  -0.499
  O  O68  1  0.172800  0.697400  0.922200  1.0  -0.7571
  O  O69  1  0.591700  0.784300  0.664500  1.0  -0.719
  O  O70  1  0.452200  0.722000  0.892700  1.0  -0.7001
  O  O71  1  0.804700  0.764800  0.478900  1.0  -0.7216
  O  O72  1  0.857800  0.718700  0.770900  1.0  -0.7436
  O  O73  1  0.358300  0.533800  0.849100  1.0  -0.7149
  O  O74  1  0.058800  0.663000  0.756200  1.0  -0.5501
  O  O75  1  0.078500  0.495300  0.859400  1.0  -0.6809
  O  O76  1  0.026400  0.744700  0.721900  1.0  -0.7499
  O  O77  1  0.667500  0.694200  0.924000  1.0  -0.7032
  O  O78  1  0.989700  0.804500  0.512100  1.0  -0.6373
  O  O79  1  0.961800  0.734400  0.951400  1.0  -0.5642
  O  O80  1  0.579100  0.748800  0.750200  1.0  -0.6852
  O  O81  1  0.362800  0.704300  0.737500  1.0  -0.5832
  O  O82  1  0.912100  0.554900  0.883100  1.0  -0.7314
  O  O83  1  0.611300  0.829200  0.600300  1.0  -0.6754
  O  O84  1  0.554600  0.552700  0.804700  1.0  -0.5599
  O  O85  1  0.036100  0.728200  0.475300  1.0  -0.7133
  O  O86  1  0.949200  0.651000  0.923600  1.0  -0.733
  O  O87  1  0.859700  0.506000  0.821900  1.0  -0.5696
  O  O88  1  0.044900  0.569800  0.820200  1.0  -0.5387
  O  O89  1  0.992200  0.804800  0.438400  1.0  -0.4871
  O  O90  1  0.542000  0.667700  0.778900  1.0  -0.4874
  O  O91  1  0.527300  0.471300  0.838800  1.0  -0.6873
  O  O92  1  0.109100  0.838100  0.637600  1.0  -0.5705
  O  O93  1  0.404900  0.259700  0.294600  1.0  -0.7055
  O  O94  1  0.083200  0.261500  0.304100  1.0  -0.6676
  O  O95  1  0.908400  0.456800  0.378300  1.0  -0.6615
  O  O96  1  0.012000  0.363900  0.415000  1.0  -0.6601
  O  O97  1  0.596300  0.114100  0.157300  1.0  -0.7507
  O  O98  1  0.509100  0.278700  0.376500  1.0  -0.7253
  O  O99  1  0.111100  0.172500  0.136600  1.0  -0.5655
  O  O100  1  0.578900  0.156700  0.090200  1.0  -0.6173
  O  O101  1  0.915900  0.126100  0.163000  1.0  -0.6211
  O  O102  1  0.604900  0.205900  0.151600  1.0  -0.7163
  O  O103  1  0.041400  0.297100  0.465200  1.0  -0.4919
  O  O104  1  0.327200  0.302600  0.422200  1.0  -0.7558
  O  O105  1  0.908300  0.215700  0.164500  1.0  -0.7179
  O  O106  1  0.047800  0.278000  0.392700  1.0  -0.6964
  O  O107  1  0.695300  0.235200  0.978900  1.0  -0.7213
  O  O108  1  0.642200  0.281300  0.270900  1.0  -0.7465
  O  O109  1  0.141700  0.466200  0.349100  1.0  -0.718
  O  O110  1  0.441200  0.337000  0.256200  1.0  -0.5528
  O  O111  1  0.421500  0.504700  0.359400  1.0  -0.6818
  O  O112  1  0.473600  0.255300  0.221900  1.0  -0.752
  O  O113  1  0.832500  0.305800  0.424000  1.0  -0.7025
  O  O114  1  0.510300  0.195500  0.012100  1.0  -0.6386
  O  O115  1  0.538200  0.265600  0.451400  1.0  -0.5624
  O  O116  1  0.920900  0.251200  0.250200  1.0  -0.687
  O  O117  1  0.137200  0.295700  0.237500  1.0  -0.5841
  O  O118  1  0.587900  0.445100  0.383100  1.0  -0.7314
  O  O119  1  0.888700  0.170800  0.100300  1.0  -0.6767
  O  O120  1  0.945400  0.447300  0.304700  1.0  -0.5601
  O  O121  1  0.463900  0.271800  0.975300  1.0  -0.7164
  O  O122  1  0.550800  0.349000  0.423600  1.0  -0.7331
  O  O123  1  0.640300  0.494000  0.321900  1.0  -0.5705
  O  O124  1  0.455100  0.430200  0.320200  1.0  -0.5385
  O  O125  1  0.507800  0.195200  0.938400  1.0  -0.4892
  O  O126  1  0.958000  0.332300  0.278900  1.0  -0.4904
  O  O127  1  0.972700  0.528700  0.338800  1.0  -0.6888
  O  O128  1  0.390900  0.161900  0.137600  1.0  -0.576
  O  O129  1  0.904900  0.240300  0.705400  1.0  -0.7053
  O  O130  1  0.583200  0.238500  0.695900  1.0  -0.667
  O  O131  1  0.408400  0.043200  0.621700  1.0  -0.6594
  O  O132  1  0.512000  0.136100  0.585000  1.0  -0.6611
  O  O133  1  0.096300  0.385900  0.842700  1.0  -0.7513
  O  O134  1  0.009100  0.221300  0.623500  1.0  -0.7253
  O  O135  1  0.611100  0.327500  0.863400  1.0  -0.5629
  O  O136  1  0.078900  0.343300  0.909800  1.0  -0.616
  O  O137  1  0.415900  0.373900  0.837000  1.0  -0.6215
  O  O138  1  0.104900  0.294100  0.848400  1.0  -0.7148
  O  O139  1  0.541400  0.202900  0.534800  1.0  -0.4945
  O  O140  1  0.827200  0.197400  0.577800  1.0  -0.7567
  O  O141  1  0.408300  0.284300  0.835500  1.0  -0.7182
  O  O142  1  0.547800  0.222000  0.607300  1.0  -0.6959
  O  O143  1  0.195300  0.264800  0.021100  1.0  -0.7215
  O  O144  1  0.142200  0.218700  0.729100  1.0  -0.7464
  O  O145  1  0.641700  0.033800  0.650900  1.0  -0.7168
  O  O146  1  0.941200  0.163000  0.743800  1.0  -0.5505
  O  O147  1  0.921500  0.995300  0.640600  1.0  -0.6807
  O  O148  1  0.973600  0.244700  0.778100  1.0  -0.7535
  O  O149  1  0.332500  0.194200  0.576000  1.0  -0.7024
  O  O150  1  0.010300  0.304500  0.987900  1.0  -0.6392
  O  O151  1  0.038200  0.234400  0.548600  1.0  -0.5623
  O  O152  1  0.420900  0.248800  0.749800  1.0  -0.6868
  O  O153  1  0.637200  0.204300  0.762500  1.0  -0.5861
  O  O154  1  0.087900  0.054900  0.616900  1.0  -0.73
  O  O155  1  0.388700  0.329200  0.899700  1.0  -0.6713
  O  O156  1  0.445400  0.052700  0.695300  1.0  -0.5615
  O  O157  1  0.963900  0.228200  0.024700  1.0  -0.714
  O  O158  1  0.050800  0.151000  0.576400  1.0  -0.734
  O  O159  1  0.140300  0.006000  0.678100  1.0  -0.5761
  O  O160  1  0.955100  0.069800  0.679800  1.0  -0.5464
  O  O161  1  0.007800  0.304800  0.061600  1.0  -0.4893
  O  O162  1  0.458000  0.167700  0.721100  1.0  -0.4875
  O  O163  1  0.472700  0.971300  0.661200  1.0  -0.6882
  O  O164  1  0.890900  0.338100  0.862400  1.0  -0.576
  O  O165  1  0.595100  0.759700  0.205400  1.0  -0.7037
  O  O166  1  0.916800  0.761500  0.195900  1.0  -0.6675
  O  O167  1  0.091600  0.956800  0.121700  1.0  -0.659
  O  O168  1  0.988000  0.863900  0.085000  1.0  -0.6669
  O  O169  1  0.403700  0.614100  0.342700  1.0  -0.7507
  O  O170  1  0.490900  0.778700  0.123500  1.0  -0.7272
  O  O171  1  0.888900  0.672500  0.363400  1.0  -0.5667
  O  O172  1  0.421100  0.656700  0.409800  1.0  -0.6135
  O  O173  1  0.084100  0.626100  0.337000  1.0  -0.6205
  O  O174  1  0.395100  0.705900  0.348400  1.0  -0.7162
  O  O175  1  0.958600  0.797100  0.034800  1.0  -0.4939
  O  O176  1  0.672800  0.802600  0.077800  1.0  -0.7581
  O  O177  1  0.091700  0.715700  0.335500  1.0  -0.7183
  O  O178  1  0.952200  0.778000  0.107300  1.0  -0.6971
  O  O179  1  0.304700  0.735200  0.521100  1.0  -0.7211
  O  O180  1  0.357800  0.781300  0.229100  1.0  -0.7442
  O  O181  1  0.858300  0.966200  0.150900  1.0  -0.7157
  O  O182  1  0.558800  0.837000  0.243800  1.0  -0.5547
  O  O183  1  0.578500  0.004700  0.140600  1.0  -0.6791
  O  O184  1  0.526400  0.755300  0.278100  1.0  -0.7531
  O  O185  1  0.167500  0.805800  0.076000  1.0  -0.7049
  O  O186  1  0.489700  0.695500  0.487900  1.0  -0.6391
  O  O187  1  0.461800  0.765600  0.048600  1.0  -0.5628
  O  O188  1  0.079100  0.751200  0.249800  1.0  -0.6866
  O  O189  1  0.862800  0.795700  0.262500  1.0  -0.5848
  O  O190  1  0.412100  0.945100  0.116900  1.0  -0.7294
  O  O191  1  0.111300  0.670800  0.399700  1.0  -0.6709
  O  O192  1  0.054600  0.947300  0.195300  1.0  -0.5621
  O  O193  1  0.536100  0.771800  0.524700  1.0  -0.7151
  O  O194  1  0.449200  0.849000  0.076400  1.0  -0.7353
  O  O195  1  0.359700  0.994000  0.178100  1.0  -0.5709
  O  O196  1  0.544900  0.930200  0.179800  1.0  -0.5469
  O  O197  1  0.492200  0.695200  0.561600  1.0  -0.4876
  O  O198  1  0.042000  0.832300  0.221100  1.0  -0.4891
  O  O199  1  0.027300  0.028700  0.161200  1.0  -0.6871
  O  O200  1  0.609100  0.661900  0.362400  1.0  -0.5704
