# generated using pymatgen
data_KFe(CN)6
_symmetry_space_group_name_H-M   'P 1'
_cell_length_a   13.46200000
_cell_length_b   8.76700000
_cell_length_c   15.12500000
_cell_angle_alpha   90.00000000
_cell_angle_beta   111.93000000
_cell_angle_gamma   90.00000000
_symmetry_Int_Tables_number   1
_chemical_formula_structural   KFe(CN)6
_chemical_formula_sum   'K4 Fe4 C24 N24'
_cell_volume   1655.90658147
_cell_formula_units_Z   4
loop_
 _symmetry_equiv_pos_site_id
 _symmetry_equiv_pos_as_xyz
  1  'x, y, z'
loop_
 _atom_site_type_symbol
 _atom_site_label
 _atom_site_symmetry_multiplicity
 _atom_site_fract_x
 _atom_site_fract_y
 _atom_site_fract_z
 _atom_site_occupancy
 _atom_site_charge
  K  K1  1  0.000000  0.751560  0.750000  1.0  1.0595
  K  K2  1  0.500000  0.251560  0.750000  1.0  1.0595
  K  K3  1  0.000000  0.248440  0.250000  1.0  1.0586
  K  K4  1  0.500000  0.748440  0.250000  1.0  1.0586
  Fe  Fe5  1  0.250000  0.250000  0.000000  1.0  0.1513
  Fe  Fe6  1  0.750000  0.250000  0.500000  1.0  0.1513
  Fe  Fe7  1  0.750000  0.750000  0.000000  1.0  0.1513
  Fe  Fe8  1  0.250000  0.750000  0.500000  1.0  0.1513
  C  C9  1  0.165300  0.081500  0.925100  1.0  0.2622
  C  C10  1  0.165500  0.403000  0.909600  1.0  0.2802
  C  C11  1  0.337400  0.232000  0.922800  1.0  0.2961
  C  C12  1  0.665300  0.581500  0.925100  1.0  0.2622
  C  C13  1  0.665500  0.903000  0.909600  1.0  0.2802
  C  C14  1  0.837400  0.732000  0.922800  1.0  0.2961
  C  C15  1  0.834700  0.081500  0.574900  1.0  0.2632
  C  C16  1  0.834500  0.403000  0.590400  1.0  0.2809
  C  C17  1  0.662600  0.232000  0.577200  1.0  0.2957
  C  C18  1  0.334700  0.581500  0.574900  1.0  0.2632
  C  C19  1  0.334500  0.903000  0.590400  1.0  0.2809
  C  C20  1  0.162600  0.732000  0.577200  1.0  0.2957
  C  C21  1  0.834700  0.918500  0.074900  1.0  0.2675
  C  C22  1  0.834500  0.597000  0.090400  1.0  0.2838
  C  C23  1  0.662600  0.768000  0.077200  1.0  0.2923
  C  C24  1  0.334700  0.418500  0.074900  1.0  0.2675
  C  C25  1  0.334500  0.097000  0.090400  1.0  0.2838
  C  C26  1  0.162600  0.268000  0.077200  1.0  0.2923
  C  C27  1  0.165300  0.918500  0.425100  1.0  0.2677
  C  C28  1  0.165500  0.597000  0.409600  1.0  0.2819
  C  C29  1  0.337400  0.768000  0.422800  1.0  0.2926
  C  C30  1  0.665300  0.418500  0.425100  1.0  0.2677
  C  C31  1  0.665500  0.097000  0.409600  1.0  0.2819
  C  C32  1  0.837400  0.268000  0.422800  1.0  0.2926
  N  N33  1  0.119700  0.975500  0.885100  1.0  -0.4487
  N  N34  1  0.119000  0.494800  0.855200  1.0  -0.5072
  N  N35  1  0.386700  0.216600  0.875700  1.0  -0.4895
  N  N36  1  0.619700  0.475500  0.885100  1.0  -0.4487
  N  N37  1  0.619000  0.994800  0.855200  1.0  -0.5072
  N  N38  1  0.886700  0.716600  0.875700  1.0  -0.4895
  N  N39  1  0.880300  0.975500  0.614900  1.0  -0.4496
  N  N40  1  0.881000  0.494800  0.644800  1.0  -0.508
  N  N41  1  0.613300  0.216600  0.624300  1.0  -0.4872
  N  N42  1  0.380300  0.475500  0.614900  1.0  -0.4496
  N  N43  1  0.381000  0.994800  0.644800  1.0  -0.508
  N  N44  1  0.113300  0.716600  0.624300  1.0  -0.4872
  N  N45  1  0.880300  0.024500  0.114900  1.0  -0.4551
  N  N46  1  0.881000  0.505200  0.144800  1.0  -0.5044
  N  N47  1  0.613300  0.783400  0.124300  1.0  -0.4878
  N  N48  1  0.380300  0.524500  0.114900  1.0  -0.4551
  N  N49  1  0.381000  0.005200  0.144800  1.0  -0.5044
  N  N50  1  0.113300  0.283400  0.124300  1.0  -0.4878
  N  N51  1  0.119700  0.024500  0.385100  1.0  -0.4536
  N  N52  1  0.119000  0.505200  0.355200  1.0  -0.5044
  N  N53  1  0.386700  0.783400  0.375700  1.0  -0.4894
  N  N54  1  0.619700  0.524500  0.385100  1.0  -0.4536
  N  N55  1  0.619000  0.005200  0.355200  1.0  -0.5044
  N  N56  1  0.886700  0.283400  0.375700  1.0  -0.4894
