# generated using pymatgen
data_KFe(CN)6
_symmetry_space_group_name_H-M   'P 1'
_cell_length_a   8.74980000
_cell_length_b   8.74980000
_cell_length_c   19.02900000
_cell_angle_alpha   90.00000000
_cell_angle_beta   90.00000000
_cell_angle_gamma   120.00000000
_symmetry_Int_Tables_number   1
_chemical_formula_structural   KFe(CN)6
_chemical_formula_sum   'K3 Fe3 C18 N18'
_cell_volume   1261.66149867
_cell_formula_units_Z   3
loop_
 _symmetry_equiv_pos_site_id
 _symmetry_equiv_pos_as_xyz
  1  'x, y, z'
loop_
 _atom_site_type_symbol
 _atom_site_label
 _atom_site_symmetry_multiplicity
 _atom_site_fract_x
 _atom_site_fract_y
 _atom_site_fract_z
 _atom_site_occupancy
 _atom_site_charge
  K  K1  1  0.333333  0.666667  0.666667  1.0  1.0535
  K  K2  1  0.000000  0.000000  0.000000  1.0  1.055
  K  K3  1  0.666667  0.333333  0.333333  1.0  1.0541
  Fe  Fe4  1  0.000000  0.000000  0.500000  1.0  -0.2466
  Fe  Fe5  1  0.666667  0.333333  0.833330  1.0  -0.2486
  Fe  Fe6  1  0.333333  0.666667  0.166670  1.0  -0.2498
  C  C7  1  0.106000  0.212000  0.557110  1.0  0.3107
  C  C8  1  0.772670  0.545330  0.890440  1.0  0.3149
  C  C9  1  0.439330  0.878670  0.223780  1.0  0.315
  C  C10  1  0.788000  0.894000  0.557110  1.0  0.3122
  C  C11  1  0.454670  0.227330  0.890440  1.0  0.3122
  C  C12  1  0.121330  0.560670  0.223780  1.0  0.3166
  C  C13  1  0.106000  0.894000  0.557110  1.0  0.3131
  C  C14  1  0.772670  0.227330  0.890440  1.0  0.3073
  C  C15  1  0.439330  0.560670  0.223780  1.0  0.3073
  C  C16  1  0.212000  0.106000  0.442890  1.0  0.3201
  C  C17  1  0.878670  0.439330  0.776220  1.0  0.3201
  C  C18  1  0.545330  0.772670  0.109560  1.0  0.3201
  C  C19  1  0.894000  0.788000  0.442890  1.0  0.3197
  C  C20  1  0.560670  0.121330  0.776220  1.0  0.3204
  C  C21  1  0.227330  0.454670  0.109560  1.0  0.3197
  C  C22  1  0.894000  0.106000  0.442890  1.0  0.3193
  C  C23  1  0.560670  0.439330  0.776220  1.0  0.3152
  C  C24  1  0.227330  0.772670  0.109560  1.0  0.3152
  N  N25  1  0.170050  0.340100  0.589330  1.0  -0.4565
  N  N26  1  0.836720  0.673430  0.922660  1.0  -0.4545
  N  N27  1  0.503380  0.006770  0.256000  1.0  -0.4565
  N  N28  1  0.659900  0.829950  0.589330  1.0  -0.4514
  N  N29  1  0.326570  0.163280  0.922660  1.0  -0.4494
  N  N30  1  0.993230  0.496620  0.256000  1.0  -0.4514
  N  N31  1  0.170050  0.829950  0.589330  1.0  -0.4482
  N  N32  1  0.836720  0.163280  0.922660  1.0  -0.442
  N  N33  1  0.503380  0.496620  0.256000  1.0  -0.4412
  N  N34  1  0.340100  0.170050  0.410670  1.0  -0.4538
  N  N35  1  0.006770  0.503380  0.744000  1.0  -0.4538
  N  N36  1  0.673430  0.836720  0.077340  1.0  -0.4513
  N  N37  1  0.829950  0.659900  0.410670  1.0  -0.4531
  N  N38  1  0.496620  0.993230  0.744000  1.0  -0.4531
  N  N39  1  0.163280  0.326570  0.077340  1.0  -0.4511
  N  N40  1  0.829950  0.170050  0.410670  1.0  -0.4472
  N  N41  1  0.496620  0.503380  0.744000  1.0  -0.4407
  N  N42  1  0.163280  0.836720  0.077340  1.0  -0.4412
