# generated using pymatgen
data_KFe(CN)6
_symmetry_space_group_name_H-M   'P 1'
_cell_length_a   8.76320000
_cell_length_b   8.76320000
_cell_length_c   18.81970000
_cell_angle_alpha   90.00000000
_cell_angle_beta   90.00000000
_cell_angle_gamma   120.00000000
_symmetry_Int_Tables_number   1
_chemical_formula_structural   KFe(CN)6
_chemical_formula_sum   'K3 Fe3 C18 N18'
_cell_volume   1251.60928142
_cell_formula_units_Z   3
loop_
 _symmetry_equiv_pos_site_id
 _symmetry_equiv_pos_as_xyz
  1  'x, y, z'
loop_
 _atom_site_type_symbol
 _atom_site_label
 _atom_site_symmetry_multiplicity
 _atom_site_fract_x
 _atom_site_fract_y
 _atom_site_fract_z
 _atom_site_occupancy
 _atom_site_charge
  K  K1  1  0.000000  0.000000  0.500000  1.0  1.0346
  K  K2  1  0.666667  0.333333  0.833330  1.0  1.0332
  K  K3  1  0.333333  0.666667  0.166670  1.0  1.0337
  Fe  Fe4  1  0.666667  0.333333  0.333333  1.0  -0.072
  Fe  Fe5  1  0.333333  0.666667  0.666667  1.0  -0.0728
  Fe  Fe6  1  0.000000  0.000000  0.000000  1.0  -0.0565
  C  C7  1  0.773200  0.226800  0.391200  1.0  0.288
  C  C8  1  0.439870  0.560130  0.724530  1.0  0.2874
  C  C9  1  0.106530  0.893470  0.057870  1.0  0.2824
  C  C10  1  0.773200  0.546400  0.391200  1.0  0.2711
  C  C11  1  0.439870  0.879730  0.724530  1.0  0.2769
  C  C12  1  0.106530  0.213070  0.057870  1.0  0.2798
  C  C13  1  0.453600  0.226800  0.391200  1.0  0.2867
  C  C14  1  0.120270  0.560130  0.724530  1.0  0.2815
  C  C15  1  0.786930  0.893470  0.057870  1.0  0.2857
  C  C16  1  0.226800  0.773200  0.608800  1.0  0.3022
  C  C17  1  0.893470  0.106530  0.942130  1.0  0.2828
  C  C18  1  0.560130  0.439870  0.275470  1.0  0.3022
  C  C19  1  0.546400  0.773200  0.608800  1.0  0.2829
  C  C20  1  0.213070  0.106530  0.942130  1.0  0.2867
  C  C21  1  0.879730  0.439870  0.275470  1.0  0.2829
  C  C22  1  0.226800  0.453600  0.608800  1.0  0.2843
  C  C23  1  0.893470  0.786930  0.942130  1.0  0.3035
  C  C24  1  0.560130  0.120270  0.275470  1.0  0.282
  N  N25  1  0.836600  0.163400  0.423600  1.0  -0.4467
  N  N26  1  0.503270  0.496730  0.756930  1.0  -0.4417
  N  N27  1  0.169930  0.830070  0.090270  1.0  -0.4421
  N  N28  1  0.836600  0.673200  0.423600  1.0  -0.4519
  N  N29  1  0.503270  0.006530  0.756930  1.0  -0.4519
  N  N30  1  0.169930  0.339870  0.090270  1.0  -0.4497
  N  N31  1  0.326800  0.163400  0.423600  1.0  -0.4474
  N  N32  1  0.993470  0.496730  0.756930  1.0  -0.4474
  N  N33  1  0.660130  0.830070  0.090270  1.0  -0.4453
  N  N34  1  0.163400  0.836600  0.576400  1.0  -0.4456
  N  N35  1  0.830070  0.169930  0.909730  1.0  -0.4418
  N  N36  1  0.496730  0.503270  0.243070  1.0  -0.4408
  N  N37  1  0.673200  0.836600  0.576400  1.0  -0.4509
  N  N38  1  0.339870  0.169930  0.909730  1.0  -0.4484
  N  N39  1  0.006530  0.503270  0.243070  1.0  -0.4509
  N  N40  1  0.163400  0.326800  0.576400  1.0  -0.4497
  N  N41  1  0.830070  0.660130  0.909730  1.0  -0.4474
  N  N42  1  0.496730  0.993470  0.243070  1.0  -0.4497
