# generated using pymatgen
data_ZnH8C17(O2F3)2
_symmetry_space_group_name_H-M   'P 1'
_cell_length_a   21.22400000
_cell_length_b   21.22400000
_cell_length_c   7.71000000
_cell_angle_alpha   90.00000000
_cell_angle_beta   90.00000000
_cell_angle_gamma   120.00000000
_symmetry_Int_Tables_number   1
_chemical_formula_structural   ZnH8C17(O2F3)2
_chemical_formula_sum   'Zn6 H48 C102 O24 F36'
_cell_volume   3007.73440518
_cell_formula_units_Z   6
loop_
 _symmetry_equiv_pos_site_id
 _symmetry_equiv_pos_as_xyz
  1  'x, y, z'
loop_
 _atom_site_type_symbol
 _atom_site_label
 _atom_site_symmetry_multiplicity
 _atom_site_fract_x
 _atom_site_fract_y
 _atom_site_fract_z
 _atom_site_occupancy
 _atom_site_charge
  Zn  Zn1  1  0.633130  0.366890  0.149080  1.0  1.0517
  Zn  Zn2  1  0.033500  0.066970  0.482120  1.0  1.0326
  Zn  Zn3  1  0.633110  0.266240  0.482410  1.0  1.0527
  Zn  Zn4  1  0.933030  0.966530  0.815450  1.0  1.0313
  Zn  Zn5  1  0.733760  0.366870  0.815750  1.0  1.0512
  Zn  Zn6  1  0.033470  0.966500  0.148790  1.0  1.0308
  H  H7  1  0.403700  0.326400  0.924200  1.0  0.1151
  H  H8  1  0.695200  0.510700  0.506900  1.0  0.089
  H  H9  1  0.176000  0.149900  0.834000  1.0  0.0933
  H  H10  1  0.740100  0.818400  0.035800  1.0  0.0971
  H  H11  1  0.851000  0.824000  0.462200  1.0  0.0958
  H  H12  1  0.589700  0.514400  0.930100  1.0  0.1042
  H  H13  1  0.183900  0.260600  0.263700  1.0  0.1026
  H  H14  1  0.491000  0.305900  0.790300  1.0  0.0918
  H  H15  1  0.263600  0.257000  0.708000  1.0  0.1129
  H  H16  1  0.675200  0.597200  0.375100  1.0  0.1209
  H  H17  1  0.567200  0.600100  0.802400  1.0  0.1036
  H  H18  1  0.742400  0.736200  0.590000  1.0  0.1081
  H  H19  1  0.485000  0.411900  0.369300  1.0  0.1008
  H  H20  1  0.399100  0.431600  0.492900  1.0  0.1061
  H  H21  1  0.632100  0.732000  0.161400  1.0  0.1139
  H  H22  1  0.268100  0.366700  0.134700  1.0  0.0993
  H  H23  1  0.673600  0.077300  0.257530  1.0  0.1153
  H  H24  1  0.489300  0.184500  0.840230  1.0  0.0897
  H  H25  1  0.850100  0.026100  0.167330  1.0  0.0932
  H  H26  1  0.181600  0.921700  0.369130  1.0  0.0974
  H  H27  1  0.176000  0.027000  0.795530  1.0  0.0957
  H  H28  1  0.485600  0.075300  0.263430  1.0  0.1047
  H  H29  1  0.739400  0.923300  0.597030  1.0  0.1021
  H  H30  1  0.694100  0.185100  0.123630  1.0  0.0915
  H  H31  1  0.743000  0.006600  0.041330  1.0  0.1125
  H  H32  1  0.402800  0.078000  0.708430  1.0  0.121
  H  H33  1  0.399900  0.967100  0.135730  1.0  0.104
  H  H34  1  0.263800  0.006200  0.923330  1.0  0.1079
  H  H35  1  0.588100  0.073100  0.702630  1.0  0.1006
  H  H36  1  0.568400  0.967500  0.826230  1.0  0.1061
  H  H37  1  0.268000  0.900100  0.494730  1.0  0.1142
  H  H38  1  0.633300  0.901400  0.468030  1.0  0.0992
  H  H39  1  0.922700  0.596300  0.590870  1.0  0.1162
  H  H40  1  0.815500  0.304800  0.173570  1.0  0.0887
  H  H41  1  0.973900  0.824000  0.500670  1.0  0.0931
  H  H42  1  0.078300  0.259900  0.702470  1.0  0.0974
  H  H43  1  0.973000  0.149000  0.128870  1.0  0.0963
  H  H44  1  0.924700  0.410300  0.596770  1.0  0.1046
  H  H45  1  0.076700  0.816100  0.930370  1.0  0.1028
  H  H46  1  0.814900  0.509000  0.456970  1.0  0.0913
  H  H47  1  0.993400  0.736400  0.374670  1.0  0.1131
  H  H48  1  0.922000  0.324800  0.041770  1.0  0.121
  H  H49  1  0.032900  0.432800  0.469070  1.0  0.1037
  H  H50  1  0.993800  0.257600  0.256670  1.0  0.1081
  H  H51  1  0.926900  0.515000  0.035970  1.0  0.1009
  H  H52  1  0.032500  0.600900  0.159570  1.0  0.1055
  H  H53  1  0.099900  0.367900  0.828070  1.0  0.1144
  H  H54  1  0.098600  0.731900  0.801370  1.0  0.0992
  C  C55  1  0.656800  0.447300  0.821000  1.0  0.683
  C  C56  1  0.875500  0.884800  0.143500  1.0  0.6908
  C  C57  1  0.552400  0.343000  0.478600  1.0  0.6841
  C  C58  1  0.114600  0.125000  0.152700  1.0  0.6991
  C  C59  1  0.495900  0.356500  0.566000  1.0  -0.1615
  C  C60  1  0.806700  0.829600  0.232900  1.0  -0.0729
  C  C61  1  0.643600  0.503500  0.729200  1.0  -0.1502
  C  C62  1  0.170700  0.193700  0.063400  1.0  -0.1507
  C  C63  1  0.419300  0.342900  0.812000  1.0  -0.1158
  C  C64  1  0.669400  0.528800  0.566000  1.0  0.0009
  C  C65  1  0.195000  0.193400  0.895400  1.0  -0.0253
  C  C66  1  0.740900  0.801700  0.146900  1.0  0.0005
  C  C67  1  0.807400  0.805200  0.401300  1.0  -0.0182
  C  C68  1  0.606300  0.530700  0.818500  1.0  -0.0162
  C  C69  1  0.199500  0.259700  0.151500  1.0  -0.0155
  C  C70  1  0.472100  0.331000  0.731600  1.0  -0.0059
  C  C71  1  0.676600  0.723500  0.386800  1.0  0.0651
  C  C72  1  0.247300  0.257600  0.819600  1.0  -0.1303
  C  C73  1  0.657900  0.581200  0.486600  1.0  -0.144
  C  C74  1  0.275700  0.323200  0.909900  1.0  0.0846
  C  C75  1  0.593600  0.583000  0.742100  1.0  -0.1321
  C  C76  1  0.607100  0.666667  0.483800  1.0  -0.2856
  C  C77  1  0.742000  0.752200  0.477900  1.0  -0.1206
  C  C78  1  0.332900  0.394200  0.813700  1.0  -0.3001
  C  C79  1  0.468200  0.394200  0.480200  1.0  -0.0094
  C  C80  1  0.416900  0.406000  0.553800  1.0  -0.1431
  C  C81  1  0.675700  0.749400  0.221400  1.0  -0.153
  C  C82  1  0.542500  0.623600  0.352000  1.0  0.6973
  C  C83  1  0.250400  0.323100  0.074800  1.0  -0.1425
  C  C84  1  0.585700  0.709300  0.610000  1.0  0.7001
  C  C85  1  0.390600  0.380100  0.720000  1.0  0.067
  C  C86  1  0.620000  0.610000  0.576400  1.0  0.0786
  C  C87  1  0.288900  0.412600  0.684000  1.0  0.698
  C  C88  1  0.377200  0.457600  0.946000  1.0  0.7056
  C  C89  1  0.552700  0.209500  0.154330  1.0  0.6845
  C  C90  1  0.115200  0.990700  0.476830  1.0  0.6888
  C  C91  1  0.657000  0.209400  0.811930  1.0  0.6868
  C  C92  1  0.875000  0.989600  0.486030  1.0  0.6958
  C  C93  1  0.643500  0.139400  0.899330  1.0  -0.1634
  C  C94  1  0.170400  0.977100  0.566230  1.0  -0.0736
  C  C95  1  0.496500  0.140100  0.062530  1.0  -0.1511
  C  C96  1  0.806300  0.977000  0.396730  1.0  -0.1493
  C  C97  1  0.657100  0.076400  0.145330  1.0  -0.1149
  C  C98  1  0.471200  0.140600  0.899330  1.0  0.0014
  C  C99  1  0.806600  0.001600  0.228730  1.0  -0.0267
  C  C100  1  0.198300  0.939200  0.480230  1.0  -0.0013
  C  C101  1  0.194800  0.002200  0.734630  1.0  -0.0183
  C  C102  1  0.469300  0.075600  0.151830  1.0  -0.0153
  C  C103  1  0.740300  0.939800  0.484830  1.0  -0.016
  C  C104  1  0.669000  0.141100  0.064930  1.0  -0.0054
  C  C105  1  0.276500  0.953100  0.720130  1.0  0.0668
  C  C106  1  0.742400  0.989700  0.152930  1.0  -0.1309
  C  C107  1  0.418800  0.076700  0.819930  1.0  -0.1494
  C  C108  1  0.676800  0.952500  0.243230  1.0  0.0838
  C  C109  1  0.417000  0.010600  0.075430  1.0  -0.1341
  C  C110  1  0.333400  0.940500  0.817130  1.0  -0.2834
  C  C111  1  0.247800  0.989800  0.811230  1.0  -0.1236
  C  C112  1  0.605800  0.938700  0.147030  1.0  -0.3002
  C  C113  1  0.605800  0.074000  0.813530  1.0  -0.0078
  C  C114  1  0.594000  0.010900  0.887130  1.0  -0.1418
  C  C115  1  0.250600  0.926300  0.554730  1.0  -0.1533
  C  C116  1  0.376400  0.918900  0.685330  1.0  0.6969
  C  C117  1  0.676900  0.927300  0.408130  1.0  -0.1426
  C  C118  1  0.290700  0.876400  0.943330  1.0  0.699
  C  C119  1  0.619900  0.010500  0.053330  1.0  0.0678
  C  C120  1  0.390000  0.010000  0.909730  1.0  0.0784
  C  C121  1  0.587400  0.876300  0.017330  1.0  0.7004
  C  C122  1  0.542400  0.919600  0.279330  1.0  0.7031
  C  C123  1  0.790500  0.343200  0.487670  1.0  0.6811
  C  C124  1  0.009300  0.124500  0.810170  1.0  0.6902
  C  C125  1  0.790600  0.447600  0.145270  1.0  0.6869
  C  C126  1  0.010400  0.885400  0.819370  1.0  0.6987
  C  C127  1  0.860600  0.504100  0.232670  1.0  -0.1646
  C  C128  1  0.022900  0.193300  0.899570  1.0  -0.0764
  C  C129  1  0.859900  0.356400  0.395870  1.0  -0.1501
  C  C130  1  0.023000  0.829300  0.730070  1.0  -0.1496
  C  C131  1  0.923600  0.580700  0.478670  1.0  -0.1104
  C  C132  1  0.859400  0.330600  0.232670  1.0  -0.0004
  C  C133  1  0.998400  0.805000  0.562070  1.0  -0.0253
  C  C134  1  0.060800  0.259100  0.813570  1.0  0.0018
  C  C135  1  0.997800  0.192600  0.067970  1.0  -0.0172
  C  C136  1  0.924400  0.393700  0.485170  1.0  -0.0163
  C  C137  1  0.060200  0.800500  0.818170  1.0  -0.0157
  C  C138  1  0.858900  0.527900  0.398270  1.0  -0.0058
  C  C139  1  0.046900  0.323400  0.053470  1.0  0.0641
  C  C140  1  0.010300  0.752700  0.486270  1.0  -0.1257
  C  C141  1  0.923300  0.342100  0.153270  1.0  -0.1481
  C  C142  1  0.047500  0.724300  0.576570  1.0  0.084
  C  C143  1  0.989400  0.406400  0.408770  1.0  -0.1329
  C  C144  1  0.059500  0.392900  0.150470  1.0  -0.2838
  C  C145  1  0.010200  0.258000  0.144570  1.0  -0.1248
  C  C146  1  0.061300  0.667100  0.480370  1.0  -0.2997
  C  C147  1  0.926000  0.531800  0.146870  1.0  -0.0083
  C  C148  1  0.989100  0.583100  0.220470  1.0  -0.1437
  C  C149  1  0.073700  0.324300  0.888070  1.0  -0.1539
  C  C150  1  0.081100  0.457500  0.018670  1.0  0.6991
  C  C151  1  0.072700  0.749600  0.741470  1.0  -0.1445
  C  C152  1  0.123600  0.414300  0.276670  1.0  0.6973
  C  C153  1  0.989500  0.609400  0.386670  1.0  0.0661
  C  C154  1  0.990000  0.380000  0.243070  1.0  0.0798
  C  C155  1  0.123700  0.711100  0.350670  1.0  0.6996
  C  C156  1  0.080400  0.622800  0.612670  1.0  0.7032
  O  O157  1  0.091700  0.131500  0.298400  1.0  -0.6088
  O  O158  1  0.626800  0.424300  0.963800  1.0  -0.6022
  O  O159  1  0.934200  0.906500  0.227400  1.0  -0.6193
  O  O160  1  0.574900  0.372400  0.334900  1.0  -0.602
  O  O161  1  0.572800  0.305500  0.560900  1.0  -0.6053
  O  O162  1  0.092800  0.065300  0.071300  1.0  -0.6172
  O  O163  1  0.694400  0.426400  0.737900  1.0  -0.6168
  O  O164  1  0.868500  0.908500  0.001300  1.0  -0.6007
  O  O165  1  0.868500  0.960200  0.631730  1.0  -0.609
  O  O166  1  0.575700  0.202500  0.297130  1.0  -0.603
  O  O167  1  0.093500  0.027700  0.560730  1.0  -0.6194
  O  O168  1  0.627600  0.202500  0.668230  1.0  -0.6021
  O  O169  1  0.694500  0.267300  0.894230  1.0  -0.6057
  O  O170  1  0.934700  0.027500  0.404630  1.0  -0.6174
  O  O171  1  0.573600  0.268000  0.071230  1.0  -0.6165
  O  O172  1  0.091500  0.960000  0.334630  1.0  -0.6005
  O  O173  1  0.039800  0.908300  0.965070  1.0  -0.6079
  O  O174  1  0.797500  0.373200  0.630470  1.0  -0.6017
  O  O175  1  0.972300  0.065800  0.894070  1.0  -0.6189
  O  O176  1  0.797500  0.425100  0.001570  1.0  -0.6012
  O  O177  1  0.732700  0.427200  0.227570  1.0  -0.6052
  O  O178  1  0.972500  0.907200  0.737970  1.0  -0.6166
  O  O179  1  0.732000  0.305600  0.404570  1.0  -0.6153
  O  O180  1  0.040000  0.131500  0.667970  1.0  -0.6009
  F  F181  1  0.335400  0.483200  0.012200  1.0  -0.2084
  F  F182  1  0.261500  0.366500  0.557100  1.0  -0.1887
  F  F183  1  0.331300  0.480800  0.619800  1.0  -0.2201
  F  F184  1  0.633400  0.738600  0.740800  1.0  -0.1978
  F  F185  1  0.405700  0.439100  0.074900  1.0  -0.1902
  F  F186  1  0.517100  0.664200  0.285100  1.0  -0.1908
  F  F187  1  0.519600  0.669200  0.678100  1.0  -0.2035
  F  F188  1  0.561400  0.594800  0.223800  1.0  -0.1917
  F  F189  1  0.432200  0.513600  0.862300  1.0  -0.219
  F  F190  1  0.486400  0.567800  0.436300  1.0  -0.2032
  F  F191  1  0.233900  0.414200  0.767700  1.0  -0.2055
  F  F192  1  0.585500  0.766200  0.530300  1.0  -0.2022
  F  F193  1  0.516800  0.852200  0.345530  1.0  -0.2105
  F  F194  1  0.633500  0.895000  0.890430  1.0  -0.1891
  F  F195  1  0.519200  0.850500  0.953130  1.0  -0.2181
  F  F196  1  0.261400  0.894800  0.074130  1.0  -0.1969
  F  F197  1  0.560900  0.966600  0.408230  1.0  -0.1905
  F  F198  1  0.335800  0.852900  0.618430  1.0  -0.1943
  F  F199  1  0.330800  0.850400  0.011430  1.0  -0.2054
  F  F200  1  0.405200  0.966600  0.557130  1.0  -0.1897
  F  F201  1  0.486400  0.918600  0.195630  1.0  -0.2171
  F  F202  1  0.432200  0.918600  0.769630  1.0  -0.2061
  F  F203  1  0.585800  0.819700  0.101030  1.0  -0.2073
  F  F204  1  0.233800  0.819300  0.863630  1.0  -0.2031
  F  F205  1  0.147800  0.664600  0.678870  1.0  -0.2062
  F  F206  1  0.105000  0.738500  0.223770  1.0  -0.1896
  F  F207  1  0.149500  0.668700  0.286470  1.0  -0.2186
  F  F208  1  0.105200  0.366600  0.407470  1.0  -0.1959
  F  F209  1  0.033400  0.594300  0.741570  1.0  -0.1918
  F  F210  1  0.147100  0.482900  0.951770  1.0  -0.194
  F  F211  1  0.149600  0.480400  0.344770  1.0  -0.205
  F  F212  1  0.033400  0.438600  0.890470  1.0  -0.1891
  F  F213  1  0.081400  0.567800  0.528970  1.0  -0.2159
  F  F214  1  0.081400  0.513600  0.102970  1.0  -0.2072
  F  F215  1  0.180300  0.766100  0.434370  1.0  -0.2048
  F  F216  1  0.180700  0.414500  0.196970  1.0  -0.203
