# generated using pymatgen
data_Cu5(CN)6
_symmetry_space_group_name_H-M   'P 1'
_cell_length_a   9.42040000
_cell_length_b   9.42040000
_cell_length_c   16.44900000
_cell_angle_alpha   88.51210000
_cell_angle_beta   88.51210000
_cell_angle_gamma   83.72220000
_symmetry_Int_Tables_number   1
_chemical_formula_structural   Cu5(CN)6
_chemical_formula_sum   'Cu10 C12 N12'
_cell_volume   1450.11333960
_cell_formula_units_Z   2
loop_
 _symmetry_equiv_pos_site_id
 _symmetry_equiv_pos_as_xyz
  1  'x, y, z'
loop_
 _atom_site_type_symbol
 _atom_site_label
 _atom_site_symmetry_multiplicity
 _atom_site_fract_x
 _atom_site_fract_y
 _atom_site_fract_z
 _atom_site_occupancy
 _atom_site_charge
  Cu  Cu1  1  0.494090  0.135070  0.002070  1.0  0.3367
  Cu  Cu2  1  0.864930  0.505910  0.497930  1.0  0.3347
  Cu  Cu3  1  0.505910  0.864930  0.997930  1.0  0.3392
  Cu  Cu4  1  0.135070  0.494090  0.502070  1.0  0.3362
  Cu  Cu5  1  0.000000  0.000000  0.000000  1.0  0.4771
  Cu  Cu6  1  0.000000  0.000000  0.500000  1.0  0.4771
  Cu  Cu7  1  0.634600  0.365400  0.250000  1.0  0.2836
  Cu  Cu8  1  0.365400  0.634600  0.750000  1.0  0.2837
  Cu  Cu9  1  0.598400  0.401600  0.750000  1.0  0.5093
  Cu  Cu10  1  0.401600  0.598400  0.250000  1.0  0.5082
  C  C11  1  0.681800  0.962000  0.988600  1.0  -0.005
  C  C12  1  0.570500  0.284500  0.160700  1.0  -0.0677
  C  C13  1  0.513400  0.241200  0.901700  1.0  0.057
  C  C14  1  0.038000  0.318200  0.511400  1.0  -0.0052
  C  C15  1  0.715500  0.429500  0.339300  1.0  -0.0666
  C  C16  1  0.758800  0.486600  0.598300  1.0  0.0552
  C  C17  1  0.318200  0.038000  0.011400  1.0  -0.0059
  C  C18  1  0.429500  0.715500  0.839300  1.0  -0.0664
  C  C19  1  0.486600  0.758800  0.098300  1.0  0.0566
  C  C20  1  0.962000  0.681800  0.488600  1.0  -0.0049
  C  C21  1  0.284500  0.570500  0.660700  1.0  -0.0675
  C  C22  1  0.241200  0.513400  0.401700  1.0  0.0577
  N  N23  1  0.801400  0.975800  0.986500  1.0  -0.3309
  N  N24  1  0.541600  0.229800  0.101100  1.0  -0.2521
  N  N25  1  0.533900  0.305500  0.842700  1.0  -0.3726
  N  N26  1  0.024200  0.198600  0.513500  1.0  -0.3332
  N  N27  1  0.770200  0.458400  0.398900  1.0  -0.2531
  N  N28  1  0.694500  0.466100  0.657300  1.0  -0.3711
  N  N29  1  0.198600  0.024200  0.013500  1.0  -0.3292
  N  N30  1  0.458400  0.770200  0.898900  1.0  -0.2527
  N  N31  1  0.466100  0.694500  0.157300  1.0  -0.3719
  N  N32  1  0.975800  0.801400  0.486500  1.0  -0.3315
  N  N33  1  0.229800  0.541600  0.601100  1.0  -0.2533
  N  N34  1  0.305500  0.533900  0.342700  1.0  -0.3712
