# generated using pymatgen
data_CdNi(C2N)6
_symmetry_space_group_name_H-M   'P 1'
_cell_length_a   11.47000000
_cell_length_b   7.78200000
_cell_length_c   6.94500000
_cell_angle_alpha   90.00000000
_cell_angle_beta   105.29000000
_cell_angle_gamma   90.00000000
_symmetry_Int_Tables_number   1
_chemical_formula_structural   CdNi(C2N)6
_chemical_formula_sum   'Cd1 Ni1 C12 N6'
_cell_volume   597.96492344
_cell_formula_units_Z   1
loop_
 _symmetry_equiv_pos_site_id
 _symmetry_equiv_pos_as_xyz
  1  'x, y, z'
loop_
 _atom_site_type_symbol
 _atom_site_label
 _atom_site_symmetry_multiplicity
 _atom_site_fract_x
 _atom_site_fract_y
 _atom_site_fract_z
 _atom_site_occupancy
 _atom_site_charge
  Cd  Cd1  1  0.000000  0.000000  0.000000  1.0  1.0211
  Ni  Ni2  1  0.000000  0.500000  0.500000  1.0  0.1884
  C  C3  1  0.963500  0.329000  0.307100  1.0  0.167
  C  C4  1  0.036500  0.329000  0.692900  1.0  0.1666
  C  C5  1  0.036500  0.671000  0.692900  1.0  0.1651
  C  C6  1  0.963500  0.671000  0.307100  1.0  0.1658
  C  C7  1  0.207800  0.000000  0.431900  1.0  0.1199
  C  C8  1  0.337800  0.000000  0.549900  1.0  0.015
  C  C9  1  0.356700  0.000000  0.774100  1.0  0.0438
  C  C10  1  0.487800  0.000000  0.889300  1.0  0.0104
  C  C11  1  0.792200  0.000000  0.568100  1.0  0.1171
  C  C12  1  0.662200  0.000000  0.450100  1.0  0.0166
  C  C13  1  0.643300  0.000000  0.225900  1.0  0.0452
  C  C14  1  0.512200  0.000000  0.110700  1.0  0.0115
  N  N15  1  0.944200  0.219900  0.190700  1.0  -0.4117
  N  N16  1  0.055800  0.219900  0.809300  1.0  -0.4153
  N  N17  1  0.055800  0.780100  0.809300  1.0  -0.4146
  N  N18  1  0.944200  0.780100  0.190700  1.0  -0.4169
  N  N19  1  0.190100  0.000000  0.214800  1.0  -0.297
  N  N20  1  0.809900  0.000000  0.785200  1.0  -0.298
