# generated using pymatgen
data_Mn2PC3O10
_symmetry_space_group_name_H-M   'P 1'
_cell_length_a   8.01400000
_cell_length_b   9.74000000
_cell_length_c   7.74400000
_cell_angle_alpha   102.32000000
_cell_angle_beta   93.38000000
_cell_angle_gamma   75.90000000
_symmetry_Int_Tables_number   1
_chemical_formula_structural   Mn2PC3O10
_chemical_formula_sum   'Mn4 P2 C6 O20'
_cell_volume   572.74068309
_cell_formula_units_Z   2
loop_
 _symmetry_equiv_pos_site_id
 _symmetry_equiv_pos_as_xyz
  1  'x, y, z'
loop_
 _atom_site_type_symbol
 _atom_site_label
 _atom_site_symmetry_multiplicity
 _atom_site_fract_x
 _atom_site_fract_y
 _atom_site_fract_z
 _atom_site_occupancy
 _atom_site_charge
  Mn  Mn1  1  0.031960  0.251260  0.158920  1.0  1.1216
  Mn  Mn2  1  0.309220  0.119550  0.812710  1.0  1.1674
  Mn  Mn3  1  0.968040  0.748740  0.841080  1.0  1.1222
  Mn  Mn4  1  0.690780  0.880450  0.187290  1.0  1.1677
  P  P5  1  0.732680  0.089840  0.926820  1.0  1.7636
  P  P6  1  0.267320  0.910160  0.073180  1.0  1.7629
  C  C7  1  0.065300  0.199200  0.520400  1.0  0.6235
  C  C8  1  0.237100  0.233300  0.481700  1.0  0.604
  C  C9  1  0.076600  0.458200  0.937500  1.0  0.6552
  C  C10  1  0.934700  0.800800  0.479600  1.0  0.6337
  C  C11  1  0.762900  0.766700  0.518300  1.0  0.6061
  C  C12  1  0.923400  0.541800  0.062500  1.0  0.6547
  O  O13  1  0.159500  0.339100  0.971700  1.0  -0.5854
  O  O14  1  0.806100  0.210600  0.037500  1.0  -0.7704
  O  O15  1  0.106000  0.514400  0.816500  1.0  -0.4954
  O  O16  1  0.945400  0.219900  0.410400  1.0  -0.5042
  O  O17  1  0.240300  0.283000  0.346600  1.0  -0.5135
  O  O18  1  0.804700  0.945900  0.984800  1.0  -0.853
  O  O19  1  0.060500  0.153700  0.659300  1.0  -0.4999
  O  O20  1  0.360100  0.207100  0.586700  1.0  -0.5115
  O  O21  1  0.539400  0.133500  0.930200  1.0  -0.7672
  O  O22  1  0.788300  0.066700  0.727500  1.0  -0.4419
  O  O23  1  0.840500  0.660900  0.028300  1.0  -0.5867
  O  O24  1  0.193900  0.789400  0.962500  1.0  -0.7692
  O  O25  1  0.894000  0.485600  0.183500  1.0  -0.4943
  O  O26  1  0.054600  0.780100  0.589600  1.0  -0.5037
  O  O27  1  0.759700  0.717000  0.653400  1.0  -0.5124
  O  O28  1  0.195300  0.054100  0.015200  1.0  -0.851
  O  O29  1  0.939500  0.846300  0.340700  1.0  -0.5001
  O  O30  1  0.639900  0.792900  0.413300  1.0  -0.5146
  O  O31  1  0.460600  0.866500  0.069800  1.0  -0.7649
  O  O32  1  0.211700  0.933300  0.272500  1.0  -0.4435
