# generated using pymatgen
data_GdH3C7NO4
_symmetry_space_group_name_H-M   'P 1'
_cell_length_a   30.55400000
_cell_length_b   16.30600000
_cell_length_c   21.65600000
_cell_angle_alpha   90.00000000
_cell_angle_beta   134.43700000
_cell_angle_gamma   90.00000000
_symmetry_Int_Tables_number   1
_chemical_formula_structural   GdH3C7NO4
_chemical_formula_sum   'Gd16 H48 C112 N16 O64'
_cell_volume   7703.79224519
_cell_formula_units_Z   16
loop_
 _symmetry_equiv_pos_site_id
 _symmetry_equiv_pos_as_xyz
  1  'x, y, z'
loop_
 _atom_site_type_symbol
 _atom_site_label
 _atom_site_symmetry_multiplicity
 _atom_site_fract_x
 _atom_site_fract_y
 _atom_site_fract_z
 _atom_site_occupancy
 _atom_site_charge
  Gd  Gd1  1  0.825570  0.130650  0.955000  1.0  2.0416
  Gd  Gd2  1  0.609820  0.380480  0.696900  1.0  1.9869
  Gd  Gd3  1  0.325570  0.630650  0.955000  1.0  2.0416
  Gd  Gd4  1  0.109820  0.880480  0.696900  1.0  1.9869
  Gd  Gd5  1  0.174430  0.130650  0.545000  1.0  2.0403
  Gd  Gd6  1  0.390180  0.380480  0.803100  1.0  1.9875
  Gd  Gd7  1  0.674430  0.630650  0.545000  1.0  2.0403
  Gd  Gd8  1  0.890180  0.880480  0.803100  1.0  1.9875
  Gd  Gd9  1  0.174430  0.869350  0.045000  1.0  2.0404
  Gd  Gd10  1  0.390180  0.619520  0.303100  1.0  1.9876
  Gd  Gd11  1  0.674430  0.369350  0.045000  1.0  2.0404
  Gd  Gd12  1  0.890180  0.119520  0.303100  1.0  1.9876
  Gd  Gd13  1  0.825570  0.869350  0.455000  1.0  2.0418
  Gd  Gd14  1  0.609820  0.619520  0.196900  1.0  1.9874
  Gd  Gd15  1  0.325570  0.369350  0.455000  1.0  2.0418
  Gd  Gd16  1  0.109820  0.119520  0.196900  1.0  1.9874
  H  H17  1  0.812600  0.428800  0.833100  1.0  0.1019
  H  H18  1  0.915000  0.443100  0.909500  1.0  0.0968
  H  H19  1  0.983800  0.341100  0.003400  1.0  0.1004
  H  H20  1  0.771600  0.172300  0.701600  1.0  0.0981
  H  H21  1  0.738200  0.181300  0.567600  1.0  0.095
  H  H22  1  0.763300  0.079800  0.522500  1.0  0.1003
  H  H23  1  0.312600  0.928800  0.833100  1.0  0.1019
  H  H24  1  0.415000  0.943100  0.909500  1.0  0.0968
  H  H25  1  0.483800  0.841100  0.003400  1.0  0.1004
  H  H26  1  0.271600  0.672300  0.701600  1.0  0.0981
  H  H27  1  0.238200  0.681300  0.567600  1.0  0.095
  H  H28  1  0.263300  0.579800  0.522500  1.0  0.1003
  H  H29  1  0.187400  0.428800  0.666900  1.0  0.1014
  H  H30  1  0.085000  0.443100  0.590500  1.0  0.0966
  H  H31  1  0.016200  0.341100  0.496600  1.0  0.1003
  H  H32  1  0.228400  0.172300  0.798400  1.0  0.0982
  H  H33  1  0.261800  0.181300  0.932400  1.0  0.095
  H  H34  1  0.236700  0.079800  0.977500  1.0  0.1005
  H  H35  1  0.687400  0.928800  0.666900  1.0  0.1014
  H  H36  1  0.585000  0.943100  0.590500  1.0  0.0966
  H  H37  1  0.516200  0.841100  0.496600  1.0  0.1003
  H  H38  1  0.728400  0.672300  0.798400  1.0  0.0982
  H  H39  1  0.761800  0.681300  0.932400  1.0  0.095
  H  H40  1  0.736700  0.579800  0.977500  1.0  0.1005
  H  H41  1  0.187400  0.571200  0.166900  1.0  0.1016
  H  H42  1  0.085000  0.556900  0.090500  1.0  0.0982
  H  H43  1  0.016200  0.658900  0.996600  1.0  0.1007
  H  H44  1  0.228400  0.827700  0.298400  1.0  0.0977
  H  H45  1  0.261800  0.818700  0.432400  1.0  0.0966
  H  H46  1  0.236700  0.920200  0.477500  1.0  0.1007
  H  H47  1  0.687400  0.071200  0.166900  1.0  0.1016
  H  H48  1  0.585000  0.056900  0.090500  1.0  0.0982
  H  H49  1  0.516200  0.158900  0.996600  1.0  0.1007
  H  H50  1  0.728400  0.327700  0.298400  1.0  0.0977
  H  H51  1  0.761800  0.318700  0.432400  1.0  0.0966
  H  H52  1  0.736700  0.420200  0.477500  1.0  0.1007
  H  H53  1  0.812600  0.571200  0.333100  1.0  0.1015
  H  H54  1  0.915000  0.556900  0.409500  1.0  0.0971
  H  H55  1  0.983800  0.658900  0.503400  1.0  0.1006
  H  H56  1  0.771600  0.827700  0.201600  1.0  0.0979
  H  H57  1  0.738200  0.818700  0.067600  1.0  0.0961
  H  H58  1  0.763300  0.920200  0.022500  1.0  0.1001
  H  H59  1  0.312600  0.071200  0.333100  1.0  0.1015
  H  H60  1  0.415000  0.056900  0.409500  1.0  0.0971
  H  H61  1  0.483800  0.158900  0.503400  1.0  0.1006
  H  H62  1  0.271600  0.327700  0.201600  1.0  0.0979
  H  H63  1  0.238200  0.318700  0.067600  1.0  0.096
  H  H64  1  0.263300  0.420200  0.022500  1.0  0.1001
  C  C65  1  0.821200  0.318500  0.882100  1.0  0.031
  C  C66  1  0.840900  0.386900  0.871800  1.0  -0.11
  C  C67  1  0.901200  0.395300  0.916700  1.0  -0.13
  C  C68  1  0.941700  0.335300  0.972000  1.0  -0.1181
  C  C69  1  0.921900  0.266900  0.982300  1.0  0.086
  C  C70  1  0.758000  0.298100  0.837600  1.0  0.6604
  C  C71  1  0.960300  0.199000  0.041000  1.0  0.7265
  C  C72  1  0.816400  0.065400  0.735300  1.0  0.0475
  C  C73  1  0.781900  0.130500  0.683000  1.0  -0.1113
  C  C74  1  0.762300  0.135800  0.604200  1.0  -0.1315
  C  C75  1  0.777000  0.076100  0.577600  1.0  -0.1201
  C  C76  1  0.811500  0.011000  0.629900  1.0  0.089
  C  C77  1  0.836000  0.050000  0.818000  1.0  0.6935
  C  C78  1  0.828000  0.939000  0.610000  1.0  0.586
  C  C79  1  0.321200  0.818500  0.882100  1.0  0.031
  C  C80  1  0.340900  0.886900  0.871800  1.0  -0.11
  C  C81  1  0.401200  0.895300  0.916700  1.0  -0.13
  C  C82  1  0.441700  0.835300  0.972000  1.0  -0.1181
  C  C83  1  0.421900  0.766900  0.982300  1.0  0.086
  C  C84  1  0.258000  0.798100  0.837600  1.0  0.6604
  C  C85  1  0.460300  0.699000  0.041000  1.0  0.7265
  C  C86  1  0.316400  0.565400  0.735300  1.0  0.0475
  C  C87  1  0.281900  0.630500  0.683000  1.0  -0.1113
  C  C88  1  0.262300  0.635800  0.604200  1.0  -0.1315
  C  C89  1  0.277000  0.576100  0.577600  1.0  -0.1201
  C  C90  1  0.311500  0.511000  0.629900  1.0  0.089
  C  C91  1  0.336000  0.550000  0.818000  1.0  0.6935
  C  C92  1  0.328000  0.439000  0.610000  1.0  0.586
  C  C93  1  0.178800  0.318500  0.617900  1.0  0.0304
  C  C94  1  0.159100  0.386900  0.628200  1.0  -0.11
  C  C95  1  0.098800  0.395300  0.583300  1.0  -0.1308
  C  C96  1  0.058300  0.335300  0.528000  1.0  -0.1205
  C  C97  1  0.078100  0.266900  0.517700  1.0  0.0853
  C  C98  1  0.242000  0.298100  0.662400  1.0  0.6598
  C  C99  1  0.039700  0.199000  0.459000  1.0  0.724
  C  C100  1  0.183600  0.065400  0.764700  1.0  0.0477
  C  C101  1  0.218100  0.130500  0.817000  1.0  -0.1107
  C  C102  1  0.237700  0.135800  0.895800  1.0  -0.1314
  C  C103  1  0.223000  0.076100  0.922400  1.0  -0.1222
  C  C104  1  0.188500  0.011000  0.870100  1.0  0.09
  C  C105  1  0.164000  0.050000  0.682000  1.0  0.6908
  C  C106  1  0.172000  0.939000  0.890000  1.0  0.5865
  C  C107  1  0.678800  0.818500  0.617900  1.0  0.0304
  C  C108  1  0.659100  0.886900  0.628200  1.0  -0.11
  C  C109  1  0.598800  0.895300  0.583300  1.0  -0.1308
  C  C110  1  0.558300  0.835300  0.528000  1.0  -0.1205
  C  C111  1  0.578100  0.766900  0.517700  1.0  0.0853
  C  C112  1  0.742000  0.798100  0.662400  1.0  0.6598
  C  C113  1  0.539700  0.699000  0.459000  1.0  0.724
  C  C114  1  0.683600  0.565400  0.764700  1.0  0.0477
  C  C115  1  0.718100  0.630500  0.817000  1.0  -0.1107
  C  C116  1  0.737700  0.635800  0.895800  1.0  -0.1314
  C  C117  1  0.723000  0.576100  0.922400  1.0  -0.1222
  C  C118  1  0.688500  0.511000  0.870100  1.0  0.09
  C  C119  1  0.664000  0.550000  0.682000  1.0  0.6908
  C  C120  1  0.672000  0.439000  0.890000  1.0  0.5865
  C  C121  1  0.178800  0.681500  0.117900  1.0  0.0304
  C  C122  1  0.159100  0.613100  0.128200  1.0  -0.1129
  C  C123  1  0.098800  0.604700  0.083300  1.0  -0.1317
  C  C124  1  0.058300  0.664700  0.028000  1.0  -0.1199
  C  C125  1  0.078100  0.733100  0.017700  1.0  0.085
  C  C126  1  0.242000  0.701900  0.162400  1.0  0.6597
  C  C127  1  0.039700  0.801000  0.959000  1.0  0.7261
  C  C128  1  0.183600  0.934600  0.264700  1.0  0.0472
  C  C129  1  0.218100  0.869500  0.317000  1.0  -0.1128
  C  C130  1  0.237700  0.864200  0.395800  1.0  -0.1328
  C  C131  1  0.223000  0.923900  0.422400  1.0  -0.1223
  C  C132  1  0.188500  0.989000  0.370100  1.0  0.0896
  C  C133  1  0.164000  0.950000  0.182000  1.0  0.691
  C  C134  1  0.172000  0.061000  0.390000  1.0  0.5863
  C  C135  1  0.678800  0.181500  0.117900  1.0  0.0304
  C  C136  1  0.659100  0.113100  0.128200  1.0  -0.1129
  C  C137  1  0.598800  0.104700  0.083300  1.0  -0.1317
  C  C138  1  0.558300  0.164700  0.028000  1.0  -0.1199
  C  C139  1  0.578100  0.233100  0.017700  1.0  0.085
  C  C140  1  0.742000  0.201900  0.162400  1.0  0.6597
  C  C141  1  0.539700  0.301000  0.959000  1.0  0.7261
  C  C142  1  0.683600  0.434600  0.264700  1.0  0.0472
  C  C143  1  0.718100  0.369500  0.317000  1.0  -0.1128
  C  C144  1  0.737700  0.364200  0.395800  1.0  -0.1328
  C  C145  1  0.723000  0.423900  0.422400  1.0  -0.1223
  C  C146  1  0.688500  0.489000  0.370100  1.0  0.0896
  C  C147  1  0.664000  0.450000  0.182000  1.0  0.691
  C  C148  1  0.672000  0.561000  0.390000  1.0  0.5863
  C  C149  1  0.821200  0.681500  0.382100  1.0  0.0308
  C  C150  1  0.840900  0.613100  0.371800  1.0  -0.1132
  C  C151  1  0.901200  0.604700  0.416700  1.0  -0.1309
  C  C152  1  0.941700  0.664700  0.472000  1.0  -0.1183
  C  C153  1  0.921900  0.733100  0.482300  1.0  0.0846
  C  C154  1  0.758000  0.701900  0.337600  1.0  0.6605
  C  C155  1  0.960300  0.801000  0.541000  1.0  0.7264
  C  C156  1  0.816400  0.934600  0.235300  1.0  0.0477
  C  C157  1  0.781900  0.869500  0.183000  1.0  -0.1117
  C  C158  1  0.762300  0.864200  0.104200  1.0  -0.1332
  C  C159  1  0.777000  0.923900  0.077600  1.0  -0.1198
  C  C160  1  0.811500  0.989000  0.129900  1.0  0.0889
  C  C161  1  0.836000  0.950000  0.318000  1.0  0.6931
  C  C162  1  0.828000  0.061000  0.110000  1.0  0.5869
  C  C163  1  0.321200  0.181500  0.382100  1.0  0.0308
  C  C164  1  0.340900  0.113100  0.371800  1.0  -0.1132
  C  C165  1  0.401200  0.104700  0.416700  1.0  -0.1309
  C  C166  1  0.441700  0.164700  0.472000  1.0  -0.1183
  C  C167  1  0.421900  0.233100  0.482300  1.0  0.0846
  C  C168  1  0.258000  0.201900  0.337600  1.0  0.6605
  C  C169  1  0.460300  0.301000  0.541000  1.0  0.7264
  C  C170  1  0.316400  0.434600  0.235300  1.0  0.0477
  C  C171  1  0.281900  0.369500  0.183000  1.0  -0.1117
  C  C172  1  0.262300  0.364200  0.104200  1.0  -0.1332
  C  C173  1  0.277000  0.423900  0.077600  1.0  -0.1198
  C  C174  1  0.311500  0.489000  0.129900  1.0  0.0889
  C  C175  1  0.336000  0.450000  0.318000  1.0  0.6931
  C  C176  1  0.328000  0.561000  0.110000  1.0  0.5869
  N  N177  1  0.861700  0.258500  0.937300  1.0  -0.4879
  N  N178  1  0.831100  0.005700  0.708800  1.0  -0.4501
  N  N179  1  0.361700  0.758500  0.937300  1.0  -0.4879
  N  N180  1  0.331100  0.505700  0.708800  1.0  -0.4501
  N  N181  1  0.138300  0.258500  0.562700  1.0  -0.4866
  N  N182  1  0.168900  0.005700  0.791200  1.0  -0.4517
  N  N183  1  0.638300  0.758500  0.562700  1.0  -0.4866
  N  N184  1  0.668900  0.505700  0.791200  1.0  -0.4517
  N  N185  1  0.138300  0.741500  0.062700  1.0  -0.4868
  N  N186  1  0.168900  0.994300  0.291200  1.0  -0.4534
  N  N187  1  0.638300  0.241500  0.062700  1.0  -0.4868
  N  N188  1  0.668900  0.494300  0.291200  1.0  -0.4534
  N  N189  1  0.861700  0.741500  0.437300  1.0  -0.4882
  N  N190  1  0.831100  0.994300  0.208800  1.0  -0.4526
  N  N191  1  0.361700  0.241500  0.437300  1.0  -0.4882
  N  N192  1  0.331100  0.494300  0.208800  1.0  -0.4526
  O  O193  1  0.746600  0.229900  0.851900  1.0  -0.7289
  O  O194  1  0.717600  0.349800  0.786400  1.0  -0.7449
  O  O195  1  0.932300  0.142100  0.040600  1.0  -0.7248
  O  O196  1  0.016700  0.199000  0.087600  1.0  -0.8078
  O  O197  1  0.866900  0.987100  0.859800  1.0  -0.7212
  O  O198  1  0.820500  0.100100  0.844300  1.0  -0.7598
  O  O199  1  0.853400  0.874000  0.663000  1.0  -0.6273
  O  O200  1  0.813800  0.939000  0.538000  1.0  -0.7546
  O  O201  1  0.246600  0.729900  0.851900  1.0  -0.7289
  O  O202  1  0.217600  0.849800  0.786400  1.0  -0.7449
  O  O203  1  0.432300  0.642100  0.040600  1.0  -0.7248
  O  O204  1  0.516700  0.699000  0.087600  1.0  -0.8078
  O  O205  1  0.366900  0.487100  0.859800  1.0  -0.7212
  O  O206  1  0.320500  0.600100  0.844300  1.0  -0.7598
  O  O207  1  0.353400  0.374000  0.663000  1.0  -0.6273
  O  O208  1  0.313800  0.439000  0.538000  1.0  -0.7546
  O  O209  1  0.253400  0.229900  0.648100  1.0  -0.7303
  O  O210  1  0.282400  0.349800  0.713600  1.0  -0.7441
  O  O211  1  0.067700  0.142100  0.459400  1.0  -0.7249
  O  O212  1  0.983300  0.199000  0.412400  1.0  -0.8095
  O  O213  1  0.133100  0.987100  0.640200  1.0  -0.7175
  O  O214  1  0.179500  0.100100  0.655700  1.0  -0.7604
  O  O215  1  0.146600  0.874000  0.837000  1.0  -0.6274
  O  O216  1  0.186200  0.939000  0.962000  1.0  -0.756
  O  O217  1  0.753400  0.729900  0.648100  1.0  -0.7303
  O  O218  1  0.782400  0.849800  0.713600  1.0  -0.7441
  O  O219  1  0.567700  0.642100  0.459400  1.0  -0.7249
  O  O220  1  0.483300  0.699000  0.412400  1.0  -0.8095
  O  O221  1  0.633100  0.487100  0.640200  1.0  -0.7175
  O  O222  1  0.679500  0.600100  0.655700  1.0  -0.7604
  O  O223  1  0.646600  0.374000  0.837000  1.0  -0.6274
  O  O224  1  0.686200  0.439000  0.962000  1.0  -0.756
  O  O225  1  0.253400  0.770100  0.148100  1.0  -0.733
  O  O226  1  0.282400  0.650200  0.213600  1.0  -0.7443
  O  O227  1  0.067700  0.857900  0.959400  1.0  -0.726
  O  O228  1  0.983300  0.801000  0.912400  1.0  -0.8094
  O  O229  1  0.133100  0.012900  0.140200  1.0  -0.7204
  O  O230  1  0.179500  0.899900  0.155700  1.0  -0.7602
  O  O231  1  0.146600  0.126000  0.337000  1.0  -0.6301
  O  O232  1  0.186200  0.061000  0.462000  1.0  -0.7559
  O  O233  1  0.753400  0.270100  0.148100  1.0  -0.733
  O  O234  1  0.782400  0.150200  0.213600  1.0  -0.7443
  O  O235  1  0.567700  0.357900  0.959400  1.0  -0.726
  O  O236  1  0.483300  0.301000  0.912400  1.0  -0.8094
  O  O237  1  0.633100  0.512900  0.140200  1.0  -0.7204
  O  O238  1  0.679500  0.399900  0.155700  1.0  -0.7602
  O  O239  1  0.646600  0.626000  0.337000  1.0  -0.6301
  O  O240  1  0.686200  0.561000  0.462000  1.0  -0.7559
  O  O241  1  0.746600  0.770100  0.351900  1.0  -0.7327
  O  O242  1  0.717600  0.650200  0.286400  1.0  -0.7451
  O  O243  1  0.932300  0.857900  0.540600  1.0  -0.7237
  O  O244  1  0.016700  0.801000  0.587600  1.0  -0.8075
  O  O245  1  0.866900  0.012900  0.359800  1.0  -0.7219
  O  O246  1  0.820500  0.899900  0.344300  1.0  -0.7599
  O  O247  1  0.853400  0.126000  0.163000  1.0  -0.6284
  O  O248  1  0.813800  0.061000  0.038000  1.0  -0.7544
  O  O249  1  0.246600  0.270100  0.351900  1.0  -0.7327
  O  O250  1  0.217600  0.150200  0.286400  1.0  -0.7451
  O  O251  1  0.432300  0.357900  0.540600  1.0  -0.7237
  O  O252  1  0.516700  0.301000  0.587600  1.0  -0.8075
  O  O253  1  0.366900  0.512900  0.359800  1.0  -0.7219
  O  O254  1  0.320500  0.399900  0.344300  1.0  -0.7599
  O  O255  1  0.353400  0.626000  0.163000  1.0  -0.6284
  O  O256  1  0.313800  0.561000  0.038000  1.0  -0.7544
