# generated using pymatgen
data_TbH3C7NO4
_symmetry_space_group_name_H-M   'P 1'
_cell_length_a   30.34200000
_cell_length_b   16.21900000
_cell_length_c   21.78700000
_cell_angle_alpha   90.00000000
_cell_angle_beta   134.13000000
_cell_angle_gamma   90.00000000
_symmetry_Int_Tables_number   1
_chemical_formula_structural   TbH3C7NO4
_chemical_formula_sum   'Tb16 H48 C112 N16 O64'
_cell_volume   7695.66341122
_cell_formula_units_Z   16
loop_
 _symmetry_equiv_pos_site_id
 _symmetry_equiv_pos_as_xyz
  1  'x, y, z'
loop_
 _atom_site_type_symbol
 _atom_site_label
 _atom_site_symmetry_multiplicity
 _atom_site_fract_x
 _atom_site_fract_y
 _atom_site_fract_z
 _atom_site_occupancy
 _atom_site_charge
  Tb  Tb1  1  0.172200  0.129320  0.543170  1.0  2.0687
  Tb  Tb2  1  0.110720  0.122130  0.201030  1.0  2.0325
  Tb  Tb3  1  0.672200  0.629320  0.543170  1.0  2.0687
  Tb  Tb4  1  0.610720  0.622130  0.201030  1.0  2.0325
  Tb  Tb5  1  0.827800  0.129320  0.956830  1.0  2.0714
  Tb  Tb6  1  0.889280  0.122130  0.298970  1.0  2.0322
  Tb  Tb7  1  0.327800  0.629320  0.956830  1.0  2.0714
  Tb  Tb8  1  0.389280  0.622130  0.298970  1.0  2.0322
  Tb  Tb9  1  0.827800  0.870680  0.456830  1.0  2.072
  Tb  Tb10  1  0.889280  0.877870  0.798970  1.0  2.0321
  Tb  Tb11  1  0.327800  0.370680  0.456830  1.0  2.072
  Tb  Tb12  1  0.389280  0.377870  0.798970  1.0  2.0321
  Tb  Tb13  1  0.172200  0.870680  0.043170  1.0  2.0702
  Tb  Tb14  1  0.110720  0.877870  0.701030  1.0  2.0321
  Tb  Tb15  1  0.672200  0.370680  0.043170  1.0  2.0702
  Tb  Tb16  1  0.610720  0.377870  0.701030  1.0  2.0321
  H  H17  1  0.312000  0.073400  0.333800  1.0  0.0978
  H  H18  1  0.237700  0.925400  0.477600  1.0  0.0918
  H  H19  1  0.228300  0.828900  0.298200  1.0  0.0951
  H  H20  1  0.485800  0.155100  0.510200  1.0  0.0996
  H  H21  1  0.261900  0.820000  0.435300  1.0  0.0952
  H  H22  1  0.414200  0.059200  0.405400  1.0  0.0866
  H  H23  1  0.812000  0.573400  0.333800  1.0  0.0978
  H  H24  1  0.737700  0.425400  0.477600  1.0  0.0918
  H  H25  1  0.728300  0.328900  0.298200  1.0  0.0951
  H  H26  1  0.985800  0.655100  0.510200  1.0  0.0996
  H  H27  1  0.761900  0.320000  0.435300  1.0  0.0952
  H  H28  1  0.914200  0.559200  0.405400  1.0  0.0866
  H  H29  1  0.688000  0.073400  0.166200  1.0  0.0977
  H  H30  1  0.762300  0.925400  0.022400  1.0  0.0916
  H  H31  1  0.771700  0.828900  0.201800  1.0  0.0953
  H  H32  1  0.514200  0.155100  0.989800  1.0  0.1004
  H  H33  1  0.738100  0.820000  0.064700  1.0  0.0948
  H  H34  1  0.585800  0.059200  0.094600  1.0  0.087
  H  H35  1  0.188000  0.573400  0.166200  1.0  0.0977
  H  H36  1  0.262300  0.425400  0.022400  1.0  0.0916
  H  H37  1  0.271700  0.328900  0.201800  1.0  0.0953
  H  H38  1  0.014200  0.655100  0.989800  1.0  0.1004
  H  H39  1  0.238100  0.320000  0.064700  1.0  0.0939
  H  H40  1  0.085800  0.559200  0.094600  1.0  0.087
  H  H41  1  0.688000  0.926600  0.666200  1.0  0.0977
  H  H42  1  0.762300  0.074600  0.522400  1.0  0.0917
  H  H43  1  0.771700  0.171100  0.701800  1.0  0.0955
  H  H44  1  0.514200  0.844900  0.489800  1.0  0.1001
  H  H45  1  0.738100  0.180000  0.564700  1.0  0.0948
  H  H46  1  0.585800  0.940800  0.594600  1.0  0.0853
  H  H47  1  0.188000  0.426600  0.666200  1.0  0.0977
  H  H48  1  0.262300  0.574600  0.522400  1.0  0.0917
  H  H49  1  0.271700  0.671100  0.701800  1.0  0.0955
  H  H50  1  0.014200  0.344900  0.489800  1.0  0.1001
  H  H51  1  0.238100  0.680000  0.564700  1.0  0.0948
  H  H52  1  0.085800  0.440800  0.594600  1.0  0.0853
  H  H53  1  0.312000  0.926600  0.833800  1.0  0.0985
  H  H54  1  0.237700  0.074600  0.977600  1.0  0.0915
  H  H55  1  0.228300  0.171100  0.798200  1.0  0.0954
  H  H56  1  0.485800  0.844900  0.010200  1.0  0.0996
  H  H57  1  0.261900  0.180000  0.935300  1.0  0.0951
  H  H58  1  0.414200  0.940800  0.905400  1.0  0.0863
  H  H59  1  0.812000  0.426600  0.833800  1.0  0.0985
  H  H60  1  0.737700  0.574600  0.977600  1.0  0.0915
  H  H61  1  0.728300  0.671100  0.798200  1.0  0.0954
  H  H62  1  0.985800  0.344900  0.010200  1.0  0.0996
  H  H63  1  0.761900  0.680000  0.935300  1.0  0.0937
  H  H64  1  0.914200  0.440800  0.905400  1.0  0.0863
  C  C65  1  0.188100  0.990900  0.369600  1.0  0.0645
  C  C66  1  0.340500  0.113900  0.371700  1.0  -0.1542
  C  C67  1  0.223700  0.926600  0.423700  1.0  -0.1155
  C  C68  1  0.322500  0.184400  0.384600  1.0  0.0759
  C  C69  1  0.218600  0.869500  0.317300  1.0  -0.1136
  C  C70  1  0.257300  0.204600  0.337600  1.0  0.6712
  C  C71  1  0.183900  0.937500  0.267900  1.0  0.067
  C  C72  1  0.422400  0.232600  0.484900  1.0  0.0588
  C  C73  1  0.444000  0.162800  0.476400  1.0  -0.1378
  C  C74  1  0.462000  0.301500  0.546900  1.0  0.7054
  C  C75  1  0.238900  0.864700  0.399400  1.0  -0.1551
  C  C76  1  0.172700  0.064100  0.392200  1.0  0.7011
  C  C77  1  0.401500  0.104500  0.416000  1.0  -0.1215
  C  C78  1  0.163000  0.953300  0.181300  1.0  0.6547
  C  C79  1  0.688100  0.490900  0.369600  1.0  0.0645
  C  C80  1  0.840500  0.613900  0.371700  1.0  -0.1542
  C  C81  1  0.723700  0.426600  0.423700  1.0  -0.1155
  C  C82  1  0.822500  0.684400  0.384600  1.0  0.0759
  C  C83  1  0.718600  0.369500  0.317300  1.0  -0.1136
  C  C84  1  0.757300  0.704600  0.337600  1.0  0.6712
  C  C85  1  0.683900  0.437500  0.267900  1.0  0.067
  C  C86  1  0.922400  0.732600  0.484900  1.0  0.0588
  C  C87  1  0.944000  0.662800  0.476400  1.0  -0.1378
  C  C88  1  0.962000  0.801500  0.546900  1.0  0.7054
  C  C89  1  0.738900  0.364700  0.399400  1.0  -0.1551
  C  C90  1  0.672700  0.564100  0.392200  1.0  0.7011
  C  C91  1  0.901500  0.604500  0.416000  1.0  -0.1215
  C  C92  1  0.663000  0.453300  0.181300  1.0  0.6547
  C  C93  1  0.811900  0.990900  0.130400  1.0  0.0662
  C  C94  1  0.659500  0.113900  0.128300  1.0  -0.1533
  C  C95  1  0.776300  0.926600  0.076300  1.0  -0.1151
  C  C96  1  0.677500  0.184400  0.115400  1.0  0.0751
  C  C97  1  0.781400  0.869500  0.182700  1.0  -0.1137
  C  C98  1  0.742700  0.204600  0.162400  1.0  0.6722
  C  C99  1  0.816100  0.937500  0.232100  1.0  0.0675
  C  C100  1  0.577600  0.232600  0.015100  1.0  0.0593
  C  C101  1  0.556000  0.162800  0.023600  1.0  -0.138
  C  C102  1  0.538000  0.301500  0.953100  1.0  0.706
  C  C103  1  0.761100  0.864700  0.100600  1.0  -0.155
  C  C104  1  0.827300  0.064100  0.107800  1.0  0.7035
  C  C105  1  0.598500  0.104500  0.084000  1.0  -0.121
  C  C106  1  0.837000  0.953300  0.318700  1.0  0.6552
  C  C107  1  0.311900  0.490900  0.130400  1.0  0.0662
  C  C108  1  0.159500  0.613900  0.128300  1.0  -0.1533
  C  C109  1  0.276300  0.426600  0.076300  1.0  -0.1151
  C  C110  1  0.177500  0.684400  0.115400  1.0  0.0751
  C  C111  1  0.281400  0.369500  0.182700  1.0  -0.1137
  C  C112  1  0.242700  0.704600  0.162400  1.0  0.6722
  C  C113  1  0.316100  0.437500  0.232100  1.0  0.0675
  C  C114  1  0.077600  0.732600  0.015100  1.0  0.0593
  C  C115  1  0.056000  0.662800  0.023600  1.0  -0.138
  C  C116  1  0.038000  0.801500  0.953100  1.0  0.706
  C  C117  1  0.261100  0.364700  0.100600  1.0  -0.155
  C  C118  1  0.327300  0.564100  0.107800  1.0  0.7035
  C  C119  1  0.098500  0.604500  0.084000  1.0  -0.121
  C  C120  1  0.337000  0.453300  0.318700  1.0  0.6552
  C  C121  1  0.811900  0.009100  0.630400  1.0  0.0655
  C  C122  1  0.659500  0.886100  0.628300  1.0  -0.1542
  C  C123  1  0.776300  0.073400  0.576300  1.0  -0.1158
  C  C124  1  0.677500  0.815600  0.615400  1.0  0.0752
  C  C125  1  0.781400  0.130500  0.682700  1.0  -0.1124
  C  C126  1  0.742700  0.795400  0.662400  1.0  0.6721
  C  C127  1  0.816100  0.062500  0.732100  1.0  0.0673
  C  C128  1  0.577600  0.767400  0.515100  1.0  0.0598
  C  C129  1  0.556000  0.837200  0.523600  1.0  -0.1382
  C  C130  1  0.538000  0.698500  0.453100  1.0  0.7054
  C  C131  1  0.761100  0.135300  0.600600  1.0  -0.1543
  C  C132  1  0.827300  0.935900  0.607800  1.0  0.7027
  C  C133  1  0.598500  0.895500  0.584000  1.0  -0.1189
  C  C134  1  0.837000  0.046700  0.818700  1.0  0.6558
  C  C135  1  0.311900  0.509100  0.630400  1.0  0.0655
  C  C136  1  0.159500  0.386100  0.628300  1.0  -0.1542
  C  C137  1  0.276300  0.573400  0.576300  1.0  -0.1158
  C  C138  1  0.177500  0.315600  0.615400  1.0  0.0752
  C  C139  1  0.281400  0.630500  0.682700  1.0  -0.1124
  C  C140  1  0.242700  0.295400  0.662400  1.0  0.6721
  C  C141  1  0.316100  0.562500  0.732100  1.0  0.0673
  C  C142  1  0.077600  0.267400  0.515100  1.0  0.0598
  C  C143  1  0.056000  0.337200  0.523600  1.0  -0.1382
  C  C144  1  0.038000  0.198500  0.453100  1.0  0.7054
  C  C145  1  0.261100  0.635300  0.600600  1.0  -0.1543
  C  C146  1  0.327300  0.435900  0.607800  1.0  0.7027
  C  C147  1  0.098500  0.395500  0.584000  1.0  -0.1189
  C  C148  1  0.337000  0.546700  0.818700  1.0  0.6558
  C  C149  1  0.188100  0.009100  0.869600  1.0  0.0645
  C  C150  1  0.340500  0.886100  0.871700  1.0  -0.1552
  C  C151  1  0.223700  0.073400  0.923700  1.0  -0.1158
  C  C152  1  0.322500  0.815600  0.884600  1.0  0.0761
  C  C153  1  0.218600  0.130500  0.817300  1.0  -0.1128
  C  C154  1  0.257300  0.795400  0.837600  1.0  0.6706
  C  C155  1  0.183900  0.062500  0.767900  1.0  0.0673
  C  C156  1  0.422400  0.767400  0.984900  1.0  0.0603
  C  C157  1  0.444000  0.837200  0.976400  1.0  -0.1376
  C  C158  1  0.462000  0.698500  0.046900  1.0  0.7054
  C  C159  1  0.238900  0.135300  0.899400  1.0  -0.1533
  C  C160  1  0.172700  0.935900  0.892200  1.0  0.7017
  C  C161  1  0.401500  0.895500  0.916000  1.0  -0.1196
  C  C162  1  0.163000  0.046700  0.681300  1.0  0.6547
  C  C163  1  0.688100  0.509100  0.869600  1.0  0.0645
  C  C164  1  0.840500  0.386100  0.871700  1.0  -0.1552
  C  C165  1  0.723700  0.573400  0.923700  1.0  -0.1158
  C  C166  1  0.822500  0.315600  0.884600  1.0  0.0761
  C  C167  1  0.718600  0.630500  0.817300  1.0  -0.1128
  C  C168  1  0.757300  0.295400  0.837600  1.0  0.6706
  C  C169  1  0.683900  0.562500  0.767900  1.0  0.0673
  C  C170  1  0.922400  0.267400  0.984900  1.0  0.0603
  C  C171  1  0.944000  0.337200  0.976400  1.0  -0.1376
  C  C172  1  0.962000  0.198500  0.046900  1.0  0.7054
  C  C173  1  0.738900  0.635300  0.899400  1.0  -0.1533
  C  C174  1  0.672700  0.435900  0.892200  1.0  0.7017
  C  C175  1  0.901500  0.395500  0.916000  1.0  -0.1196
  C  C176  1  0.663000  0.546700  0.681300  1.0  0.6547
  N  N177  1  0.167700  0.997700  0.291200  1.0  -0.5332
  N  N178  1  0.361200  0.243400  0.438500  1.0  -0.5335
  N  N179  1  0.667700  0.497700  0.291200  1.0  -0.5332
  N  N180  1  0.861200  0.743400  0.438500  1.0  -0.5335
  N  N181  1  0.832300  0.997700  0.208800  1.0  -0.5326
  N  N182  1  0.638800  0.243400  0.061500  1.0  -0.5322
  N  N183  1  0.332300  0.497700  0.208800  1.0  -0.5326
  N  N184  1  0.138800  0.743400  0.061500  1.0  -0.5322
  N  N185  1  0.832300  0.002300  0.708800  1.0  -0.5332
  N  N186  1  0.638800  0.756600  0.561500  1.0  -0.532
  N  N187  1  0.332300  0.502300  0.708800  1.0  -0.5332
  N  N188  1  0.138800  0.256600  0.561500  1.0  -0.532
  N  N189  1  0.167700  0.002300  0.791200  1.0  -0.535
  N  N190  1  0.361200  0.756600  0.938500  1.0  -0.5328
  N  N191  1  0.667700  0.502300  0.791200  1.0  -0.535
  N  N192  1  0.861200  0.256600  0.938500  1.0  -0.5328
  O  O193  1  0.151500  0.124700  0.344600  1.0  -0.6343
  O  O194  1  0.136700  0.019000  0.147200  1.0  -0.6414
  O  O195  1  0.248200  0.272600  0.354200  1.0  -0.7348
  O  O196  1  0.217200  0.152500  0.286200  1.0  -0.764
  O  O197  1  0.177200  0.058600  0.452900  1.0  -0.7771
  O  O198  1  0.434300  0.361000  0.543300  1.0  -0.7198
  O  O199  1  0.517800  0.297100  0.593200  1.0  -0.787
  O  O200  1  0.177100  0.898800  0.155600  1.0  -0.7547
  O  O201  1  0.651500  0.624700  0.344600  1.0  -0.6343
  O  O202  1  0.636700  0.519000  0.147200  1.0  -0.6414
  O  O203  1  0.748200  0.772600  0.354200  1.0  -0.7348
  O  O204  1  0.717200  0.652500  0.286200  1.0  -0.764
  O  O205  1  0.677200  0.558600  0.452900  1.0  -0.7771
  O  O206  1  0.934300  0.861000  0.543300  1.0  -0.7198
  O  O207  1  0.017800  0.797100  0.593200  1.0  -0.787
  O  O208  1  0.677100  0.398800  0.155600  1.0  -0.7547
  O  O209  1  0.848500  0.124700  0.155400  1.0  -0.6334
  O  O210  1  0.863300  0.019000  0.352800  1.0  -0.641
  O  O211  1  0.751800  0.272600  0.145800  1.0  -0.7325
  O  O212  1  0.782800  0.152500  0.213800  1.0  -0.7643
  O  O213  1  0.822800  0.058600  0.047100  1.0  -0.7743
  O  O214  1  0.565700  0.361000  0.956700  1.0  -0.7198
  O  O215  1  0.482200  0.297100  0.906800  1.0  -0.7894
  O  O216  1  0.822900  0.898800  0.344400  1.0  -0.7536
  O  O217  1  0.348500  0.624700  0.155400  1.0  -0.6334
  O  O218  1  0.363300  0.519000  0.352800  1.0  -0.641
  O  O219  1  0.251800  0.772600  0.145800  1.0  -0.7325
  O  O220  1  0.282800  0.652500  0.213800  1.0  -0.7643
  O  O221  1  0.322800  0.558600  0.047100  1.0  -0.7743
  O  O222  1  0.065700  0.861000  0.956700  1.0  -0.7198
  O  O223  1  0.982200  0.797100  0.906800  1.0  -0.7894
  O  O224  1  0.322900  0.398800  0.344400  1.0  -0.7536
  O  O225  1  0.848500  0.875300  0.655400  1.0  -0.6342
  O  O226  1  0.863300  0.981000  0.852800  1.0  -0.6406
  O  O227  1  0.751800  0.727400  0.645800  1.0  -0.732
  O  O228  1  0.782800  0.847500  0.713800  1.0  -0.764
  O  O229  1  0.822800  0.941400  0.547100  1.0  -0.7735
  O  O230  1  0.565700  0.639000  0.456700  1.0  -0.7187
  O  O231  1  0.482200  0.702900  0.406800  1.0  -0.7893
  O  O232  1  0.822900  0.101200  0.844400  1.0  -0.7532
  O  O233  1  0.348500  0.375300  0.655400  1.0  -0.6342
  O  O234  1  0.363300  0.481000  0.852800  1.0  -0.6406
  O  O235  1  0.251800  0.227400  0.645800  1.0  -0.732
  O  O236  1  0.282800  0.347500  0.713800  1.0  -0.764
  O  O237  1  0.322800  0.441400  0.547100  1.0  -0.7735
  O  O238  1  0.065700  0.139000  0.456700  1.0  -0.7187
  O  O239  1  0.982200  0.202900  0.406800  1.0  -0.7893
  O  O240  1  0.322900  0.601200  0.844400  1.0  -0.7532
  O  O241  1  0.151500  0.875300  0.844600  1.0  -0.6344
  O  O242  1  0.136700  0.981000  0.647200  1.0  -0.6414
  O  O243  1  0.248200  0.727400  0.854200  1.0  -0.7316
  O  O244  1  0.217200  0.847500  0.786200  1.0  -0.7637
  O  O245  1  0.177200  0.941400  0.952900  1.0  -0.7761
  O  O246  1  0.434300  0.639000  0.043300  1.0  -0.7197
  O  O247  1  0.517800  0.702900  0.093200  1.0  -0.7869
  O  O248  1  0.177100  0.101200  0.655600  1.0  -0.7552
  O  O249  1  0.651500  0.375300  0.844600  1.0  -0.6344
  O  O250  1  0.636700  0.481000  0.647200  1.0  -0.6414
  O  O251  1  0.748200  0.227400  0.854200  1.0  -0.7316
  O  O252  1  0.717200  0.347500  0.786200  1.0  -0.7637
  O  O253  1  0.677200  0.441400  0.952900  1.0  -0.7761
  O  O254  1  0.934300  0.139000  0.043300  1.0  -0.7197
  O  O255  1  0.017800  0.202900  0.093200  1.0  -0.7869
  O  O256  1  0.677100  0.601200  0.655600  1.0  -0.7552
