# generated using pymatgen
data_DyH3C7NO4
_symmetry_space_group_name_H-M   'P 1'
_cell_length_a   30.41800000
_cell_length_b   16.30200000
_cell_length_c   21.78000000
_cell_angle_alpha   90.00000000
_cell_angle_beta   133.82600000
_cell_angle_gamma   90.00000000
_symmetry_Int_Tables_number   1
_chemical_formula_structural   DyH3C7NO4
_chemical_formula_sum   'Dy16 H48 C112 N16 O64'
_cell_volume   7791.71917017
_cell_formula_units_Z   16
loop_
 _symmetry_equiv_pos_site_id
 _symmetry_equiv_pos_as_xyz
  1  'x, y, z'
loop_
 _atom_site_type_symbol
 _atom_site_label
 _atom_site_symmetry_multiplicity
 _atom_site_fract_x
 _atom_site_fract_y
 _atom_site_fract_z
 _atom_site_occupancy
 _atom_site_charge
  Dy  Dy1  1  0.120920  0.380370  0.045120  1.0  2.042
  Dy  Dy2  1  0.160010  0.371300  0.801240  1.0  2.0484
  Dy  Dy3  1  0.620920  0.880370  0.045120  1.0  2.042
  Dy  Dy4  1  0.660010  0.871300  0.801240  1.0  2.0484
  Dy  Dy5  1  0.879080  0.380370  0.454880  1.0  2.0398
  Dy  Dy6  1  0.839990  0.371300  0.698760  1.0  2.0483
  Dy  Dy7  1  0.379080  0.880370  0.454880  1.0  2.0398
  Dy  Dy8  1  0.339990  0.871300  0.698760  1.0  2.0483
  Dy  Dy9  1  0.879080  0.619630  0.954880  1.0  2.0407
  Dy  Dy10  1  0.839990  0.628700  0.198760  1.0  2.0478
  Dy  Dy11  1  0.379080  0.119630  0.954880  1.0  2.0407
  Dy  Dy12  1  0.339990  0.128700  0.198760  1.0  2.0478
  Dy  Dy13  1  0.120920  0.619630  0.545120  1.0  2.042
  Dy  Dy14  1  0.160010  0.628700  0.301240  1.0  2.0486
  Dy  Dy15  1  0.620920  0.119630  0.545120  1.0  2.042
  Dy  Dy16  1  0.660010  0.128700  0.301240  1.0  2.0486
  H  H17  1  0.230100  0.674800  0.170100  1.0  0.0866
  H  H18  1  0.490800  0.325000  0.476800  1.0  0.0957
  H  H19  1  0.322400  0.421900  0.298800  1.0  0.0895
  H  H20  1  0.253200  0.695700  0.089100  1.0  0.09
  H  H21  1  0.422000  0.428700  0.433800  1.0  0.0841
  H  H22  1  0.231800  0.590900  0.998600  1.0  0.0972
  H  H23  1  0.730100  0.174800  0.170100  1.0  0.0866
  H  H24  1  0.990800  0.825000  0.476800  1.0  0.0957
  H  H25  1  0.822400  0.921900  0.298800  1.0  0.0895
  H  H26  1  0.753200  0.195700  0.089100  1.0  0.0918
  H  H27  1  0.922000  0.928700  0.433800  1.0  0.0841
  H  H28  1  0.731800  0.090900  0.998600  1.0  0.0972
  H  H29  1  0.769900  0.674800  0.329900  1.0  0.0875
  H  H30  1  0.509200  0.325000  0.023200  1.0  0.0972
  H  H31  1  0.677600  0.421900  0.201200  1.0  0.0896
  H  H32  1  0.746800  0.695700  0.410900  1.0  0.0896
  H  H33  1  0.578000  0.428700  0.066200  1.0  0.0845
  H  H34  1  0.768200  0.590900  0.501400  1.0  0.0972
  H  H35  1  0.269900  0.174800  0.329900  1.0  0.0875
  H  H36  1  0.009200  0.825000  0.023200  1.0  0.0972
  H  H37  1  0.177600  0.921900  0.201200  1.0  0.0896
  H  H38  1  0.246800  0.195700  0.410900  1.0  0.0896
  H  H39  1  0.078000  0.928700  0.066200  1.0  0.0845
  H  H40  1  0.268200  0.090900  0.501400  1.0  0.0972
  H  H41  1  0.769900  0.325200  0.829900  1.0  0.0872
  H  H42  1  0.509200  0.675000  0.523200  1.0  0.0971
  H  H43  1  0.677600  0.578100  0.701200  1.0  0.0893
  H  H44  1  0.746800  0.304300  0.910900  1.0  0.0915
  H  H45  1  0.578000  0.571300  0.566200  1.0  0.0854
  H  H46  1  0.768200  0.409100  0.001400  1.0  0.0975
  H  H47  1  0.269900  0.825200  0.829900  1.0  0.0872
  H  H48  1  0.009200  0.175000  0.523200  1.0  0.0971
  H  H49  1  0.177600  0.078100  0.701200  1.0  0.0893
  H  H50  1  0.246800  0.804300  0.910900  1.0  0.0935
  H  H51  1  0.078000  0.071300  0.566200  1.0  0.0854
  H  H52  1  0.268200  0.909100  0.001400  1.0  0.0975
  H  H53  1  0.230100  0.325200  0.670100  1.0  0.0869
  H  H54  1  0.490800  0.675000  0.976800  1.0  0.0957
  H  H55  1  0.322400  0.578100  0.798800  1.0  0.0892
  H  H56  1  0.253200  0.304300  0.589100  1.0  0.0917
  H  H57  1  0.422000  0.571300  0.933800  1.0  0.0853
  H  H58  1  0.231800  0.409100  0.498600  1.0  0.0972
  H  H59  1  0.730100  0.825200  0.670100  1.0  0.0869
  H  H60  1  0.990800  0.175000  0.976800  1.0  0.0957
  H  H61  1  0.822400  0.078100  0.798800  1.0  0.0892
  H  H62  1  0.753200  0.804300  0.589100  1.0  0.0917
  H  H63  1  0.922000  0.071300  0.933800  1.0  0.0853
  H  H64  1  0.731800  0.909100  0.498600  1.0  0.0972
  C  C65  1  0.165300  0.449000  0.955600  1.0  0.6769
  C  C66  1  0.170300  0.544900  0.163700  1.0  0.6373
  C  C67  1  0.219400  0.635900  0.130400  1.0  -0.1347
  C  C68  1  0.188100  0.564600  0.117000  1.0  0.1139
  C  C69  1  0.450900  0.323000  0.424000  1.0  -0.1336
  C  C70  1  0.350100  0.380100  0.317500  1.0  -0.1251
  C  C71  1  0.188300  0.519500  0.018500  1.0  0.0996
  C  C72  1  0.333100  0.313900  0.267300  1.0  0.0551
  C  C73  1  0.268000  0.299000  0.181900  1.0  0.6786
  C  C74  1  0.234200  0.647700  0.083400  1.0  -0.0892
  C  C75  1  0.410000  0.384500  0.398100  1.0  -0.1427
  C  C76  1  0.220200  0.586800  0.028200  1.0  -0.1137
  C  C77  1  0.430500  0.258400  0.368700  1.0  0.0712
  C  C78  1  0.471500  0.186200  0.394600  1.0  0.6533
  C  C79  1  0.665300  0.949000  0.955600  1.0  0.6769
  C  C80  1  0.670300  0.044900  0.163700  1.0  0.6373
  C  C81  1  0.719400  0.135900  0.130400  1.0  -0.1347
  C  C82  1  0.688100  0.064600  0.117000  1.0  0.1139
  C  C83  1  0.950900  0.823000  0.424000  1.0  -0.1336
  C  C84  1  0.850100  0.880100  0.317500  1.0  -0.1251
  C  C85  1  0.688300  0.019500  0.018500  1.0  0.0996
  C  C86  1  0.833100  0.813900  0.267300  1.0  0.0551
  C  C87  1  0.768000  0.799000  0.181900  1.0  0.6786
  C  C88  1  0.734200  0.147700  0.083400  1.0  -0.0892
  C  C89  1  0.910000  0.884500  0.398100  1.0  -0.1427
  C  C90  1  0.720200  0.086800  0.028200  1.0  -0.1137
  C  C91  1  0.930500  0.758400  0.368700  1.0  0.0712
  C  C92  1  0.971500  0.686200  0.394600  1.0  0.6533
  C  C93  1  0.834700  0.449000  0.544400  1.0  0.6779
  C  C94  1  0.829700  0.544900  0.336300  1.0  0.6367
  C  C95  1  0.780600  0.635900  0.369600  1.0  -0.1356
  C  C96  1  0.811900  0.564600  0.383000  1.0  0.1144
  C  C97  1  0.549100  0.323000  0.076000  1.0  -0.135
  C  C98  1  0.649900  0.380100  0.182500  1.0  -0.1243
  C  C99  1  0.811700  0.519500  0.481500  1.0  0.0988
  C  C100  1  0.666900  0.313900  0.232700  1.0  0.0539
  C  C101  1  0.732000  0.299000  0.318100  1.0  0.6778
  C  C102  1  0.765800  0.647700  0.416600  1.0  -0.0891
  C  C103  1  0.590000  0.384500  0.101900  1.0  -0.1442
  C  C104  1  0.779800  0.586800  0.471800  1.0  -0.1149
  C  C105  1  0.569500  0.258400  0.131300  1.0  0.0689
  C  C106  1  0.528500  0.186200  0.105400  1.0  0.6535
  C  C107  1  0.334700  0.949000  0.544400  1.0  0.6779
  C  C108  1  0.329700  0.044900  0.336300  1.0  0.6367
  C  C109  1  0.280600  0.135900  0.369600  1.0  -0.1356
  C  C110  1  0.311900  0.064600  0.383000  1.0  0.1144
  C  C111  1  0.049100  0.823000  0.076000  1.0  -0.135
  C  C112  1  0.149900  0.880100  0.182500  1.0  -0.1243
  C  C113  1  0.311700  0.019500  0.481500  1.0  0.0988
  C  C114  1  0.166900  0.813900  0.232700  1.0  0.0539
  C  C115  1  0.232000  0.799000  0.318100  1.0  0.6778
  C  C116  1  0.265800  0.147700  0.416600  1.0  -0.0891
  C  C117  1  0.090000  0.884500  0.101900  1.0  -0.1442
  C  C118  1  0.279800  0.086800  0.471800  1.0  -0.1149
  C  C119  1  0.069500  0.758400  0.131300  1.0  0.0689
  C  C120  1  0.028500  0.686200  0.105400  1.0  0.6535
  C  C121  1  0.834700  0.551000  0.044400  1.0  0.6764
  C  C122  1  0.829700  0.455100  0.836300  1.0  0.6368
  C  C123  1  0.780600  0.364100  0.869600  1.0  -0.1359
  C  C124  1  0.811900  0.435400  0.883000  1.0  0.1142
  C  C125  1  0.549100  0.677000  0.576000  1.0  -0.1347
  C  C126  1  0.649900  0.619900  0.682500  1.0  -0.1256
  C  C127  1  0.811700  0.480500  0.981500  1.0  0.0979
  C  C128  1  0.666900  0.686100  0.732700  1.0  0.0537
  C  C129  1  0.732000  0.701000  0.818100  1.0  0.677
  C  C130  1  0.765800  0.352300  0.916600  1.0  -0.0921
  C  C131  1  0.590000  0.615500  0.601900  1.0  -0.1463
  C  C132  1  0.779800  0.413200  0.971800  1.0  -0.1147
  C  C133  1  0.569500  0.741600  0.631300  1.0  0.0692
  C  C134  1  0.528500  0.813800  0.605400  1.0  0.6517
  C  C135  1  0.334700  0.051000  0.044400  1.0  0.6764
  C  C136  1  0.329700  0.955100  0.836300  1.0  0.6368
  C  C137  1  0.280600  0.864100  0.869600  1.0  -0.1359
  C  C138  1  0.311900  0.935400  0.883000  1.0  0.1142
  C  C139  1  0.049100  0.177000  0.576000  1.0  -0.1347
  C  C140  1  0.149900  0.119900  0.682500  1.0  -0.1256
  C  C141  1  0.311700  0.980500  0.981500  1.0  0.0979
  C  C142  1  0.166900  0.186100  0.732700  1.0  0.0537
  C  C143  1  0.232000  0.201000  0.818100  1.0  0.677
  C  C144  1  0.265800  0.852300  0.916600  1.0  -0.0921
  C  C145  1  0.090000  0.115500  0.601900  1.0  -0.1463
  C  C146  1  0.279800  0.913200  0.971800  1.0  -0.1147
  C  C147  1  0.069500  0.241600  0.631300  1.0  0.0692
  C  C148  1  0.028500  0.313800  0.605400  1.0  0.6517
  C  C149  1  0.165300  0.551000  0.455600  1.0  0.6763
  C  C150  1  0.170300  0.455100  0.663700  1.0  0.6371
  C  C151  1  0.219400  0.364100  0.630400  1.0  -0.1348
  C  C152  1  0.188100  0.435400  0.617000  1.0  0.1136
  C  C153  1  0.450900  0.677000  0.924000  1.0  -0.1333
  C  C154  1  0.350100  0.619900  0.817500  1.0  -0.1244
  C  C155  1  0.188300  0.480500  0.518500  1.0  0.0999
  C  C156  1  0.333100  0.686100  0.767300  1.0  0.0546
  C  C157  1  0.268000  0.701000  0.681900  1.0  0.6786
  C  C158  1  0.234200  0.352300  0.583400  1.0  -0.0929
  C  C159  1  0.410000  0.615500  0.898100  1.0  -0.1449
  C  C160  1  0.220200  0.413200  0.528200  1.0  -0.1133
  C  C161  1  0.430500  0.741600  0.868700  1.0  0.0717
  C  C162  1  0.471500  0.813800  0.894600  1.0  0.653
  C  C163  1  0.665300  0.051000  0.455600  1.0  0.6763
  C  C164  1  0.670300  0.955100  0.663700  1.0  0.6371
  C  C165  1  0.719400  0.864100  0.630400  1.0  -0.1348
  C  C166  1  0.688100  0.935400  0.617000  1.0  0.1136
  C  C167  1  0.950900  0.177000  0.924000  1.0  -0.1333
  C  C168  1  0.850100  0.119900  0.817500  1.0  -0.1244
  C  C169  1  0.688300  0.980500  0.518500  1.0  0.0999
  C  C170  1  0.833100  0.186100  0.767300  1.0  0.0546
  C  C171  1  0.768000  0.201000  0.681900  1.0  0.6786
  C  C172  1  0.734200  0.852300  0.583400  1.0  -0.0929
  C  C173  1  0.910000  0.115500  0.898100  1.0  -0.1449
  C  C174  1  0.720200  0.913200  0.528200  1.0  -0.1133
  C  C175  1  0.930500  0.241600  0.868700  1.0  0.0717
  C  C176  1  0.971500  0.313800  0.894600  1.0  0.653
  N  N177  1  0.174300  0.508300  0.063500  1.0  -0.4509
  N  N178  1  0.373100  0.252900  0.292000  1.0  -0.514
  N  N179  1  0.674300  0.008300  0.063500  1.0  -0.4509
  N  N180  1  0.873100  0.752900  0.292000  1.0  -0.514
  N  N181  1  0.825700  0.508300  0.436500  1.0  -0.4513
  N  N182  1  0.626900  0.252900  0.208000  1.0  -0.5111
  N  N183  1  0.325700  0.008300  0.436500  1.0  -0.4513
  N  N184  1  0.126900  0.752900  0.208000  1.0  -0.5111
  N  N185  1  0.825700  0.491700  0.936500  1.0  -0.4513
  N  N186  1  0.626900  0.747100  0.708000  1.0  -0.5132
  N  N187  1  0.325700  0.991700  0.936500  1.0  -0.4513
  N  N188  1  0.126900  0.247100  0.708000  1.0  -0.5132
  N  N189  1  0.174300  0.491700  0.563500  1.0  -0.4506
  N  N190  1  0.373100  0.747100  0.792000  1.0  -0.5141
  N  N191  1  0.674300  0.991700  0.563500  1.0  -0.4506
  N  N192  1  0.873100  0.247100  0.792000  1.0  -0.5141
  O  O193  1  0.176100  0.453800  0.910000  1.0  -0.7966
  O  O194  1  0.228100  0.350700  0.157100  1.0  -0.764
  O  O195  1  0.444400  0.121600  0.348100  1.0  -0.6835
  O  O196  1  0.183400  0.598800  0.218000  1.0  -0.7315
  O  O197  1  0.137900  0.390700  0.955600  1.0  -0.7431
  O  O198  1  0.259800  0.233700  0.145800  1.0  -0.7224
  O  O199  1  0.143200  0.477600  0.147600  1.0  -0.6799
  O  O200  1  0.526000  0.193100  0.454100  1.0  -0.7835
  O  O201  1  0.676100  0.953800  0.910000  1.0  -0.7966
  O  O202  1  0.728100  0.850700  0.157100  1.0  -0.764
  O  O203  1  0.944400  0.621600  0.348100  1.0  -0.6835
  O  O204  1  0.683400  0.098800  0.218000  1.0  -0.7315
  O  O205  1  0.637900  0.890700  0.955600  1.0  -0.7431
  O  O206  1  0.759800  0.733700  0.145800  1.0  -0.7224
  O  O207  1  0.643200  0.977600  0.147600  1.0  -0.6799
  O  O208  1  0.026000  0.693100  0.454100  1.0  -0.7835
  O  O209  1  0.823900  0.453800  0.590000  1.0  -0.7992
  O  O210  1  0.771900  0.350700  0.342900  1.0  -0.7637
  O  O211  1  0.555600  0.121600  0.151900  1.0  -0.6834
  O  O212  1  0.816600  0.598800  0.282000  1.0  -0.7335
  O  O213  1  0.862100  0.390700  0.544400  1.0  -0.7439
  O  O214  1  0.740200  0.233700  0.354200  1.0  -0.7223
  O  O215  1  0.856800  0.477600  0.352400  1.0  -0.6834
  O  O216  1  0.474000  0.193100  0.045900  1.0  -0.7857
  O  O217  1  0.323900  0.953800  0.590000  1.0  -0.7992
  O  O218  1  0.271900  0.850700  0.342900  1.0  -0.7637
  O  O219  1  0.055600  0.621600  0.151900  1.0  -0.6834
  O  O220  1  0.316600  0.098800  0.282000  1.0  -0.7335
  O  O221  1  0.362100  0.890700  0.544400  1.0  -0.7439
  O  O222  1  0.240200  0.733700  0.354200  1.0  -0.7223
  O  O223  1  0.356800  0.977600  0.352400  1.0  -0.6834
  O  O224  1  0.974000  0.693100  0.045900  1.0  -0.7857
  O  O225  1  0.823900  0.546200  0.090000  1.0  -0.7994
  O  O226  1  0.771900  0.649300  0.842900  1.0  -0.7632
  O  O227  1  0.555600  0.878400  0.651900  1.0  -0.6833
  O  O228  1  0.816600  0.401200  0.782000  1.0  -0.7332
  O  O229  1  0.862100  0.609300  0.044400  1.0  -0.7452
  O  O230  1  0.740200  0.766300  0.854200  1.0  -0.7213
  O  O231  1  0.856800  0.522400  0.852400  1.0  -0.6842
  O  O232  1  0.474000  0.806900  0.545900  1.0  -0.7841
  O  O233  1  0.323900  0.046200  0.090000  1.0  -0.7994
  O  O234  1  0.271900  0.149300  0.842900  1.0  -0.7632
  O  O235  1  0.055600  0.378400  0.651900  1.0  -0.6833
  O  O236  1  0.316600  0.901200  0.782000  1.0  -0.7332
  O  O237  1  0.362100  0.109300  0.044400  1.0  -0.7452
  O  O238  1  0.240200  0.266300  0.854200  1.0  -0.7213
  O  O239  1  0.356800  0.022400  0.852400  1.0  -0.6842
  O  O240  1  0.974000  0.306900  0.545900  1.0  -0.7841
  O  O241  1  0.176100  0.546200  0.410000  1.0  -0.7966
  O  O242  1  0.228100  0.649300  0.657100  1.0  -0.7644
  O  O243  1  0.444400  0.878400  0.848100  1.0  -0.6822
  O  O244  1  0.183400  0.401200  0.718000  1.0  -0.7315
  O  O245  1  0.137900  0.609300  0.455600  1.0  -0.7452
  O  O246  1  0.259800  0.766300  0.645800  1.0  -0.723
  O  O247  1  0.143200  0.522400  0.647600  1.0  -0.681
  O  O248  1  0.526000  0.806900  0.954100  1.0  -0.7827
  O  O249  1  0.676100  0.046200  0.410000  1.0  -0.7966
  O  O250  1  0.728100  0.149300  0.657100  1.0  -0.7644
  O  O251  1  0.944400  0.378400  0.848100  1.0  -0.6822
  O  O252  1  0.683400  0.901200  0.718000  1.0  -0.7315
  O  O253  1  0.637900  0.109300  0.455600  1.0  -0.7452
  O  O254  1  0.759800  0.266300  0.645800  1.0  -0.723
  O  O255  1  0.643200  0.022400  0.647600  1.0  -0.681
  O  O256  1  0.026000  0.306900  0.954100  1.0  -0.7827
