# generated using pymatgen
data_Cu2H3(C3O2)3
_symmetry_space_group_name_H-M   'P 1'
_cell_length_a   19.21000000
_cell_length_b   19.21000000
_cell_length_c   6.91580000
_cell_angle_alpha   90.00000000
_cell_angle_beta   90.00000000
_cell_angle_gamma   90.00000000
_symmetry_Int_Tables_number   1
_chemical_formula_structural   Cu2H3(C3O2)3
_chemical_formula_sum   'Cu16 H24 C72 O48'
_cell_volume   2552.09687078
_cell_formula_units_Z   8
loop_
 _symmetry_equiv_pos_site_id
 _symmetry_equiv_pos_as_xyz
  1  'x, y, z'
loop_
 _atom_site_type_symbol
 _atom_site_label
 _atom_site_symmetry_multiplicity
 _atom_site_fract_x
 _atom_site_fract_y
 _atom_site_fract_z
 _atom_site_occupancy
 _atom_site_charge
  Cu  Cu1  1  0.672640  0.172640  0.500000  1.0  0.3811
  Cu  Cu2  1  0.827360  0.327360  0.500000  1.0  0.3802
  Cu  Cu3  1  0.327360  0.672640  0.500000  1.0  0.3813
  Cu  Cu4  1  0.172640  0.827360  0.500000  1.0  0.3815
  Cu  Cu5  1  0.327360  0.827360  0.500000  1.0  0.3808
  Cu  Cu6  1  0.172640  0.672640  0.500000  1.0  0.3817
  Cu  Cu7  1  0.672640  0.327360  0.500000  1.0  0.3819
  Cu  Cu8  1  0.827360  0.172640  0.500000  1.0  0.3817
  Cu  Cu9  1  0.530030  0.530030  0.351890  1.0  0.9291
  Cu  Cu10  1  0.969970  0.969970  0.351890  1.0  0.9278
  Cu  Cu11  1  0.969970  0.530030  0.351890  1.0  0.93
  Cu  Cu12  1  0.530030  0.969970  0.351890  1.0  0.9273
  Cu  Cu13  1  0.469970  0.030030  0.648110  1.0  0.928
  Cu  Cu14  1  0.030030  0.469970  0.648110  1.0  0.9266
  Cu  Cu15  1  0.030030  0.030030  0.648110  1.0  0.9276
  Cu  Cu16  1  0.469970  0.469970  0.648110  1.0  0.9269
  H  H17  1  0.565900  0.355100  0.008300  1.0  0.132
  H  H18  1  0.934100  0.144900  0.008300  1.0  0.1312
  H  H19  1  0.144900  0.565900  0.008300  1.0  0.1312
  H  H20  1  0.355100  0.934100  0.008300  1.0  0.1317
  H  H21  1  0.434100  0.855100  0.991700  1.0  0.131
  H  H22  1  0.065900  0.644900  0.991700  1.0  0.1319
  H  H23  1  0.855100  0.065900  0.991700  1.0  0.1317
  H  H24  1  0.644900  0.434100  0.991700  1.0  0.1313
  H  H25  1  0.434100  0.644900  0.991700  1.0  0.131
  H  H26  1  0.065900  0.855100  0.991700  1.0  0.1317
  H  H27  1  0.855100  0.434100  0.991700  1.0  0.1314
  H  H28  1  0.644900  0.065900  0.991700  1.0  0.1313
  H  H29  1  0.565900  0.144900  0.008300  1.0  0.1318
  H  H30  1  0.934100  0.355100  0.008300  1.0  0.1315
  H  H31  1  0.144900  0.934100  0.008300  1.0  0.1317
  H  H32  1  0.355100  0.565900  0.008300  1.0  0.1316
  H  H33  1  0.488400  0.250000  0.471400  1.0  0.1363
  H  H34  1  0.011600  0.250000  0.471400  1.0  0.1364
  H  H35  1  0.250000  0.488400  0.471400  1.0  0.1369
  H  H36  1  0.250000  0.011600  0.471400  1.0  0.1367
  H  H37  1  0.511600  0.750000  0.528600  1.0  0.1362
  H  H38  1  0.988400  0.750000  0.528600  1.0  0.1358
  H  H39  1  0.750000  0.988400  0.528600  1.0  0.1365
  H  H40  1  0.750000  0.511600  0.528600  1.0  0.1363
  C  C41  1  0.556500  0.312410  0.072400  1.0  -0.0509
  C  C42  1  0.524720  0.312700  0.254600  1.0  -0.1441
  C  C43  1  0.512030  0.381110  0.350800  1.0  0.7264
  C  C44  1  0.943500  0.187590  0.072400  1.0  -0.0495
  C  C45  1  0.975280  0.187300  0.254600  1.0  -0.1436
  C  C46  1  0.987970  0.118890  0.350800  1.0  0.7263
  C  C47  1  0.187590  0.556500  0.072400  1.0  -0.0501
  C  C48  1  0.187300  0.524720  0.254600  1.0  -0.1403
  C  C49  1  0.118890  0.512030  0.350800  1.0  0.7224
  C  C50  1  0.312410  0.943500  0.072400  1.0  -0.0491
  C  C51  1  0.312700  0.975280  0.254600  1.0  -0.1392
  C  C52  1  0.381110  0.987970  0.350800  1.0  0.7237
  C  C53  1  0.443500  0.812410  0.927600  1.0  -0.0504
  C  C54  1  0.475280  0.812700  0.745400  1.0  -0.1435
  C  C55  1  0.487970  0.881110  0.649200  1.0  0.7256
  C  C56  1  0.056500  0.687590  0.927600  1.0  -0.0506
  C  C57  1  0.024720  0.687300  0.745400  1.0  -0.144
  C  C58  1  0.012030  0.618890  0.649200  1.0  0.726
  C  C59  1  0.812410  0.056500  0.927600  1.0  -0.0496
  C  C60  1  0.812700  0.024720  0.745400  1.0  -0.1402
  C  C61  1  0.881110  0.012030  0.649200  1.0  0.7229
  C  C62  1  0.687590  0.443500  0.927600  1.0  -0.0505
  C  C63  1  0.687300  0.475280  0.745400  1.0  -0.1394
  C  C64  1  0.618890  0.487970  0.649200  1.0  0.7223
  C  C65  1  0.443500  0.687590  0.927600  1.0  -0.0502
  C  C66  1  0.475280  0.687300  0.745400  1.0  -0.143
  C  C67  1  0.487970  0.618890  0.649200  1.0  0.7258
  C  C68  1  0.056500  0.812410  0.927600  1.0  -0.0508
  C  C69  1  0.024720  0.812700  0.745400  1.0  -0.1442
  C  C70  1  0.012030  0.881110  0.649200  1.0  0.7264
  C  C71  1  0.812410  0.443500  0.927600  1.0  -0.0493
  C  C72  1  0.812700  0.475280  0.745400  1.0  -0.1392
  C  C73  1  0.881110  0.487970  0.649200  1.0  0.7237
  C  C74  1  0.687590  0.056500  0.927600  1.0  -0.0499
  C  C75  1  0.687300  0.024720  0.745400  1.0  -0.1403
  C  C76  1  0.618890  0.012030  0.649200  1.0  0.7221
  C  C77  1  0.556500  0.187590  0.072400  1.0  -0.0499
  C  C78  1  0.524720  0.187300  0.254600  1.0  -0.1438
  C  C79  1  0.512030  0.118890  0.350800  1.0  0.726
  C  C80  1  0.943500  0.312410  0.072400  1.0  -0.0504
  C  C81  1  0.975280  0.312700  0.254600  1.0  -0.1442
  C  C82  1  0.987970  0.381110  0.350800  1.0  0.7261
  C  C83  1  0.187590  0.943500  0.072400  1.0  -0.0497
  C  C84  1  0.187300  0.975280  0.254600  1.0  -0.1394
  C  C85  1  0.118890  0.987970  0.350800  1.0  0.7222
  C  C86  1  0.312410  0.556500  0.072400  1.0  -0.0502
  C  C87  1  0.312700  0.524720  0.254600  1.0  -0.1402
  C  C88  1  0.381110  0.512030  0.350800  1.0  0.7232
  C  C89  1  0.615300  0.250000  0.801800  1.0  0.6993
  C  C90  1  0.574200  0.250000  0.985500  1.0  -0.1235
  C  C91  1  0.509200  0.250000  0.346800  1.0  0.0158
  C  C92  1  0.884700  0.250000  0.801800  1.0  0.7006
  C  C93  1  0.925800  0.250000  0.985500  1.0  -0.1227
  C  C94  1  0.990800  0.250000  0.346800  1.0  0.0179
  C  C95  1  0.250000  0.615300  0.801800  1.0  0.7012
  C  C96  1  0.250000  0.574200  0.985500  1.0  -0.1188
  C  C97  1  0.250000  0.509200  0.346800  1.0  0.0182
  C  C98  1  0.250000  0.884700  0.801800  1.0  0.7002
  C  C99  1  0.250000  0.925800  0.985500  1.0  -0.1187
  C  C100  1  0.250000  0.990800  0.346800  1.0  0.0181
  C  C101  1  0.384700  0.750000  0.198200  1.0  0.6991
  C  C102  1  0.425800  0.750000  0.014500  1.0  -0.1234
  C  C103  1  0.490800  0.750000  0.653200  1.0  0.0188
  C  C104  1  0.115300  0.750000  0.198200  1.0  0.6986
  C  C105  1  0.074200  0.750000  0.014500  1.0  -0.1233
  C  C106  1  0.009200  0.750000  0.653200  1.0  0.0171
  C  C107  1  0.750000  0.115300  0.198200  1.0  0.7002
  C  C108  1  0.750000  0.074200  0.014500  1.0  -0.1186
  C  C109  1  0.750000  0.009200  0.653200  1.0  0.0194
  C  C110  1  0.750000  0.384700  0.198200  1.0  0.6992
  C  C111  1  0.750000  0.425800  0.014500  1.0  -0.1187
  C  C112  1  0.750000  0.490800  0.653200  1.0  0.0195
  O  O113  1  0.631980  0.191970  0.733500  1.0  -0.5691
  O  O114  1  0.532270  0.433860  0.261500  1.0  -0.5603
  O  O115  1  0.484100  0.381770  0.512400  1.0  -0.5553
  O  O116  1  0.868020  0.308030  0.733500  1.0  -0.5685
  O  O117  1  0.967730  0.066140  0.261500  1.0  -0.5612
  O  O118  1  0.015900  0.118230  0.512400  1.0  -0.5566
  O  O119  1  0.308030  0.631980  0.733500  1.0  -0.5695
  O  O120  1  0.066140  0.532270  0.261500  1.0  -0.5593
  O  O121  1  0.118230  0.484100  0.512400  1.0  -0.5588
  O  O122  1  0.191970  0.868020  0.733500  1.0  -0.5685
  O  O123  1  0.433860  0.967730  0.261500  1.0  -0.5593
  O  O124  1  0.381770  0.015900  0.512400  1.0  -0.557
  O  O125  1  0.368020  0.691970  0.266500  1.0  -0.5696
  O  O126  1  0.467730  0.933860  0.738500  1.0  -0.561
  O  O127  1  0.515900  0.881770  0.487600  1.0  -0.5555
  O  O128  1  0.131980  0.808030  0.266500  1.0  -0.5688
  O  O129  1  0.032270  0.566140  0.738500  1.0  -0.5601
  O  O130  1  0.984100  0.618230  0.487600  1.0  -0.5544
  O  O131  1  0.691970  0.131980  0.266500  1.0  -0.5692
  O  O132  1  0.933860  0.032270  0.738500  1.0  -0.5594
  O  O133  1  0.881770  0.984100  0.487600  1.0  -0.5565
  O  O134  1  0.808030  0.368020  0.266500  1.0  -0.5693
  O  O135  1  0.566140  0.467730  0.738500  1.0  -0.559
  O  O136  1  0.618230  0.515900  0.487600  1.0  -0.557
  O  O137  1  0.368020  0.808030  0.266500  1.0  -0.5689
  O  O138  1  0.467730  0.566140  0.738500  1.0  -0.5606
  O  O139  1  0.515900  0.618230  0.487600  1.0  -0.5551
  O  O140  1  0.131980  0.691970  0.266500  1.0  -0.5695
  O  O141  1  0.032270  0.933860  0.738500  1.0  -0.5605
  O  O142  1  0.984100  0.881770  0.487600  1.0  -0.5548
  O  O143  1  0.691970  0.368020  0.266500  1.0  -0.5688
  O  O144  1  0.933860  0.467730  0.738500  1.0  -0.5597
  O  O145  1  0.881770  0.515900  0.487600  1.0  -0.5562
  O  O146  1  0.808030  0.131980  0.266500  1.0  -0.5698
  O  O147  1  0.566140  0.032270  0.738500  1.0  -0.559
  O  O148  1  0.618230  0.984100  0.487600  1.0  -0.5572
  O  O149  1  0.631980  0.308030  0.733500  1.0  -0.5685
  O  O150  1  0.532270  0.066140  0.261500  1.0  -0.5603
  O  O151  1  0.484100  0.118230  0.512400  1.0  -0.5559
  O  O152  1  0.868020  0.191970  0.733500  1.0  -0.5693
  O  O153  1  0.967730  0.433860  0.261500  1.0  -0.5606
  O  O154  1  0.015900  0.381770  0.512400  1.0  -0.5565
  O  O155  1  0.308030  0.868020  0.733500  1.0  -0.5691
  O  O156  1  0.066140  0.967730  0.261500  1.0  -0.5587
  O  O157  1  0.118230  0.015900  0.512400  1.0  -0.5575
  O  O158  1  0.191970  0.631980  0.733500  1.0  -0.5688
  O  O159  1  0.433860  0.532270  0.261500  1.0  -0.5593
  O  O160  1  0.381770  0.484100  0.512400  1.0  -0.5582
