# generated using pymatgen
data_BaH15(C9O2)3
_symmetry_space_group_name_H-M   'P 1'
_cell_length_a   7.29930000
_cell_length_b   19.36150000
_cell_length_c   26.09840000
_cell_angle_alpha   90.00000000
_cell_angle_beta   90.00000000
_cell_angle_gamma   90.00000000
_symmetry_Int_Tables_number   1
_chemical_formula_structural   BaH15(C9O2)3
_chemical_formula_sum   'Ba4 H60 C108 O24'
_cell_volume   3688.36673976
_cell_formula_units_Z   4
loop_
 _symmetry_equiv_pos_site_id
 _symmetry_equiv_pos_as_xyz
  1  'x, y, z'
loop_
 _atom_site_type_symbol
 _atom_site_label
 _atom_site_symmetry_multiplicity
 _atom_site_fract_x
 _atom_site_fract_y
 _atom_site_fract_z
 _atom_site_occupancy
 _atom_site_charge
  Ba  Ba1  1  0.127950  0.692390  0.989820  1.0  1.6376
  Ba  Ba2  1  0.872050  0.307610  0.489820  1.0  1.6369
  Ba  Ba3  1  0.627950  0.807610  0.989820  1.0  1.6374
  Ba  Ba4  1  0.372050  0.192390  0.489820  1.0  1.6383
  H  H5  1  0.815600  0.277200  0.339300  1.0  0.0982
  H  H6  1  0.918800  0.281000  0.255600  1.0  0.1076
  H  H7  1  0.721800  0.089900  0.232500  1.0  0.1098
  H  H8  1  0.609100  0.087700  0.314400  1.0  0.1137
  H  H9  1  0.893900  0.372400  0.955800  1.0  0.1096
  H  H10  1  0.889600  0.271100  0.000600  1.0  0.1143
  H  H11  1  0.059200  0.371700  0.127000  1.0  0.1078
  H  H12  1  0.080100  0.472400  0.080200  1.0  0.117
  H  H13  1  0.029600  0.181400  0.043000  1.0  0.1104
  H  H14  1  0.953600  0.085300  0.177400  1.0  0.1098
  H  H15  1  0.870100  0.288800  0.165900  1.0  0.1071
  H  H16  1  0.205400  0.017000  0.142500  1.0  0.1155
  H  H17  1  0.260700  0.909000  0.108400  1.0  0.1143
  H  H18  1  0.972600  0.959600  0.984100  1.0  0.107
  H  H19  1  0.931500  0.069700  0.014900  1.0  0.1159
  H  H20  1  0.184400  0.722800  0.839300  1.0  0.0982
  H  H21  1  0.081200  0.719000  0.755600  1.0  0.1078
  H  H22  1  0.278200  0.910100  0.732500  1.0  0.1097
  H  H23  1  0.390900  0.912300  0.814400  1.0  0.1131
  H  H24  1  0.106100  0.627600  0.455800  1.0  0.1096
  H  H25  1  0.110400  0.728900  0.500600  1.0  0.1153
  H  H26  1  0.940800  0.628300  0.627000  1.0  0.1077
  H  H27  1  0.919900  0.527600  0.580200  1.0  0.1181
  H  H28  1  0.970400  0.818600  0.543000  1.0  0.1104
  H  H29  1  0.046400  0.914700  0.677400  1.0  0.109
  H  H30  1  0.129900  0.711200  0.665900  1.0  0.1077
  H  H31  1  0.794600  0.983000  0.642500  1.0  0.1161
  H  H32  1  0.739300  0.091000  0.608400  1.0  0.1139
  H  H33  1  0.027400  0.040400  0.484100  1.0  0.107
  H  H34  1  0.068500  0.930300  0.514900  1.0  0.1162
  H  H35  1  0.315600  0.222800  0.339300  1.0  0.0981
  H  H36  1  0.418800  0.219000  0.255600  1.0  0.1076
  H  H37  1  0.221800  0.410100  0.232500  1.0  0.1099
  H  H38  1  0.109100  0.412300  0.314400  1.0  0.113
  H  H39  1  0.393900  0.127600  0.955800  1.0  0.1097
  H  H40  1  0.389600  0.228900  0.000600  1.0  0.114
  H  H41  1  0.559200  0.128300  0.127000  1.0  0.1077
  H  H42  1  0.580100  0.027600  0.080200  1.0  0.1176
  H  H43  1  0.529600  0.318600  0.043000  1.0  0.1103
  H  H44  1  0.453600  0.414700  0.177400  1.0  0.1093
  H  H45  1  0.370100  0.211200  0.165900  1.0  0.1078
  H  H46  1  0.705400  0.483000  0.142500  1.0  0.1166
  H  H47  1  0.760700  0.591000  0.108400  1.0  0.1135
  H  H48  1  0.472600  0.540400  0.984100  1.0  0.1071
  H  H49  1  0.431500  0.430300  0.014900  1.0  0.1158
  H  H50  1  0.684400  0.777200  0.839300  1.0  0.0981
  H  H51  1  0.581200  0.781000  0.755600  1.0  0.1078
  H  H52  1  0.778200  0.589900  0.732500  1.0  0.1096
  H  H53  1  0.890900  0.587700  0.814400  1.0  0.1139
  H  H54  1  0.606100  0.872400  0.455800  1.0  0.1097
  H  H55  1  0.610400  0.771100  0.500600  1.0  0.1152
  H  H56  1  0.440800  0.871700  0.627000  1.0  0.1079
  H  H57  1  0.419900  0.972400  0.580200  1.0  0.1172
  H  H58  1  0.470400  0.681400  0.543000  1.0  0.1105
  H  H59  1  0.546400  0.585300  0.677400  1.0  0.1095
  H  H60  1  0.629900  0.788800  0.665900  1.0  0.1071
  H  H61  1  0.294600  0.517000  0.642500  1.0  0.1158
  H  H62  1  0.239300  0.409000  0.608400  1.0  0.1143
  H  H63  1  0.527400  0.459600  0.484100  1.0  0.1071
  H  H64  1  0.568500  0.569700  0.514900  1.0  0.1161
  C  C65  1  0.646000  0.180800  0.391300  1.0  0.7299
  C  C66  1  0.714300  0.181900  0.337500  1.0  -0.1213
  C  C67  1  0.798300  0.239100  0.318200  1.0  -0.0292
  C  C68  1  0.859100  0.241700  0.267500  1.0  -0.1048
  C  C69  1  0.831600  0.186300  0.234600  1.0  0.0507
  C  C70  1  0.739800  0.127900  0.253800  1.0  -0.1422
  C  C71  1  0.676400  0.125500  0.303200  1.0  -0.0917
  C  C72  1  0.003500  0.499600  0.984800  1.0  0.6778
  C  C73  1  0.989600  0.433100  0.013000  1.0  -0.1487
  C  C74  1  0.930100  0.372000  0.990000  1.0  -0.0466
  C  C75  1  0.924400  0.311600  0.017000  1.0  -0.1185
  C  C76  1  0.970800  0.309800  0.069900  1.0  0.0727
  C  C77  1  0.027900  0.371400  0.092400  1.0  -0.0907
  C  C78  1  0.039300  0.432200  0.064500  1.0  -0.0471
  C  C79  1  0.954300  0.245600  0.100400  1.0  -0.0401
  C  C80  1  0.001900  0.183000  0.077800  1.0  -0.0792
  C  C81  1  0.008300  0.122200  0.107100  1.0  -0.0038
  C  C82  1  0.954400  0.125600  0.158000  1.0  -0.118
  C  C83  1  0.901900  0.187100  0.180900  1.0  -0.007
  C  C84  1  0.903800  0.247000  0.151100  1.0  -0.1112
  C  C85  1  0.054300  0.054800  0.082900  1.0  0.0775
  C  C86  1  0.158000  0.005500  0.110500  1.0  -0.1182
  C  C87  1  0.189500  0.940600  0.090400  1.0  -0.0491
  C  C88  1  0.019900  0.971200  0.016100  1.0  -0.0595
  C  C89  1  0.992300  0.037100  0.034800  1.0  -0.158
  C  C90  1  0.115000  0.922400  0.043200  1.0  -0.1103
  C  C91  1  0.133900  0.850200  0.023900  1.0  0.7396
  C  C92  1  0.354000  0.819200  0.891300  1.0  0.7303
  C  C93  1  0.285700  0.818100  0.837500  1.0  -0.1205
  C  C94  1  0.201700  0.760900  0.818200  1.0  -0.0306
  C  C95  1  0.140900  0.758300  0.767500  1.0  -0.1039
  C  C96  1  0.168400  0.813700  0.734600  1.0  0.0508
  C  C97  1  0.260200  0.872100  0.753800  1.0  -0.1403
  C  C98  1  0.323600  0.874500  0.803200  1.0  -0.0898
  C  C99  1  0.996500  0.500400  0.484800  1.0  0.6786
  C  C100  1  0.010400  0.566900  0.513000  1.0  -0.1514
  C  C101  1  0.069900  0.628000  0.490000  1.0  -0.0471
  C  C102  1  0.075600  0.688400  0.517000  1.0  -0.1184
  C  C103  1  0.029200  0.690200  0.569900  1.0  0.0732
  C  C104  1  0.972100  0.628600  0.592400  1.0  -0.0921
  C  C105  1  0.960700  0.567800  0.564500  1.0  -0.0462
  C  C106  1  0.045700  0.754400  0.600400  1.0  -0.0401
  C  C107  1  0.998100  0.817000  0.577800  1.0  -0.0802
  C  C108  1  0.991700  0.877800  0.607100  1.0  -0.003
  C  C109  1  0.045600  0.874400  0.658000  1.0  -0.1191
  C  C110  1  0.098100  0.812900  0.680900  1.0  -0.0075
  C  C111  1  0.096200  0.753000  0.651100  1.0  -0.1113
  C  C112  1  0.945700  0.945200  0.582900  1.0  0.0776
  C  C113  1  0.842000  0.994500  0.610500  1.0  -0.1171
  C  C114  1  0.810500  0.059400  0.590400  1.0  -0.0467
  C  C115  1  0.980100  0.028800  0.516100  1.0  -0.0618
  C  C116  1  0.007700  0.962900  0.534800  1.0  -0.1595
  C  C117  1  0.885000  0.077600  0.543200  1.0  -0.1103
  C  C118  1  0.866100  0.149800  0.523900  1.0  0.7405
  C  C119  1  0.146000  0.319200  0.391300  1.0  0.7304
  C  C120  1  0.214300  0.318100  0.337500  1.0  -0.121
  C  C121  1  0.298300  0.260900  0.318200  1.0  -0.0305
  C  C122  1  0.359100  0.258300  0.267500  1.0  -0.1048
  C  C123  1  0.331600  0.313700  0.234600  1.0  0.0504
  C  C124  1  0.239800  0.372100  0.253800  1.0  -0.14
  C  C125  1  0.176400  0.374500  0.303200  1.0  -0.0908
  C  C126  1  0.503500  0.000400  0.984800  1.0  0.6777
  C  C127  1  0.489600  0.066900  0.013000  1.0  -0.1509
  C  C128  1  0.430100  0.128000  0.990000  1.0  -0.0468
  C  C129  1  0.424400  0.188400  0.017000  1.0  -0.1182
  C  C130  1  0.470800  0.190200  0.069900  1.0  0.0734
  C  C131  1  0.527900  0.128600  0.092400  1.0  -0.0915
  C  C132  1  0.539300  0.067800  0.064500  1.0  -0.0464
  C  C133  1  0.454300  0.254400  0.100400  1.0  -0.0403
  C  C134  1  0.501900  0.317000  0.077800  1.0  -0.0795
  C  C135  1  0.508300  0.377800  0.107100  1.0  -0.0037
  C  C136  1  0.454400  0.374400  0.158000  1.0  -0.1191
  C  C137  1  0.401900  0.312900  0.180900  1.0  -0.0069
  C  C138  1  0.403800  0.253000  0.151100  1.0  -0.1127
  C  C139  1  0.554300  0.445200  0.082900  1.0  0.0775
  C  C140  1  0.658000  0.494500  0.110500  1.0  -0.1167
  C  C141  1  0.689500  0.559400  0.090400  1.0  -0.046
  C  C142  1  0.519900  0.528800  0.016100  1.0  -0.0605
  C  C143  1  0.492300  0.462900  0.034800  1.0  -0.1581
  C  C144  1  0.615000  0.577600  0.043200  1.0  -0.1098
  C  C145  1  0.633900  0.649800  0.023900  1.0  0.7408
  C  C146  1  0.854000  0.680800  0.891300  1.0  0.7298
  C  C147  1  0.785700  0.681900  0.837500  1.0  -0.121
  C  C148  1  0.701700  0.739100  0.818200  1.0  -0.0292
  C  C149  1  0.640900  0.741700  0.767500  1.0  -0.1037
  C  C150  1  0.668400  0.686300  0.734600  1.0  0.051
  C  C151  1  0.760200  0.627900  0.753800  1.0  -0.1425
  C  C152  1  0.823600  0.625500  0.803200  1.0  -0.0927
  C  C153  1  0.496500  0.999600  0.484800  1.0  0.6783
  C  C154  1  0.510400  0.933100  0.513000  1.0  -0.1488
  C  C155  1  0.569900  0.872000  0.490000  1.0  -0.0472
  C  C156  1  0.575600  0.811600  0.517000  1.0  -0.1181
  C  C157  1  0.529200  0.809800  0.569900  1.0  0.0724
  C  C158  1  0.472100  0.871400  0.592400  1.0  -0.0916
  C  C159  1  0.460700  0.932200  0.564500  1.0  -0.0473
  C  C160  1  0.545700  0.745600  0.600400  1.0  -0.0399
  C  C161  1  0.498100  0.683000  0.577800  1.0  -0.08
  C  C162  1  0.491700  0.622200  0.607100  1.0  -0.0031
  C  C163  1  0.545600  0.625600  0.658000  1.0  -0.1185
  C  C164  1  0.598100  0.687100  0.680900  1.0  -0.0074
  C  C165  1  0.596200  0.747000  0.651100  1.0  -0.1099
  C  C166  1  0.445700  0.554800  0.582900  1.0  0.0778
  C  C167  1  0.342000  0.505500  0.610500  1.0  -0.1185
  C  C168  1  0.310500  0.440600  0.590400  1.0  -0.047
  C  C169  1  0.480100  0.471200  0.516100  1.0  -0.0609
  C  C170  1  0.507700  0.537100  0.534800  1.0  -0.1593
  C  C171  1  0.385000  0.422400  0.543200  1.0  -0.1109
  C  C172  1  0.366100  0.350200  0.523900  1.0  0.7389
  O  O173  1  0.551300  0.128900  0.405700  1.0  -0.6735
  O  O174  1  0.670200  0.232000  0.418900  1.0  -0.668
  O  O175  1  0.003800  0.826300  0.996800  1.0  -0.7544
  O  O176  1  0.276700  0.816200  0.032700  1.0  -0.7235
  O  O177  1  0.073600  0.550700  0.003600  1.0  -0.5747
  O  O178  1  0.926500  0.501000  0.939300  1.0  -0.4555
  O  O179  1  0.448700  0.871100  0.905700  1.0  -0.6727
  O  O180  1  0.329800  0.768000  0.918900  1.0  -0.6665
  O  O181  1  0.996200  0.173700  0.496800  1.0  -0.7563
  O  O182  1  0.723300  0.183800  0.532700  1.0  -0.7254
  O  O183  1  0.926400  0.449300  0.503600  1.0  -0.5729
  O  O184  1  0.073500  0.499000  0.439300  1.0  -0.4569
  O  O185  1  0.051300  0.371100  0.405700  1.0  -0.6735
  O  O186  1  0.170200  0.268000  0.418900  1.0  -0.6668
  O  O187  1  0.503800  0.673700  0.996800  1.0  -0.7543
  O  O188  1  0.776700  0.683800  0.032700  1.0  -0.7248
  O  O189  1  0.573600  0.949300  0.003600  1.0  -0.5728
  O  O190  1  0.426500  0.999000  0.939300  1.0  -0.456
  O  O191  1  0.948700  0.628900  0.905700  1.0  -0.6735
  O  O192  1  0.829800  0.732000  0.918900  1.0  -0.6677
  O  O193  1  0.496200  0.326300  0.496800  1.0  -0.7542
  O  O194  1  0.223300  0.316200  0.532700  1.0  -0.7245
  O  O195  1  0.426400  0.050700  0.503600  1.0  -0.5748
  O  O196  1  0.573500  0.001000  0.439300  1.0  -0.4563
