# generated using pymatgen
data_BaH15(C9O2)3
_symmetry_space_group_name_H-M   'P 1'
_cell_length_a   7.26520000
_cell_length_b   19.31520000
_cell_length_c   26.07230000
_cell_angle_alpha   90.00000000
_cell_angle_beta   90.00000000
_cell_angle_gamma   90.00000000
_symmetry_Int_Tables_number   1
_chemical_formula_structural   BaH15(C9O2)3
_chemical_formula_sum   'Ba4 H60 C108 O24'
_cell_volume   3658.69433863
_cell_formula_units_Z   4
loop_
 _symmetry_equiv_pos_site_id
 _symmetry_equiv_pos_as_xyz
  1  'x, y, z'
loop_
 _atom_site_type_symbol
 _atom_site_label
 _atom_site_symmetry_multiplicity
 _atom_site_fract_x
 _atom_site_fract_y
 _atom_site_fract_z
 _atom_site_occupancy
 _atom_site_charge
  Ba  Ba1  1  0.367440  0.308200  0.411670  1.0  1.6422
  Ba  Ba2  1  0.632560  0.691800  0.911670  1.0  1.6422
  Ba  Ba3  1  0.867440  0.191800  0.411670  1.0  1.6428
  Ba  Ba4  1  0.132560  0.808200  0.911670  1.0  1.6417
  H  H5  1  0.225900  0.093300  0.529600  1.0  0.1201
  H  H6  1  0.512800  0.040800  0.404800  1.0  0.138
  H  H7  1  0.291900  0.986500  0.566900  1.0  0.12
  H  H8  1  0.567500  0.931100  0.438800  1.0  0.1117
  H  H9  1  0.539900  0.916500  0.600900  1.0  0.1064
  H  H10  1  0.459800  0.819800  0.466400  1.0  0.1084
  H  H11  1  0.633400  0.711700  0.589400  1.0  0.1123
  H  H12  1  0.581400  0.718500  0.677800  1.0  0.1043
  H  H13  1  0.777200  0.909300  0.655000  1.0  0.1076
  H  H14  1  0.601500  0.731900  0.424500  1.0  0.1266
  H  H15  1  0.437500  0.628900  0.550600  1.0  0.1044
  H  H16  1  0.686300  0.720900  0.761000  1.0  0.1045
  H  H17  1  0.879800  0.915100  0.738300  1.0  0.1281
  H  H18  1  0.594300  0.629200  0.379000  1.0  0.1105
  H  H19  1  0.404000  0.528200  0.502400  1.0  0.1107
  H  H20  1  0.774100  0.906700  0.029600  1.0  0.1202
  H  H21  1  0.487200  0.959200  0.904800  1.0  0.1377
  H  H22  1  0.708100  0.013500  0.066900  1.0  0.1198
  H  H23  1  0.432500  0.068900  0.938800  1.0  0.1112
  H  H24  1  0.460100  0.083500  0.100900  1.0  0.1069
  H  H25  1  0.540200  0.180200  0.966400  1.0  0.1083
  H  H26  1  0.366600  0.288300  0.089400  1.0  0.1118
  H  H27  1  0.418600  0.281500  0.177800  1.0  0.1044
  H  H28  1  0.222800  0.090700  0.155000  1.0  0.1075
  H  H29  1  0.398500  0.268100  0.924500  1.0  0.1262
  H  H30  1  0.562500  0.371100  0.050600  1.0  0.1043
  H  H31  1  0.313700  0.279100  0.261000  1.0  0.1042
  H  H32  1  0.120200  0.084900  0.238300  1.0  0.1271
  H  H33  1  0.405700  0.370800  0.879000  1.0  0.1104
  H  H34  1  0.596000  0.471800  0.002400  1.0  0.1098
  H  H35  1  0.725900  0.406700  0.529600  1.0  0.1202
  H  H36  1  0.012800  0.459200  0.404800  1.0  0.138
  H  H37  1  0.791900  0.513500  0.566900  1.0  0.1203
  H  H38  1  0.067500  0.568900  0.438800  1.0  0.1117
  H  H39  1  0.039900  0.583500  0.600900  1.0  0.1067
  H  H40  1  0.959800  0.680200  0.466400  1.0  0.1086
  H  H41  1  0.133400  0.788300  0.589400  1.0  0.1114
  H  H42  1  0.081400  0.781500  0.677800  1.0  0.1044
  H  H43  1  0.277200  0.590700  0.655000  1.0  0.1072
  H  H44  1  0.101500  0.768100  0.424500  1.0  0.1261
  H  H45  1  0.937500  0.871100  0.550600  1.0  0.1042
  H  H46  1  0.186300  0.779100  0.761000  1.0  0.104
  H  H47  1  0.379800  0.584900  0.738300  1.0  0.1273
  H  H48  1  0.094300  0.870800  0.379000  1.0  0.1103
  H  H49  1  0.904000  0.971800  0.502400  1.0  0.11
  H  H50  1  0.274100  0.593300  0.029600  1.0  0.1197
  H  H51  1  0.987200  0.540800  0.904800  1.0  0.1378
  H  H52  1  0.208100  0.486500  0.066900  1.0  0.1207
  H  H53  1  0.932500  0.431100  0.938800  1.0  0.1111
  H  H54  1  0.960100  0.416500  0.100900  1.0  0.1064
  H  H55  1  0.040200  0.319800  0.966400  1.0  0.1082
  H  H56  1  0.866600  0.211700  0.089400  1.0  0.1127
  H  H57  1  0.918600  0.218500  0.177800  1.0  0.1044
  H  H58  1  0.722800  0.409300  0.155000  1.0  0.1079
  H  H59  1  0.898500  0.231900  0.924500  1.0  0.1265
  H  H60  1  0.062500  0.128900  0.050600  1.0  0.1045
  H  H61  1  0.813700  0.220900  0.261000  1.0  0.1043
  H  H62  1  0.620200  0.415100  0.238300  1.0  0.1286
  H  H63  1  0.905700  0.129200  0.879000  1.0  0.1109
  H  H64  1  0.096000  0.028200  0.002400  1.0  0.1105
  C  C65  1  0.361600  0.151900  0.445400  1.0  0.7135
  C  C66  1  0.375800  0.077200  0.466900  1.0  -0.061
  C  C67  1  0.301900  0.061000  0.512200  1.0  -0.0801
  C  C68  1  0.469700  0.029300  0.438200  1.0  -0.0765
  C  C69  1  0.336600  0.996700  0.533500  1.0  -0.1345
  C  C70  1  0.501000  0.964200  0.458400  1.0  -0.1341
  C  C71  1  0.437400  0.946400  0.506500  1.0  0.0769
  C  C72  1  0.486500  0.877700  0.529800  1.0  0.0253
  C  C73  1  0.540200  0.875000  0.581200  1.0  -0.1495
  C  C74  1  0.490100  0.818100  0.501800  1.0  -0.1255
  C  C75  1  0.594200  0.813300  0.604800  1.0  0.0225
  C  C76  1  0.536900  0.755000  0.523900  1.0  0.0311
  C  C77  1  0.663700  0.814000  0.657100  1.0  0.059
  C  C78  1  0.593700  0.754200  0.574700  1.0  -0.1325
  C  C79  1  0.521700  0.690800  0.493100  1.0  0.0419
  C  C80  1  0.641200  0.759100  0.690000  1.0  -0.1403
  C  C81  1  0.756000  0.871000  0.677000  1.0  -0.1229
  C  C82  1  0.566000  0.690300  0.441200  1.0  -0.1639
  C  C83  1  0.466000  0.629800  0.515000  1.0  -0.1257
  C  C84  1  0.702300  0.760600  0.739900  1.0  -0.123
  C  C85  1  0.817000  0.874900  0.726500  1.0  -0.1056
  C  C86  1  0.558000  0.628800  0.414000  1.0  -0.0402
  C  C87  1  0.450000  0.568800  0.486300  1.0  -0.1129
  C  C88  1  0.785900  0.818300  0.759900  1.0  -0.1301
  C  C89  1  0.499700  0.566500  0.435300  1.0  -0.0667
  C  C90  1  0.855600  0.820400  0.813600  1.0  0.7097
  C  C91  1  0.491500  0.501200  0.406000  1.0  0.7267
  C  C92  1  0.638400  0.848100  0.945400  1.0  0.7134
  C  C93  1  0.624200  0.922800  0.966900  1.0  -0.0605
  C  C94  1  0.698100  0.939000  0.012200  1.0  -0.0819
  C  C95  1  0.530300  0.970700  0.938200  1.0  -0.0738
  C  C96  1  0.663400  0.003300  0.033500  1.0  -0.1343
  C  C97  1  0.499000  0.035800  0.958400  1.0  -0.1323
  C  C98  1  0.562600  0.053600  0.006500  1.0  0.0757
  C  C99  1  0.513500  0.122300  0.029800  1.0  0.0243
  C  C100  1  0.459800  0.125000  0.081200  1.0  -0.149
  C  C101  1  0.509900  0.181900  0.001800  1.0  -0.1247
  C  C102  1  0.405800  0.186700  0.104800  1.0  0.0226
  C  C103  1  0.463100  0.245000  0.023900  1.0  0.0312
  C  C104  1  0.336300  0.186000  0.157100  1.0  0.0579
  C  C105  1  0.406300  0.245800  0.074700  1.0  -0.1335
  C  C106  1  0.478300  0.309200  0.993100  1.0  0.0412
  C  C107  1  0.358800  0.240900  0.190000  1.0  -0.14
  C  C108  1  0.244000  0.129000  0.177000  1.0  -0.1237
  C  C109  1  0.434000  0.309700  0.941200  1.0  -0.1641
  C  C110  1  0.534000  0.370200  0.015000  1.0  -0.1244
  C  C111  1  0.297700  0.239400  0.239900  1.0  -0.1217
  C  C112  1  0.183000  0.125100  0.226500  1.0  -0.109
  C  C113  1  0.442000  0.371200  0.914000  1.0  -0.0389
  C  C114  1  0.550000  0.431200  0.986300  1.0  -0.1127
  C  C115  1  0.214100  0.181700  0.259900  1.0  -0.1315
  C  C116  1  0.500300  0.433500  0.935300  1.0  -0.0651
  C  C117  1  0.144400  0.179600  0.313600  1.0  0.7088
  C  C118  1  0.508500  0.498800  0.906000  1.0  0.7261
  C  C119  1  0.861600  0.348100  0.445400  1.0  0.7127
  C  C120  1  0.875800  0.422800  0.466900  1.0  -0.0603
  C  C121  1  0.801900  0.439000  0.512200  1.0  -0.081
  C  C122  1  0.969700  0.470700  0.438200  1.0  -0.0759
  C  C123  1  0.836600  0.503300  0.533500  1.0  -0.1344
  C  C124  1  0.001000  0.535800  0.458400  1.0  -0.1333
  C  C125  1  0.937400  0.553600  0.506500  1.0  0.0763
  C  C126  1  0.986500  0.622300  0.529800  1.0  0.0243
  C  C127  1  0.040200  0.625000  0.581200  1.0  -0.1497
  C  C128  1  0.990100  0.681900  0.501800  1.0  -0.1255
  C  C129  1  0.094200  0.686700  0.604800  1.0  0.0226
  C  C130  1  0.036900  0.745000  0.523900  1.0  0.0312
  C  C131  1  0.163700  0.686000  0.657100  1.0  0.0586
  C  C132  1  0.093700  0.745800  0.574700  1.0  -0.1317
  C  C133  1  0.021700  0.809200  0.493100  1.0  0.0411
  C  C134  1  0.141200  0.740900  0.690000  1.0  -0.1397
  C  C135  1  0.256000  0.629000  0.677000  1.0  -0.124
  C  C136  1  0.066000  0.809700  0.441200  1.0  -0.1633
  C  C137  1  0.966000  0.870200  0.515000  1.0  -0.1256
  C  C138  1  0.202300  0.739400  0.739900  1.0  -0.1217
  C  C139  1  0.317000  0.625100  0.726500  1.0  -0.1091
  C  C140  1  0.058000  0.871200  0.414000  1.0  -0.0395
  C  C141  1  0.950000  0.931200  0.486300  1.0  -0.1128
  C  C142  1  0.285900  0.681700  0.759900  1.0  -0.1303
  C  C143  1  0.999700  0.933500  0.435300  1.0  -0.0656
  C  C144  1  0.355600  0.679600  0.813600  1.0  0.7106
  C  C145  1  0.991500  0.998800  0.406000  1.0  0.7273
  C  C146  1  0.138400  0.651900  0.945400  1.0  0.7142
  C  C147  1  0.124200  0.577200  0.966900  1.0  -0.0612
  C  C148  1  0.198100  0.561000  0.012200  1.0  -0.0787
  C  C149  1  0.030300  0.529300  0.938200  1.0  -0.0741
  C  C150  1  0.163400  0.496700  0.033500  1.0  -0.1336
  C  C151  1  0.999000  0.464200  0.958400  1.0  -0.1333
  C  C152  1  0.062600  0.446400  0.006500  1.0  0.0766
  C  C153  1  0.013500  0.377700  0.029800  1.0  0.0253
  C  C154  1  0.959800  0.375000  0.081200  1.0  -0.1494
  C  C155  1  0.009900  0.318100  0.001800  1.0  -0.1248
  C  C156  1  0.905800  0.313300  0.104800  1.0  0.0225
  C  C157  1  0.963100  0.255000  0.023900  1.0  0.031
  C  C158  1  0.836300  0.314000  0.157100  1.0  0.0584
  C  C159  1  0.906300  0.254200  0.074700  1.0  -0.1343
  C  C160  1  0.978300  0.190800  0.993100  1.0  0.0419
  C  C161  1  0.858800  0.259100  0.190000  1.0  -0.1406
  C  C162  1  0.744000  0.371000  0.177000  1.0  -0.123
  C  C163  1  0.934000  0.190300  0.941200  1.0  -0.1644
  C  C164  1  0.034000  0.129800  0.015000  1.0  -0.1246
  C  C165  1  0.797700  0.260600  0.239900  1.0  -0.1229
  C  C166  1  0.683000  0.374900  0.226500  1.0  -0.1071
  C  C167  1  0.942000  0.128800  0.914000  1.0  -0.0399
  C  C168  1  0.050000  0.068800  0.986300  1.0  -0.1132
  C  C169  1  0.714100  0.318300  0.259900  1.0  -0.1313
  C  C170  1  0.000300  0.066500  0.935300  1.0  -0.066
  C  C171  1  0.644400  0.320400  0.313600  1.0  0.7098
  C  C172  1  0.008500  0.001200  0.906000  1.0  0.7254
  O  O173  1  0.669300  0.268700  0.341400  1.0  -0.6757
  O  O174  1  0.549700  0.372300  0.328700  1.0  -0.6666
  O  O175  1  0.990300  0.326500  0.421300  1.0  -0.6127
  O  O176  1  0.714100  0.315300  0.455700  1.0  -0.7349
  O  O177  1  0.421200  0.450700  0.425700  1.0  -0.5701
  O  O178  1  0.563900  0.502200  0.360500  1.0  -0.4779
  O  O179  1  0.330700  0.731300  0.841400  1.0  -0.675
  O  O180  1  0.450300  0.627700  0.828700  1.0  -0.6655
  O  O181  1  0.009700  0.673500  0.921300  1.0  -0.6122
  O  O182  1  0.285900  0.684700  0.955700  1.0  -0.7345
  O  O183  1  0.578800  0.549300  0.925700  1.0  -0.5706
  O  O184  1  0.436100  0.497800  0.860500  1.0  -0.4763
  O  O185  1  0.169300  0.231300  0.341400  1.0  -0.6752
  O  O186  1  0.049700  0.127700  0.328700  1.0  -0.6651
  O  O187  1  0.490300  0.173500  0.421300  1.0  -0.6124
  O  O188  1  0.214100  0.184700  0.455700  1.0  -0.7348
  O  O189  1  0.921200  0.049300  0.425700  1.0  -0.571
  O  O190  1  0.063900  0.997800  0.360500  1.0  -0.4774
  O  O191  1  0.830700  0.768700  0.841400  1.0  -0.6756
  O  O192  1  0.950300  0.872300  0.828700  1.0  -0.6658
  O  O193  1  0.509700  0.826500  0.921300  1.0  -0.6128
  O  O194  1  0.785900  0.815300  0.955700  1.0  -0.7336
  O  O195  1  0.078800  0.950700  0.925700  1.0  -0.5704
  O  O196  1  0.936100  0.002200  0.860500  1.0  -0.4767
