# generated using pymatgen
data_BaH15(C9O2)3
_symmetry_space_group_name_H-M   'P 1'
_cell_length_a   7.24590000
_cell_length_b   19.22420000
_cell_length_c   25.80700000
_cell_angle_alpha   90.00000000
_cell_angle_beta   90.00000000
_cell_angle_gamma   90.00000000
_symmetry_Int_Tables_number   1
_chemical_formula_structural   BaH15(C9O2)3
_chemical_formula_sum   'Ba4 H60 C108 O24'
_cell_volume   3594.82815054
_cell_formula_units_Z   4
loop_
 _symmetry_equiv_pos_site_id
 _symmetry_equiv_pos_as_xyz
  1  'x, y, z'
loop_
 _atom_site_type_symbol
 _atom_site_label
 _atom_site_symmetry_multiplicity
 _atom_site_fract_x
 _atom_site_fract_y
 _atom_site_fract_z
 _atom_site_occupancy
 _atom_site_charge
  Ba  Ba1  1  0.181980  0.311400  0.892570  1.0  1.6654
  Ba  Ba2  1  0.818020  0.688600  0.392570  1.0  1.6649
  Ba  Ba3  1  0.681980  0.188600  0.892570  1.0  1.6648
  Ba  Ba4  1  0.318020  0.811400  0.392570  1.0  1.6654
  H  H5  1  0.296900  0.094300  0.767600  1.0  0.1
  H  H6  1  0.221600  0.986800  0.730700  1.0  0.1229
  H  H7  1  0.968900  0.933400  0.862500  1.0  0.1324
  H  H8  1  0.014300  0.045300  0.892700  1.0  0.1031
  H  H9  1  0.609100  0.918100  0.565200  1.0  0.1052
  H  H10  1  0.724200  0.914900  0.645400  1.0  0.0987
  H  H11  1  0.788300  0.724200  0.539300  1.0  0.1059
  H  H12  1  0.897100  0.720600  0.622500  1.0  0.1025
  H  H13  1  0.097600  0.531500  0.796600  1.0  0.111
  H  H14  1  0.072300  0.630800  0.749600  1.0  0.1223
  H  H15  1  0.929200  0.731800  0.877900  1.0  0.1097
  H  H16  1  0.941700  0.632200  0.924300  1.0  0.1111
  H  H17  1  0.877400  0.715700  0.711100  1.0  0.1011
  H  H18  1  0.970500  0.918700  0.697300  1.0  0.106
  H  H19  1  0.063900  0.822700  0.833400  1.0  0.1061
  H  H20  1  0.703100  0.905700  0.267600  1.0  0.0995
  H  H21  1  0.778400  0.013200  0.230700  1.0  0.1227
  H  H22  1  0.031100  0.066600  0.362500  1.0  0.1325
  H  H23  1  0.985700  0.954700  0.392700  1.0  0.1027
  H  H24  1  0.390900  0.081900  0.065200  1.0  0.1041
  H  H25  1  0.275800  0.085100  0.145400  1.0  0.0995
  H  H26  1  0.211700  0.275800  0.039300  1.0  0.1061
  H  H27  1  0.102900  0.279400  0.122500  1.0  0.1029
  H  H28  1  0.902400  0.468500  0.296600  1.0  0.1107
  H  H29  1  0.927700  0.369200  0.249600  1.0  0.1231
  H  H30  1  0.070800  0.268200  0.377900  1.0  0.1102
  H  H31  1  0.058300  0.367800  0.424300  1.0  0.1115
  H  H32  1  0.122600  0.284300  0.211100  1.0  0.1002
  H  H33  1  0.029500  0.081300  0.197300  1.0  0.1058
  H  H34  1  0.936100  0.177300  0.333400  1.0  0.1061
  H  H35  1  0.796900  0.405700  0.767600  1.0  0.0996
  H  H36  1  0.721600  0.513200  0.730700  1.0  0.1224
  H  H37  1  0.468900  0.566600  0.862500  1.0  0.1323
  H  H38  1  0.514300  0.454700  0.892700  1.0  0.1033
  H  H39  1  0.109100  0.581900  0.565200  1.0  0.1042
  H  H40  1  0.224200  0.585100  0.645400  1.0  0.0992
  H  H41  1  0.288300  0.775800  0.539300  1.0  0.1061
  H  H42  1  0.397100  0.779400  0.622500  1.0  0.1026
  H  H43  1  0.597600  0.968500  0.796600  1.0  0.1106
  H  H44  1  0.572300  0.869200  0.749600  1.0  0.1226
  H  H45  1  0.429200  0.768200  0.877900  1.0  0.11
  H  H46  1  0.441700  0.867800  0.924300  1.0  0.1099
  H  H47  1  0.377400  0.784300  0.711100  1.0  0.1004
  H  H48  1  0.470500  0.581300  0.697300  1.0  0.1053
  H  H49  1  0.563900  0.677300  0.833400  1.0  0.1061
  H  H50  1  0.203100  0.594300  0.267600  1.0  0.0999
  H  H51  1  0.278400  0.486800  0.230700  1.0  0.1221
  H  H52  1  0.531100  0.433400  0.362500  1.0  0.1324
  H  H53  1  0.485700  0.545300  0.392700  1.0  0.1026
  H  H54  1  0.890900  0.418100  0.065200  1.0  0.1049
  H  H55  1  0.775800  0.414900  0.145400  1.0  0.0991
  H  H56  1  0.711700  0.224200  0.039300  1.0  0.1058
  H  H57  1  0.602900  0.220600  0.122500  1.0  0.1028
  H  H58  1  0.402400  0.031500  0.296600  1.0  0.1109
  H  H59  1  0.427700  0.130800  0.249600  1.0  0.1227
  H  H60  1  0.570800  0.231800  0.377900  1.0  0.1095
  H  H61  1  0.558300  0.132200  0.424300  1.0  0.1112
  H  H62  1  0.622600  0.215700  0.211100  1.0  0.1009
  H  H63  1  0.529500  0.418700  0.197300  1.0  0.1068
  H  H64  1  0.436100  0.322700  0.333400  1.0  0.1062
  C  C65  1  0.188800  0.154200  0.855200  1.0  0.7045
  C  C66  1  0.159000  0.080700  0.831600  1.0  -0.0836
  C  C67  1  0.223200  0.063200  0.785800  1.0  -0.0398
  C  C68  1  0.182000  0.997900  0.763900  1.0  -0.115
  C  C69  1  0.082400  0.951400  0.792300  1.0  0.0515
  C  C70  1  0.026900  0.966600  0.842000  1.0  -0.1265
  C  C71  1  0.059700  0.032700  0.860400  1.0  -0.0499
  C  C72  1  0.027900  0.881400  0.770400  1.0  0.0199
  C  C73  1  0.605400  0.823600  0.489000  1.0  0.6968
  C  C74  1  0.683200  0.821300  0.542600  1.0  -0.1056
  C  C75  1  0.668700  0.878000  0.576400  1.0  -0.0619
  C  C76  1  0.738000  0.876100  0.624200  1.0  -0.1403
  C  C77  1  0.773600  0.762600  0.560800  1.0  -0.0756
  C  C78  1  0.841400  0.761000  0.610300  1.0  -0.1311
  C  C79  1  0.036500  0.504300  0.895100  1.0  0.7082
  C  C80  1  0.024100  0.569900  0.866900  1.0  -0.0973
  C  C81  1  0.061600  0.572200  0.813300  1.0  -0.0545
  C  C82  1  0.047000  0.631600  0.784900  1.0  -0.1675
  C  C83  1  0.995400  0.692300  0.808200  1.0  0.0393
  C  C84  1  0.961000  0.690600  0.861200  1.0  -0.1361
  C  C85  1  0.971100  0.631300  0.889200  1.0  -0.0761
  C  C86  1  0.976000  0.758400  0.777000  1.0  0.0186
  C  C87  1  0.913900  0.757700  0.725700  1.0  -0.1092
  C  C88  1  0.905200  0.816800  0.696600  1.0  -0.0128
  C  C89  1  0.967700  0.878800  0.717500  1.0  -0.1429
  C  C90  1  0.028100  0.821300  0.798800  1.0  -0.0946
  C  C91  1  0.828300  0.819500  0.643400  1.0  0.0734
  C  C92  1  0.811200  0.845800  0.355200  1.0  0.7043
  C  C93  1  0.841000  0.919300  0.331600  1.0  -0.0833
  C  C94  1  0.776800  0.936800  0.285800  1.0  -0.0415
  C  C95  1  0.818000  0.002100  0.263900  1.0  -0.1148
  C  C96  1  0.917600  0.048600  0.292300  1.0  0.0534
  C  C97  1  0.973100  0.033400  0.342000  1.0  -0.1251
  C  C98  1  0.940300  0.967300  0.360400  1.0  -0.0509
  C  C99  1  0.972100  0.118600  0.270400  1.0  0.0188
  C  C100  1  0.394600  0.176400  0.989000  1.0  0.6956
  C  C101  1  0.316800  0.178700  0.042600  1.0  -0.1062
  C  C102  1  0.331300  0.122000  0.076400  1.0  -0.0652
  C  C103  1  0.262000  0.123900  0.124200  1.0  -0.1447
  C  C104  1  0.226400  0.237400  0.060800  1.0  -0.0755
  C  C105  1  0.158600  0.239000  0.110300  1.0  -0.1311
  C  C106  1  0.963500  0.495700  0.395100  1.0  0.708
  C  C107  1  0.975900  0.430100  0.366900  1.0  -0.0988
  C  C108  1  0.938400  0.427800  0.313300  1.0  -0.055
  C  C109  1  0.953000  0.368400  0.284900  1.0  -0.1692
  C  C110  1  0.004600  0.307700  0.308200  1.0  0.039
  C  C111  1  0.039000  0.309400  0.361200  1.0  -0.1336
  C  C112  1  0.028900  0.368700  0.389200  1.0  -0.0757
  C  C113  1  0.024000  0.241600  0.277000  1.0  0.0188
  C  C114  1  0.086100  0.242300  0.225700  1.0  -0.1089
  C  C115  1  0.094800  0.183200  0.196600  1.0  -0.0132
  C  C116  1  0.032300  0.121200  0.217500  1.0  -0.1428
  C  C117  1  0.971900  0.178700  0.298800  1.0  -0.0958
  C  C118  1  0.171700  0.180500  0.143400  1.0  0.0733
  C  C119  1  0.688800  0.345800  0.855200  1.0  0.7039
  C  C120  1  0.659000  0.419300  0.831600  1.0  -0.0836
  C  C121  1  0.723200  0.436800  0.785800  1.0  -0.0439
  C  C122  1  0.682000  0.502100  0.763900  1.0  -0.1157
  C  C123  1  0.582400  0.548600  0.792300  1.0  0.0521
  C  C124  1  0.526900  0.533400  0.842000  1.0  -0.1258
  C  C125  1  0.559700  0.467300  0.860400  1.0  -0.0496
  C  C126  1  0.527900  0.618600  0.770400  1.0  0.0188
  C  C127  1  0.105400  0.676400  0.489000  1.0  0.696
  C  C128  1  0.183200  0.678700  0.542600  1.0  -0.1063
  C  C129  1  0.168700  0.622000  0.576400  1.0  -0.0642
  C  C130  1  0.238000  0.623900  0.624200  1.0  -0.1443
  C  C131  1  0.273600  0.737400  0.560800  1.0  -0.0752
  C  C132  1  0.341400  0.739000  0.610300  1.0  -0.1317
  C  C133  1  0.536500  0.995700  0.895100  1.0  0.7083
  C  C134  1  0.524100  0.930100  0.866900  1.0  -0.098
  C  C135  1  0.561600  0.927800  0.813300  1.0  -0.0544
  C  C136  1  0.547000  0.868400  0.784900  1.0  -0.1677
  C  C137  1  0.495400  0.807700  0.808200  1.0  0.0388
  C  C138  1  0.461000  0.809400  0.861200  1.0  -0.1344
  C  C139  1  0.471100  0.868700  0.889200  1.0  -0.0764
  C  C140  1  0.476000  0.741600  0.777000  1.0  0.0187
  C  C141  1  0.413900  0.742300  0.725700  1.0  -0.1095
  C  C142  1  0.405200  0.683200  0.696600  1.0  -0.0133
  C  C143  1  0.467700  0.621200  0.717500  1.0  -0.1438
  C  C144  1  0.528100  0.678700  0.798800  1.0  -0.0947
  C  C145  1  0.328300  0.680500  0.643400  1.0  0.0728
  C  C146  1  0.311200  0.654200  0.355200  1.0  0.705
  C  C147  1  0.341000  0.580700  0.331600  1.0  -0.0835
  C  C148  1  0.276800  0.563200  0.285800  1.0  -0.0395
  C  C149  1  0.318000  0.497900  0.263900  1.0  -0.1147
  C  C150  1  0.417600  0.451400  0.292300  1.0  0.0529
  C  C151  1  0.473100  0.466600  0.342000  1.0  -0.1254
  C  C152  1  0.440300  0.532700  0.360400  1.0  -0.0508
  C  C153  1  0.472100  0.381400  0.270400  1.0  0.0199
  C  C154  1  0.894600  0.323600  0.989000  1.0  0.6968
  C  C155  1  0.816800  0.321300  0.042600  1.0  -0.1054
  C  C156  1  0.831300  0.378000  0.076400  1.0  -0.062
  C  C157  1  0.762000  0.376100  0.124200  1.0  -0.1403
  C  C158  1  0.726400  0.262600  0.060800  1.0  -0.0758
  C  C159  1  0.658600  0.261000  0.110300  1.0  -0.1313
  C  C160  1  0.463500  0.004300  0.395100  1.0  0.7078
  C  C161  1  0.475900  0.069900  0.366900  1.0  -0.0976
  C  C162  1  0.438400  0.072200  0.313300  1.0  -0.0551
  C  C163  1  0.453000  0.131600  0.284900  1.0  -0.169
  C  C164  1  0.504600  0.192300  0.308200  1.0  0.0394
  C  C165  1  0.539000  0.190600  0.361200  1.0  -0.1353
  C  C166  1  0.528900  0.131300  0.389200  1.0  -0.0756
  C  C167  1  0.524000  0.258400  0.277000  1.0  0.0186
  C  C168  1  0.586100  0.257700  0.225700  1.0  -0.1084
  C  C169  1  0.594800  0.316800  0.196600  1.0  -0.0128
  C  C170  1  0.532300  0.378800  0.217500  1.0  -0.1419
  C  C171  1  0.471900  0.321300  0.298800  1.0  -0.0957
  C  C172  1  0.671700  0.319500  0.143400  1.0  0.0742
  O  O173  1  0.620900  0.771200  0.460800  1.0  -0.6901
  O  O174  1  0.513800  0.875500  0.474200  1.0  -0.6844
  O  O175  1  0.109600  0.451600  0.876100  1.0  -0.6145
  O  O176  1  0.971100  0.503800  0.940100  1.0  -0.4867
  O  O177  1  0.058400  0.177100  0.879800  1.0  -0.6471
  O  O178  1  0.325700  0.185900  0.841600  1.0  -0.6655
  O  O179  1  0.379100  0.228800  0.960800  1.0  -0.6892
  O  O180  1  0.486200  0.124500  0.974200  1.0  -0.6832
  O  O181  1  0.890400  0.548400  0.376100  1.0  -0.6155
  O  O182  1  0.028900  0.496200  0.440100  1.0  -0.4861
  O  O183  1  0.941600  0.822900  0.379800  1.0  -0.6487
  O  O184  1  0.674300  0.814100  0.341600  1.0  -0.6662
  O  O185  1  0.120900  0.728800  0.460800  1.0  -0.6893
  O  O186  1  0.013800  0.624500  0.474200  1.0  -0.6823
  O  O187  1  0.609600  0.048400  0.876100  1.0  -0.6147
  O  O188  1  0.471100  0.996200  0.940100  1.0  -0.486
  O  O189  1  0.558400  0.322900  0.879800  1.0  -0.6484
  O  O190  1  0.825700  0.314100  0.841600  1.0  -0.6643
  O  O191  1  0.879100  0.271200  0.960800  1.0  -0.6901
  O  O192  1  0.986200  0.375500  0.974200  1.0  -0.6842
  O  O193  1  0.390400  0.951600  0.376100  1.0  -0.6149
  O  O194  1  0.528900  0.003800  0.440100  1.0  -0.4859
  O  O195  1  0.441600  0.677100  0.379800  1.0  -0.6479
  O  O196  1  0.174300  0.685900  0.341600  1.0  -0.666
