# generated using pymatgen
data_Ni2H30C40N4O9
_symmetry_space_group_name_H-M   'P 1'
_cell_length_a   14.27190000
_cell_length_b   14.27200000
_cell_length_c   17.56880000
_cell_angle_alpha   76.46320000
_cell_angle_beta   76.46310000
_cell_angle_gamma   115.07000000
_symmetry_Int_Tables_number   1
_chemical_formula_structural   Ni2H30C40N4O9
_chemical_formula_sum   'Ni4 H60 C80 N8 O18'
_cell_volume   2917.01819993
_cell_formula_units_Z   2
loop_
 _symmetry_equiv_pos_site_id
 _symmetry_equiv_pos_as_xyz
  1  'x, y, z'
loop_
 _atom_site_type_symbol
 _atom_site_label
 _atom_site_symmetry_multiplicity
 _atom_site_fract_x
 _atom_site_fract_y
 _atom_site_fract_z
 _atom_site_occupancy
 _atom_site_charge
  Ni  Ni1  1  0.193250  0.214990  0.814740  1.0  0.8931
  Ni  Ni2  1  0.992010  0.970270  0.814740  1.0  0.8925
  Ni  Ni3  1  0.964990  0.443250  0.314740  1.0  0.8924
  Ni  Ni4  1  0.720270  0.242010  0.314740  1.0  0.8935
  H  H5  1  0.107000  0.155000  0.702000  1.0  0.3885
  H  H6  1  0.404400  0.287600  0.848600  1.0  0.0827
  H  H7  1  0.498200  0.386600  0.919000  1.0  0.1205
  H  H8  1  0.238300  0.428300  0.006600  1.0  0.1271
  H  H9  1  0.151900  0.328700  0.934800  1.0  0.099
  H  H10  1  0.424900  0.543700  0.016400  1.0  0.0985
  H  H11  1  0.355700  0.326300  0.134800  1.0  0.1071
  H  H12  1  0.163000  0.255200  0.198400  1.0  0.1284
  H  H13  1  0.014900  0.270100  0.270200  1.0  0.0735
  H  H14  1  0.214400  0.580000  0.231200  1.0  0.0761
  H  H15  1  0.366700  0.573300  0.161000  1.0  0.1238
  H  H16  1  0.314600  0.054000  0.959800  1.0  0.1023
  H  H17  1  0.351300  0.964700  0.065400  1.0  0.1033
  H  H18  1  0.222400  0.784200  0.158200  1.0  0.121
  H  H19  1  0.021700  0.775300  0.027000  1.0  0.1011
  H  H20  1  0.191000  0.143000  0.702000  1.0  0.3902
  H  H21  1  0.747000  0.863800  0.848600  1.0  0.0837
  H  H22  1  0.582800  0.694400  0.919000  1.0  0.1199
  H  H23  1  0.755100  0.565100  0.006600  1.0  0.1274
  H  H24  1  0.913300  0.736500  0.934800  1.0  0.0967
  H  H25  1  0.558700  0.439900  0.016400  1.0  0.0972
  H  H26  1  0.509500  0.538900  0.134800  1.0  0.1111
  H  H27  1  0.638600  0.546400  0.198400  1.0  0.1303
  H  H28  1  0.714900  0.459700  0.270200  1.0  0.0749
  H  H29  1  0.554400  0.188800  0.231200  1.0  0.0765
  H  H30  1  0.472300  0.265700  0.161000  1.0  0.1231
  H  H31  1  0.725600  0.986200  0.959800  1.0  0.1025
  H  H32  1  0.583300  0.969900  0.065400  1.0  0.1036
  H  H33  1  0.619400  0.057600  0.158200  1.0  0.1199
  H  H34  1  0.951300  0.197700  0.027000  1.0  0.1025
  H  H35  1  0.905000  0.357000  0.202000  1.0  0.3886
  H  H36  1  0.037600  0.654400  0.348600  1.0  0.0832
  H  H37  1  0.136600  0.748200  0.419000  1.0  0.121
  H  H38  1  0.178300  0.488300  0.506600  1.0  0.1273
  H  H39  1  0.078700  0.401900  0.434800  1.0  0.098
  H  H40  1  0.293700  0.674900  0.516400  1.0  0.0975
  H  H41  1  0.076300  0.605700  0.634800  1.0  0.1115
  H  H42  1  0.005200  0.413000  0.698400  1.0  0.1284
  H  H43  1  0.020100  0.264900  0.770200  1.0  0.0748
  H  H44  1  0.330000  0.464400  0.731200  1.0  0.0757
  H  H45  1  0.323300  0.616700  0.661000  1.0  0.1229
  H  H46  1  0.804000  0.564600  0.459800  1.0  0.1021
  H  H47  1  0.714700  0.601300  0.565400  1.0  0.1043
  H  H48  1  0.534200  0.472400  0.658200  1.0  0.1213
  H  H49  1  0.525300  0.271700  0.527000  1.0  0.0993
  H  H50  1  0.893000  0.441000  0.202000  1.0  0.3858
  H  H51  1  0.613800  0.997000  0.348600  1.0  0.0839
  H  H52  1  0.444400  0.832800  0.419000  1.0  0.1206
  H  H53  1  0.315100  0.005100  0.506600  1.0  0.1282
  H  H54  1  0.486500  0.163300  0.434800  1.0  0.0976
  H  H55  1  0.189900  0.808700  0.516400  1.0  0.0976
  H  H56  1  0.288900  0.759500  0.634800  1.0  0.1117
  H  H57  1  0.296400  0.888600  0.698400  1.0  0.129
  H  H58  1  0.209700  0.964900  0.770200  1.0  0.0748
  H  H59  1  0.938800  0.804400  0.731200  1.0  0.0761
  H  H60  1  0.015700  0.722300  0.661000  1.0  0.1219
  H  H61  1  0.736200  0.975600  0.459800  1.0  0.1035
  H  H62  1  0.719900  0.833300  0.565400  1.0  0.105
  H  H63  1  0.807600  0.869400  0.658200  1.0  0.1201
  H  H64  1  0.947700  0.201300  0.527000  1.0  0.101
  C  C65  1  0.370070  0.316070  0.881460  1.0  0.1578
  C  C66  1  0.426500  0.374500  0.924200  1.0  -0.2251
  C  C67  1  0.376990  0.414990  0.974620  1.0  0.1274
  C  C68  1  0.273570  0.398770  0.975660  1.0  -0.1796
  C  C69  1  0.222660  0.340260  0.931880  1.0  0.1662
  C  C70  1  0.428350  0.474150  0.026500  1.0  -0.0942
  C  C71  1  0.377870  0.405470  0.124060  1.0  -0.1082
  C  C72  1  0.283340  0.412140  0.174520  1.0  0.1418
  C  C73  1  0.176000  0.322400  0.205400  1.0  -0.2205
  C  C74  1  0.087300  0.332900  0.247200  1.0  0.1647
  C  C75  1  0.203400  0.513000  0.224800  1.0  0.1589
  C  C76  1  0.295300  0.509100  0.183400  1.0  -0.2281
  C  C77  1  0.162160  0.925960  0.985680  1.0  -0.1566
  C  C78  1  0.261200  0.979600  0.996400  1.0  -0.0257
  C  C79  1  0.283000  0.926400  0.059400  1.0  -0.1184
  C  C80  1  0.207800  0.818600  0.113600  1.0  -0.0824
  C  C81  1  0.108080  0.759680  0.101640  1.0  -0.1799
  C  C82  1  0.087150  0.814350  0.036500  1.0  -0.0407
  C  C83  1  0.026050  0.637450  0.158500  1.0  0.6772
  C  C84  1  0.137220  0.987420  0.917560  1.0  0.6659
  C  C85  1  0.748470  0.802470  0.881460  1.0  0.1564
  C  C86  1  0.649300  0.701300  0.924200  1.0  -0.2274
  C  C87  1  0.648390  0.610390  0.974620  1.0  0.1283
  C  C88  1  0.750770  0.625570  0.975660  1.0  -0.1789
  C  C89  1  0.845460  0.727860  0.931880  1.0  0.1646
  C  C90  1  0.545150  0.499350  0.026500  1.0  -0.0972
  C  C91  1  0.498070  0.470470  0.124060  1.0  -0.1036
  C  C92  1  0.542140  0.413340  0.174520  1.0  0.1444
  C  C93  1  0.618600  0.472200  0.205400  1.0  -0.2237
  C  C94  1  0.665500  0.419900  0.247200  1.0  0.165
  C  C95  1  0.571800  0.262200  0.224800  1.0  0.16
  C  C96  1  0.521300  0.307500  0.183400  1.0  -0.2292
  C  C97  1  0.852160  0.088360  0.985680  1.0  -0.1568
  C  C98  1  0.742400  0.024000  0.996400  1.0  -0.0286
  C  C99  1  0.657600  0.014200  0.059400  1.0  -0.1202
  C  C100  1  0.678600  0.067800  0.113600  1.0  -0.0799
  C  C101  1  0.790280  0.138680  0.101640  1.0  -0.1816
  C  C102  1  0.876350  0.149150  0.036500  1.0  -0.0417
  C  C103  1  0.815450  0.204050  0.158500  1.0  0.6792
  C  C104  1  0.945220  0.095020  0.917560  1.0  0.6669
  C  C105  1  0.066070  0.620070  0.381460  1.0  0.1556
  C  C106  1  0.124500  0.676500  0.424200  1.0  -0.2303
  C  C107  1  0.164990  0.626990  0.474620  1.0  0.1277
  C  C108  1  0.148770  0.523570  0.475660  1.0  -0.1773
  C  C109  1  0.090260  0.472660  0.431880  1.0  0.1648
  C  C110  1  0.224150  0.678350  0.526500  1.0  -0.0948
  C  C111  1  0.155470  0.627870  0.624060  1.0  -0.1077
  C  C112  1  0.162140  0.533340  0.674520  1.0  0.1417
  C  C113  1  0.072400  0.426000  0.705400  1.0  -0.218
  C  C114  1  0.082900  0.337300  0.747200  1.0  0.1674
  C  C115  1  0.263000  0.453400  0.724800  1.0  0.1611
  C  C116  1  0.259100  0.545300  0.683400  1.0  -0.2278
  C  C117  1  0.675960  0.412160  0.485680  1.0  -0.1566
  C  C118  1  0.729600  0.511200  0.496400  1.0  -0.0251
  C  C119  1  0.676400  0.533000  0.559400  1.0  -0.1211
  C  C120  1  0.568600  0.457800  0.613600  1.0  -0.0836
  C  C121  1  0.509680  0.358080  0.601640  1.0  -0.1831
  C  C122  1  0.564350  0.337150  0.536500  1.0  -0.0382
  C  C123  1  0.387450  0.276050  0.658500  1.0  0.6786
  C  C124  1  0.737420  0.387220  0.417560  1.0  0.6662
  C  C125  1  0.552470  0.998470  0.381460  1.0  0.1551
  C  C126  1  0.451300  0.899300  0.424200  1.0  -0.2254
  C  C127  1  0.360390  0.898390  0.474620  1.0  0.1273
  C  C128  1  0.375570  0.000770  0.475660  1.0  -0.1792
  C  C129  1  0.477860  0.095460  0.431880  1.0  0.1644
  C  C130  1  0.249350  0.795150  0.526500  1.0  -0.0953
  C  C131  1  0.220470  0.748070  0.624060  1.0  -0.1042
  C  C132  1  0.163340  0.792140  0.674520  1.0  0.145
  C  C133  1  0.222200  0.868600  0.705400  1.0  -0.2207
  C  C134  1  0.169900  0.915500  0.747200  1.0  0.1665
  C  C135  1  0.012200  0.821800  0.724800  1.0  0.1603
  C  C136  1  0.057500  0.771300  0.683400  1.0  -0.2311
  C  C137  1  0.838360  0.102160  0.485680  1.0  -0.1559
  C  C138  1  0.774000  0.992400  0.496400  1.0  -0.0292
  C  C139  1  0.764200  0.907600  0.559400  1.0  -0.121
  C  C140  1  0.817800  0.928600  0.613600  1.0  -0.0791
  C  C141  1  0.888680  0.040280  0.601640  1.0  -0.1838
  C  C142  1  0.899150  0.126350  0.536500  1.0  -0.0408
  C  C143  1  0.954050  0.065450  0.658500  1.0  0.6785
  C  C144  1  0.845020  0.195220  0.417560  1.0  0.6663
  N  N145  1  0.270500  0.298280  0.884420  1.0  -0.3128
  N  N146  1  0.099530  0.426530  0.256140  1.0  -0.3088
  N  N147  1  0.845080  0.817300  0.884420  1.0  -0.308
  N  N148  1  0.644330  0.317330  0.256140  1.0  -0.3086
  N  N149  1  0.048280  0.520500  0.384420  1.0  -0.3113
  N  N150  1  0.176530  0.349530  0.756140  1.0  -0.3097
  N  N151  1  0.567300  0.095080  0.384420  1.0  -0.3074
  N  N152  1  0.067330  0.894330  0.756140  1.0  -0.31
  O  O153  1  0.214190  0.087630  0.871380  1.0  -0.5815
  O  O154  1  0.046380  0.935200  0.910820  1.0  -0.5816
  O  O155  1  0.946950  0.581350  0.140100  1.0  -0.5846
  O  O156  1  0.044960  0.601780  0.222660  1.0  -0.6081
  O  O157  1  0.914430  0.040990  0.871380  1.0  -0.5825
  O  O158  1  0.042800  0.153980  0.910820  1.0  -0.5831
  O  O159  1  0.912950  0.278550  0.140100  1.0  -0.5846
  O  O160  1  0.732380  0.175560  0.222660  1.0  -0.608
  O  O161  1  0.837630  0.464190  0.371380  1.0  -0.5825
  O  O162  1  0.685200  0.296380  0.410820  1.0  -0.5826
  O  O163  1  0.331350  0.196950  0.640100  1.0  -0.5848
  O  O164  1  0.351780  0.294960  0.722660  1.0  -0.6097
  O  O165  1  0.790990  0.164430  0.371380  1.0  -0.5851
  O  O166  1  0.903980  0.292800  0.410820  1.0  -0.5817
  O  O167  1  0.028550  0.162950  0.640100  1.0  -0.5831
  O  O168  1  0.925560  0.982380  0.722660  1.0  -0.6078
  O  O169  1  0.130420  0.130420  0.739160  1.0  -0.7414
  O  O170  1  0.880420  0.380420  0.239160  1.0  -0.7415
