# generated using pymatgen
data_Ni2H30C40N4O9
_symmetry_space_group_name_H-M   'P 1'
_cell_length_a   15.57100000
_cell_length_b   23.29600000
_cell_length_c   32.32800000
_cell_angle_alpha   90.00000000
_cell_angle_beta   90.00000000
_cell_angle_gamma   90.00000000
_symmetry_Int_Tables_number   1
_chemical_formula_structural   Ni2H30C40N4O9
_chemical_formula_sum   'Ni16 H240 C320 N32 O72'
_cell_volume   11726.72389325
_cell_formula_units_Z   8
loop_
 _symmetry_equiv_pos_site_id
 _symmetry_equiv_pos_as_xyz
  1  'x, y, z'
loop_
 _atom_site_type_symbol
 _atom_site_label
 _atom_site_symmetry_multiplicity
 _atom_site_fract_x
 _atom_site_fract_y
 _atom_site_fract_z
 _atom_site_occupancy
 _atom_site_charge
  Ni  Ni1  1  0.138020  0.760460  0.913890  1.0  0.8369
  Ni  Ni2  1  0.138020  0.260460  0.413890  1.0  0.8369
  Ni  Ni3  1  0.638020  0.760460  0.413890  1.0  0.8369
  Ni  Ni4  1  0.638020  0.260460  0.913890  1.0  0.8369
  Ni  Ni5  1  0.861980  0.239540  0.913890  1.0  0.8381
  Ni  Ni6  1  0.861980  0.739540  0.413890  1.0  0.8381
  Ni  Ni7  1  0.361980  0.239540  0.413890  1.0  0.8381
  Ni  Ni8  1  0.361980  0.739540  0.913890  1.0  0.8381
  Ni  Ni9  1  0.388020  0.489540  0.163890  1.0  0.8369
  Ni  Ni10  1  0.388020  0.989540  0.663890  1.0  0.8369
  Ni  Ni11  1  0.888020  0.489540  0.663890  1.0  0.8369
  Ni  Ni12  1  0.888020  0.989540  0.163890  1.0  0.8369
  Ni  Ni13  1  0.111980  0.010460  0.163890  1.0  0.8381
  Ni  Ni14  1  0.111980  0.510460  0.663890  1.0  0.8381
  Ni  Ni15  1  0.611980  0.010460  0.663890  1.0  0.8381
  Ni  Ni16  1  0.611980  0.510460  0.163890  1.0  0.8381
  H  H17  1  0.270000  0.776000  0.865200  1.0  0.3846
  H  H18  1  0.988100  0.814600  0.869400  1.0  0.0773
  H  H19  1  0.951100  0.894200  0.832600  1.0  0.1219
  H  H20  1  0.188100  0.956800  0.851200  1.0  0.1348
  H  H21  1  0.219500  0.874000  0.888300  1.0  0.0835
  H  H22  1  0.088800  0.017200  0.815800  1.0  0.1076
  H  H23  1  0.007400  0.938600  0.758600  1.0  0.097
  H  H24  1  0.104600  0.061600  0.716500  1.0  0.1249
  H  H25  1  0.233700  0.063400  0.682300  1.0  0.0897
  H  H26  1  0.284800  0.907200  0.716100  1.0  0.0824
  H  H27  1  0.156100  0.899000  0.749500  1.0  0.1333
  H  H28  1  0.409500  0.873500  0.994900  1.0  0.0969
  H  H29  1  0.432000  0.939700  0.046300  1.0  0.1125
  H  H30  1  0.319500  0.963400  0.090800  1.0  0.1083
  H  H31  1  0.156000  0.873700  0.019300  1.0  0.1055
  H  H32  1  0.270000  0.276000  0.365200  1.0  0.3846
  H  H33  1  0.988100  0.314600  0.369400  1.0  0.0773
  H  H34  1  0.951100  0.394200  0.332600  1.0  0.1219
  H  H35  1  0.188100  0.456800  0.351200  1.0  0.1348
  H  H36  1  0.219500  0.374000  0.388300  1.0  0.0835
  H  H37  1  0.088800  0.517200  0.315800  1.0  0.1076
  H  H38  1  0.007400  0.438600  0.258600  1.0  0.097
  H  H39  1  0.104600  0.561600  0.216500  1.0  0.1249
  H  H40  1  0.233700  0.563400  0.182300  1.0  0.0897
  H  H41  1  0.284800  0.407200  0.216100  1.0  0.0824
  H  H42  1  0.156100  0.399000  0.249500  1.0  0.1333
  H  H43  1  0.409500  0.373500  0.494900  1.0  0.0969
  H  H44  1  0.432000  0.439700  0.546300  1.0  0.1125
  H  H45  1  0.319500  0.463400  0.590800  1.0  0.1083
  H  H46  1  0.156000  0.373700  0.519300  1.0  0.1055
  H  H47  1  0.770000  0.776000  0.365200  1.0  0.3846
  H  H48  1  0.488100  0.814600  0.369400  1.0  0.0773
  H  H49  1  0.451100  0.894200  0.332600  1.0  0.1219
  H  H50  1  0.688100  0.956800  0.351200  1.0  0.1348
  H  H51  1  0.719500  0.874000  0.388300  1.0  0.0835
  H  H52  1  0.588800  0.017200  0.315800  1.0  0.1076
  H  H53  1  0.507400  0.938600  0.258600  1.0  0.097
  H  H54  1  0.604600  0.061600  0.216500  1.0  0.1249
  H  H55  1  0.733700  0.063400  0.182300  1.0  0.0897
  H  H56  1  0.784800  0.907200  0.216100  1.0  0.0824
  H  H57  1  0.656100  0.899000  0.249500  1.0  0.1333
  H  H58  1  0.909500  0.873500  0.494900  1.0  0.0969
  H  H59  1  0.932000  0.939700  0.546300  1.0  0.1125
  H  H60  1  0.819500  0.963400  0.590800  1.0  0.1083
  H  H61  1  0.656000  0.873700  0.519300  1.0  0.1055
  H  H62  1  0.770000  0.276000  0.865200  1.0  0.3846
  H  H63  1  0.488100  0.314600  0.869400  1.0  0.0773
  H  H64  1  0.451100  0.394200  0.832600  1.0  0.1219
  H  H65  1  0.688100  0.456800  0.851200  1.0  0.1348
  H  H66  1  0.719500  0.374000  0.888300  1.0  0.0835
  H  H67  1  0.588800  0.517200  0.815800  1.0  0.1076
  H  H68  1  0.507400  0.438600  0.758600  1.0  0.097
  H  H69  1  0.604600  0.561600  0.716500  1.0  0.1249
  H  H70  1  0.733700  0.563400  0.682300  1.0  0.0897
  H  H71  1  0.784800  0.407200  0.716100  1.0  0.0824
  H  H72  1  0.656100  0.399000  0.749500  1.0  0.1333
  H  H73  1  0.909500  0.373500  0.994900  1.0  0.0969
  H  H74  1  0.932000  0.439700  0.046300  1.0  0.1125
  H  H75  1  0.819500  0.463400  0.090800  1.0  0.1083
  H  H76  1  0.656000  0.373700  0.019300  1.0  0.1055
  H  H77  1  0.730000  0.224000  0.865200  1.0  0.3819
  H  H78  1  0.011900  0.185400  0.869400  1.0  0.0779
  H  H79  1  0.048900  0.105800  0.832600  1.0  0.1229
  H  H80  1  0.811900  0.043200  0.851200  1.0  0.1347
  H  H81  1  0.780500  0.126000  0.888300  1.0  0.0828
  H  H82  1  0.911200  0.982800  0.815800  1.0  0.1072
  H  H83  1  0.992600  0.061400  0.758600  1.0  0.0969
  H  H84  1  0.895400  0.938400  0.716500  1.0  0.1248
  H  H85  1  0.766300  0.936600  0.682300  1.0  0.0888
  H  H86  1  0.715200  0.092800  0.716100  1.0  0.082
  H  H87  1  0.843900  0.101000  0.749500  1.0  0.1335
  H  H88  1  0.590500  0.126500  0.994900  1.0  0.0973
  H  H89  1  0.568000  0.060300  0.046300  1.0  0.1125
  H  H90  1  0.680500  0.036600  0.090800  1.0  0.1088
  H  H91  1  0.844000  0.126300  0.019300  1.0  0.1063
  H  H92  1  0.730000  0.724000  0.365200  1.0  0.3819
  H  H93  1  0.011900  0.685400  0.369400  1.0  0.0779
  H  H94  1  0.048900  0.605800  0.332600  1.0  0.1229
  H  H95  1  0.811900  0.543200  0.351200  1.0  0.1347
  H  H96  1  0.780500  0.626000  0.388300  1.0  0.0828
  H  H97  1  0.911200  0.482800  0.315800  1.0  0.1072
  H  H98  1  0.992600  0.561400  0.258600  1.0  0.0969
  H  H99  1  0.895400  0.438400  0.216500  1.0  0.1248
  H  H100  1  0.766300  0.436600  0.182300  1.0  0.0888
  H  H101  1  0.715200  0.592800  0.216100  1.0  0.082
  H  H102  1  0.843900  0.601000  0.249500  1.0  0.1335
  H  H103  1  0.590500  0.626500  0.494900  1.0  0.0973
  H  H104  1  0.568000  0.560300  0.546300  1.0  0.1125
  H  H105  1  0.680500  0.536600  0.590800  1.0  0.1088
  H  H106  1  0.844000  0.626300  0.519300  1.0  0.1063
  H  H107  1  0.230000  0.224000  0.365200  1.0  0.3819
  H  H108  1  0.511900  0.185400  0.369400  1.0  0.0779
  H  H109  1  0.548900  0.105800  0.332600  1.0  0.1229
  H  H110  1  0.311900  0.043200  0.351200  1.0  0.1347
  H  H111  1  0.280500  0.126000  0.388300  1.0  0.0828
  H  H112  1  0.411200  0.982800  0.315800  1.0  0.1072
  H  H113  1  0.492600  0.061400  0.258600  1.0  0.0969
  H  H114  1  0.395400  0.938400  0.216500  1.0  0.1248
  H  H115  1  0.266300  0.936600  0.182300  1.0  0.0888
  H  H116  1  0.215200  0.092800  0.216100  1.0  0.082
  H  H117  1  0.343900  0.101000  0.249500  1.0  0.1335
  H  H118  1  0.090500  0.126500  0.494900  1.0  0.0973
  H  H119  1  0.068000  0.060300  0.546300  1.0  0.1125
  H  H120  1  0.180500  0.036600  0.590800  1.0  0.1088
  H  H121  1  0.344000  0.126300  0.519300  1.0  0.1063
  H  H122  1  0.230000  0.724000  0.865200  1.0  0.3819
  H  H123  1  0.511900  0.685400  0.869400  1.0  0.0779
  H  H124  1  0.548900  0.605800  0.832600  1.0  0.1229
  H  H125  1  0.311900  0.543200  0.851200  1.0  0.1347
  H  H126  1  0.280500  0.626000  0.888300  1.0  0.0828
  H  H127  1  0.411200  0.482800  0.815800  1.0  0.1072
  H  H128  1  0.492600  0.561400  0.758600  1.0  0.0969
  H  H129  1  0.395400  0.438400  0.716500  1.0  0.1248
  H  H130  1  0.266300  0.436600  0.682300  1.0  0.0888
  H  H131  1  0.215200  0.592800  0.716100  1.0  0.082
  H  H132  1  0.343900  0.601000  0.749500  1.0  0.1335
  H  H133  1  0.090500  0.626500  0.994900  1.0  0.0973
  H  H134  1  0.068000  0.560300  0.046300  1.0  0.1125
  H  H135  1  0.180500  0.536600  0.090800  1.0  0.1088
  H  H136  1  0.344000  0.626300  0.019300  1.0  0.1063
  H  H137  1  0.520000  0.474000  0.115200  1.0  0.3832
  H  H138  1  0.238100  0.435400  0.119400  1.0  0.0776
  H  H139  1  0.201100  0.355800  0.082600  1.0  0.1215
  H  H140  1  0.438100  0.293200  0.101200  1.0  0.1348
  H  H141  1  0.469500  0.376000  0.138300  1.0  0.083
  H  H142  1  0.338800  0.232800  0.065800  1.0  0.1073
  H  H143  1  0.257400  0.311400  0.008600  1.0  0.0974
  H  H144  1  0.354600  0.188400  0.966500  1.0  0.1246
  H  H145  1  0.483700  0.186600  0.932300  1.0  0.0887
  H  H146  1  0.534800  0.342800  0.966100  1.0  0.0822
  H  H147  1  0.406100  0.351000  0.999500  1.0  0.1332
  H  H148  1  0.659500  0.376500  0.244900  1.0  0.0965
  H  H149  1  0.682000  0.310300  0.296300  1.0  0.1127
  H  H150  1  0.569500  0.286600  0.340800  1.0  0.1087
  H  H151  1  0.406000  0.376300  0.269300  1.0  0.1058
  H  H152  1  0.520000  0.974000  0.615200  1.0  0.3832
  H  H153  1  0.238100  0.935400  0.619400  1.0  0.0776
  H  H154  1  0.201100  0.855800  0.582600  1.0  0.1215
  H  H155  1  0.438100  0.793200  0.601200  1.0  0.1348
  H  H156  1  0.469500  0.876000  0.638300  1.0  0.083
  H  H157  1  0.338800  0.732800  0.565800  1.0  0.1073
  H  H158  1  0.257400  0.811400  0.508600  1.0  0.0974
  H  H159  1  0.354600  0.688400  0.466500  1.0  0.1246
  H  H160  1  0.483700  0.686600  0.432300  1.0  0.0887
  H  H161  1  0.534800  0.842800  0.466100  1.0  0.0822
  H  H162  1  0.406100  0.851000  0.499500  1.0  0.1332
  H  H163  1  0.659500  0.876500  0.744900  1.0  0.0965
  H  H164  1  0.682000  0.810300  0.796300  1.0  0.1127
  H  H165  1  0.569500  0.786600  0.840800  1.0  0.1087
  H  H166  1  0.406000  0.876300  0.769300  1.0  0.1058
  H  H167  1  0.020000  0.474000  0.615200  1.0  0.3832
  H  H168  1  0.738100  0.435400  0.619400  1.0  0.0776
  H  H169  1  0.701100  0.355800  0.582600  1.0  0.1215
  H  H170  1  0.938100  0.293200  0.601200  1.0  0.1348
  H  H171  1  0.969500  0.376000  0.638300  1.0  0.083
  H  H172  1  0.838800  0.232800  0.565800  1.0  0.1073
  H  H173  1  0.757400  0.311400  0.508600  1.0  0.0974
  H  H174  1  0.854600  0.188400  0.466500  1.0  0.1246
  H  H175  1  0.983700  0.186600  0.432300  1.0  0.0887
  H  H176  1  0.034800  0.342800  0.466100  1.0  0.0822
  H  H177  1  0.906100  0.351000  0.499500  1.0  0.1332
  H  H178  1  0.159500  0.376500  0.744900  1.0  0.0965
  H  H179  1  0.182000  0.310300  0.796300  1.0  0.1127
  H  H180  1  0.069500  0.286600  0.840800  1.0  0.1087
  H  H181  1  0.906000  0.376300  0.769300  1.0  0.1058
  H  H182  1  0.020000  0.974000  0.115200  1.0  0.3832
  H  H183  1  0.738100  0.935400  0.119400  1.0  0.0776
  H  H184  1  0.701100  0.855800  0.082600  1.0  0.1215
  H  H185  1  0.938100  0.793200  0.101200  1.0  0.1348
  H  H186  1  0.969500  0.876000  0.138300  1.0  0.083
  H  H187  1  0.838800  0.732800  0.065800  1.0  0.1073
  H  H188  1  0.757400  0.811400  0.008600  1.0  0.0974
  H  H189  1  0.854600  0.688400  0.966500  1.0  0.1246
  H  H190  1  0.983700  0.686600  0.932300  1.0  0.0887
  H  H191  1  0.034800  0.842800  0.966100  1.0  0.0822
  H  H192  1  0.906100  0.851000  0.999500  1.0  0.1332
  H  H193  1  0.159500  0.876500  0.244900  1.0  0.0965
  H  H194  1  0.182000  0.810300  0.296300  1.0  0.1127
  H  H195  1  0.069500  0.786600  0.340800  1.0  0.1087
  H  H196  1  0.906000  0.876300  0.269300  1.0  0.1058
  H  H197  1  0.980000  0.026000  0.115200  1.0  0.3845
  H  H198  1  0.261900  0.064600  0.119400  1.0  0.0781
  H  H199  1  0.298900  0.144200  0.082600  1.0  0.1232
  H  H200  1  0.061900  0.206800  0.101200  1.0  0.1353
  H  H201  1  0.030500  0.124000  0.138300  1.0  0.0828
  H  H202  1  0.161200  0.267200  0.065800  1.0  0.1074
  H  H203  1  0.242600  0.188600  0.008600  1.0  0.0965
  H  H204  1  0.145400  0.311600  0.966500  1.0  0.1245
  H  H205  1  0.016300  0.313400  0.932300  1.0  0.0897
  H  H206  1  0.965200  0.157200  0.966100  1.0  0.0819
  H  H207  1  0.093900  0.149000  0.999500  1.0  0.1337
  H  H208  1  0.840500  0.123500  0.244900  1.0  0.0974
  H  H209  1  0.818000  0.189700  0.296300  1.0  0.1119
  H  H210  1  0.930500  0.213400  0.340800  1.0  0.1085
  H  H211  1  0.094000  0.123700  0.269300  1.0  0.106
  H  H212  1  0.980000  0.526000  0.615200  1.0  0.3845
  H  H213  1  0.261900  0.564600  0.619400  1.0  0.0781
  H  H214  1  0.298900  0.644200  0.582600  1.0  0.1232
  H  H215  1  0.061900  0.706800  0.601200  1.0  0.1353
  H  H216  1  0.030500  0.624000  0.638300  1.0  0.0828
  H  H217  1  0.161200  0.767200  0.565800  1.0  0.1074
  H  H218  1  0.242600  0.688600  0.508600  1.0  0.0965
  H  H219  1  0.145400  0.811600  0.466500  1.0  0.1245
  H  H220  1  0.016300  0.813400  0.432300  1.0  0.0897
  H  H221  1  0.965200  0.657200  0.466100  1.0  0.0819
  H  H222  1  0.093900  0.649000  0.499500  1.0  0.1337
  H  H223  1  0.840500  0.623500  0.744900  1.0  0.0974
  H  H224  1  0.818000  0.689700  0.796300  1.0  0.1119
  H  H225  1  0.930500  0.713400  0.840800  1.0  0.1085
  H  H226  1  0.094000  0.623700  0.769300  1.0  0.106
  H  H227  1  0.480000  0.026000  0.615200  1.0  0.3845
  H  H228  1  0.761900  0.064600  0.619400  1.0  0.0781
  H  H229  1  0.798900  0.144200  0.582600  1.0  0.1232
  H  H230  1  0.561900  0.206800  0.601200  1.0  0.1353
  H  H231  1  0.530500  0.124000  0.638300  1.0  0.0828
  H  H232  1  0.661200  0.267200  0.565800  1.0  0.1074
  H  H233  1  0.742600  0.188600  0.508600  1.0  0.0965
  H  H234  1  0.645400  0.311600  0.466500  1.0  0.1245
  H  H235  1  0.516300  0.313400  0.432300  1.0  0.0897
  H  H236  1  0.465200  0.157200  0.466100  1.0  0.0819
  H  H237  1  0.593900  0.149000  0.499500  1.0  0.1337
  H  H238  1  0.340500  0.123500  0.744900  1.0  0.0974
  H  H239  1  0.318000  0.189700  0.796300  1.0  0.1119
  H  H240  1  0.430500  0.213400  0.840800  1.0  0.1085
  H  H241  1  0.594000  0.123700  0.769300  1.0  0.106
  H  H242  1  0.480000  0.526000  0.115200  1.0  0.3845
  H  H243  1  0.761900  0.564600  0.119400  1.0  0.0781
  H  H244  1  0.798900  0.644200  0.082600  1.0  0.1232
  H  H245  1  0.561900  0.706800  0.101200  1.0  0.1353
  H  H246  1  0.530500  0.624000  0.138300  1.0  0.0828
  H  H247  1  0.661200  0.767200  0.065800  1.0  0.1074
  H  H248  1  0.742600  0.688600  0.008600  1.0  0.0965
  H  H249  1  0.645400  0.811600  0.966500  1.0  0.1245
  H  H250  1  0.516300  0.813400  0.932300  1.0  0.0897
  H  H251  1  0.465200  0.657200  0.966100  1.0  0.0819
  H  H252  1  0.593900  0.649000  0.999500  1.0  0.1337
  H  H253  1  0.340500  0.623500  0.244900  1.0  0.0974
  H  H254  1  0.318000  0.689700  0.296300  1.0  0.1119
  H  H255  1  0.430500  0.713400  0.340800  1.0  0.1085
  H  H256  1  0.594000  0.623700  0.269300  1.0  0.106
  C  C257  1  0.029400  0.843700  0.865800  1.0  0.1662
  C  C258  1  0.006800  0.891200  0.843600  1.0  -0.2306
  C  C259  1  0.065300  0.934700  0.837260  1.0  0.122
  C  C260  1  0.146100  0.928200  0.854500  1.0  -0.185
  C  C261  1  0.164400  0.878200  0.876800  1.0  0.1555
  C  C262  1  0.045500  0.986900  0.810900  1.0  -0.1252
  C  C263  1  0.034800  0.976400  0.763220  1.0  -0.0908
  C  C264  1  0.114400  0.980400  0.737900  1.0  0.1309
  C  C265  1  0.140200  0.029000  0.716900  1.0  -0.2039
  C  C266  1  0.218100  0.030000  0.696700  1.0  0.167
  C  C267  1  0.247500  0.938900  0.716200  1.0  0.1706
  C  C268  1  0.170800  0.933700  0.736500  1.0  -0.193
  C  C269  1  0.280500  0.867400  0.000900  1.0  -0.1838
  C  C270  1  0.362600  0.886700  0.010600  1.0  -0.0315
  C  C271  1  0.376800  0.924400  0.042000  1.0  -0.1296
  C  C272  1  0.309100  0.940000  0.067700  1.0  -0.0527
  C  C273  1  0.226400  0.921200  0.059500  1.0  -0.1957
  C  C274  1  0.212100  0.885600  0.025600  1.0  0.0067
  C  C275  1  0.266900  0.826000  0.966100  1.0  0.7151
  C  C276  1  0.155200  0.940100  0.087500  1.0  0.7118
  C  C277  1  0.029400  0.343700  0.365800  1.0  0.1662
  C  C278  1  0.006800  0.391200  0.343600  1.0  -0.2306
  C  C279  1  0.065300  0.434700  0.337260  1.0  0.122
  C  C280  1  0.146100  0.428200  0.354500  1.0  -0.185
  C  C281  1  0.164400  0.378200  0.376800  1.0  0.1555
  C  C282  1  0.045500  0.486900  0.310900  1.0  -0.1252
  C  C283  1  0.034800  0.476400  0.263220  1.0  -0.0908
  C  C284  1  0.114400  0.480400  0.237900  1.0  0.1309
  C  C285  1  0.140200  0.529000  0.216900  1.0  -0.2039
  C  C286  1  0.218100  0.530000  0.196700  1.0  0.167
  C  C287  1  0.247500  0.438900  0.216200  1.0  0.1706
  C  C288  1  0.170800  0.433700  0.236500  1.0  -0.193
  C  C289  1  0.280500  0.367400  0.500900  1.0  -0.1838
  C  C290  1  0.362600  0.386700  0.510600  1.0  -0.0315
  C  C291  1  0.376800  0.424400  0.542000  1.0  -0.1296
  C  C292  1  0.309100  0.440000  0.567700  1.0  -0.0527
  C  C293  1  0.226400  0.421200  0.559500  1.0  -0.1957
  C  C294  1  0.212100  0.385600  0.525600  1.0  0.0067
  C  C295  1  0.266900  0.326000  0.466100  1.0  0.7151
  C  C296  1  0.155200  0.440100  0.587500  1.0  0.7118
  C  C297  1  0.529400  0.843700  0.365800  1.0  0.1662
  C  C298  1  0.506800  0.891200  0.343600  1.0  -0.2306
  C  C299  1  0.565300  0.934700  0.337260  1.0  0.122
  C  C300  1  0.646100  0.928200  0.354500  1.0  -0.185
  C  C301  1  0.664400  0.878200  0.376800  1.0  0.1555
  C  C302  1  0.545500  0.986900  0.310900  1.0  -0.1252
  C  C303  1  0.534800  0.976400  0.263220  1.0  -0.0908
  C  C304  1  0.614400  0.980400  0.237900  1.0  0.1309
  C  C305  1  0.640200  0.029000  0.216900  1.0  -0.2039
  C  C306  1  0.718100  0.030000  0.196700  1.0  0.167
  C  C307  1  0.747500  0.938900  0.216200  1.0  0.1706
  C  C308  1  0.670800  0.933700  0.236500  1.0  -0.193
  C  C309  1  0.780500  0.867400  0.500900  1.0  -0.1838
  C  C310  1  0.862600  0.886700  0.510600  1.0  -0.0315
  C  C311  1  0.876800  0.924400  0.542000  1.0  -0.1296
  C  C312  1  0.809100  0.940000  0.567700  1.0  -0.0527
  C  C313  1  0.726400  0.921200  0.559500  1.0  -0.1957
  C  C314  1  0.712100  0.885600  0.525600  1.0  0.0067
  C  C315  1  0.766900  0.826000  0.466100  1.0  0.7151
  C  C316  1  0.655200  0.940100  0.587500  1.0  0.7118
  C  C317  1  0.529400  0.343700  0.865800  1.0  0.1662
  C  C318  1  0.506800  0.391200  0.843600  1.0  -0.2306
  C  C319  1  0.565300  0.434700  0.837260  1.0  0.122
  C  C320  1  0.646100  0.428200  0.854500  1.0  -0.185
  C  C321  1  0.664400  0.378200  0.876800  1.0  0.1555
  C  C322  1  0.545500  0.486900  0.810900  1.0  -0.1252
  C  C323  1  0.534800  0.476400  0.763220  1.0  -0.0908
  C  C324  1  0.614400  0.480400  0.737900  1.0  0.1309
  C  C325  1  0.640200  0.529000  0.716900  1.0  -0.2039
  C  C326  1  0.718100  0.530000  0.696700  1.0  0.167
  C  C327  1  0.747500  0.438900  0.716200  1.0  0.1706
  C  C328  1  0.670800  0.433700  0.736500  1.0  -0.193
  C  C329  1  0.780500  0.367400  0.000900  1.0  -0.1838
  C  C330  1  0.862600  0.386700  0.010600  1.0  -0.0315
  C  C331  1  0.876800  0.424400  0.042000  1.0  -0.1296
  C  C332  1  0.809100  0.440000  0.067700  1.0  -0.0527
  C  C333  1  0.726400  0.421200  0.059500  1.0  -0.1957
  C  C334  1  0.712100  0.385600  0.025600  1.0  0.0067
  C  C335  1  0.766900  0.326000  0.966100  1.0  0.7151
  C  C336  1  0.655200  0.440100  0.087500  1.0  0.7118
  C  C337  1  0.970600  0.156300  0.865800  1.0  0.1671
  C  C338  1  0.993200  0.108800  0.843600  1.0  -0.2298
  C  C339  1  0.934700  0.065300  0.837260  1.0  0.1222
  C  C340  1  0.853900  0.071800  0.854500  1.0  -0.1867
  C  C341  1  0.835600  0.121800  0.876800  1.0  0.1565
  C  C342  1  0.954500  0.013100  0.810900  1.0  -0.1241
  C  C343  1  0.965200  0.023600  0.763220  1.0  -0.0887
  C  C344  1  0.885600  0.019600  0.737900  1.0  0.1308
  C  C345  1  0.859800  0.971000  0.716900  1.0  -0.2045
  C  C346  1  0.781900  0.970000  0.696700  1.0  0.1654
  C  C347  1  0.752500  0.061100  0.716200  1.0  0.1702
  C  C348  1  0.829200  0.066300  0.736500  1.0  -0.1899
  C  C349  1  0.719500  0.132600  0.000900  1.0  -0.1845
  C  C350  1  0.637400  0.113300  0.010600  1.0  -0.0302
  C  C351  1  0.623200  0.075600  0.042000  1.0  -0.1316
  C  C352  1  0.690900  0.060000  0.067700  1.0  -0.0536
  C  C353  1  0.773600  0.078800  0.059500  1.0  -0.1954
  C  C354  1  0.787900  0.114400  0.025600  1.0  0.0066
  C  C355  1  0.733100  0.174000  0.966100  1.0  0.7144
  C  C356  1  0.844800  0.059900  0.087500  1.0  0.7115
  C  C357  1  0.970600  0.656300  0.365800  1.0  0.1671
  C  C358  1  0.993200  0.608800  0.343600  1.0  -0.2298
  C  C359  1  0.934700  0.565300  0.337260  1.0  0.1222
  C  C360  1  0.853900  0.571800  0.354500  1.0  -0.1867
  C  C361  1  0.835600  0.621800  0.376800  1.0  0.1565
  C  C362  1  0.954500  0.513100  0.310900  1.0  -0.1241
  C  C363  1  0.965200  0.523600  0.263220  1.0  -0.0887
  C  C364  1  0.885600  0.519600  0.237900  1.0  0.1308
  C  C365  1  0.859800  0.471000  0.216900  1.0  -0.2045
  C  C366  1  0.781900  0.470000  0.196700  1.0  0.1654
  C  C367  1  0.752500  0.561100  0.216200  1.0  0.1702
  C  C368  1  0.829200  0.566300  0.236500  1.0  -0.1899
  C  C369  1  0.719500  0.632600  0.500900  1.0  -0.1845
  C  C370  1  0.637400  0.613300  0.510600  1.0  -0.0302
  C  C371  1  0.623200  0.575600  0.542000  1.0  -0.1316
  C  C372  1  0.690900  0.560000  0.567700  1.0  -0.0536
  C  C373  1  0.773600  0.578800  0.559500  1.0  -0.1954
  C  C374  1  0.787900  0.614400  0.525600  1.0  0.0066
  C  C375  1  0.733100  0.674000  0.466100  1.0  0.7144
  C  C376  1  0.844800  0.559900  0.587500  1.0  0.7115
  C  C377  1  0.470600  0.156300  0.365800  1.0  0.1671
  C  C378  1  0.493200  0.108800  0.343600  1.0  -0.2298
  C  C379  1  0.434700  0.065300  0.337260  1.0  0.1222
  C  C380  1  0.353900  0.071800  0.354500  1.0  -0.1867
  C  C381  1  0.335600  0.121800  0.376800  1.0  0.1565
  C  C382  1  0.454500  0.013100  0.310900  1.0  -0.1241
  C  C383  1  0.465200  0.023600  0.263220  1.0  -0.0887
  C  C384  1  0.385600  0.019600  0.237900  1.0  0.1308
  C  C385  1  0.359800  0.971000  0.216900  1.0  -0.2045
  C  C386  1  0.281900  0.970000  0.196700  1.0  0.1654
  C  C387  1  0.252500  0.061100  0.216200  1.0  0.1702
  C  C388  1  0.329200  0.066300  0.236500  1.0  -0.1899
  C  C389  1  0.219500  0.132600  0.500900  1.0  -0.1845
  C  C390  1  0.137400  0.113300  0.510600  1.0  -0.0302
  C  C391  1  0.123200  0.075600  0.542000  1.0  -0.1316
  C  C392  1  0.190900  0.060000  0.567700  1.0  -0.0536
  C  C393  1  0.273600  0.078800  0.559500  1.0  -0.1954
  C  C394  1  0.287900  0.114400  0.525600  1.0  0.0066
  C  C395  1  0.233100  0.174000  0.466100  1.0  0.7144
  C  C396  1  0.344800  0.059900  0.587500  1.0  0.7115
  C  C397  1  0.470600  0.656300  0.865800  1.0  0.1671
  C  C398  1  0.493200  0.608800  0.843600  1.0  -0.2298
  C  C399  1  0.434700  0.565300  0.837260  1.0  0.1222
  C  C400  1  0.353900  0.571800  0.854500  1.0  -0.1867
  C  C401  1  0.335600  0.621800  0.876800  1.0  0.1565
  C  C402  1  0.454500  0.513100  0.810900  1.0  -0.1241
  C  C403  1  0.465200  0.523600  0.763220  1.0  -0.0887
  C  C404  1  0.385600  0.519600  0.737900  1.0  0.1308
  C  C405  1  0.359800  0.471000  0.716900  1.0  -0.2045
  C  C406  1  0.281900  0.470000  0.696700  1.0  0.1654
  C  C407  1  0.252500  0.561100  0.716200  1.0  0.1702
  C  C408  1  0.329200  0.566300  0.736500  1.0  -0.1899
  C  C409  1  0.219500  0.632600  0.000900  1.0  -0.1845
  C  C410  1  0.137400  0.613300  0.010600  1.0  -0.0302
  C  C411  1  0.123200  0.575600  0.042000  1.0  -0.1316
  C  C412  1  0.190900  0.560000  0.067700  1.0  -0.0536
  C  C413  1  0.273600  0.578800  0.059500  1.0  -0.1954
  C  C414  1  0.287900  0.614400  0.025600  1.0  0.0066
  C  C415  1  0.233100  0.674000  0.966100  1.0  0.7144
  C  C416  1  0.344800  0.559900  0.087500  1.0  0.7115
  C  C417  1  0.279400  0.406300  0.115800  1.0  0.166
  C  C418  1  0.256800  0.358800  0.093600  1.0  -0.2311
  C  C419  1  0.315300  0.315300  0.087260  1.0  0.1225
  C  C420  1  0.396100  0.321800  0.104500  1.0  -0.1854
  C  C421  1  0.414400  0.371800  0.126800  1.0  0.1554
  C  C422  1  0.295500  0.263100  0.060900  1.0  -0.1254
  C  C423  1  0.284800  0.273600  0.013220  1.0  -0.0896
  C  C424  1  0.364400  0.269600  0.987900  1.0  0.1311
  C  C425  1  0.390200  0.221000  0.966900  1.0  -0.2044
  C  C426  1  0.468100  0.220000  0.946700  1.0  0.1657
  C  C427  1  0.497500  0.311100  0.966200  1.0  0.1702
  C  C428  1  0.420800  0.316300  0.986500  1.0  -0.1911
  C  C429  1  0.530500  0.382600  0.250900  1.0  -0.1837
  C  C430  1  0.612600  0.363300  0.260600  1.0  -0.0305
  C  C431  1  0.626800  0.325600  0.292000  1.0  -0.1289
  C  C432  1  0.559100  0.310000  0.317700  1.0  -0.0529
  C  C433  1  0.476400  0.328800  0.309500  1.0  -0.1954
  C  C434  1  0.462100  0.364400  0.275600  1.0  0.0067
  C  C435  1  0.516900  0.424000  0.216100  1.0  0.7149
  C  C436  1  0.405200  0.309900  0.337500  1.0  0.7113
  C  C437  1  0.279400  0.906300  0.615800  1.0  0.166
  C  C438  1  0.256800  0.858800  0.593600  1.0  -0.2311
  C  C439  1  0.315300  0.815300  0.587260  1.0  0.1225
  C  C440  1  0.396100  0.821800  0.604500  1.0  -0.1854
  C  C441  1  0.414400  0.871800  0.626800  1.0  0.1554
  C  C442  1  0.295500  0.763100  0.560900  1.0  -0.1254
  C  C443  1  0.284800  0.773600  0.513220  1.0  -0.0896
  C  C444  1  0.364400  0.769600  0.487900  1.0  0.1311
  C  C445  1  0.390200  0.721000  0.466900  1.0  -0.2044
  C  C446  1  0.468100  0.720000  0.446700  1.0  0.1657
  C  C447  1  0.497500  0.811100  0.466200  1.0  0.1702
  C  C448  1  0.420800  0.816300  0.486500  1.0  -0.1911
  C  C449  1  0.530500  0.882600  0.750900  1.0  -0.1837
  C  C450  1  0.612600  0.863300  0.760600  1.0  -0.0305
  C  C451  1  0.626800  0.825600  0.792000  1.0  -0.1289
  C  C452  1  0.559100  0.810000  0.817700  1.0  -0.0529
  C  C453  1  0.476400  0.828800  0.809500  1.0  -0.1954
  C  C454  1  0.462100  0.864400  0.775600  1.0  0.0067
  C  C455  1  0.516900  0.924000  0.716100  1.0  0.7149
  C  C456  1  0.405200  0.809900  0.837500  1.0  0.7113
  C  C457  1  0.779400  0.406300  0.615800  1.0  0.166
  C  C458  1  0.756800  0.358800  0.593600  1.0  -0.2311
  C  C459  1  0.815300  0.315300  0.587260  1.0  0.1225
  C  C460  1  0.896100  0.321800  0.604500  1.0  -0.1854
  C  C461  1  0.914400  0.371800  0.626800  1.0  0.1554
  C  C462  1  0.795500  0.263100  0.560900  1.0  -0.1254
  C  C463  1  0.784800  0.273600  0.513220  1.0  -0.0896
  C  C464  1  0.864400  0.269600  0.487900  1.0  0.1311
  C  C465  1  0.890200  0.221000  0.466900  1.0  -0.2044
  C  C466  1  0.968100  0.220000  0.446700  1.0  0.1657
  C  C467  1  0.997500  0.311100  0.466200  1.0  0.1702
  C  C468  1  0.920800  0.316300  0.486500  1.0  -0.1911
  C  C469  1  0.030500  0.382600  0.750900  1.0  -0.1837
  C  C470  1  0.112600  0.363300  0.760600  1.0  -0.0305
  C  C471  1  0.126800  0.325600  0.792000  1.0  -0.1289
  C  C472  1  0.059100  0.310000  0.817700  1.0  -0.0529
  C  C473  1  0.976400  0.328800  0.809500  1.0  -0.1954
  C  C474  1  0.962100  0.364400  0.775600  1.0  0.0067
  C  C475  1  0.016900  0.424000  0.716100  1.0  0.7149
  C  C476  1  0.905200  0.309900  0.837500  1.0  0.7113
  C  C477  1  0.779400  0.906300  0.115800  1.0  0.166
  C  C478  1  0.756800  0.858800  0.093600  1.0  -0.2311
  C  C479  1  0.815300  0.815300  0.087260  1.0  0.1225
  C  C480  1  0.896100  0.821800  0.104500  1.0  -0.1854
  C  C481  1  0.914400  0.871800  0.126800  1.0  0.1554
  C  C482  1  0.795500  0.763100  0.060900  1.0  -0.1254
  C  C483  1  0.784800  0.773600  0.013220  1.0  -0.0896
  C  C484  1  0.864400  0.769600  0.987900  1.0  0.1311
  C  C485  1  0.890200  0.721000  0.966900  1.0  -0.2044
  C  C486  1  0.968100  0.720000  0.946700  1.0  0.1657
  C  C487  1  0.997500  0.811100  0.966200  1.0  0.1702
  C  C488  1  0.920800  0.816300  0.986500  1.0  -0.1911
  C  C489  1  0.030500  0.882600  0.250900  1.0  -0.1837
  C  C490  1  0.112600  0.863300  0.260600  1.0  -0.0305
  C  C491  1  0.126800  0.825600  0.292000  1.0  -0.1289
  C  C492  1  0.059100  0.810000  0.317700  1.0  -0.0529
  C  C493  1  0.976400  0.828800  0.309500  1.0  -0.1954
  C  C494  1  0.962100  0.864400  0.275600  1.0  0.0067
  C  C495  1  0.016900  0.924000  0.216100  1.0  0.7149
  C  C496  1  0.905200  0.809900  0.337500  1.0  0.7113
  C  C497  1  0.220600  0.093700  0.115800  1.0  0.1672
  C  C498  1  0.243200  0.141200  0.093600  1.0  -0.2286
  C  C499  1  0.184700  0.184700  0.087260  1.0  0.1217
  C  C500  1  0.103900  0.178200  0.104500  1.0  -0.1869
  C  C501  1  0.085600  0.128200  0.126800  1.0  0.1559
  C  C502  1  0.204500  0.236900  0.060900  1.0  -0.1236
  C  C503  1  0.215200  0.226400  0.013220  1.0  -0.0897
  C  C504  1  0.135600  0.230400  0.987900  1.0  0.1308
  C  C505  1  0.109800  0.279000  0.966900  1.0  -0.2027
  C  C506  1  0.031900  0.280000  0.946700  1.0  0.1665
  C  C507  1  0.002500  0.188900  0.966200  1.0  0.1706
  C  C508  1  0.079200  0.183700  0.986500  1.0  -0.1914
  C  C509  1  0.969500  0.117400  0.250900  1.0  -0.1847
  C  C510  1  0.887400  0.136700  0.260600  1.0  -0.0311
  C  C511  1  0.873200  0.174400  0.292000  1.0  -0.132
  C  C512  1  0.940900  0.190000  0.317700  1.0  -0.0533
  C  C513  1  0.023600  0.171200  0.309500  1.0  -0.1955
  C  C514  1  0.037900  0.135600  0.275600  1.0  0.0065
  C  C515  1  0.983100  0.076000  0.216100  1.0  0.7146
  C  C516  1  0.094800  0.190100  0.337500  1.0  0.7108
  C  C517  1  0.220600  0.593700  0.615800  1.0  0.1672
  C  C518  1  0.243200  0.641200  0.593600  1.0  -0.2286
  C  C519  1  0.184700  0.684700  0.587260  1.0  0.1217
  C  C520  1  0.103900  0.678200  0.604500  1.0  -0.1869
  C  C521  1  0.085600  0.628200  0.626800  1.0  0.1559
  C  C522  1  0.204500  0.736900  0.560900  1.0  -0.1236
  C  C523  1  0.215200  0.726400  0.513220  1.0  -0.0897
  C  C524  1  0.135600  0.730400  0.487900  1.0  0.1308
  C  C525  1  0.109800  0.779000  0.466900  1.0  -0.2027
  C  C526  1  0.031900  0.780000  0.446700  1.0  0.1665
  C  C527  1  0.002500  0.688900  0.466200  1.0  0.1706
  C  C528  1  0.079200  0.683700  0.486500  1.0  -0.1914
  C  C529  1  0.969500  0.617400  0.750900  1.0  -0.1847
  C  C530  1  0.887400  0.636700  0.760600  1.0  -0.0311
  C  C531  1  0.873200  0.674400  0.792000  1.0  -0.132
  C  C532  1  0.940900  0.690000  0.817700  1.0  -0.0533
  C  C533  1  0.023600  0.671200  0.809500  1.0  -0.1955
  C  C534  1  0.037900  0.635600  0.775600  1.0  0.0065
  C  C535  1  0.983100  0.576000  0.716100  1.0  0.7146
  C  C536  1  0.094800  0.690100  0.837500  1.0  0.7108
  C  C537  1  0.720600  0.093700  0.615800  1.0  0.1672
  C  C538  1  0.743200  0.141200  0.593600  1.0  -0.2286
  C  C539  1  0.684700  0.184700  0.587260  1.0  0.1217
  C  C540  1  0.603900  0.178200  0.604500  1.0  -0.1869
  C  C541  1  0.585600  0.128200  0.626800  1.0  0.1559
  C  C542  1  0.704500  0.236900  0.560900  1.0  -0.1236
  C  C543  1  0.715200  0.226400  0.513220  1.0  -0.0897
  C  C544  1  0.635600  0.230400  0.487900  1.0  0.1308
  C  C545  1  0.609800  0.279000  0.466900  1.0  -0.2027
  C  C546  1  0.531900  0.280000  0.446700  1.0  0.1665
  C  C547  1  0.502500  0.188900  0.466200  1.0  0.1706
  C  C548  1  0.579200  0.183700  0.486500  1.0  -0.1914
  C  C549  1  0.469500  0.117400  0.750900  1.0  -0.1847
  C  C550  1  0.387400  0.136700  0.760600  1.0  -0.0311
  C  C551  1  0.373200  0.174400  0.792000  1.0  -0.132
  C  C552  1  0.440900  0.190000  0.817700  1.0  -0.0533
  C  C553  1  0.523600  0.171200  0.809500  1.0  -0.1955
  C  C554  1  0.537900  0.135600  0.775600  1.0  0.0065
  C  C555  1  0.483100  0.076000  0.716100  1.0  0.7146
  C  C556  1  0.594800  0.190100  0.837500  1.0  0.7108
  C  C557  1  0.720600  0.593700  0.115800  1.0  0.1672
  C  C558  1  0.743200  0.641200  0.093600  1.0  -0.2286
  C  C559  1  0.684700  0.684700  0.087260  1.0  0.1217
  C  C560  1  0.603900  0.678200  0.104500  1.0  -0.1869
  C  C561  1  0.585600  0.628200  0.126800  1.0  0.1559
  C  C562  1  0.704500  0.736900  0.060900  1.0  -0.1236
  C  C563  1  0.715200  0.726400  0.013220  1.0  -0.0897
  C  C564  1  0.635600  0.730400  0.987900  1.0  0.1308
  C  C565  1  0.609800  0.779000  0.966900  1.0  -0.2027
  C  C566  1  0.531900  0.780000  0.946700  1.0  0.1665
  C  C567  1  0.502500  0.688900  0.966200  1.0  0.1706
  C  C568  1  0.579200  0.683700  0.986500  1.0  -0.1914
  C  C569  1  0.469500  0.617400  0.250900  1.0  -0.1847
  C  C570  1  0.387400  0.636700  0.260600  1.0  -0.0311
  C  C571  1  0.373200  0.674400  0.292000  1.0  -0.132
  C  C572  1  0.440900  0.690000  0.317700  1.0  -0.0533
  C  C573  1  0.523600  0.671200  0.309500  1.0  -0.1955
  C  C574  1  0.537900  0.635600  0.275600  1.0  0.0065
  C  C575  1  0.483100  0.576000  0.216100  1.0  0.7146
  C  C576  1  0.594800  0.690100  0.337500  1.0  0.7108
  N  N577  1  0.107100  0.836100  0.882680  1.0  -0.3088
  N  N578  1  0.272000  0.986000  0.696520  1.0  -0.3188
  N  N579  1  0.107100  0.336100  0.382680  1.0  -0.3088
  N  N580  1  0.272000  0.486000  0.196520  1.0  -0.3188
  N  N581  1  0.607100  0.836100  0.382680  1.0  -0.3088
  N  N582  1  0.772000  0.986000  0.196520  1.0  -0.3188
  N  N583  1  0.607100  0.336100  0.882680  1.0  -0.3088
  N  N584  1  0.772000  0.486000  0.696520  1.0  -0.3188
  N  N585  1  0.892900  0.163900  0.882680  1.0  -0.3094
  N  N586  1  0.728000  0.014000  0.696520  1.0  -0.3199
  N  N587  1  0.892900  0.663900  0.382680  1.0  -0.3094
  N  N588  1  0.728000  0.514000  0.196520  1.0  -0.3199
  N  N589  1  0.392900  0.163900  0.382680  1.0  -0.3094
  N  N590  1  0.228000  0.014000  0.196520  1.0  -0.3199
  N  N591  1  0.392900  0.663900  0.882680  1.0  -0.3094
  N  N592  1  0.228000  0.514000  0.696520  1.0  -0.3199
  N  N593  1  0.357100  0.413900  0.132680  1.0  -0.3086
  N  N594  1  0.522000  0.264000  0.946520  1.0  -0.3188
  N  N595  1  0.357100  0.913900  0.632680  1.0  -0.3086
  N  N596  1  0.522000  0.764000  0.446520  1.0  -0.3188
  N  N597  1  0.857100  0.413900  0.632680  1.0  -0.3086
  N  N598  1  0.022000  0.264000  0.446520  1.0  -0.3188
  N  N599  1  0.857100  0.913900  0.132680  1.0  -0.3086
  N  N600  1  0.022000  0.764000  0.946520  1.0  -0.3188
  N  N601  1  0.142900  0.086100  0.132680  1.0  -0.3091
  N  N602  1  0.978000  0.236000  0.946520  1.0  -0.3201
  N  N603  1  0.142900  0.586100  0.632680  1.0  -0.3091
  N  N604  1  0.978000  0.736000  0.446520  1.0  -0.3201
  N  N605  1  0.642900  0.086100  0.632680  1.0  -0.3091
  N  N606  1  0.478000  0.236000  0.446520  1.0  -0.3201
  N  N607  1  0.642900  0.586100  0.132680  1.0  -0.3091
  N  N608  1  0.478000  0.736000  0.946520  1.0  -0.3201
  O  O609  1  0.192800  0.805040  0.961580  1.0  -0.6018
  O  O610  1  0.329500  0.816650  0.942290  1.0  -0.6026
  O  O611  1  0.078500  0.931400  0.077090  1.0  -0.6036
  O  O612  1  0.177700  0.964820  0.119770  1.0  -0.6025
  O  O613  1  0.192800  0.305040  0.461580  1.0  -0.6018
  O  O614  1  0.329500  0.316650  0.442290  1.0  -0.6026
  O  O615  1  0.078500  0.431400  0.577090  1.0  -0.6036
  O  O616  1  0.177700  0.464820  0.619770  1.0  -0.6025
  O  O617  1  0.692800  0.805040  0.461580  1.0  -0.6018
  O  O618  1  0.829500  0.816650  0.442290  1.0  -0.6026
  O  O619  1  0.578500  0.931400  0.577090  1.0  -0.6036
  O  O620  1  0.677700  0.964820  0.619770  1.0  -0.6025
  O  O621  1  0.692800  0.305040  0.961580  1.0  -0.6018
  O  O622  1  0.829500  0.316650  0.942290  1.0  -0.6026
  O  O623  1  0.578500  0.431400  0.077090  1.0  -0.6036
  O  O624  1  0.677700  0.464820  0.119770  1.0  -0.6025
  O  O625  1  0.807200  0.194960  0.961580  1.0  -0.6021
  O  O626  1  0.670500  0.183350  0.942290  1.0  -0.6044
  O  O627  1  0.921500  0.068600  0.077090  1.0  -0.6051
  O  O628  1  0.822300  0.035180  0.119770  1.0  -0.6021
  O  O629  1  0.807200  0.694960  0.461580  1.0  -0.6021
  O  O630  1  0.670500  0.683350  0.442290  1.0  -0.6044
  O  O631  1  0.921500  0.568600  0.577090  1.0  -0.6051
  O  O632  1  0.822300  0.535180  0.619770  1.0  -0.6021
  O  O633  1  0.307200  0.194960  0.461580  1.0  -0.6021
  O  O634  1  0.170500  0.183350  0.442290  1.0  -0.6044
  O  O635  1  0.421500  0.068600  0.577090  1.0  -0.6051
  O  O636  1  0.322300  0.035180  0.619770  1.0  -0.6021
  O  O637  1  0.307200  0.694960  0.961580  1.0  -0.6021
  O  O638  1  0.170500  0.683350  0.942290  1.0  -0.6044
  O  O639  1  0.421500  0.568600  0.077090  1.0  -0.6051
  O  O640  1  0.322300  0.535180  0.119770  1.0  -0.6021
  O  O641  1  0.442800  0.444960  0.211580  1.0  -0.6019
  O  O642  1  0.579500  0.433350  0.192290  1.0  -0.6034
  O  O643  1  0.328500  0.318600  0.327090  1.0  -0.6032
  O  O644  1  0.427700  0.285180  0.369770  1.0  -0.603
  O  O645  1  0.442800  0.944960  0.711580  1.0  -0.6019
  O  O646  1  0.579500  0.933350  0.692290  1.0  -0.6034
  O  O647  1  0.328500  0.818600  0.827090  1.0  -0.6032
  O  O648  1  0.427700  0.785180  0.869770  1.0  -0.603
  O  O649  1  0.942800  0.444960  0.711580  1.0  -0.6019
  O  O650  1  0.079500  0.433350  0.692290  1.0  -0.6034
  O  O651  1  0.828500  0.318600  0.827090  1.0  -0.6032
  O  O652  1  0.927700  0.285180  0.869770  1.0  -0.603
  O  O653  1  0.942800  0.944960  0.211580  1.0  -0.6019
  O  O654  1  0.079500  0.933350  0.192290  1.0  -0.6034
  O  O655  1  0.828500  0.818600  0.327090  1.0  -0.6032
  O  O656  1  0.927700  0.785180  0.369770  1.0  -0.603
  O  O657  1  0.057200  0.055040  0.211580  1.0  -0.6021
  O  O658  1  0.920500  0.066650  0.192290  1.0  -0.6034
  O  O659  1  0.171500  0.181400  0.327090  1.0  -0.6046
  O  O660  1  0.072300  0.214820  0.369770  1.0  -0.6022
  O  O661  1  0.057200  0.555040  0.711580  1.0  -0.6021
  O  O662  1  0.920500  0.566650  0.692290  1.0  -0.6034
  O  O663  1  0.171500  0.681400  0.827090  1.0  -0.6046
  O  O664  1  0.072300  0.714820  0.869770  1.0  -0.6022
  O  O665  1  0.557200  0.055040  0.711580  1.0  -0.6021
  O  O666  1  0.420500  0.066650  0.692290  1.0  -0.6034
  O  O667  1  0.671500  0.181400  0.827090  1.0  -0.6046
  O  O668  1  0.572300  0.214820  0.869770  1.0  -0.6022
  O  O669  1  0.557200  0.555040  0.211580  1.0  -0.6021
  O  O670  1  0.420500  0.566650  0.192290  1.0  -0.6034
  O  O671  1  0.671500  0.681400  0.327090  1.0  -0.6046
  O  O672  1  0.572300  0.714820  0.369770  1.0  -0.6022
  O  O673  1  0.250000  0.750000  0.878000  1.0  -0.763
  O  O674  1  0.250000  0.250000  0.378000  1.0  -0.763
  O  O675  1  0.750000  0.250000  0.878000  1.0  -0.763
  O  O676  1  0.750000  0.750000  0.378000  1.0  -0.763
  O  O677  1  0.500000  0.500000  0.128000  1.0  -0.763
  O  O678  1  0.500000  0.000000  0.628000  1.0  -0.763
  O  O679  1  0.000000  0.000000  0.128000  1.0  -0.763
  O  O680  1  0.000000  0.500000  0.628000  1.0  -0.763
