# generated using pymatgen
data_Ni2H28C40N4O9
_symmetry_space_group_name_H-M   'P 1'
_cell_length_a   14.02430000
_cell_length_b   14.02430000
_cell_length_c   17.91780000
_cell_angle_alpha   103.78700000
_cell_angle_beta   103.78700000
_cell_angle_gamma   113.02000000
_symmetry_Int_Tables_number   1
_chemical_formula_structural   Ni2H28C40N4O9
_chemical_formula_sum   'Ni4 H56 C80 N8 O18'
_cell_volume   2925.36363531
_cell_formula_units_Z   2
loop_
 _symmetry_equiv_pos_site_id
 _symmetry_equiv_pos_as_xyz
  1  'x, y, z'
loop_
 _atom_site_type_symbol
 _atom_site_label
 _atom_site_symmetry_multiplicity
 _atom_site_fract_x
 _atom_site_fract_y
 _atom_site_fract_z
 _atom_site_occupancy
 _atom_site_charge
  Ni  Ni1  1  0.199180  0.218100  0.195060  1.0  0.8509
  Ni  Ni2  1  0.995880  0.976960  0.195060  1.0  0.8509
  Ni  Ni3  1  0.968100  0.449180  0.695060  1.0  0.8509
  Ni  Ni4  1  0.726960  0.245880  0.695060  1.0  0.8502
  H  H5  1  0.023800  0.275600  0.242400  1.0  0.0876
  H  H6  1  0.010500  0.424900  0.311400  1.0  0.128
  H  H7  1  0.330600  0.619200  0.355800  1.0  0.1165
  H  H8  1  0.336500  0.466300  0.282200  1.0  0.0802
  H  H9  1  0.087100  0.620100  0.387000  1.0  0.0974
  H  H10  1  0.302500  0.680300  0.499000  1.0  0.0999
  H  H11  1  0.180900  0.489300  0.504600  1.0  0.139
  H  H12  1  0.077100  0.405500  0.573400  1.0  0.0821
  H  H13  1  0.046500  0.667700  0.668200  1.0  0.0964
  H  H14  1  0.144900  0.760300  0.597600  1.0  0.122
  H  H15  1  0.315200  0.047600  0.050200  1.0  0.1068
  H  H16  1  0.351400  0.953000  0.943800  1.0  0.1049
  H  H17  1  0.217600  0.773200  0.852600  1.0  0.1015
  H  H18  1  0.011100  0.782300  0.974000  1.0  0.1045
  H  H19  1  0.218600  0.966800  0.242400  1.0  0.0891
  H  H20  1  0.300900  0.886500  0.311400  1.0  0.1278
  H  H21  1  0.025200  0.736600  0.355800  1.0  0.1156
  H  H22  1  0.945700  0.815900  0.282200  1.0  0.0807
  H  H23  1  0.299900  0.766900  0.387000  1.0  0.0984
  H  H24  1  0.196500  0.818700  0.499000  1.0  0.0994
  H  H25  1  0.323700  0.015300  0.504600  1.0  0.141
  H  H26  1  0.496300  0.167900  0.573400  1.0  0.0823
  H  H27  1  0.621700  0.000500  0.668200  1.0  0.0969
  H  H28  1  0.452700  0.837300  0.597600  1.0  0.1234
  H  H29  1  0.735000  0.002600  0.050200  1.0  0.1076
  H  H30  1  0.592400  0.990800  0.943800  1.0  0.1051
  H  H31  1  0.635000  0.079400  0.852600  1.0  0.1002
  H  H32  1  0.962900  0.191700  0.974000  1.0  0.1064
  H  H33  1  0.025600  0.273800  0.742400  1.0  0.0864
  H  H34  1  0.174900  0.260500  0.811400  1.0  0.1247
  H  H35  1  0.369200  0.580600  0.855800  1.0  0.1171
  H  H36  1  0.216300  0.586500  0.782200  1.0  0.0811
  H  H37  1  0.370100  0.337100  0.887000  1.0  0.0953
  H  H38  1  0.430300  0.552500  0.999000  1.0  0.1004
  H  H39  1  0.239300  0.430900  0.004600  1.0  0.1387
  H  H40  1  0.155500  0.327100  0.073400  1.0  0.0833
  H  H41  1  0.417700  0.296500  0.168200  1.0  0.0961
  H  H42  1  0.510300  0.394900  0.097600  1.0  0.1244
  H  H43  1  0.797600  0.565200  0.550200  1.0  0.1064
  H  H44  1  0.703000  0.601400  0.443800  1.0  0.1057
  H  H45  1  0.523200  0.467600  0.352600  1.0  0.1009
  H  H46  1  0.532300  0.261100  0.474000  1.0  0.1047
  H  H47  1  0.716800  0.468600  0.742400  1.0  0.0887
  H  H48  1  0.636500  0.550900  0.811400  1.0  0.1274
  H  H49  1  0.486600  0.275200  0.855800  1.0  0.1168
  H  H50  1  0.565900  0.195700  0.782200  1.0  0.0814
  H  H51  1  0.516900  0.549900  0.887000  1.0  0.0978
  H  H52  1  0.568700  0.446500  0.999000  1.0  0.1001
  H  H53  1  0.765300  0.573700  0.004600  1.0  0.1389
  H  H54  1  0.917900  0.746300  0.073400  1.0  0.0819
  H  H55  1  0.750500  0.871700  0.168200  1.0  0.0971
  H  H56  1  0.587300  0.702700  0.097600  1.0  0.1235
  H  H57  1  0.752600  0.985000  0.550200  1.0  0.1083
  H  H58  1  0.740800  0.842400  0.443800  1.0  0.1059
  H  H59  1  0.829400  0.885000  0.352600  1.0  0.1002
  H  H60  1  0.941700  0.212900  0.474000  1.0  0.1059
  C  C61  1  0.087100  0.346300  0.265200  1.0  0.1806
  C  C62  1  0.079100  0.435300  0.307200  1.0  -0.217
  C  C63  1  0.171200  0.541800  0.344600  1.0  0.1247
  C  C64  1  0.266200  0.549400  0.333000  1.0  -0.2316
  C  C65  1  0.269300  0.457100  0.288600  1.0  0.1681
  C  C66  1  0.165800  0.638800  0.396800  1.0  -0.0718
  C  C67  1  0.232900  0.686100  0.489800  1.0  -0.0753
  C  C68  1  0.174600  0.636400  0.541800  1.0  0.1081
  C  C69  1  0.153600  0.527600  0.536600  1.0  -0.2039
  C  C70  1  0.092900  0.479100  0.579000  1.0  0.1711
  C  C71  1  0.073700  0.631700  0.634400  1.0  0.1645
  C  C72  1  0.133100  0.687700  0.592000  1.0  -0.229
  C  C73  1  0.159600  0.924000  0.022200  1.0  -0.1595
  C  C74  1  0.261200  0.975000  0.013400  1.0  -0.0385
  C  C75  1  0.282800  0.918600  0.950000  1.0  -0.1399
  C  C76  1  0.203000  0.811400  0.895600  1.0  -0.0481
  C  C77  1  0.101300  0.760300  0.904400  1.0  -0.1374
  C  C78  1  0.079700  0.816700  0.967800  1.0  0.0029
  C  C79  1  0.140600  0.988600  0.092600  1.0  0.6703
  C  C80  1  0.020300  0.641500  0.846400  1.0  0.6747
  C  C81  1  0.178100  0.918900  0.265200  1.0  0.1817
  C  C82  1  0.228100  0.871900  0.307200  1.0  -0.2196
  C  C83  1  0.173400  0.802800  0.344600  1.0  0.1213
  C  C84  1  0.066800  0.783600  0.333000  1.0  -0.2385
  C  C85  1  0.019300  0.831500  0.288600  1.0  0.1675
  C  C86  1  0.231000  0.758000  0.396800  1.0  -0.0682
  C  C87  1  0.256900  0.803700  0.489800  1.0  -0.0774
  C  C88  1  0.367200  0.905400  0.541800  1.0  0.1101
  C  C89  1  0.383000  0.009000  0.536600  1.0  -0.2051
  C  C90  1  0.486100  0.099900  0.579000  1.0  0.1717
  C  C91  1  0.560700  0.002700  0.634400  1.0  0.1655
  C  C92  1  0.458900  0.904300  0.592000  1.0  -0.2247
  C  C93  1  0.862600  0.098200  0.022200  1.0  -0.1627
  C  C94  1  0.752200  0.038400  0.013400  1.0  -0.0396
  C  C95  1  0.667200  0.031400  0.950000  1.0  -0.1399
  C  C96  1  0.692600  0.084200  0.895600  1.0  -0.047
  C  C97  1  0.803100  0.144100  0.904400  1.0  -0.137
  C  C98  1  0.888100  0.151100  0.967800  1.0  0.0002
  C  C99  1  0.952000  0.104000  0.092600  1.0  0.6673
  C  C100  1  0.826100  0.204900  0.846400  1.0  0.6755
  C  C101  1  0.096300  0.337100  0.765200  1.0  0.1793
  C  C102  1  0.185300  0.329100  0.807200  1.0  -0.2132
  C  C103  1  0.291800  0.421200  0.844600  1.0  0.1239
  C  C104  1  0.299400  0.516200  0.833000  1.0  -0.2338
  C  C105  1  0.207100  0.519300  0.788600  1.0  0.1658
  C  C106  1  0.388800  0.415800  0.896800  1.0  -0.0727
  C  C107  1  0.436100  0.482900  0.989800  1.0  -0.0764
  C  C108  1  0.386400  0.424600  0.041800  1.0  0.1086
  C  C109  1  0.277600  0.403600  0.036600  1.0  -0.208
  C  C110  1  0.229100  0.342900  0.079000  1.0  0.1717
  C  C111  1  0.381700  0.323700  0.134400  1.0  0.1686
  C  C112  1  0.437700  0.383100  0.092000  1.0  -0.2325
  C  C113  1  0.674000  0.409600  0.522200  1.0  -0.1602
  C  C114  1  0.725000  0.511200  0.513400  1.0  -0.0356
  C  C115  1  0.668600  0.532800  0.450000  1.0  -0.1408
  C  C116  1  0.561400  0.453000  0.395600  1.0  -0.0476
  C  C117  1  0.510300  0.351300  0.404400  1.0  -0.1377
  C  C118  1  0.566700  0.329700  0.467800  1.0  0.0038
  C  C119  1  0.738600  0.390600  0.592600  1.0  0.6686
  C  C120  1  0.391500  0.270300  0.346400  1.0  0.6747
  C  C121  1  0.668900  0.428100  0.765200  1.0  0.1824
  C  C122  1  0.621900  0.478100  0.807200  1.0  -0.2093
  C  C123  1  0.552800  0.423400  0.844600  1.0  0.1223
  C  C124  1  0.533600  0.316800  0.833000  1.0  -0.2403
  C  C125  1  0.581500  0.269300  0.788600  1.0  0.1672
  C  C126  1  0.508000  0.481000  0.896800  1.0  -0.0673
  C  C127  1  0.553700  0.506900  0.989800  1.0  -0.0803
  C  C128  1  0.655400  0.617200  0.041800  1.0  0.1094
  C  C129  1  0.759000  0.633000  0.036600  1.0  -0.2059
  C  C130  1  0.849900  0.736100  0.079000  1.0  0.1722
  C  C131  1  0.752700  0.810700  0.134400  1.0  0.1658
  C  C132  1  0.654300  0.708900  0.092000  1.0  -0.2299
  C  C133  1  0.848200  0.112600  0.522200  1.0  -0.1595
  C  C134  1  0.788400  0.002200  0.513400  1.0  -0.0404
  C  C135  1  0.781400  0.917200  0.450000  1.0  -0.1467
  C  C136  1  0.834200  0.942600  0.395600  1.0  -0.0476
  C  C137  1  0.894100  0.053100  0.404400  1.0  -0.1363
  C  C138  1  0.901100  0.138100  0.467800  1.0  0.0024
  C  C139  1  0.854000  0.202000  0.592600  1.0  0.6698
  C  C140  1  0.954900  0.076100  0.346400  1.0  0.6719
  N  N141  1  0.181100  0.354300  0.254200  1.0  -0.2896
  N  N142  1  0.054890  0.529290  0.627980  1.0  -0.2845
  N  N143  1  0.073100  0.899900  0.254200  1.0  -0.2919
  N  N144  1  0.573090  0.098690  0.627980  1.0  -0.2819
  N  N145  1  0.104300  0.431100  0.754200  1.0  -0.2908
  N  N146  1  0.279290  0.304890  0.127980  1.0  -0.2848
  N  N147  1  0.649900  0.323100  0.754200  1.0  -0.2903
  N  N148  1  0.848690  0.823090  0.127980  1.0  -0.2835
  O  O149  1  0.217100  0.084700  0.137200  1.0  -0.5699
  O  O150  1  0.050250  0.938050  0.100900  1.0  -0.5739
  O  O151  1  0.936370  0.586970  0.862140  1.0  -0.5334
  O  O152  1  0.043300  0.605900  0.785000  1.0  -0.5722
  O  O153  1  0.920100  0.052500  0.137200  1.0  -0.5686
  O  O154  1  0.050650  0.162850  0.100900  1.0  -0.5738
  O  O155  1  0.925770  0.275170  0.862140  1.0  -0.5324
  O  O156  1  0.741700  0.179100  0.785000  1.0  -0.571
  O  O157  1  0.834700  0.467100  0.637200  1.0  -0.5708
  O  O158  1  0.688050  0.300250  0.600900  1.0  -0.5746
  O  O159  1  0.336970  0.186370  0.362140  1.0  -0.5338
  O  O160  1  0.355900  0.293300  0.285000  1.0  -0.5713
  O  O161  1  0.802500  0.170100  0.637200  1.0  -0.5705
  O  O162  1  0.912850  0.300650  0.600900  1.0  -0.5729
  O  O163  1  0.025170  0.175770  0.362140  1.0  -0.5297
  O  O164  1  0.929100  0.991700  0.285000  1.0  -0.5712
  O  O165  1  0.134100  0.134100  0.268200  1.0  -0.408
  O  O166  1  0.884100  0.384100  0.768200  1.0  -0.408
