# generated using pymatgen
data_Ni2H30C40N4O9
_symmetry_space_group_name_H-M   'P 1'
_cell_length_a   14.04950000
_cell_length_b   14.04950000
_cell_length_c   18.05250000
_cell_angle_alpha   103.54900000
_cell_angle_beta   103.54900000
_cell_angle_gamma   113.44900000
_symmetry_Int_Tables_number   1
_chemical_formula_structural   Ni2H30C40N4O9
_chemical_formula_sum   'Ni4 H60 C80 N8 O18'
_cell_volume   2956.07468249
_cell_formula_units_Z   2
loop_
 _symmetry_equiv_pos_site_id
 _symmetry_equiv_pos_as_xyz
  1  'x, y, z'
loop_
 _atom_site_type_symbol
 _atom_site_label
 _atom_site_symmetry_multiplicity
 _atom_site_fract_x
 _atom_site_fract_y
 _atom_site_fract_z
 _atom_site_occupancy
 _atom_site_charge
  Ni  Ni1  1  0.608490  0.089090  0.974060  1.0  0.8828
  Ni  Ni2  1  0.365570  0.884970  0.974060  1.0  0.8837
  Ni  Ni3  1  0.839090  0.858490  0.474060  1.0  0.8834
  Ni  Ni4  1  0.634970  0.615570  0.474060  1.0  0.8835
  H  H5  1  0.529000  0.979000  0.066000  1.0  0.3627
  H  H6  1  0.855700  0.229300  0.065400  1.0  0.0736
  H  H7  1  0.010800  0.224000  0.137400  1.0  0.127
  H  H8  1  0.813300  0.896100  0.088400  1.0  0.1345
  H  H9  1  0.663900  0.914900  0.017800  1.0  0.0706
  H  H10  1  0.009500  0.976100  0.164800  1.0  0.101
  H  H11  1  0.070800  0.193400  0.276800  1.0  0.1032
  H  H12  1  0.889500  0.089100  0.296600  1.0  0.1278
  H  H13  1  0.798700  0.979700  0.362400  1.0  0.1008
  H  H14  1  0.054600  0.932400  0.442800  1.0  0.0885
  H  H15  1  0.144800  0.028000  0.369000  1.0  0.1116
  H  H16  1  0.374100  0.618900  0.821600  1.0  0.1003
  H  H17  1  0.347000  0.479000  0.709200  1.0  0.1061
  H  H18  1  0.447900  0.516900  0.625200  1.0  0.1146
  H  H19  1  0.594400  0.847600  0.760400  1.0  0.1024
  H  H20  1  0.537000  0.087000  0.066000  1.0  0.3606
  H  H21  1  0.209700  0.836100  0.065400  1.0  0.0732
  H  H22  1  0.126600  0.913400  0.137400  1.0  0.1264
  H  H23  1  0.275100  0.192300  0.088400  1.0  0.1361
  H  H24  1  0.353900  0.102900  0.017800  1.0  0.0715
  H  H25  1  0.155300  0.188700  0.164800  1.0  0.1032
  H  H26  1  0.206000  0.083400  0.276800  1.0  0.1018
  H  H27  1  0.407100  0.207500  0.296600  1.0  0.1262
  H  H28  1  0.563700  0.382700  0.362400  1.0  0.1001
  H  H29  1  0.388200  0.510400  0.442800  1.0  0.0898
  H  H30  1  0.224200  0.341000  0.369000  1.0  0.1123
  H  H31  1  0.447500  0.202700  0.821600  1.0  0.0987
  H  H32  1  0.362200  0.230200  0.709200  1.0  0.1029
  H  H33  1  0.177300  0.108300  0.625200  1.0  0.1152
  H  H34  1  0.166000  0.912800  0.760400  1.0  0.1005
  H  H35  1  0.729000  0.779000  0.566000  1.0  0.3607
  H  H36  1  0.979300  0.105700  0.565400  1.0  0.0728
  H  H37  1  0.974000  0.260800  0.637400  1.0  0.1255
  H  H38  1  0.646100  0.063300  0.588400  1.0  0.1337
  H  H39  1  0.664900  0.913900  0.517800  1.0  0.072
  H  H40  1  0.726100  0.259500  0.664800  1.0  0.1051
  H  H41  1  0.943400  0.320800  0.776800  1.0  0.1017
  H  H42  1  0.839100  0.139500  0.796600  1.0  0.1283
  H  H43  1  0.729700  0.048700  0.862400  1.0  0.1005
  H  H44  1  0.682400  0.304600  0.942800  1.0  0.0888
  H  H45  1  0.778000  0.394800  0.869000  1.0  0.1125
  H  H46  1  0.368900  0.624100  0.321600  1.0  0.0993
  H  H47  1  0.229000  0.597000  0.209200  1.0  0.1045
  H  H48  1  0.266900  0.697900  0.125200  1.0  0.1146
  H  H49  1  0.597600  0.844400  0.260400  1.0  0.1029
  H  H50  1  0.837000  0.787000  0.566000  1.0  0.3632
  H  H51  1  0.586100  0.459700  0.565400  1.0  0.0731
  H  H52  1  0.663400  0.376600  0.637400  1.0  0.1252
  H  H53  1  0.942300  0.525100  0.588400  1.0  0.1342
  H  H54  1  0.852900  0.603900  0.517800  1.0  0.0719
  H  H55  1  0.938700  0.405300  0.664800  1.0  0.1044
  H  H56  1  0.833400  0.456000  0.776800  1.0  0.1006
  H  H57  1  0.957500  0.657100  0.796600  1.0  0.1264
  H  H58  1  0.132700  0.813700  0.862400  1.0  0.1008
  H  H59  1  0.260400  0.638200  0.942800  1.0  0.0891
  H  H60  1  0.091000  0.474200  0.869000  1.0  0.1125
  H  H61  1  0.952700  0.697500  0.321600  1.0  0.0982
  H  H62  1  0.980200  0.612200  0.209200  1.0  0.1022
  H  H63  1  0.858300  0.427300  0.125200  1.0  0.1149
  H  H64  1  0.662800  0.416000  0.260400  1.0  0.1015
  C  C65  1  0.847200  0.161600  0.070600  1.0  0.1581
  C  C66  1  0.940700  0.159500  0.113800  1.0  -0.2336
  C  C67  1  0.928700  0.058900  0.121800  1.0  0.0557
  C  C68  1  0.824100  0.965100  0.085000  1.0  -0.1654
  C  C69  1  0.735000  0.978000  0.042600  1.0  0.1602
  C  C70  1  0.028100  0.054700  0.173800  1.0  -0.1028
  C  C71  1  0.075300  0.123300  0.267200  1.0  -0.1086
  C  C72  1  0.025300  0.061900  0.320400  1.0  0.0634
  C  C73  1  0.922000  0.052800  0.322600  1.0  -0.0823
  C  C74  1  0.869300  0.989700  0.363600  1.0  0.1469
  C  C75  1  0.018500  0.959700  0.409800  1.0  0.1461
  C  C76  1  0.073900  0.018700  0.366200  1.0  -0.1535
  C  C77  1  0.481200  0.748200  0.800200  1.0  -0.1615
  C  C78  1  0.411600  0.637000  0.786000  1.0  -0.0514
  C  C79  1  0.397600  0.553200  0.719800  1.0  -0.1361
  C  C80  1  0.455900  0.575300  0.668600  1.0  -0.1048
  C  C81  1  0.529100  0.689300  0.683200  1.0  -0.1357
  C  C82  1  0.543300  0.773100  0.749000  1.0  0.0205
  C  C83  1  0.493000  0.841600  0.871200  1.0  0.6581
  C  C84  1  0.594700  0.715100  0.626800  1.0  0.6704
  C  C85  1  0.223400  0.909000  0.070600  1.0  0.1595
  C  C86  1  0.173100  0.954300  0.113800  1.0  -0.2327
  C  C87  1  0.193100  0.062900  0.121800  1.0  0.0569
  C  C88  1  0.260900  0.119900  0.085000  1.0  -0.1682
  C  C89  1  0.307600  0.064600  0.042600  1.0  0.1604
  C  C90  1  0.145700  0.119100  0.173800  1.0  -0.0981
  C  C91  1  0.191900  0.143900  0.267200  1.0  -0.112
  C  C92  1  0.295100  0.258500  0.320400  1.0  0.0627
  C  C93  1  0.400600  0.269800  0.322600  1.0  -0.081
  C  C94  1  0.494300  0.373900  0.363600  1.0  0.1477
  C  C95  1  0.391300  0.450100  0.409800  1.0  0.1446
  C  C96  1  0.292300  0.347500  0.366200  1.0  -0.1518
  C  C97  1  0.319000  0.052000  0.800200  1.0  -0.1624
  C  C98  1  0.374400  0.149000  0.786000  1.0  -0.0499
  C  C99  1  0.322200  0.166600  0.719800  1.0  -0.1341
  C  C100  1  0.212700  0.093300  0.668600  1.0  -0.1078
  C  C101  1  0.154100  0.993900  0.683200  1.0  -0.137
  C  C102  1  0.205700  0.975900  0.749000  1.0  0.023
  C  C103  1  0.378200  0.029600  0.871200  1.0  0.6589
  C  C104  1  0.032100  0.911700  0.626800  1.0  0.6712
  C  C105  1  0.911600  0.097200  0.570600  1.0  0.1605
  C  C106  1  0.909500  0.190700  0.613800  1.0  -0.2305
  C  C107  1  0.808900  0.178700  0.621800  1.0  0.0543
  C  C108  1  0.715100  0.074100  0.585000  1.0  -0.1623
  C  C109  1  0.728000  0.985000  0.542600  1.0  0.162
  C  C110  1  0.804700  0.278100  0.673800  1.0  -0.1028
  C  C111  1  0.873300  0.325300  0.767200  1.0  -0.1085
  C  C112  1  0.811900  0.275300  0.820400  1.0  0.0636
  C  C113  1  0.802800  0.172000  0.822600  1.0  -0.0809
  C  C114  1  0.739700  0.119300  0.863600  1.0  0.1473
  C  C115  1  0.709700  0.268500  0.909800  1.0  0.1442
  C  C116  1  0.768700  0.323900  0.866200  1.0  -0.1553
  C  C117  1  0.498200  0.731200  0.300200  1.0  -0.1617
  C  C118  1  0.387000  0.661600  0.286000  1.0  -0.0503
  C  C119  1  0.303200  0.647600  0.219800  1.0  -0.1345
  C  C120  1  0.325300  0.705900  0.168600  1.0  -0.106
  C  C121  1  0.439300  0.779100  0.183200  1.0  -0.1361
  C  C122  1  0.523100  0.793300  0.249000  1.0  0.0186
  C  C123  1  0.591600  0.743000  0.371200  1.0  0.6574
  C  C124  1  0.465100  0.844700  0.126800  1.0  0.6711
  C  C125  1  0.659000  0.473400  0.570600  1.0  0.159
  C  C126  1  0.704300  0.423100  0.613800  1.0  -0.2327
  C  C127  1  0.812900  0.443100  0.621800  1.0  0.0571
  C  C128  1  0.869900  0.510900  0.585000  1.0  -0.1633
  C  C129  1  0.814600  0.557600  0.542600  1.0  0.1622
  C  C130  1  0.869100  0.395700  0.673800  1.0  -0.0987
  C  C131  1  0.893900  0.441900  0.767200  1.0  -0.1088
  C  C132  1  0.008500  0.545100  0.820400  1.0  0.0629
  C  C133  1  0.019800  0.650600  0.822600  1.0  -0.0797
  C  C134  1  0.123900  0.744300  0.863600  1.0  0.1484
  C  C135  1  0.200100  0.641300  0.909800  1.0  0.1437
  C  C136  1  0.097500  0.542300  0.866200  1.0  -0.1527
  C  C137  1  0.802000  0.569000  0.300200  1.0  -0.162
  C  C138  1  0.899000  0.624400  0.286000  1.0  -0.0505
  C  C139  1  0.916600  0.572200  0.219800  1.0  -0.1322
  C  C140  1  0.843300  0.462700  0.168600  1.0  -0.1083
  C  C141  1  0.743900  0.404100  0.183200  1.0  -0.136
  C  C142  1  0.725900  0.455700  0.249000  1.0  0.0205
  C  C143  1  0.779600  0.628200  0.371200  1.0  0.6586
  C  C144  1  0.661700  0.282100  0.126800  1.0  0.6695
  N  N145  1  0.744300  0.073300  0.035000  1.0  -0.2962
  N  N146  1  0.918000  0.941800  0.405400  1.0  -0.3132
  N  N147  1  0.290700  0.961700  0.035000  1.0  -0.2961
  N  N148  1  0.487400  0.463600  0.405400  1.0  -0.3108
  N  N149  1  0.823300  0.994300  0.535000  1.0  -0.2972
  N  N150  1  0.691800  0.168000  0.905400  1.0  -0.3118
  N  N151  1  0.711700  0.540700  0.535000  1.0  -0.2974
  N  N152  1  0.213600  0.737400  0.905400  1.0  -0.3105
  O  O153  1  0.552860  0.940460  0.880520  1.0  -0.5757
  O  O154  1  0.441930  0.809530  0.918060  1.0  -0.6002
  O  O155  1  0.669400  0.811400  0.644600  1.0  -0.5971
  O  O156  1  0.564590  0.630990  0.561380  1.0  -0.6028
  O  O157  1  0.327660  0.940060  0.880520  1.0  -0.574
  O  O158  1  0.476130  0.108530  0.918060  1.0  -0.5992
  O  O159  1  0.975200  0.833200  0.644600  1.0  -0.5974
  O  O160  1  0.996790  0.930390  0.561380  1.0  -0.6026
  O  O161  1  0.690460  0.802860  0.380520  1.0  -0.5766
  O  O162  1  0.559530  0.691930  0.418060  1.0  -0.5972
  O  O163  1  0.561400  0.919400  0.144600  1.0  -0.5987
  O  O164  1  0.380990  0.814590  0.061380  1.0  -0.6032
  O  O165  1  0.690060  0.577660  0.380520  1.0  -0.5749
  O  O166  1  0.858530  0.726130  0.418060  1.0  -0.5969
  O  O167  1  0.583200  0.225200  0.144600  1.0  -0.5989
  O  O168  1  0.680390  0.246790  0.061380  1.0  -0.6043
  O  O169  1  0.523300  0.023300  0.046600  1.0  -0.7431
  O  O170  1  0.773300  0.773300  0.546600  1.0  -0.743
