# generated using pymatgen
data_ZnH9C16NO4F
_symmetry_space_group_name_H-M   'P 1'
_cell_length_a   10.88500000
_cell_length_b   10.93000000
_cell_length_c   18.51800000
_cell_angle_alpha   87.42000000
_cell_angle_beta   84.99000000
_cell_angle_gamma   70.57000000
_symmetry_Int_Tables_number   1
_chemical_formula_structural   ZnH9C16NO4F
_chemical_formula_sum   'Zn4 H36 C64 N4 O16 F4'
_cell_volume   2069.43424621
_cell_formula_units_Z   4
loop_
 _symmetry_equiv_pos_site_id
 _symmetry_equiv_pos_as_xyz
  1  'x, y, z'
loop_
 _atom_site_type_symbol
 _atom_site_label
 _atom_site_symmetry_multiplicity
 _atom_site_fract_x
 _atom_site_fract_y
 _atom_site_fract_z
 _atom_site_occupancy
 _atom_site_charge
  Zn  Zn1  1  0.343320  0.241760  0.576920  1.0  0.9295
  Zn  Zn2  1  0.318580  0.238090  0.739630  1.0  0.9166
  Zn  Zn3  1  0.656680  0.758240  0.423080  1.0  0.9295
  Zn  Zn4  1  0.681420  0.761910  0.260370  1.0  0.917
  H  H5  1  0.760100  0.210300  0.551700  1.0  0.0994
  H  H6  1  0.959500  0.243500  0.557300  1.0  0.107
  H  H7  1  0.909200  0.249800  0.774600  1.0  0.1146
  H  H8  1  0.711500  0.214100  0.769100  1.0  0.0993
  H  H9  1  0.360600  0.633200  0.544900  1.0  0.1066
  H  H10  1  0.366500  0.843500  0.546000  1.0  0.0942
  H  H11  1  0.321500  0.839400  0.764900  1.0  0.1078
  H  H12  1  0.309000  0.628800  0.763000  1.0  0.1075
  H  H13  1  0.350100  0.069500  0.453800  1.0  0.0821
  H  H14  1  0.338600  0.075400  0.331800  1.0  0.1167
  H  H15  1  0.304400  0.454700  0.330600  1.0  0.1171
  H  H16  1  0.316700  0.437600  0.453700  1.0  0.0868
  H  H17  1  0.447900  0.087000  0.217800  1.0  0.102
  H  H18  1  0.442100  0.084600  0.094500  1.0  0.096
  H  H19  1  0.506000  0.161400  0.980900  1.0  0.1319
  H  H20  1  0.501800  0.153000  0.856800  1.0  0.0785
  H  H21  1  0.128900  0.346900  0.866000  1.0  0.0847
  H  H22  1  0.121900  0.363600  0.989900  1.0  0.1089
  H  H23  1  0.239900  0.789700  0.448300  1.0  0.0988
  H  H24  1  0.040500  0.756500  0.442700  1.0  0.1072
  H  H25  1  0.090800  0.750200  0.225400  1.0  0.1124
  H  H26  1  0.288500  0.785900  0.230900  1.0  0.0992
  H  H27  1  0.639400  0.366800  0.455100  1.0  0.1061
  H  H28  1  0.633500  0.156500  0.454000  1.0  0.0952
  H  H29  1  0.678500  0.160600  0.235100  1.0  0.1068
  H  H30  1  0.691000  0.371200  0.237000  1.0  0.1068
  H  H31  1  0.649900  0.930500  0.546200  1.0  0.0816
  H  H32  1  0.661400  0.924600  0.668200  1.0  0.1165
  H  H33  1  0.695600  0.545300  0.669400  1.0  0.1173
  H  H34  1  0.683300  0.562400  0.546300  1.0  0.0862
  H  H35  1  0.552100  0.913000  0.782200  1.0  0.1017
  H  H36  1  0.557900  0.915400  0.905500  1.0  0.0965
  H  H37  1  0.494000  0.838600  0.019100  1.0  0.1321
  H  H38  1  0.498200  0.847000  0.143200  1.0  0.0779
  H  H39  1  0.871100  0.653100  0.134000  1.0  0.0849
  H  H40  1  0.878100  0.636400  0.010100  1.0  0.1094
  C  C41  1  0.713800  0.212400  0.659900  1.0  -0.1293
  C  C42  1  0.789100  0.219000  0.596300  1.0  -0.0534
  C  C43  1  0.909000  0.238800  0.599800  1.0  -0.0436
  C  C44  1  0.953200  0.251400  0.665800  1.0  -0.1147
  C  C45  1  0.879400  0.242300  0.730000  1.0  -0.0529
  C  C46  1  0.760500  0.221700  0.726500  1.0  -0.0439
  C  C47  1  0.580300  0.198700  0.657000  1.0  0.6663
  C  C48  1  0.084600  0.270800  0.669100  1.0  0.6815
  C  C49  1  0.332000  0.612500  0.654300  1.0  -0.1202
  C  C50  1  0.351200  0.675300  0.588700  1.0  -0.0512
  C  C51  1  0.355800  0.800900  0.589400  1.0  -0.0436
  C  C52  1  0.344700  0.863400  0.655000  1.0  -0.1307
  C  C53  1  0.327900  0.798800  0.721000  1.0  -0.0501
  C  C54  1  0.321000  0.671900  0.719900  1.0  -0.0562
  C  C55  1  0.320900  0.477400  0.653600  1.0  0.6864
  C  C56  1  0.349200  0.000500  0.655600  1.0  0.6623
  C  C57  1  0.340700  0.147500  0.428800  1.0  0.1775
  C  C58  1  0.334700  0.150200  0.355300  1.0  -0.1944
  C  C59  1  0.322600  0.264800  0.315100  1.0  0.1166
  C  C60  1  0.314300  0.375600  0.354400  1.0  -0.1932
  C  C61  1  0.321000  0.364500  0.428400  1.0  0.1701
  C  C62  1  0.320100  0.267300  0.234900  1.0  -0.0222
  C  C63  1  0.394600  0.159800  0.194300  1.0  -0.102
  C  C64  1  0.391400  0.158400  0.119600  1.0  -0.1295
  C  C65  1  0.314100  0.265300  0.081000  1.0  -0.0583
  C  C66  1  0.240400  0.372900  0.121600  1.0  0.163
  C  C67  1  0.244900  0.375900  0.196100  1.0  0.1668
  C  C68  1  0.311000  0.259900  0.001100  1.0  0.1149
  C  C69  1  0.427900  0.198300  0.959100  1.0  -0.2125
  C  C70  1  0.424100  0.193700  0.884200  1.0  0.1739
  C  C71  1  0.204900  0.308000  0.889400  1.0  0.1739
  C  C72  1  0.200000  0.317900  0.964400  1.0  -0.189
  C  C73  1  0.286200  0.787600  0.340100  1.0  -0.1297
  C  C74  1  0.210900  0.781000  0.403700  1.0  -0.0536
  C  C75  1  0.091000  0.761200  0.400200  1.0  -0.0431
  C  C76  1  0.046800  0.748600  0.334200  1.0  -0.116
  C  C77  1  0.120600  0.757700  0.270000  1.0  -0.053
  C  C78  1  0.239500  0.778300  0.273500  1.0  -0.045
  C  C79  1  0.419700  0.801300  0.343000  1.0  0.6654
  C  C80  1  0.915400  0.729200  0.330900  1.0  0.6816
  C  C81  1  0.668000  0.387500  0.345700  1.0  -0.1204
  C  C82  1  0.648800  0.324700  0.411300  1.0  -0.0506
  C  C83  1  0.644200  0.199100  0.410600  1.0  -0.0444
  C  C84  1  0.655300  0.136600  0.345000  1.0  -0.1285
  C  C85  1  0.672100  0.201200  0.279000  1.0  -0.0484
  C  C86  1  0.679000  0.328100  0.280100  1.0  -0.0556
  C  C87  1  0.679100  0.522600  0.346400  1.0  0.6856
  C  C88  1  0.650800  0.999500  0.344400  1.0  0.6613
  C  C89  1  0.659300  0.852500  0.571200  1.0  0.1774
  C  C90  1  0.665300  0.849800  0.644700  1.0  -0.1925
  C  C91  1  0.677400  0.735200  0.684900  1.0  0.1161
  C  C92  1  0.685700  0.624400  0.645600  1.0  -0.1936
  C  C93  1  0.679000  0.635500  0.571600  1.0  0.1689
  C  C94  1  0.679900  0.732700  0.765100  1.0  -0.0216
  C  C95  1  0.605400  0.840200  0.805700  1.0  -0.1023
  C  C96  1  0.608600  0.841600  0.880400  1.0  -0.13
  C  C97  1  0.685900  0.734700  0.919000  1.0  -0.0571
  C  C98  1  0.759600  0.627100  0.878400  1.0  0.1635
  C  C99  1  0.755100  0.624100  0.803900  1.0  0.17
  C  C100  1  0.689000  0.740100  0.998900  1.0  0.1175
  C  C101  1  0.572100  0.801700  0.040900  1.0  -0.2141
  C  C102  1  0.575900  0.806300  0.115800  1.0  0.1734
  C  C103  1  0.795100  0.692000  0.110600  1.0  0.1738
  C  C104  1  0.800000  0.682100  0.035600  1.0  -0.189
  N  N105  1  0.333800  0.251700  0.466900  1.0  -0.3318
  N  N106  1  0.314900  0.244500  0.849500  1.0  -0.3169
  N  N107  1  0.666200  0.748300  0.533100  1.0  -0.3336
  N  N108  1  0.685100  0.755500  0.150500  1.0  -0.3148
  O  O109  1  0.539500  0.197500  0.595700  1.0  -0.5715
  O  O110  1  0.517200  0.194800  0.717700  1.0  -0.6091
  O  O111  1  0.123600  0.274000  0.731300  1.0  -0.5953
  O  O112  1  0.145400  0.281600  0.609200  1.0  -0.5991
  O  O113  1  0.330900  0.427500  0.592200  1.0  -0.5876
  O  O114  1  0.304800  0.424700  0.713500  1.0  -0.6067
  O  O115  1  0.342200  0.050100  0.716200  1.0  -0.587
  O  O116  1  0.358800  0.052700  0.594200  1.0  -0.5738
  O  O117  1  0.460500  0.802500  0.404300  1.0  -0.5717
  O  O118  1  0.482800  0.805200  0.282300  1.0  -0.6112
  O  O119  1  0.876400  0.726000  0.268700  1.0  -0.5958
  O  O120  1  0.854600  0.718400  0.390800  1.0  -0.5975
  O  O121  1  0.669100  0.572500  0.407800  1.0  -0.588
  O  O122  1  0.695200  0.575300  0.286500  1.0  -0.6054
  O  O123  1  0.657800  0.949900  0.283800  1.0  -0.5871
  O  O124  1  0.641200  0.947300  0.405800  1.0  -0.5735
  F  F125  1  0.167400  0.484600  0.230900  1.0  -0.1136
  F  F126  1  0.164300  0.483800  0.088900  1.0  -0.1584
  F  F127  1  0.832600  0.515400  0.769100  1.0  -0.1137
  F  F128  1  0.835700  0.516200  0.911100  1.0  -0.1558
