# generated using pymatgen
data_ZnH9C16NO4F
_symmetry_space_group_name_H-M   'P 1'
_cell_length_a   10.90300000
_cell_length_b   10.96000000
_cell_length_c   14.84000000
_cell_angle_alpha   82.55000000
_cell_angle_beta   85.61000000
_cell_angle_gamma   88.79000000
_symmetry_Int_Tables_number   1
_chemical_formula_structural   ZnH9C16NO4F
_chemical_formula_sum   'Zn4 H36 C64 N4 O16 F4'
_cell_volume   1753.09274667
_cell_formula_units_Z   4
loop_
 _symmetry_equiv_pos_site_id
 _symmetry_equiv_pos_as_xyz
  1  'x, y, z'
loop_
 _atom_site_type_symbol
 _atom_site_label
 _atom_site_symmetry_multiplicity
 _atom_site_fract_x
 _atom_site_fract_y
 _atom_site_fract_z
 _atom_site_occupancy
 _atom_site_charge
  Zn  Zn1  1  0.449300  0.783830  0.394920  1.0  0.9233
  Zn  Zn2  1  0.451290  0.821840  0.189070  1.0  0.9439
  Zn  Zn3  1  0.550700  0.216170  0.605080  1.0  0.9237
  Zn  Zn4  1  0.548710  0.178160  0.810930  1.0  0.9447
  H  H5  1  0.863100  0.769800  0.441500  1.0  0.1084
  H  H6  1  0.074800  0.784200  0.414100  1.0  0.1068
  H  H7  1  0.035500  0.835500  0.141800  1.0  0.1245
  H  H8  1  0.825800  0.816000  0.172600  1.0  0.0873
  H  H9  1  0.371000  0.172400  0.420100  1.0  0.1055
  H  H10  1  0.371100  0.384600  0.422800  1.0  0.1074
  H  H11  1  0.523500  0.434700  0.164400  1.0  0.1026
  H  H12  1  0.531100  0.222200  0.161000  1.0  0.1228
  H  H13  1  0.361900  0.948600  0.532800  1.0  0.0743
  H  H14  1  0.212300  0.957600  0.650900  1.0  0.1227
  H  H15  1  0.160400  0.594800  0.651300  1.0  0.1228
  H  H16  1  0.311000  0.596300  0.531500  1.0  0.1001
  H  H17  1  0.937300  0.693500  0.674800  1.0  0.1102
  H  H18  1  0.773500  0.707600  0.783000  1.0  0.0955
  H  H19  1  0.691400  0.641700  0.938100  1.0  0.1247
  H  H20  1  0.531400  0.657200  0.046500  1.0  0.0904
  H  H21  1  0.615400  0.997000  0.065300  1.0  0.0808
  H  H22  1  0.782000  0.990900  0.959100  1.0  0.1289
  H  H23  1  0.136900  0.230200  0.558500  1.0  0.108
  H  H24  1  0.925200  0.215800  0.585900  1.0  0.1057
  H  H25  1  0.964500  0.164500  0.858200  1.0  0.1241
  H  H26  1  0.174200  0.184000  0.827400  1.0  0.0872
  H  H27  1  0.629000  0.827600  0.579900  1.0  0.1053
  H  H28  1  0.628900  0.615400  0.577200  1.0  0.1074
  H  H29  1  0.476500  0.565300  0.835600  1.0  0.1027
  H  H30  1  0.468900  0.777800  0.839000  1.0  0.124
  H  H31  1  0.638100  0.051400  0.467200  1.0  0.0742
  H  H32  1  0.787700  0.042400  0.349100  1.0  0.1214
  H  H33  1  0.839600  0.405200  0.348700  1.0  0.123
  H  H34  1  0.689000  0.403700  0.468500  1.0  0.1
  H  H35  1  0.062700  0.306500  0.325200  1.0  0.1105
  H  H36  1  0.226500  0.292400  0.217000  1.0  0.0947
  H  H37  1  0.308600  0.358300  0.061900  1.0  0.1244
  H  H38  1  0.468600  0.342800  0.953500  1.0  0.0907
  H  H39  1  0.384600  0.003000  0.934700  1.0  0.0807
  H  H40  1  0.218000  0.009100  0.040900  1.0  0.1294
  C  C41  1  0.822400  0.794200  0.309000  1.0  -0.1486
  C  C42  1  0.898000  0.782900  0.381900  1.0  -0.046
  C  C43  1  0.025200  0.791100  0.365400  1.0  -0.0438
  C  C44  1  0.078800  0.809700  0.276400  1.0  -0.0938
  C  C45  1  0.001800  0.821400  0.201700  1.0  -0.1018
  C  C46  1  0.876200  0.811200  0.220800  1.0  -0.0123
  C  C47  1  0.683300  0.788100  0.326000  1.0  0.6629
  C  C48  1  0.218300  0.815500  0.259000  1.0  0.6628
  C  C49  1  0.450900  0.175600  0.290500  1.0  -0.1364
  C  C50  1  0.402100  0.224500  0.369300  1.0  -0.0714
  C  C51  1  0.400900  0.352100  0.370400  1.0  -0.0448
  C  C52  1  0.444500  0.431900  0.292900  1.0  -0.124
  C  C53  1  0.493500  0.382100  0.215200  1.0  -0.0367
  C  C54  1  0.497900  0.254400  0.212700  1.0  -0.0792
  C  C55  1  0.454100  0.037800  0.289000  1.0  0.6772
  C  C56  1  0.444200  0.568300  0.294100  1.0  0.6941
  C  C57  1  0.319200  0.877400  0.555800  1.0  0.1824
  C  C58  1  0.230100  0.884000  0.627500  1.0  -0.1839
  C  C59  1  0.168600  0.775600  0.662800  1.0  0.01
  C  C60  1  0.199400  0.667800  0.627300  1.0  -0.1406
  C  C61  1  0.289600  0.669200  0.555000  1.0  0.1552
  C  C62  1  0.064900  0.780300  0.735400  1.0  0.016
  C  C63  1  0.948600  0.732100  0.725800  1.0  -0.1023
  C  C64  1  0.849200  0.740500  0.790900  1.0  -0.1181
  C  C65  1  0.865200  0.799900  0.869200  1.0  -0.0191
  C  C66  1  0.980400  0.847000  0.878800  1.0  0.2211
  C  C67  1  0.078100  0.836600  0.812700  1.0  0.1894
  C  C68  1  0.757900  0.812300  0.937100  1.0  0.0776
  C  C69  1  0.679200  0.714400  0.963800  1.0  -0.1566
  C  C70  1  0.582100  0.724600  0.028900  1.0  0.1729
  C  C71  1  0.632200  0.924400  0.040100  1.0  0.1552
  C  C72  1  0.733000  0.922100  0.975800  1.0  -0.1817
  C  C73  1  0.177600  0.205800  0.691000  1.0  -0.1478
  C  C74  1  0.102000  0.217100  0.618100  1.0  -0.0474
  C  C75  1  0.974800  0.208900  0.634600  1.0  -0.0438
  C  C76  1  0.921200  0.190300  0.723600  1.0  -0.0939
  C  C77  1  0.998200  0.178600  0.798300  1.0  -0.1009
  C  C78  1  0.123800  0.188800  0.779200  1.0  -0.011
  C  C79  1  0.316700  0.211900  0.674000  1.0  0.6628
  C  C80  1  0.781700  0.184500  0.741000  1.0  0.6619
  C  C81  1  0.549100  0.824400  0.709500  1.0  -0.1363
  C  C82  1  0.597900  0.775500  0.630700  1.0  -0.0739
  C  C83  1  0.599100  0.647900  0.629600  1.0  -0.0472
  C  C84  1  0.555500  0.568100  0.707100  1.0  -0.1259
  C  C85  1  0.506500  0.617900  0.784800  1.0  -0.0354
  C  C86  1  0.502100  0.745600  0.787300  1.0  -0.0783
  C  C87  1  0.545900  0.962200  0.711000  1.0  0.677
  C  C88  1  0.555800  0.431700  0.705900  1.0  0.6954
  C  C89  1  0.680800  0.122600  0.444200  1.0  0.184
  C  C90  1  0.769900  0.116000  0.372500  1.0  -0.1822
  C  C91  1  0.831400  0.224400  0.337200  1.0  0.0117
  C  C92  1  0.800600  0.332200  0.372700  1.0  -0.1422
  C  C93  1  0.710400  0.330800  0.445000  1.0  0.1575
  C  C94  1  0.935100  0.219700  0.264600  1.0  0.0172
  C  C95  1  0.051400  0.267900  0.274200  1.0  -0.1028
  C  C96  1  0.150800  0.259500  0.209100  1.0  -0.119
  C  C97  1  0.134800  0.200100  0.130800  1.0  -0.019
  C  C98  1  0.019600  0.153000  0.121200  1.0  0.2214
  C  C99  1  0.921900  0.163400  0.187300  1.0  0.1891
  C  C100  1  0.242100  0.187700  0.062900  1.0  0.0773
  C  C101  1  0.320800  0.285600  0.036200  1.0  -0.1578
  C  C102  1  0.417900  0.275400  0.971100  1.0  0.1724
  C  C103  1  0.367800  0.075600  0.959900  1.0  0.1572
  C  C104  1  0.267000  0.077900  0.024200  1.0  -0.1789
  N  N105  1  0.346900  0.775600  0.518300  1.0  -0.3305
  N  N106  1  0.558600  0.828100  0.067500  1.0  -0.3419
  N  N107  1  0.653100  0.224400  0.481700  1.0  -0.3282
  N  N108  1  0.441400  0.171900  0.932500  1.0  -0.3415
  O  O109  1  0.636800  0.778500  0.407400  1.0  -0.5872
  O  O110  1  0.622200  0.798900  0.257100  1.0  -0.6523
  O  O111  1  0.280000  0.805200  0.327600  1.0  -0.6806
  O  O112  1  0.264700  0.832100  0.176400  1.0  -0.5921
  O  O113  1  0.455400  0.971000  0.366900  1.0  -0.5887
  O  O114  1  0.457000  0.999100  0.211500  1.0  -0.5802
  O  O115  1  0.443300  0.634700  0.217300  1.0  -0.6013
  O  O116  1  0.444500  0.606100  0.372100  1.0  -0.5812
  O  O117  1  0.363200  0.221500  0.592600  1.0  -0.5881
  O  O118  1  0.377800  0.201100  0.742900  1.0  -0.6513
  O  O119  1  0.720000  0.194800  0.672400  1.0  -0.6818
  O  O120  1  0.735300  0.167900  0.823600  1.0  -0.5902
  O  O121  1  0.544600  0.029000  0.633100  1.0  -0.5896
  O  O122  1  0.543000  0.000900  0.788500  1.0  -0.5794
  O  O123  1  0.556700  0.365300  0.782700  1.0  -0.6013
  O  O124  1  0.555500  0.393900  0.627900  1.0  -0.5811
  F  F125  1  0.189000  0.881100  0.829500  1.0  -0.148
  F  F126  1  0.001900  0.900200  0.953400  1.0  -0.138
  F  F127  1  0.811000  0.118900  0.170500  1.0  -0.148
  F  F128  1  0.998100  0.099800  0.046600  1.0  -0.1393
