# generated using pymatgen
data_CuH3C7NO4
_symmetry_space_group_name_H-M   'P 1'
_cell_length_a   13.45660000
_cell_length_b   18.99750000
_cell_length_c   18.99750000
_cell_angle_alpha   120.00000000
_cell_angle_beta   90.00000000
_cell_angle_gamma   90.00000000
_symmetry_Int_Tables_number   1
_chemical_formula_structural   CuH3C7NO4
_chemical_formula_sum   'Cu12 H36 C84 N12 O48'
_cell_volume   4205.89940481
_cell_formula_units_Z   12
loop_
 _symmetry_equiv_pos_site_id
 _symmetry_equiv_pos_as_xyz
  1  'x, y, z'
loop_
 _atom_site_type_symbol
 _atom_site_label
 _atom_site_symmetry_multiplicity
 _atom_site_fract_x
 _atom_site_fract_y
 _atom_site_fract_z
 _atom_site_occupancy
 _atom_site_charge
  Cu  Cu1  1  0.738740  0.622780  0.811390  1.0  0.8982
  Cu  Cu2  1  0.906600  0.707320  0.853660  1.0  0.8239
  Cu  Cu3  1  0.738740  0.188610  0.377220  1.0  0.8968
  Cu  Cu4  1  0.906600  0.146340  0.292680  1.0  0.8236
  Cu  Cu5  1  0.738740  0.188610  0.811390  1.0  0.8968
  Cu  Cu6  1  0.906600  0.146340  0.853660  1.0  0.8236
  Cu  Cu7  1  0.238740  0.377220  0.188610  1.0  0.8983
  Cu  Cu8  1  0.406600  0.292680  0.146340  1.0  0.8238
  Cu  Cu9  1  0.238740  0.811390  0.622780  1.0  0.8958
  Cu  Cu10  1  0.406600  0.853660  0.707320  1.0  0.8239
  Cu  Cu11  1  0.238740  0.811390  0.188610  1.0  0.8967
  Cu  Cu12  1  0.406600  0.853660  0.146340  1.0  0.8239
  H  H13  1  0.039400  0.591600  0.613400  1.0  0.0869
  H  H14  1  0.571400  0.775100  0.755400  1.0  0.083
  H  H15  1  0.039400  0.021800  0.408400  1.0  0.0854
  H  H16  1  0.571400  0.980300  0.224900  1.0  0.0819
  H  H17  1  0.039400  0.386600  0.978200  1.0  0.0864
  H  H18  1  0.571400  0.244600  0.019700  1.0  0.0833
  H  H19  1  0.539400  0.408400  0.386600  1.0  0.0864
  H  H20  1  0.071400  0.224900  0.244600  1.0  0.0825
  H  H21  1  0.539400  0.978200  0.591600  1.0  0.0849
  H  H22  1  0.071400  0.019700  0.775100  1.0  0.082
  H  H23  1  0.539400  0.613400  0.021800  1.0  0.0866
  H  H24  1  0.071400  0.755400  0.980300  1.0  0.0835
  H  H25  1  0.039400  0.021800  0.613400  1.0  0.086
  H  H26  1  0.571400  0.980300  0.755400  1.0  0.082
  H  H27  1  0.039400  0.386600  0.408400  1.0  0.0873
  H  H28  1  0.571400  0.244600  0.224900  1.0  0.0833
  H  H29  1  0.039400  0.591600  0.978200  1.0  0.0874
  H  H30  1  0.571400  0.775100  0.019700  1.0  0.0826
  H  H31  1  0.539400  0.978200  0.386600  1.0  0.0865
  H  H32  1  0.071400  0.019700  0.244600  1.0  0.0822
  H  H33  1  0.539400  0.613400  0.591600  1.0  0.0879
  H  H34  1  0.071400  0.755400  0.775100  1.0  0.0835
  H  H35  1  0.539400  0.408400  0.021800  1.0  0.0877
  H  H36  1  0.071400  0.224900  0.980300  1.0  0.0826
  H  H37  1  0.821000  0.431350  0.568650  1.0  0.1273
  H  H38  1  0.821000  0.137300  0.568650  1.0  0.127
  H  H39  1  0.821000  0.431350  0.862700  1.0  0.1269
  H  H40  1  0.321000  0.568650  0.431350  1.0  0.1272
  H  H41  1  0.321000  0.862700  0.431350  1.0  0.1269
  H  H42  1  0.321000  0.568650  0.137300  1.0  0.1273
  H  H43  1  0.824900  0.899650  0.799300  1.0  0.1256
  H  H44  1  0.824900  0.899650  0.100350  1.0  0.1257
  H  H45  1  0.824900  0.200700  0.100350  1.0  0.1253
  H  H46  1  0.324900  0.100350  0.200700  1.0  0.1256
  H  H47  1  0.324900  0.100350  0.899650  1.0  0.1255
  H  H48  1  0.324900  0.799300  0.899650  1.0  0.1255
  C  C49  1  0.011300  0.540800  0.579700  1.0  0.2264
  C  C50  1  0.930600  0.518000  0.607200  1.0  -0.179
  C  C51  1  0.888200  0.571500  0.691000  1.0  0.6769
  C  C52  1  0.605500  0.820500  0.761900  1.0  0.2218
  C  C53  1  0.705900  0.826600  0.780100  1.0  -0.2202
  C  C54  1  0.755100  0.763800  0.792800  1.0  0.6951
  C  C55  1  0.011300  0.038900  0.459200  1.0  0.2241
  C  C56  1  0.930600  0.089200  0.482000  1.0  -0.1784
  C  C57  1  0.888200  0.119500  0.428500  1.0  0.677
  C  C58  1  0.605500  0.941400  0.179500  1.0  0.2208
  C  C59  1  0.705900  0.953500  0.173400  1.0  -0.2203
  C  C60  1  0.755100  0.029000  0.236200  1.0  0.6953
  C  C61  1  0.011300  0.420300  0.961100  1.0  0.2227
  C  C62  1  0.930600  0.392800  0.910800  1.0  -0.1782
  C  C63  1  0.888200  0.309000  0.880500  1.0  0.6765
  C  C64  1  0.605500  0.238100  0.058600  1.0  0.2202
  C  C65  1  0.705900  0.219900  0.046500  1.0  -0.2222
  C  C66  1  0.755100  0.207200  0.971000  1.0  0.6953
  C  C67  1  0.511300  0.459200  0.420300  1.0  0.2249
  C  C68  1  0.430600  0.482000  0.392800  1.0  -0.1788
  C  C69  1  0.388200  0.428500  0.309000  1.0  0.6769
  C  C70  1  0.105500  0.179500  0.238100  1.0  0.2216
  C  C71  1  0.205900  0.173400  0.219900  1.0  -0.2205
  C  C72  1  0.255100  0.236200  0.207200  1.0  0.6947
  C  C73  1  0.511300  0.961100  0.540800  1.0  0.2254
  C  C74  1  0.430600  0.910800  0.518000  1.0  -0.1787
  C  C75  1  0.388200  0.880500  0.571500  1.0  0.6758
  C  C76  1  0.105500  0.058600  0.820500  1.0  0.221
  C  C77  1  0.205900  0.046500  0.826600  1.0  -0.2201
  C  C78  1  0.255100  0.971000  0.763800  1.0  0.6956
  C  C79  1  0.511300  0.579700  0.038900  1.0  0.2231
  C  C80  1  0.430600  0.607200  0.089200  1.0  -0.1786
  C  C81  1  0.388200  0.691000  0.119500  1.0  0.6767
  C  C82  1  0.105500  0.761900  0.941400  1.0  0.2208
  C  C83  1  0.205900  0.780100  0.953500  1.0  -0.2219
  C  C84  1  0.255100  0.792800  0.029000  1.0  0.6959
  C  C85  1  0.011300  0.038900  0.579700  1.0  0.2249
  C  C86  1  0.930600  0.089200  0.607200  1.0  -0.1787
  C  C87  1  0.888200  0.119500  0.691000  1.0  0.6761
  C  C88  1  0.605500  0.941400  0.761900  1.0  0.2207
  C  C89  1  0.705900  0.953500  0.780100  1.0  -0.2202
  C  C90  1  0.755100  0.029000  0.792800  1.0  0.6951
  C  C91  1  0.011300  0.420300  0.459200  1.0  0.2214
  C  C92  1  0.930600  0.392800  0.482000  1.0  -0.1782
  C  C93  1  0.888200  0.309000  0.428500  1.0  0.6766
  C  C94  1  0.605500  0.238100  0.179500  1.0  0.2206
  C  C95  1  0.705900  0.219900  0.173400  1.0  -0.2221
  C  C96  1  0.755100  0.207200  0.236200  1.0  0.6954
  C  C97  1  0.011300  0.540800  0.961100  1.0  0.2244
  C  C98  1  0.930600  0.518000  0.910800  1.0  -0.1788
  C  C99  1  0.888200  0.571500  0.880500  1.0  0.6772
  C  C100  1  0.605500  0.820500  0.058600  1.0  0.2212
  C  C101  1  0.705900  0.826600  0.046500  1.0  -0.2204
  C  C102  1  0.755100  0.763800  0.971000  1.0  0.6946
  C  C103  1  0.511300  0.961100  0.420300  1.0  0.2236
  C  C104  1  0.430600  0.910800  0.392800  1.0  -0.1789
  C  C105  1  0.388200  0.880500  0.309000  1.0  0.6767
  C  C106  1  0.105500  0.058600  0.238100  1.0  0.2212
  C  C107  1  0.205900  0.046500  0.219900  1.0  -0.22
  C  C108  1  0.255100  0.971000  0.207200  1.0  0.6958
  C  C109  1  0.511300  0.579700  0.540800  1.0  0.2223
  C  C110  1  0.430600  0.607200  0.518000  1.0  -0.1786
  C  C111  1  0.388200  0.691000  0.571500  1.0  0.6765
  C  C112  1  0.105500  0.761900  0.820500  1.0  0.2202
  C  C113  1  0.205900  0.780100  0.826600  1.0  -0.222
  C  C114  1  0.255100  0.792800  0.763800  1.0  0.6958
  C  C115  1  0.511300  0.459200  0.038900  1.0  0.2237
  C  C116  1  0.430600  0.482000  0.089200  1.0  -0.1791
  C  C117  1  0.388200  0.428500  0.119500  1.0  0.6766
  C  C118  1  0.105500  0.179500  0.941400  1.0  0.222
  C  C119  1  0.205900  0.173400  0.953500  1.0  -0.2204
  C  C120  1  0.255100  0.236200  0.029000  1.0  0.6951
  C  C121  1  0.884400  0.444000  0.556000  1.0  0.0284
  C  C122  1  0.884400  0.112000  0.556000  1.0  0.0282
  C  C123  1  0.884400  0.444000  0.888000  1.0  0.0283
  C  C124  1  0.384400  0.556000  0.444000  1.0  0.0278
  C  C125  1  0.384400  0.888000  0.444000  1.0  0.0285
  C  C126  1  0.384400  0.556000  0.112000  1.0  0.0274
  C  C127  1  0.757100  0.894200  0.788400  1.0  0.055
  C  C128  1  0.757100  0.894200  0.105800  1.0  0.0549
  C  C129  1  0.757100  0.211600  0.105800  1.0  0.0548
  C  C130  1  0.257100  0.105800  0.211600  1.0  0.0547
  C  C131  1  0.257100  0.105800  0.894200  1.0  0.0548
  C  C132  1  0.257100  0.788400  0.894200  1.0  0.0545
  N  N133  1  0.051400  0.493450  0.506550  1.0  -0.4144
  N  N134  1  0.051400  0.013100  0.506550  1.0  -0.4146
  N  N135  1  0.051400  0.493450  0.986900  1.0  -0.4146
  N  N136  1  0.551400  0.506550  0.493450  1.0  -0.4145
  N  N137  1  0.551400  0.986900  0.493450  1.0  -0.415
  N  N138  1  0.551400  0.506550  0.013100  1.0  -0.4153
  N  N139  1  0.554500  0.876530  0.753060  1.0  -0.328
  N  N140  1  0.554500  0.876530  0.123470  1.0  -0.3285
  N  N141  1  0.554500  0.246940  0.123470  1.0  -0.3278
  N  N142  1  0.054500  0.123470  0.246940  1.0  -0.3285
  N  N143  1  0.054500  0.123470  0.876530  1.0  -0.3279
  N  N144  1  0.054500  0.753060  0.876530  1.0  -0.3273
  O  O145  1  0.802400  0.555700  0.705700  1.0  -0.5613
  O  O146  1  0.942700  0.628900  0.741100  1.0  -0.5596
  O  O147  1  0.702300  0.703800  0.780400  1.0  -0.5776
  O  O148  1  0.843400  0.775800  0.815600  1.0  -0.5447
  O  O149  1  0.802400  0.150000  0.444300  1.0  -0.5607
  O  O150  1  0.942700  0.112200  0.371100  1.0  -0.5587
  O  O151  1  0.702300  0.076600  0.296200  1.0  -0.5782
  O  O152  1  0.843400  0.039800  0.224200  1.0  -0.5456
  O  O153  1  0.802400  0.294300  0.850000  1.0  -0.5602
  O  O154  1  0.942700  0.258900  0.887800  1.0  -0.5602
  O  O155  1  0.702300  0.219600  0.923400  1.0  -0.5769
  O  O156  1  0.843400  0.184400  0.960200  1.0  -0.5466
  O  O157  1  0.302400  0.444300  0.294300  1.0  -0.5613
  O  O158  1  0.442700  0.371100  0.258900  1.0  -0.5594
  O  O159  1  0.202300  0.296200  0.219600  1.0  -0.5778
  O  O160  1  0.343400  0.224200  0.184400  1.0  -0.5453
  O  O161  1  0.302400  0.850000  0.555700  1.0  -0.5606
  O  O162  1  0.442700  0.887800  0.628900  1.0  -0.5601
  O  O163  1  0.202300  0.923400  0.703800  1.0  -0.5784
  O  O164  1  0.343400  0.960200  0.775800  1.0  -0.5463
  O  O165  1  0.302400  0.705700  0.150000  1.0  -0.5604
  O  O166  1  0.442700  0.741100  0.112200  1.0  -0.56
  O  O167  1  0.202300  0.780400  0.076600  1.0  -0.5767
  O  O168  1  0.343400  0.815600  0.039800  1.0  -0.5458
  O  O169  1  0.802400  0.150000  0.705700  1.0  -0.5599
  O  O170  1  0.942700  0.112200  0.741100  1.0  -0.5599
  O  O171  1  0.702300  0.076600  0.780400  1.0  -0.5779
  O  O172  1  0.843400  0.039800  0.815600  1.0  -0.546
  O  O173  1  0.802400  0.294300  0.444300  1.0  -0.5602
  O  O174  1  0.942700  0.258900  0.371100  1.0  -0.5601
  O  O175  1  0.702300  0.219600  0.296200  1.0  -0.5771
  O  O176  1  0.843400  0.184400  0.224200  1.0  -0.5458
  O  O177  1  0.802400  0.555700  0.850000  1.0  -0.5612
  O  O178  1  0.942700  0.628900  0.887800  1.0  -0.5594
  O  O179  1  0.702300  0.703800  0.923400  1.0  -0.5774
  O  O180  1  0.843400  0.775800  0.960200  1.0  -0.544
  O  O181  1  0.302400  0.850000  0.294300  1.0  -0.5606
  O  O182  1  0.442700  0.887800  0.258900  1.0  -0.5589
  O  O183  1  0.202300  0.923400  0.219600  1.0  -0.5787
  O  O184  1  0.343400  0.960200  0.184400  1.0  -0.5452
  O  O185  1  0.302400  0.705700  0.555700  1.0  -0.5603
  O  O186  1  0.442700  0.741100  0.628900  1.0  -0.56
  O  O187  1  0.202300  0.780400  0.703800  1.0  -0.5774
  O  O188  1  0.343400  0.815600  0.775800  1.0  -0.5463
  O  O189  1  0.302400  0.444300  0.150000  1.0  -0.5611
  O  O190  1  0.442700  0.371100  0.112200  1.0  -0.5594
  O  O191  1  0.202300  0.296200  0.076600  1.0  -0.5777
  O  O192  1  0.343400  0.224200  0.039800  1.0  -0.545
