# generated using pymatgen
data_La(CO)6
_symmetry_space_group_name_H-M   'P 1'
_cell_length_a   8.30700000
_cell_length_b   8.76900000
_cell_length_c   9.20400000
_cell_angle_alpha   95.63000000
_cell_angle_beta   115.61000000
_cell_angle_gamma   110.26000000
_symmetry_Int_Tables_number   1
_chemical_formula_structural   La(CO)6
_chemical_formula_sum   'La2 C12 O12'
_cell_volume   542.30939184
_cell_formula_units_Z   2
loop_
 _symmetry_equiv_pos_site_id
 _symmetry_equiv_pos_as_xyz
  1  'x, y, z'
loop_
 _atom_site_type_symbol
 _atom_site_label
 _atom_site_symmetry_multiplicity
 _atom_site_fract_x
 _atom_site_fract_y
 _atom_site_fract_z
 _atom_site_occupancy
 _atom_site_charge
  La  La1  1  0.920080  0.991410  0.730320  1.0  2.2478
  La  La2  1  0.079920  0.008590  0.269680  1.0  2.248
  C  C3  1  0.328700  0.995200  0.107600  1.0  0.7815
  C  C4  1  0.453400  0.998800  0.033400  1.0  -0.1207
  C  C5  1  0.150800  0.445100  0.889900  1.0  0.7633
  C  C6  1  0.331400  0.575900  0.040100  1.0  -0.0633
  C  C7  1  0.475800  0.674500  0.165300  1.0  -0.2019
  C  C8  1  0.650900  0.789900  0.324900  1.0  0.8731
  C  C9  1  0.671300  0.004800  0.892400  1.0  0.7754
  C  C10  1  0.546600  0.001200  0.966600  1.0  -0.1217
  C  C11  1  0.849200  0.554900  0.110100  1.0  0.7634
  C  C12  1  0.668600  0.424100  0.959900  1.0  -0.0624
  C  C13  1  0.524200  0.325500  0.834700  1.0  -0.2013
  C  C14  1  0.349100  0.210100  0.675100  1.0  0.873
  O  O15  1  0.154600  0.974000  0.011300  1.0  -0.7976
  O  O16  1  0.395900  0.012400  0.262600  1.0  -0.619
  O  O17  1  0.093900  0.298800  0.906100  1.0  -0.7443
  O  O18  1  0.072700  0.488500  0.763100  1.0  -0.5969
  O  O19  1  0.628900  0.799700  0.450300  1.0  -0.6994
  O  O20  1  0.809100  0.870500  0.327500  1.0  -0.8226
  O  O21  1  0.845400  0.026000  0.988700  1.0  -0.7971
  O  O22  1  0.604100  0.987600  0.737400  1.0  -0.6206
  O  O23  1  0.906100  0.701200  0.093900  1.0  -0.7453
  O  O24  1  0.927300  0.511500  0.236900  1.0  -0.5954
  O  O25  1  0.371100  0.200300  0.549700  1.0  -0.6991
  O  O26  1  0.190900  0.129500  0.672500  1.0  -0.8168
