# generated using pymatgen
data_Mn5H24(C7N3)6
_symmetry_space_group_name_H-M   'P 1'
_cell_length_a   16.20790000
_cell_length_b   17.83300000
_cell_length_c   11.65080000
_cell_angle_alpha   90.00000000
_cell_angle_beta   90.00000000
_cell_angle_gamma   90.00000000
_symmetry_Int_Tables_number   1
_chemical_formula_structural   Mn5H24(C7N3)6
_chemical_formula_sum   'Mn10 H48 C84 N36'
_cell_volume   3367.49457854
_cell_formula_units_Z   2
loop_
 _symmetry_equiv_pos_site_id
 _symmetry_equiv_pos_as_xyz
  1  'x, y, z'
loop_
 _atom_site_type_symbol
 _atom_site_label
 _atom_site_symmetry_multiplicity
 _atom_site_fract_x
 _atom_site_fract_y
 _atom_site_fract_z
 _atom_site_occupancy
 _atom_site_charge
  Mn  Mn1  1  0.199400  0.399710  0.000000  1.0  -0.063
  Mn  Mn2  1  0.389220  0.178370  0.000000  1.0  1.0121
  Mn  Mn3  1  0.800600  0.600290  0.000000  1.0  -0.0631
  Mn  Mn4  1  0.610780  0.821630  0.000000  1.0  1.0117
  Mn  Mn5  1  0.300600  0.899710  0.000000  1.0  -0.0631
  Mn  Mn6  1  0.110780  0.678370  0.000000  1.0  1.013
  Mn  Mn7  1  0.699400  0.100290  0.000000  1.0  -0.0624
  Mn  Mn8  1  0.889220  0.321630  0.000000  1.0  1.0108
  Mn  Mn9  1  0.500000  0.500000  0.000000  1.0  1.0836
  Mn  Mn10  1  0.000000  0.000000  0.000000  1.0  1.0836
  H  H11  1  0.429640  0.413050  0.784160  1.0  0.075
  H  H12  1  0.428700  0.410130  0.589030  1.0  0.117
  H  H13  1  0.460550  0.091980  0.785860  1.0  0.0779
  H  H14  1  0.468210  0.092490  0.589510  1.0  0.1257
  H  H15  1  0.333110  0.278840  0.587710  1.0  0.119
  H  H16  1  0.328280  0.272980  0.783830  1.0  0.0718
  H  H17  1  0.570360  0.586950  0.784160  1.0  0.0744
  H  H18  1  0.571300  0.589870  0.589030  1.0  0.1158
  H  H19  1  0.539450  0.908020  0.785860  1.0  0.0779
  H  H20  1  0.531790  0.907510  0.589510  1.0  0.1257
  H  H21  1  0.666890  0.721160  0.587710  1.0  0.1186
  H  H22  1  0.671720  0.727020  0.783830  1.0  0.0717
  H  H23  1  0.070360  0.913050  0.215840  1.0  0.0749
  H  H24  1  0.071300  0.910130  0.410970  1.0  0.1161
  H  H25  1  0.039450  0.591980  0.214140  1.0  0.0782
  H  H26  1  0.031790  0.592490  0.410490  1.0  0.1264
  H  H27  1  0.166890  0.778840  0.412290  1.0  0.1184
  H  H28  1  0.171720  0.772980  0.216170  1.0  0.072
  H  H29  1  0.929640  0.086950  0.215840  1.0  0.0747
  H  H30  1  0.928700  0.089870  0.410970  1.0  0.1171
  H  H31  1  0.960550  0.408020  0.214140  1.0  0.0785
  H  H32  1  0.968210  0.407510  0.410490  1.0  0.1259
  H  H33  1  0.833110  0.221160  0.412290  1.0  0.1191
  H  H34  1  0.828280  0.227020  0.216170  1.0  0.0722
  H  H35  1  0.570360  0.586950  0.215840  1.0  0.0745
  H  H36  1  0.571300  0.589870  0.410970  1.0  0.1165
  H  H37  1  0.539450  0.908020  0.214140  1.0  0.0782
  H  H38  1  0.531790  0.907510  0.410490  1.0  0.1262
  H  H39  1  0.666890  0.721160  0.412290  1.0  0.1198
  H  H40  1  0.671720  0.727020  0.216170  1.0  0.0723
  H  H41  1  0.429640  0.413050  0.215840  1.0  0.0749
  H  H42  1  0.428700  0.410130  0.410970  1.0  0.1173
  H  H43  1  0.460550  0.091980  0.214140  1.0  0.0782
  H  H44  1  0.468210  0.092490  0.410490  1.0  0.1263
  H  H45  1  0.333110  0.278840  0.412290  1.0  0.1199
  H  H46  1  0.328280  0.272980  0.216170  1.0  0.0723
  H  H47  1  0.929640  0.086950  0.784160  1.0  0.0745
  H  H48  1  0.928700  0.089870  0.589030  1.0  0.1175
  H  H49  1  0.960550  0.408020  0.785860  1.0  0.0782
  H  H50  1  0.968210  0.407510  0.589510  1.0  0.1255
  H  H51  1  0.833110  0.221160  0.587710  1.0  0.12
  H  H52  1  0.828280  0.227020  0.783830  1.0  0.0716
  H  H53  1  0.070360  0.913050  0.784160  1.0  0.0752
  H  H54  1  0.071300  0.910130  0.589030  1.0  0.1165
  H  H55  1  0.039450  0.591980  0.785860  1.0  0.0779
  H  H56  1  0.031790  0.592490  0.589510  1.0  0.1259
  H  H57  1  0.166890  0.778840  0.587710  1.0  0.1196
  H  H58  1  0.171720  0.772980  0.783830  1.0  0.0714
  C  C59  1  0.198900  0.399900  0.835700  1.0  0.1935
  C  C60  1  0.459300  0.449500  0.744600  1.0  0.1838
  C  C61  1  0.458200  0.447500  0.626600  1.0  -0.1933
  C  C62  1  0.433900  0.130000  0.745700  1.0  0.1693
  C  C63  1  0.438800  0.130000  0.626900  1.0  -0.1835
  C  C64  1  0.400160  0.185450  0.563700  1.0  0.0796
  C  C65  1  0.359200  0.239570  0.625600  1.0  -0.2047
  C  C66  1  0.356700  0.235760  0.744400  1.0  0.1757
  C  C67  1  0.801100  0.600100  0.835700  1.0  0.1936
  C  C68  1  0.540700  0.550500  0.744600  1.0  0.1831
  C  C69  1  0.541800  0.552500  0.626600  1.0  -0.194
  C  C70  1  0.566100  0.870000  0.745700  1.0  0.1681
  C  C71  1  0.561200  0.870000  0.626900  1.0  -0.1836
  C  C72  1  0.599840  0.814550  0.563700  1.0  0.08
  C  C73  1  0.640800  0.760430  0.625600  1.0  -0.2055
  C  C74  1  0.643300  0.764240  0.744400  1.0  0.1755
  C  C75  1  0.301100  0.899900  0.164300  1.0  0.194
  C  C76  1  0.040700  0.949500  0.255400  1.0  0.1839
  C  C77  1  0.041800  0.947500  0.373400  1.0  -0.1937
  C  C78  1  0.066100  0.630000  0.254300  1.0  0.1688
  C  C79  1  0.061200  0.630000  0.373100  1.0  -0.1826
  C  C80  1  0.099840  0.685450  0.436300  1.0  0.08
  C  C81  1  0.140800  0.739570  0.374400  1.0  -0.2053
  C  C82  1  0.143300  0.735760  0.255600  1.0  0.1757
  C  C83  1  0.698900  0.100100  0.164300  1.0  0.1942
  C  C84  1  0.959300  0.050500  0.255400  1.0  0.1842
  C  C85  1  0.958200  0.052500  0.373400  1.0  -0.1937
  C  C86  1  0.933900  0.370000  0.254300  1.0  0.1686
  C  C87  1  0.938800  0.370000  0.373100  1.0  -0.1849
  C  C88  1  0.900160  0.314550  0.436300  1.0  0.0803
  C  C89  1  0.859200  0.260430  0.374400  1.0  -0.2051
  C  C90  1  0.856700  0.264240  0.255600  1.0  0.1753
  C  C91  1  0.801100  0.600100  0.164300  1.0  0.1941
  C  C92  1  0.540700  0.550500  0.255400  1.0  0.1834
  C  C93  1  0.541800  0.552500  0.373400  1.0  -0.1945
  C  C94  1  0.566100  0.870000  0.254300  1.0  0.1688
  C  C95  1  0.561200  0.870000  0.373100  1.0  -0.1841
  C  C96  1  0.599840  0.814550  0.436300  1.0  0.0804
  C  C97  1  0.640800  0.760430  0.374400  1.0  -0.2007
  C  C98  1  0.643300  0.764240  0.255600  1.0  0.1755
  C  C99  1  0.198900  0.399900  0.164300  1.0  0.1942
  C  C100  1  0.459300  0.449500  0.255400  1.0  0.1846
  C  C101  1  0.458200  0.447500  0.373400  1.0  -0.1933
  C  C102  1  0.433900  0.130000  0.254300  1.0  0.1686
  C  C103  1  0.438800  0.130000  0.373100  1.0  -0.1833
  C  C104  1  0.400160  0.185450  0.436300  1.0  0.0798
  C  C105  1  0.359200  0.239570  0.374400  1.0  -0.1999
  C  C106  1  0.356700  0.235760  0.255600  1.0  0.1753
  C  C107  1  0.698900  0.100100  0.835700  1.0  0.1935
  C  C108  1  0.959300  0.050500  0.744600  1.0  0.1833
  C  C109  1  0.958200  0.052500  0.626600  1.0  -0.1932
  C  C110  1  0.933900  0.370000  0.745700  1.0  0.1682
  C  C111  1  0.938800  0.370000  0.626900  1.0  -0.1845
  C  C112  1  0.900160  0.314550  0.563700  1.0  0.08
  C  C113  1  0.859200  0.260430  0.625600  1.0  -0.2003
  C  C114  1  0.856700  0.264240  0.744400  1.0  0.1753
  C  C115  1  0.301100  0.899900  0.835700  1.0  0.1936
  C  C116  1  0.040700  0.949500  0.744600  1.0  0.1837
  C  C117  1  0.041800  0.947500  0.626600  1.0  -0.1937
  C  C118  1  0.066100  0.630000  0.745700  1.0  0.1692
  C  C119  1  0.061200  0.630000  0.626900  1.0  -0.1828
  C  C120  1  0.099840  0.685450  0.563700  1.0  0.0798
  C  C121  1  0.140800  0.739570  0.625600  1.0  -0.2005
  C  C122  1  0.143300  0.735760  0.744400  1.0  0.176
  C  C123  1  0.088400  0.368890  0.000000  1.0  0.1719
  C  C124  1  0.166700  0.501200  0.000000  1.0  0.2074
  C  C125  1  0.238500  0.299800  0.000000  1.0  0.1606
  C  C126  1  0.309800  0.431460  0.000000  1.0  0.2221
  C  C127  1  0.911600  0.631110  0.000000  1.0  0.1759
  C  C128  1  0.833300  0.498800  0.000000  1.0  0.2081
  C  C129  1  0.761500  0.700200  0.000000  1.0  0.1589
  C  C130  1  0.690200  0.568540  0.000000  1.0  0.2224
  C  C131  1  0.411600  0.868890  0.000000  1.0  0.1766
  C  C132  1  0.333333  0.001200  0.000000  1.0  0.2074
  C  C133  1  0.261500  0.799800  0.000000  1.0  0.1611
  C  C134  1  0.190200  0.931460  0.000000  1.0  0.2212
  C  C135  1  0.588400  0.131110  0.000000  1.0  0.1716
  C  C136  1  0.666667  0.998800  0.000000  1.0  0.2084
  C  C137  1  0.738500  0.200200  0.000000  1.0  0.1581
  C  C138  1  0.809800  0.068540  0.000000  1.0  0.2233
  C  C139  1  0.500000  0.500000  0.564000  1.0  0.0904
  C  C140  1  0.000000  0.000000  0.436000  1.0  0.0906
  C  C141  1  0.500000  0.500000  0.436000  1.0  0.0906
  C  C142  1  0.000000  0.000000  0.564000  1.0  0.0904
  N  N143  1  0.200290  0.400810  0.736700  1.0  -0.4285
  N  N144  1  0.392880  0.181720  0.805010  1.0  -0.351
  N  N145  1  0.799710  0.599190  0.736700  1.0  -0.4278
  N  N146  1  0.607120  0.818280  0.805010  1.0  -0.3507
  N  N147  1  0.299710  0.900810  0.263300  1.0  -0.4287
  N  N148  1  0.107120  0.681720  0.194990  1.0  -0.3489
  N  N149  1  0.700290  0.099190  0.263300  1.0  -0.4282
  N  N150  1  0.892880  0.318280  0.194990  1.0  -0.3488
  N  N151  1  0.799710  0.599190  0.263300  1.0  -0.4285
  N  N152  1  0.607120  0.818280  0.194990  1.0  -0.3488
  N  N153  1  0.200290  0.400810  0.263300  1.0  -0.4284
  N  N154  1  0.392880  0.181720  0.194990  1.0  -0.3489
  N  N155  1  0.700290  0.099190  0.736700  1.0  -0.4285
  N  N156  1  0.892880  0.318280  0.805010  1.0  -0.3509
  N  N157  1  0.299710  0.900810  0.736700  1.0  -0.4279
  N  N158  1  0.107120  0.681720  0.805010  1.0  -0.3508
  N  N159  1  0.020510  0.350990  0.000000  1.0  -0.5031
  N  N160  1  0.150600  0.563650  0.000000  1.0  -0.4436
  N  N161  1  0.271240  0.242510  0.000000  1.0  -0.5199
  N  N162  1  0.377880  0.448240  0.000000  1.0  -0.5622
  N  N163  1  0.979490  0.649010  0.000000  1.0  -0.5068
  N  N164  1  0.849400  0.436350  0.000000  1.0  -0.4437
  N  N165  1  0.728760  0.757490  0.000000  1.0  -0.5211
  N  N166  1  0.622120  0.551760  0.000000  1.0  -0.5611
  N  N167  1  0.479490  0.850990  0.000000  1.0  -0.5043
  N  N168  1  0.349400  0.063650  0.000000  1.0  -0.4433
  N  N169  1  0.228760  0.742510  0.000000  1.0  -0.5206
  N  N170  1  0.122120  0.948240  0.000000  1.0  -0.5613
  N  N171  1  0.520510  0.149010  0.000000  1.0  -0.5051
  N  N172  1  0.650600  0.936350  0.000000  1.0  -0.4442
  N  N173  1  0.771240  0.257490  0.000000  1.0  -0.5214
  N  N174  1  0.877880  0.051760  0.000000  1.0  -0.5617
  N  N175  1  0.500000  0.500000  0.805100  1.0  -0.3763
  N  N176  1  0.000000  0.000000  0.194900  1.0  -0.3736
  N  N177  1  0.500000  0.500000  0.194900  1.0  -0.3736
  N  N178  1  0.000000  0.000000  0.805100  1.0  -0.3763
