# generated using pymatgen
data_Mn5H24(C7N3)6
_symmetry_space_group_name_H-M   'P 1'
_cell_length_a   16.03900000
_cell_length_b   17.85100000
_cell_length_c   11.55800000
_cell_angle_alpha   90.00000000
_cell_angle_beta   90.00000000
_cell_angle_gamma   90.00000000
_symmetry_Int_Tables_number   1
_chemical_formula_structural   Mn5H24(C7N3)6
_chemical_formula_sum   'Mn10 H48 C84 N36'
_cell_volume   3309.19628046
_cell_formula_units_Z   2
loop_
 _symmetry_equiv_pos_site_id
 _symmetry_equiv_pos_as_xyz
  1  'x, y, z'
loop_
 _atom_site_type_symbol
 _atom_site_label
 _atom_site_symmetry_multiplicity
 _atom_site_fract_x
 _atom_site_fract_y
 _atom_site_fract_z
 _atom_site_occupancy
 _atom_site_charge
  Mn  Mn1  1  0.199650  0.390830  0.000000  1.0  0.7891
  Mn  Mn2  1  0.393210  0.168580  0.000000  1.0  1.0127
  Mn  Mn3  1  0.800350  0.609170  0.000000  1.0  0.7862
  Mn  Mn4  1  0.606790  0.831420  0.000000  1.0  1.0127
  Mn  Mn5  1  0.300350  0.890830  0.000000  1.0  0.7873
  Mn  Mn6  1  0.106790  0.668580  0.000000  1.0  1.0128
  Mn  Mn7  1  0.699650  0.109170  0.000000  1.0  0.7882
  Mn  Mn8  1  0.893210  0.331420  0.000000  1.0  1.0127
  Mn  Mn9  1  0.500000  0.500000  0.000000  1.0  1.1681
  Mn  Mn10  1  0.000000  0.000000  0.000000  1.0  1.1681
  H  H11  1  0.430110  0.414590  0.214970  1.0  0.0503
  H  H12  1  0.430110  0.408950  0.407520  1.0  0.0822
  H  H13  1  0.473360  0.095520  0.215390  1.0  0.0296
  H  H14  1  0.482890  0.096170  0.408070  1.0  0.0996
  H  H15  1  0.339090  0.275000  0.413450  1.0  0.0914
  H  H16  1  0.334030  0.268870  0.215870  1.0  0.053
  H  H17  1  0.569890  0.585410  0.214970  1.0  0.0499
  H  H18  1  0.569890  0.591050  0.407520  1.0  0.082
  H  H19  1  0.526640  0.904480  0.215390  1.0  0.0301
  H  H20  1  0.517110  0.903830  0.408070  1.0  0.0997
  H  H21  1  0.660910  0.725000  0.413450  1.0  0.0903
  H  H22  1  0.665970  0.731130  0.215870  1.0  0.0532
  H  H23  1  0.069890  0.914590  0.785030  1.0  0.0504
  H  H24  1  0.069890  0.908950  0.592480  1.0  0.082
  H  H25  1  0.026640  0.595520  0.784610  1.0  0.0297
  H  H26  1  0.017110  0.596170  0.591930  1.0  0.0999
  H  H27  1  0.160910  0.775000  0.586550  1.0  0.0911
  H  H28  1  0.165970  0.768870  0.784130  1.0  0.0529
  H  H29  1  0.930110  0.085410  0.785030  1.0  0.0501
  H  H30  1  0.930110  0.091050  0.592480  1.0  0.0824
  H  H31  1  0.973360  0.404480  0.784610  1.0  0.029
  H  H32  1  0.982890  0.403830  0.591930  1.0  0.0991
  H  H33  1  0.839090  0.225000  0.586550  1.0  0.0909
  H  H34  1  0.834030  0.231130  0.784130  1.0  0.0528
  H  H35  1  0.569890  0.585410  0.785030  1.0  0.0498
  H  H36  1  0.569890  0.591050  0.592480  1.0  0.083
  H  H37  1  0.526640  0.904480  0.784610  1.0  0.0295
  H  H38  1  0.517110  0.903830  0.591930  1.0  0.0997
  H  H39  1  0.660910  0.725000  0.586550  1.0  0.0912
  H  H40  1  0.665970  0.731130  0.784130  1.0  0.0531
  H  H41  1  0.430110  0.414590  0.785030  1.0  0.0503
  H  H42  1  0.430110  0.408950  0.592480  1.0  0.0833
  H  H43  1  0.473360  0.095520  0.784610  1.0  0.0295
  H  H44  1  0.482890  0.096170  0.591930  1.0  0.0992
  H  H45  1  0.339090  0.275000  0.586550  1.0  0.0925
  H  H46  1  0.334030  0.268870  0.784130  1.0  0.0529
  H  H47  1  0.930110  0.085410  0.214970  1.0  0.0503
  H  H48  1  0.930110  0.091050  0.407520  1.0  0.083
  H  H49  1  0.973360  0.404480  0.215390  1.0  0.0294
  H  H50  1  0.982890  0.403830  0.408070  1.0  0.0993
  H  H51  1  0.839090  0.225000  0.413450  1.0  0.0917
  H  H52  1  0.834030  0.231130  0.215870  1.0  0.0528
  H  H53  1  0.069890  0.914590  0.214970  1.0  0.0503
  H  H54  1  0.069890  0.908950  0.407520  1.0  0.083
  H  H55  1  0.026640  0.595520  0.215390  1.0  0.03
  H  H56  1  0.017110  0.596170  0.408070  1.0  0.1
  H  H57  1  0.160910  0.775000  0.413450  1.0  0.0916
  H  H58  1  0.165970  0.768870  0.215870  1.0  0.0529
  C  C59  1  0.200100  0.392400  0.821500  1.0  0.1163
  C  C60  1  0.460200  0.450600  0.255400  1.0  0.1461
  C  C61  1  0.459200  0.447600  0.371600  1.0  -0.2145
  C  C62  1  0.443500  0.131900  0.255300  1.0  0.165
  C  C63  1  0.449600  0.131600  0.371500  1.0  -0.2495
  C  C64  1  0.407200  0.183200  0.435700  1.0  0.0676
  C  C65  1  0.365800  0.236000  0.375000  1.0  -0.2078
  C  C66  1  0.363100  0.232000  0.255900  1.0  0.1552
  C  C67  1  0.799900  0.607600  0.821500  1.0  0.1169
  C  C68  1  0.539800  0.549400  0.255400  1.0  0.1446
  C  C69  1  0.540800  0.552400  0.371600  1.0  -0.2171
  C  C70  1  0.556500  0.868100  0.255300  1.0  0.1661
  C  C71  1  0.550400  0.868400  0.371500  1.0  -0.2485
  C  C72  1  0.592800  0.816800  0.435700  1.0  0.0675
  C  C73  1  0.634200  0.764000  0.375000  1.0  -0.2088
  C  C74  1  0.636900  0.768000  0.255900  1.0  0.1555
  C  C75  1  0.299900  0.892400  0.178500  1.0  0.1187
  C  C76  1  0.039800  0.950600  0.744600  1.0  0.1455
  C  C77  1  0.040800  0.947600  0.628400  1.0  -0.2148
  C  C78  1  0.056500  0.631900  0.744700  1.0  0.1662
  C  C79  1  0.050400  0.631600  0.628500  1.0  -0.2468
  C  C80  1  0.092800  0.683200  0.564300  1.0  0.0681
  C  C81  1  0.134200  0.736000  0.625000  1.0  -0.2092
  C  C82  1  0.136900  0.732000  0.744100  1.0  0.1551
  C  C83  1  0.700100  0.107600  0.178500  1.0  0.1174
  C  C84  1  0.960200  0.049400  0.744600  1.0  0.1459
  C  C85  1  0.959200  0.052400  0.628400  1.0  -0.2157
  C  C86  1  0.943500  0.368100  0.744700  1.0  0.1649
  C  C87  1  0.949600  0.368400  0.628500  1.0  -0.2498
  C  C88  1  0.907200  0.316800  0.564300  1.0  0.068
  C  C89  1  0.865800  0.264000  0.625000  1.0  -0.2078
  C  C90  1  0.863100  0.268000  0.744100  1.0  0.1548
  C  C91  1  0.799900  0.607600  0.178500  1.0  0.1183
  C  C92  1  0.539800  0.549400  0.744600  1.0  0.1453
  C  C93  1  0.540800  0.552400  0.628400  1.0  -0.2163
  C  C94  1  0.556500  0.868100  0.744700  1.0  0.1652
  C  C95  1  0.550400  0.868400  0.628500  1.0  -0.2477
  C  C96  1  0.592800  0.816800  0.564300  1.0  0.0681
  C  C97  1  0.634200  0.764000  0.625000  1.0  -0.2087
  C  C98  1  0.636900  0.768000  0.744100  1.0  0.1554
  C  C99  1  0.200100  0.392400  0.178500  1.0  0.1179
  C  C100  1  0.460200  0.450600  0.744600  1.0  0.1459
  C  C101  1  0.459200  0.447600  0.628400  1.0  -0.2142
  C  C102  1  0.443500  0.131900  0.744700  1.0  0.1658
  C  C103  1  0.449600  0.131600  0.628500  1.0  -0.2489
  C  C104  1  0.407200  0.183200  0.564300  1.0  0.068
  C  C105  1  0.365800  0.236000  0.625000  1.0  -0.2078
  C  C106  1  0.363100  0.232000  0.744100  1.0  0.1549
  C  C107  1  0.700100  0.107600  0.821500  1.0  0.116
  C  C108  1  0.960200  0.049400  0.255400  1.0  0.1457
  C  C109  1  0.959200  0.052400  0.371600  1.0  -0.216
  C  C110  1  0.943500  0.368100  0.255300  1.0  0.1652
  C  C111  1  0.949600  0.368400  0.371500  1.0  -0.2503
  C  C112  1  0.907200  0.316800  0.435700  1.0  0.0676
  C  C113  1  0.865800  0.264000  0.375000  1.0  -0.2077
  C  C114  1  0.863100  0.268000  0.255900  1.0  0.1549
  C  C115  1  0.299900  0.892400  0.821500  1.0  0.1172
  C  C116  1  0.039800  0.950600  0.255400  1.0  0.1454
  C  C117  1  0.040800  0.947600  0.371600  1.0  -0.2151
  C  C118  1  0.056500  0.631900  0.255300  1.0  0.1657
  C  C119  1  0.050400  0.631600  0.371500  1.0  -0.2468
  C  C120  1  0.092800  0.683200  0.435700  1.0  0.0676
  C  C121  1  0.134200  0.736000  0.375000  1.0  -0.2092
  C  C122  1  0.136900  0.732000  0.255900  1.0  0.1554
  C  C123  1  0.085900  0.348300  0.000000  1.0  0.1912
  C  C124  1  0.156900  0.498200  0.000000  1.0  0.0873
  C  C125  1  0.251900  0.289500  0.000000  1.0  0.0667
  C  C126  1  0.315900  0.431600  0.000000  1.0  0.1633
  C  C127  1  0.914100  0.651700  0.000000  1.0  0.1904
  C  C128  1  0.843100  0.501800  0.000000  1.0  0.0862
  C  C129  1  0.748100  0.710500  0.000000  1.0  0.066
  C  C130  1  0.684100  0.568400  0.000000  1.0  0.1649
  C  C131  1  0.414100  0.848300  0.000000  1.0  0.1916
  C  C132  1  0.343100  0.998200  0.000000  1.0  0.0872
  C  C133  1  0.248100  0.789500  0.000000  1.0  0.0673
  C  C134  1  0.184100  0.931600  0.000000  1.0  0.1634
  C  C135  1  0.585900  0.151700  0.000000  1.0  0.1904
  C  C136  1  0.656900  0.001800  0.000000  1.0  0.0865
  C  C137  1  0.751900  0.210500  0.000000  1.0  0.0654
  C  C138  1  0.815900  0.068400  0.000000  1.0  0.1643
  C  C139  1  0.500000  0.500000  0.440200  1.0  0.0296
  C  C140  1  0.000000  0.000000  0.559800  1.0  0.03
  C  C141  1  0.500000  0.500000  0.559800  1.0  0.03
  C  C142  1  0.000000  0.000000  0.440200  1.0  0.0296
  N  N143  1  0.203100  0.391600  0.721700  1.0  -0.4443
  N  N144  1  0.400400  0.177700  0.194900  1.0  -0.371
  N  N145  1  0.796900  0.608400  0.721700  1.0  -0.4436
  N  N146  1  0.599600  0.822300  0.194900  1.0  -0.3697
  N  N147  1  0.296900  0.891600  0.278300  1.0  -0.4464
  N  N148  1  0.099600  0.677700  0.805100  1.0  -0.3714
  N  N149  1  0.703100  0.108400  0.278300  1.0  -0.4461
  N  N150  1  0.900400  0.322300  0.805100  1.0  -0.3732
  N  N151  1  0.796900  0.608400  0.278300  1.0  -0.4464
  N  N152  1  0.599600  0.822300  0.805100  1.0  -0.3715
  N  N153  1  0.203100  0.391600  0.278300  1.0  -0.4461
  N  N154  1  0.400400  0.177700  0.805100  1.0  -0.373
  N  N155  1  0.703100  0.108400  0.721700  1.0  -0.4442
  N  N156  1  0.900400  0.322300  0.194900  1.0  -0.3707
  N  N157  1  0.296900  0.891600  0.721700  1.0  -0.4437
  N  N158  1  0.099600  0.677700  0.194900  1.0  -0.3699
  N  N159  1  0.020200  0.322000  0.000000  1.0  -0.4858
  N  N160  1  0.130800  0.557100  0.000000  1.0  -0.4475
  N  N161  1  0.293300  0.235600  0.000000  1.0  -0.4779
  N  N162  1  0.381900  0.447200  0.000000  1.0  -0.4751
  N  N163  1  0.979800  0.678000  0.000000  1.0  -0.4849
  N  N164  1  0.869200  0.442900  0.000000  1.0  -0.4475
  N  N165  1  0.706700  0.764400  0.000000  1.0  -0.4797
  N  N166  1  0.618100  0.552800  0.000000  1.0  -0.4739
  N  N167  1  0.479800  0.822000  0.000000  1.0  -0.4833
  N  N168  1  0.369200  0.057100  0.000000  1.0  -0.4494
  N  N169  1  0.206700  0.735600  0.000000  1.0  -0.4792
  N  N170  1  0.118100  0.947200  0.000000  1.0  -0.4742
  N  N171  1  0.520200  0.178000  0.000000  1.0  -0.4861
  N  N172  1  0.630800  0.942900  0.000000  1.0  -0.4468
  N  N173  1  0.793300  0.264400  0.000000  1.0  -0.4788
  N  N174  1  0.881900  0.052800  0.000000  1.0  -0.4743
  N  N175  1  0.500000  0.500000  0.196800  1.0  -0.174
  N  N176  1  0.000000  0.000000  0.803200  1.0  -0.1741
  N  N177  1  0.500000  0.500000  0.803200  1.0  -0.1741
  N  N178  1  0.000000  0.000000  0.196800  1.0  -0.174
