# generated using pymatgen
data_K2ZnH2(C5O4)2
_symmetry_space_group_name_H-M   'P 1'
_cell_length_a   9.55450000
_cell_length_b   9.55450000
_cell_length_c   11.10850000
_cell_angle_alpha   90.82930000
_cell_angle_beta   90.82930000
_cell_angle_gamma   107.22250000
_symmetry_Int_Tables_number   1
_chemical_formula_structural   K2ZnH2(C5O4)2
_chemical_formula_sum   'K4 Zn2 H4 C20 O16'
_cell_volume   968.32061360
_cell_formula_units_Z   2
loop_
 _symmetry_equiv_pos_site_id
 _symmetry_equiv_pos_as_xyz
  1  'x, y, z'
loop_
 _atom_site_type_symbol
 _atom_site_label
 _atom_site_symmetry_multiplicity
 _atom_site_fract_x
 _atom_site_fract_y
 _atom_site_fract_z
 _atom_site_occupancy
 _atom_site_charge
  K  K1  1  0.642190  0.789810  0.492440  1.0  0.9538
  K  K2  1  0.210190  0.357810  0.007560  1.0  0.954
  K  K3  1  0.357810  0.210190  0.507560  1.0  0.953
  K  K4  1  0.789810  0.642190  0.992440  1.0  0.9547
  Zn  Zn5  1  0.496750  0.503250  0.250000  1.0  1.0293
  Zn  Zn6  1  0.503250  0.496750  0.750000  1.0  1.0294
  H  H7  1  0.543600  0.052200  0.202800  1.0  0.1016
  H  H8  1  0.947800  0.456400  0.297200  1.0  0.1019
  H  H9  1  0.456400  0.947800  0.797200  1.0  0.1021
  H  H10  1  0.052200  0.543600  0.702800  1.0  0.1018
  C  C11  1  0.552700  0.294500  0.099400  1.0  0.7264
  C  C12  1  0.489300  0.227300  0.832500  1.0  0.7005
  C  C13  1  0.522700  0.143100  0.043900  1.0  -0.0802
  C  C14  1  0.495800  0.111400  0.921200  1.0  -0.1442
  C  C15  1  0.526200  0.031200  0.121000  1.0  -0.0269
  C  C16  1  0.705500  0.447300  0.400600  1.0  0.723
  C  C17  1  0.772700  0.510700  0.667500  1.0  0.6993
  C  C18  1  0.856900  0.477300  0.456100  1.0  -0.0814
  C  C19  1  0.888600  0.504200  0.578800  1.0  -0.1445
  C  C20  1  0.968800  0.473800  0.379000  1.0  -0.0271
  C  C21  1  0.447300  0.705500  0.900600  1.0  0.7267
  C  C22  1  0.510700  0.772700  0.167500  1.0  0.6997
  C  C23  1  0.477300  0.856900  0.956100  1.0  -0.0802
  C  C24  1  0.504200  0.888600  0.078800  1.0  -0.1453
  C  C25  1  0.473800  0.968800  0.879000  1.0  -0.0264
  C  C26  1  0.294500  0.552700  0.599400  1.0  0.7251
  C  C27  1  0.227300  0.489300  0.332500  1.0  0.699
  C  C28  1  0.143100  0.522700  0.543900  1.0  -0.0806
  C  C29  1  0.111400  0.495800  0.421200  1.0  -0.1445
  C  C30  1  0.031200  0.526200  0.621000  1.0  -0.0273
  O  O31  1  0.444210  0.319990  0.152100  1.0  -0.7071
  O  O32  1  0.677500  0.380100  0.099000  1.0  -0.6779
  O  O33  1  0.472220  0.345380  0.874900  1.0  -0.6899
  O  O34  1  0.500300  0.204500  0.723700  1.0  -0.6731
  O  O35  1  0.680010  0.555790  0.347900  1.0  -0.7088
  O  O36  1  0.619900  0.322500  0.401000  1.0  -0.6669
  O  O37  1  0.654620  0.527780  0.625100  1.0  -0.6891
  O  O38  1  0.795500  0.499700  0.776300  1.0  -0.6729
  O  O39  1  0.555790  0.680010  0.847900  1.0  -0.7074
  O  O40  1  0.322500  0.619900  0.901000  1.0  -0.6759
  O  O41  1  0.527780  0.654620  0.125100  1.0  -0.6894
  O  O42  1  0.499700  0.795500  0.276300  1.0  -0.6701
  O  O43  1  0.319990  0.444210  0.652100  1.0  -0.7105
  O  O44  1  0.380100  0.677500  0.599000  1.0  -0.6692
  O  O45  1  0.345380  0.472220  0.374900  1.0  -0.6895
  O  O46  1  0.204500  0.500300  0.223700  1.0  -0.675
