# generated using pymatgen
data_Ce(CO)6
_symmetry_space_group_name_H-M   'P 1'
_cell_length_a   8.30400000
_cell_length_b   8.72800000
_cell_length_c   9.17700000
_cell_angle_alpha   95.59000000
_cell_angle_beta   115.70000000
_cell_angle_gamma   110.26000000
_symmetry_Int_Tables_number   1
_chemical_formula_structural   Ce(CO)6
_chemical_formula_sum   'Ce2 C12 O12'
_cell_volume   537.59384420
_cell_formula_units_Z   2
loop_
 _symmetry_equiv_pos_site_id
 _symmetry_equiv_pos_as_xyz
  1  'x, y, z'
loop_
 _atom_site_type_symbol
 _atom_site_label
 _atom_site_symmetry_multiplicity
 _atom_site_fract_x
 _atom_site_fract_y
 _atom_site_fract_z
 _atom_site_occupancy
 _atom_site_charge
  Ce  Ce1  1  0.919620  0.991950  0.731790  1.0  2.3067
  Ce  Ce2  1  0.080380  0.008050  0.268210  1.0  2.308
  C  C3  1  0.327900  0.995800  0.107500  1.0  0.7878
  C  C4  1  0.453400  0.999900  0.032900  1.0  -0.0969
  C  C5  1  0.149000  0.445300  0.890200  1.0  0.7627
  C  C6  1  0.330800  0.575400  0.039900  1.0  -0.0814
  C  C7  1  0.478100  0.674500  0.165700  1.0  -0.1975
  C  C8  1  0.655200  0.790000  0.323600  1.0  0.8835
  C  C9  1  0.672100  0.004200  0.892500  1.0  0.78
  C  C10  1  0.546600  0.000100  0.967100  1.0  -0.0987
  C  C11  1  0.851000  0.554700  0.109800  1.0  0.7634
  C  C12  1  0.669200  0.424600  0.960100  1.0  -0.0807
  C  C13  1  0.521900  0.325500  0.834300  1.0  -0.1962
  C  C14  1  0.344800  0.210000  0.676400  1.0  0.8833
  O  O15  1  0.153600  0.975200  0.011100  1.0  -0.8088
  O  O16  1  0.394300  0.012200  0.262200  1.0  -0.6203
  O  O17  1  0.089400  0.297200  0.906100  1.0  -0.7758
  O  O18  1  0.071000  0.487300  0.762900  1.0  -0.5886
  O  O19  1  0.636700  0.802500  0.451000  1.0  -0.7199
  O  O20  1  0.810900  0.868800  0.322700  1.0  -0.8477
  O  O21  1  0.846400  0.024800  0.988900  1.0  -0.8095
  O  O22  1  0.605700  0.987800  0.737800  1.0  -0.6222
  O  O23  1  0.910600  0.702800  0.093900  1.0  -0.7769
  O  O24  1  0.929000  0.512700  0.237100  1.0  -0.5894
  O  O25  1  0.363300  0.197500  0.549000  1.0  -0.7204
  O  O26  1  0.189100  0.131200  0.677300  1.0  -0.8446
