# generated using pymatgen
data_Ni3H33C54N3O13
_symmetry_space_group_name_H-M   'P 1'
_cell_length_a   24.66610000
_cell_length_b   24.66610000
_cell_length_c   24.66610000
_cell_angle_alpha   109.47100000
_cell_angle_beta   109.47100000
_cell_angle_gamma   109.47100000
_symmetry_Int_Tables_number   1
_chemical_formula_structural   Ni3H33C54N3O13
_chemical_formula_sum   'Ni12 H132 C216 N12 O52'
_cell_volume   11552.69001628
_cell_formula_units_Z   4
loop_
 _symmetry_equiv_pos_site_id
 _symmetry_equiv_pos_as_xyz
  1  'x, y, z'
loop_
 _atom_site_type_symbol
 _atom_site_label
 _atom_site_symmetry_multiplicity
 _atom_site_fract_x
 _atom_site_fract_y
 _atom_site_fract_z
 _atom_site_occupancy
 _atom_site_charge
  Ni  Ni1  1  0.406820  0.080100  0.089570  1.0  0.9887
  Ni  Ni2  1  0.990530  0.317250  0.910430  1.0  0.9887
  Ni  Ni3  1  0.009470  0.919900  0.326720  1.0  0.9884
  Ni  Ni4  1  0.593180  0.682750  0.673280  1.0  0.9887
  Ni  Ni5  1  0.326720  0.009470  0.919900  1.0  0.9894
  Ni  Ni6  1  0.673280  0.593180  0.682750  1.0  0.9876
  Ni  Ni7  1  0.089570  0.406820  0.080100  1.0  0.9877
  Ni  Ni8  1  0.910430  0.990530  0.317250  1.0  0.9885
  Ni  Ni9  1  0.317250  0.910430  0.990530  1.0  0.9887
  Ni  Ni10  1  0.080100  0.089570  0.406820  1.0  0.9884
  Ni  Ni11  1  0.682750  0.673280  0.593180  1.0  0.9887
  Ni  Ni12  1  0.919900  0.326720  0.009470  1.0  0.9884
  H  H13  1  0.854400  0.081100  0.340700  1.0  0.0967
  H  H14  1  0.754700  0.080600  0.299100  1.0  0.1234
  H  H15  1  0.662100  0.883100  0.180200  1.0  0.1239
  H  H16  1  0.761000  0.886700  0.223700  1.0  0.0889
  H  H17  1  0.659500  0.066300  0.279800  1.0  0.1259
  H  H18  1  0.563500  0.071200  0.227300  1.0  0.113
  H  H19  1  0.489500  0.894800  0.066900  1.0  0.1179
  H  H20  1  0.586400  0.891400  0.119600  1.0  0.1325
  H  H21  1  0.313100  0.080100  0.209000  1.0  0.1112
  H  H22  1  0.287100  0.131000  0.293900  1.0  0.1203
  H  H23  1  0.224800  0.879900  0.102100  1.0  0.1078
  H  H24  1  0.740400  0.513700  0.659300  1.0  0.0962
  H  H25  1  0.781500  0.455600  0.700900  1.0  0.1219
  H  H26  1  0.702900  0.481900  0.819800  1.0  0.1262
  H  H27  1  0.663000  0.537300  0.776300  1.0  0.089
  H  H28  1  0.786500  0.379700  0.720200  1.0  0.1238
  H  H29  1  0.843900  0.336200  0.772700  1.0  0.112
  H  H30  1  0.827900  0.422600  0.933100  1.0  0.1181
  H  H31  1  0.771800  0.466800  0.880400  1.0  0.1314
  H  H32  1  0.871100  0.104100  0.791000  1.0  0.1116
  H  H33  1  0.837100  0.993200  0.706100  1.0  0.1215
  H  H34  1  0.777800  0.122700  0.897900  1.0  0.1088
  H  H35  1  0.259600  0.918900  0.773300  1.0  0.0971
  H  H36  1  0.218500  0.919400  0.674100  1.0  0.124
  H  H37  1  0.297100  0.116900  0.779000  1.0  0.1256
  H  H38  1  0.337000  0.113300  0.874300  1.0  0.087
  H  H39  1  0.213500  0.933700  0.593200  1.0  0.1245
  H  H40  1  0.156100  0.928800  0.492300  1.0  0.1115
  H  H41  1  0.172100  0.105200  0.594700  1.0  0.1199
  H  H42  1  0.228200  0.108600  0.695000  1.0  0.13
  H  H43  1  0.128900  0.919900  0.233000  1.0  0.1107
  H  H44  1  0.162900  0.869000  0.156100  1.0  0.1192
  H  H45  1  0.222200  0.120100  0.344900  1.0  0.1079
  H  H46  1  0.145600  0.486300  0.226700  1.0  0.0959
  H  H47  1  0.245300  0.544400  0.325900  1.0  0.124
  H  H48  1  0.337900  0.518100  0.221000  1.0  0.1235
  H  H49  1  0.239000  0.462700  0.125700  1.0  0.0887
  H  H50  1  0.340500  0.620300  0.406800  1.0  0.1233
  H  H51  1  0.436500  0.663800  0.507700  1.0  0.1116
  H  H52  1  0.510500  0.577400  0.405300  1.0  0.1184
  H  H53  1  0.413600  0.533200  0.305000  1.0  0.1274
  H  H54  1  0.686900  0.895900  0.767000  1.0  0.1119
  H  H55  1  0.712900  0.006800  0.843900  1.0  0.1187
  H  H56  1  0.775200  0.877300  0.655100  1.0  0.1083
  H  H57  1  0.773300  0.259600  0.918900  1.0  0.0967
  H  H58  1  0.674100  0.218500  0.919400  1.0  0.122
  H  H59  1  0.779000  0.297100  0.116900  1.0  0.1271
  H  H60  1  0.874300  0.337000  0.113300  1.0  0.0882
  H  H61  1  0.593200  0.213500  0.933700  1.0  0.1243
  H  H62  1  0.492300  0.156100  0.928800  1.0  0.1121
  H  H63  1  0.594700  0.172100  0.105200  1.0  0.1172
  H  H64  1  0.695000  0.228200  0.108600  1.0  0.1301
  H  H65  1  0.233000  0.128900  0.919900  1.0  0.1105
  H  H66  1  0.156100  0.162900  0.869000  1.0  0.1184
  H  H67  1  0.344900  0.222200  0.120100  1.0  0.1085
  H  H68  1  0.226700  0.145600  0.486300  1.0  0.0956
  H  H69  1  0.325900  0.245300  0.544400  1.0  0.1224
  H  H70  1  0.221000  0.337900  0.518100  1.0  0.1237
  H  H71  1  0.125700  0.239000  0.462700  1.0  0.0884
  H  H72  1  0.406800  0.340500  0.620300  1.0  0.1242
  H  H73  1  0.507700  0.436500  0.663800  1.0  0.1132
  H  H74  1  0.405300  0.510500  0.577400  1.0  0.1178
  H  H75  1  0.305000  0.413600  0.533200  1.0  0.1278
  H  H76  1  0.767000  0.686900  0.895900  1.0  0.1103
  H  H77  1  0.843900  0.712900  0.006800  1.0  0.1189
  H  H78  1  0.655100  0.775200  0.877300  1.0  0.1078
  H  H79  1  0.340700  0.854400  0.081100  1.0  0.0951
  H  H80  1  0.299100  0.754700  0.080600  1.0  0.1236
  H  H81  1  0.180200  0.662100  0.883100  1.0  0.1241
  H  H82  1  0.223700  0.761000  0.886700  1.0  0.0879
  H  H83  1  0.279800  0.659500  0.066300  1.0  0.1236
  H  H84  1  0.227300  0.563500  0.071200  1.0  0.1117
  H  H85  1  0.066900  0.489500  0.894800  1.0  0.1187
  H  H86  1  0.119600  0.586400  0.891400  1.0  0.1315
  H  H87  1  0.209000  0.313100  0.080100  1.0  0.1117
  H  H88  1  0.293900  0.287100  0.131000  1.0  0.1193
  H  H89  1  0.102100  0.224800  0.879900  1.0  0.1083
  H  H90  1  0.659300  0.740400  0.513700  1.0  0.0968
  H  H91  1  0.700900  0.781500  0.455600  1.0  0.1221
  H  H92  1  0.819800  0.702900  0.481900  1.0  0.1231
  H  H93  1  0.776300  0.663000  0.537300  1.0  0.088
  H  H94  1  0.720200  0.786500  0.379700  1.0  0.1238
  H  H95  1  0.772700  0.843900  0.336200  1.0  0.1121
  H  H96  1  0.933100  0.827900  0.422600  1.0  0.1192
  H  H97  1  0.880400  0.771800  0.466800  1.0  0.1292
  H  H98  1  0.791000  0.871100  0.104100  1.0  0.1091
  H  H99  1  0.706100  0.837100  0.993200  1.0  0.1205
  H  H100  1  0.897900  0.777800  0.122700  1.0  0.1076
  H  H101  1  0.513700  0.659300  0.740400  1.0  0.0956
  H  H102  1  0.455600  0.700900  0.781500  1.0  0.1243
  H  H103  1  0.481900  0.819800  0.702900  1.0  0.1238
  H  H104  1  0.537300  0.776300  0.663000  1.0  0.0876
  H  H105  1  0.379700  0.720200  0.786500  1.0  0.1252
  H  H106  1  0.336200  0.772700  0.843900  1.0  0.1131
  H  H107  1  0.422600  0.933100  0.827900  1.0  0.1195
  H  H108  1  0.466800  0.880400  0.771800  1.0  0.1336
  H  H109  1  0.104100  0.791000  0.871100  1.0  0.1126
  H  H110  1  0.993200  0.706100  0.837100  1.0  0.1208
  H  H111  1  0.122700  0.897900  0.777800  1.0  0.1078
  H  H112  1  0.081100  0.340700  0.854400  1.0  0.096
  H  H113  1  0.080600  0.299100  0.754700  1.0  0.122
  H  H114  1  0.883100  0.180200  0.662100  1.0  0.1232
  H  H115  1  0.886700  0.223700  0.761000  1.0  0.0871
  H  H116  1  0.066300  0.279800  0.659500  1.0  0.1255
  H  H117  1  0.071200  0.227300  0.563500  1.0  0.1132
  H  H118  1  0.894800  0.066900  0.489500  1.0  0.1198
  H  H119  1  0.891400  0.119600  0.586400  1.0  0.1301
  H  H120  1  0.080100  0.209000  0.313100  1.0  0.1097
  H  H121  1  0.131000  0.293900  0.287100  1.0  0.1202
  H  H122  1  0.879900  0.102100  0.224800  1.0  0.1077
  H  H123  1  0.486300  0.226700  0.145600  1.0  0.0963
  H  H124  1  0.544400  0.325900  0.245300  1.0  0.1242
  H  H125  1  0.518100  0.221000  0.337900  1.0  0.1263
  H  H126  1  0.462700  0.125700  0.239000  1.0  0.0883
  H  H127  1  0.620300  0.406800  0.340500  1.0  0.1245
  H  H128  1  0.663800  0.507700  0.436500  1.0  0.1114
  H  H129  1  0.577400  0.405300  0.510500  1.0  0.1192
  H  H130  1  0.533200  0.305000  0.413600  1.0  0.1287
  H  H131  1  0.895900  0.767000  0.686900  1.0  0.112
  H  H132  1  0.006800  0.843900  0.712900  1.0  0.1186
  H  H133  1  0.877300  0.655100  0.775200  1.0  0.1083
  H  H134  1  0.918900  0.773300  0.259600  1.0  0.0971
  H  H135  1  0.919400  0.674100  0.218500  1.0  0.1223
  H  H136  1  0.116900  0.779000  0.297100  1.0  0.124
  H  H137  1  0.113300  0.874300  0.337000  1.0  0.0871
  H  H138  1  0.933700  0.593200  0.213500  1.0  0.1239
  H  H139  1  0.928800  0.492300  0.156100  1.0  0.1124
  H  H140  1  0.105200  0.594700  0.172100  1.0  0.1178
  H  H141  1  0.108600  0.695000  0.228200  1.0  0.1316
  H  H142  1  0.919900  0.233000  0.128900  1.0  0.1102
  H  H143  1  0.869000  0.156100  0.162900  1.0  0.119
  H  H144  1  0.120100  0.344900  0.222200  1.0  0.1067
  C  C145  1  0.814760  0.040400  0.307120  1.0  0.1488
  C  C146  1  0.755630  0.040370  0.282940  1.0  -0.196
  C  C147  1  0.696960  0.980360  0.234240  1.0  0.0901
  C  C148  1  0.701200  0.924610  0.213290  1.0  -0.2157
  C  C149  1  0.760280  0.927180  0.238780  1.0  0.1582
  C  C150  1  0.632420  0.979850  0.205230  1.0  0.0317
  C  C151  1  0.625170  0.031420  0.236190  1.0  -0.1414
  C  C152  1  0.567650  0.034490  0.204940  1.0  -0.0532
  C  C153  1  0.517490  0.983880  0.142010  1.0  -0.0937
  C  C154  1  0.524180  0.930160  0.110140  1.0  -0.0432
  C  C155  1  0.581780  0.927910  0.141490  1.0  -0.1228
  C  C156  1  0.457190  0.987010  0.104960  1.0  0.7128
  C  C157  1  0.307790  0.989210  0.109100  1.0  0.7353
  C  C158  1  0.272860  0.981840  0.148560  1.0  -0.1435
  C  C159  1  0.281740  0.037370  0.197490  1.0  -0.0983
  C  C160  1  0.245080  0.031900  0.230840  1.0  0.0509
  C  C161  1  0.254310  0.088160  0.280630  1.0  -0.1201
  C  C162  1  0.229200  0.918320  0.133920  1.0  -0.0477
  C  C163  1  0.733280  0.507640  0.692880  1.0  0.1516
  C  C164  1  0.757430  0.472690  0.717060  1.0  -0.1934
  C  C165  1  0.746120  0.462720  0.765760  1.0  0.0911
  C  C166  1  0.711320  0.487910  0.786710  1.0  -0.2125
  C  C167  1  0.688400  0.521500  0.761220  1.0  0.1639
  C  C168  1  0.774620  0.427190  0.794770  1.0  0.0317
  C  C169  1  0.795230  0.388980  0.763810  1.0  -0.143
  C  C170  1  0.829550  0.362710  0.795060  1.0  -0.0551
  C  C171  1  0.841870  0.375480  0.857990  1.0  -0.0945
  C  C172  1  0.820020  0.414040  0.889860  1.0  -0.0416
  C  C173  1  0.786420  0.440290  0.858510  1.0  -0.1194
  C  C174  1  0.882050  0.352230  0.895040  1.0  0.7162
  C  C175  1  0.880110  0.198690  0.890900  1.0  0.7423
  C  C176  1  0.833280  0.124300  0.851440  1.0  -0.1428
  C  C177  1  0.839880  0.084250  0.802510  1.0  -0.0985
  C  C178  1  0.801060  0.014240  0.769160  1.0  0.0507
  C  C179  1  0.807530  0.973680  0.719370  1.0  -0.11
  C  C180  1  0.784400  0.095280  0.866080  1.0  -0.0474
  C  C181  1  0.266720  0.959600  0.774360  1.0  0.1521
  C  C182  1  0.242570  0.959630  0.715260  1.0  -0.1939
  C  C183  1  0.253880  0.019640  0.716600  1.0  0.0924
  C  C184  1  0.288680  0.075390  0.776590  1.0  -0.2165
  C  C185  1  0.311600  0.072820  0.833100  1.0  0.1633
  C  C186  1  0.225380  0.020150  0.652570  1.0  0.0305
  C  C187  1  0.204770  0.968580  0.593750  1.0  -0.1446
  C  C188  1  0.170450  0.965510  0.533160  1.0  -0.0527
  C  C189  1  0.158130  0.016120  0.533610  1.0  -0.094
  C  C190  1  0.179980  0.069840  0.594020  1.0  -0.0405
  C  C191  1  0.213580  0.072090  0.653870  1.0  -0.1214
  C  C192  1  0.117950  0.012990  0.470180  1.0  0.7084
  C  C193  1  0.119890  0.010790  0.318580  1.0  0.7266
  C  C194  1  0.166720  0.018160  0.291020  1.0  -0.1456
  C  C195  1  0.160120  0.962630  0.244370  1.0  -0.102
  C  C196  1  0.198940  0.968100  0.213180  1.0  0.0512
  C  C197  1  0.192470  0.911840  0.166150  1.0  -0.118
  C  C198  1  0.215600  0.081680  0.310880  1.0  -0.0489
  C  C199  1  0.185240  0.492360  0.225640  1.0  0.1524
  C  C200  1  0.244370  0.527310  0.284740  1.0  -0.196
  C  C201  1  0.303040  0.537280  0.283400  1.0  0.0904
  C  C202  1  0.298800  0.512090  0.223410  1.0  -0.2107
  C  C203  1  0.239720  0.478500  0.166900  1.0  0.1627
  C  C204  1  0.367580  0.572810  0.347430  1.0  0.0321
  C  C205  1  0.374830  0.611020  0.406250  1.0  -0.1417
  C  C206  1  0.432350  0.637290  0.466840  1.0  -0.0562
  C  C207  1  0.482510  0.624520  0.466390  1.0  -0.0941
  C  C208  1  0.475820  0.585960  0.405980  1.0  -0.0332
  C  C209  1  0.418220  0.559710  0.346130  1.0  -0.121
  C  C210  1  0.542810  0.647770  0.529820  1.0  0.7178
  C  C211  1  0.692210  0.801310  0.681420  1.0  0.7365
  C  C212  1  0.727140  0.875700  0.708980  1.0  -0.141
  C  C213  1  0.718260  0.915750  0.755630  1.0  -0.0971
  C  C214  1  0.754920  0.985760  0.786820  1.0  0.051
  C  C215  1  0.745690  0.026320  0.833850  1.0  -0.1197
  C  C216  1  0.770800  0.904720  0.689120  1.0  -0.0498
  C  C217  1  0.774360  0.266720  0.959600  1.0  0.1519
  C  C218  1  0.715260  0.242570  0.959630  1.0  -0.1928
  C  C219  1  0.716600  0.253880  0.019640  1.0  0.0904
  C  C220  1  0.776590  0.288680  0.075390  1.0  -0.2125
  C  C221  1  0.833100  0.311600  0.072820  1.0  0.1627
  C  C222  1  0.652570  0.225380  0.020150  1.0  0.0317
  C  C223  1  0.593750  0.204770  0.968580  1.0  -0.1412
  C  C224  1  0.533160  0.170450  0.965510  1.0  -0.0556
  C  C225  1  0.533610  0.158130  0.016120  1.0  -0.0938
  C  C226  1  0.594020  0.179980  0.069840  1.0  -0.0421
  C  C227  1  0.653870  0.213580  0.072090  1.0  -0.1205
  C  C228  1  0.470180  0.117950  0.012990  1.0  0.706
  C  C229  1  0.318580  0.119890  0.010790  1.0  0.7263
  C  C230  1  0.291020  0.166720  0.018160  1.0  -0.1442
  C  C231  1  0.244370  0.160120  0.962630  1.0  -0.1025
  C  C232  1  0.213180  0.198940  0.968100  1.0  0.0513
  C  C233  1  0.166150  0.192470  0.911840  1.0  -0.1182
  C  C234  1  0.310880  0.215600  0.081680  1.0  -0.046
  C  C235  1  0.225640  0.185240  0.492360  1.0  0.1528
  C  C236  1  0.284740  0.244370  0.527310  1.0  -0.1903
  C  C237  1  0.283400  0.303040  0.537280  1.0  0.0907
  C  C238  1  0.223410  0.298800  0.512090  1.0  -0.2136
  C  C239  1  0.166900  0.239720  0.478500  1.0  0.1609
  C  C240  1  0.347430  0.367580  0.572810  1.0  0.0321
  C  C241  1  0.406250  0.374830  0.611020  1.0  -0.1397
  C  C242  1  0.466840  0.432350  0.637290  1.0  -0.0549
  C  C243  1  0.466390  0.482510  0.624520  1.0  -0.0924
  C  C244  1  0.405980  0.475820  0.585960  1.0  -0.0359
  C  C245  1  0.346130  0.418220  0.559710  1.0  -0.1225
  C  C246  1  0.529820  0.542810  0.647770  1.0  0.7178
  C  C247  1  0.681420  0.692210  0.801310  1.0  0.7346
  C  C248  1  0.708980  0.727140  0.875700  1.0  -0.1417
  C  C249  1  0.755630  0.718260  0.915750  1.0  -0.0961
  C  C250  1  0.786820  0.754920  0.985760  1.0  0.0521
  C  C251  1  0.833850  0.745690  0.026320  1.0  -0.1185
  C  C252  1  0.689120  0.770800  0.904720  1.0  -0.0476
  C  C253  1  0.307120  0.814760  0.040400  1.0  0.1504
  C  C254  1  0.282940  0.755630  0.040370  1.0  -0.1954
  C  C255  1  0.234240  0.696960  0.980360  1.0  0.0897
  C  C256  1  0.213290  0.701200  0.924610  1.0  -0.2141
  C  C257  1  0.238780  0.760280  0.927180  1.0  0.1632
  C  C258  1  0.205230  0.632420  0.979850  1.0  0.0299
  C  C259  1  0.236190  0.625170  0.031420  1.0  -0.1408
  C  C260  1  0.204940  0.567650  0.034490  1.0  -0.0558
  C  C261  1  0.142010  0.517490  0.983880  1.0  -0.0934
  C  C262  1  0.110140  0.524180  0.930160  1.0  -0.0401
  C  C263  1  0.141490  0.581780  0.927910  1.0  -0.12
  C  C264  1  0.104960  0.457190  0.987010  1.0  0.7104
  C  C265  1  0.109100  0.307790  0.989210  1.0  0.7384
  C  C266  1  0.148560  0.272860  0.981840  1.0  -0.1427
  C  C267  1  0.197490  0.281740  0.037370  1.0  -0.098
  C  C268  1  0.230840  0.245080  0.031900  1.0  0.0497
  C  C269  1  0.280630  0.254310  0.088160  1.0  -0.1226
  C  C270  1  0.133920  0.229200  0.918320  1.0  -0.0469
  C  C271  1  0.692880  0.733280  0.507640  1.0  0.1515
  C  C272  1  0.717060  0.757430  0.472690  1.0  -0.1923
  C  C273  1  0.765760  0.746120  0.462720  1.0  0.0922
  C  C274  1  0.786710  0.711320  0.487910  1.0  -0.2085
  C  C275  1  0.761220  0.688400  0.521500  1.0  0.1684
  C  C276  1  0.794770  0.774620  0.427190  1.0  0.0316
  C  C277  1  0.763810  0.795230  0.388980  1.0  -0.1426
  C  C278  1  0.795060  0.829550  0.362710  1.0  -0.0541
  C  C279  1  0.857990  0.841870  0.375480  1.0  -0.093
  C  C280  1  0.889860  0.820020  0.414040  1.0  -0.0355
  C  C281  1  0.858510  0.786420  0.440290  1.0  -0.1219
  C  C282  1  0.895040  0.882050  0.352230  1.0  0.7179
  C  C283  1  0.890900  0.880110  0.198690  1.0  0.7428
  C  C284  1  0.851440  0.833280  0.124300  1.0  -0.1427
  C  C285  1  0.802510  0.839880  0.084250  1.0  -0.0959
  C  C286  1  0.769160  0.801060  0.014240  1.0  0.0514
  C  C287  1  0.719370  0.807530  0.973680  1.0  -0.1099
  C  C288  1  0.866080  0.784400  0.095280  1.0  -0.0469
  C  C289  1  0.507640  0.692880  0.733280  1.0  0.1505
  C  C290  1  0.472690  0.717060  0.757430  1.0  -0.1952
  C  C291  1  0.462720  0.765760  0.746120  1.0  0.0902
  C  C292  1  0.487910  0.786710  0.711320  1.0  -0.2127
  C  C293  1  0.521500  0.761220  0.688400  1.0  0.1642
  C  C294  1  0.427190  0.794770  0.774620  1.0  0.0311
  C  C295  1  0.388980  0.763810  0.795230  1.0  -0.1449
  C  C296  1  0.362710  0.795060  0.829550  1.0  -0.0581
  C  C297  1  0.375480  0.857990  0.841870  1.0  -0.0931
  C  C298  1  0.414040  0.889860  0.820020  1.0  -0.0415
  C  C299  1  0.440290  0.858510  0.786420  1.0  -0.1216
  C  C300  1  0.352230  0.895040  0.882050  1.0  0.7167
  C  C301  1  0.198690  0.890900  0.880110  1.0  0.7429
  C  C302  1  0.124300  0.851440  0.833280  1.0  -0.1419
  C  C303  1  0.084250  0.802510  0.839880  1.0  -0.0959
  C  C304  1  0.014240  0.769160  0.801060  1.0  0.0491
  C  C305  1  0.973680  0.719370  0.807530  1.0  -0.1063
  C  C306  1  0.095280  0.866080  0.784400  1.0  -0.0494
  C  C307  1  0.040400  0.307120  0.814760  1.0  0.1503
  C  C308  1  0.040370  0.282940  0.755630  1.0  -0.1928
  C  C309  1  0.980360  0.234240  0.696960  1.0  0.092
  C  C310  1  0.924610  0.213290  0.701200  1.0  -0.2103
  C  C311  1  0.927180  0.238780  0.760280  1.0  0.1678
  C  C312  1  0.979850  0.205230  0.632420  1.0  0.031
  C  C313  1  0.031420  0.236190  0.625170  1.0  -0.1446
  C  C314  1  0.034490  0.204940  0.567650  1.0  -0.0541
  C  C315  1  0.983880  0.142010  0.517490  1.0  -0.0949
  C  C316  1  0.930160  0.110140  0.524180  1.0  -0.0412
  C  C317  1  0.927910  0.141490  0.581780  1.0  -0.1208
  C  C318  1  0.987010  0.104960  0.457190  1.0  0.7107
  C  C319  1  0.989210  0.109100  0.307790  1.0  0.7375
  C  C320  1  0.981840  0.148560  0.272860  1.0  -0.1424
  C  C321  1  0.037370  0.197490  0.281740  1.0  -0.0962
  C  C322  1  0.031900  0.230840  0.245080  1.0  0.0491
  C  C323  1  0.088160  0.280630  0.254310  1.0  -0.1213
  C  C324  1  0.918320  0.133920  0.229200  1.0  -0.0456
  C  C325  1  0.492360  0.225640  0.185240  1.0  0.1508
  C  C326  1  0.527310  0.284740  0.244370  1.0  -0.1952
  C  C327  1  0.537280  0.283400  0.303040  1.0  0.0895
  C  C328  1  0.512090  0.223410  0.298800  1.0  -0.212
  C  C329  1  0.478500  0.166900  0.239720  1.0  0.161
  C  C330  1  0.572810  0.347430  0.367580  1.0  0.0298
  C  C331  1  0.611020  0.406250  0.374830  1.0  -0.1429
  C  C332  1  0.637290  0.466840  0.432350  1.0  -0.0542
  C  C333  1  0.624520  0.466390  0.482510  1.0  -0.0923
  C  C334  1  0.585960  0.405980  0.475820  1.0  -0.0378
  C  C335  1  0.559710  0.346130  0.418220  1.0  -0.1222
  C  C336  1  0.647770  0.529820  0.542810  1.0  0.7184
  C  C337  1  0.801310  0.681420  0.692210  1.0  0.7379
  C  C338  1  0.875700  0.708980  0.727140  1.0  -0.1417
  C  C339  1  0.915750  0.755630  0.718260  1.0  -0.0971
  C  C340  1  0.985760  0.786820  0.754920  1.0  0.0529
  C  C341  1  0.026320  0.833850  0.745690  1.0  -0.1197
  C  C342  1  0.904720  0.689120  0.770800  1.0  -0.0492
  C  C343  1  0.959600  0.774360  0.266720  1.0  0.1501
  C  C344  1  0.959630  0.715260  0.242570  1.0  -0.1939
  C  C345  1  0.019640  0.716600  0.253880  1.0  0.0901
  C  C346  1  0.075390  0.776590  0.288680  1.0  -0.2075
  C  C347  1  0.072820  0.833100  0.311600  1.0  0.1622
  C  C348  1  0.020150  0.652570  0.225380  1.0  0.0319
  C  C349  1  0.968580  0.593750  0.204770  1.0  -0.1399
  C  C350  1  0.965510  0.533160  0.170450  1.0  -0.0528
  C  C351  1  0.016120  0.533610  0.158130  1.0  -0.0922
  C  C352  1  0.069840  0.594020  0.179980  1.0  -0.0407
  C  C353  1  0.072090  0.653870  0.213580  1.0  -0.1208
  C  C354  1  0.012990  0.470180  0.117950  1.0  0.7078
  C  C355  1  0.010790  0.318580  0.119890  1.0  0.7256
  C  C356  1  0.018160  0.291020  0.166720  1.0  -0.1457
  C  C357  1  0.962630  0.244370  0.160120  1.0  -0.0999
  C  C358  1  0.968100  0.213180  0.198940  1.0  0.05
  C  C359  1  0.911840  0.166150  0.192470  1.0  -0.1194
  C  C360  1  0.081680  0.310880  0.215600  1.0  -0.0461
  N  N361  1  0.817830  0.983600  0.284130  1.0  -0.3076
  N  N362  1  0.699470  0.533700  0.715870  1.0  -0.3092
  N  N363  1  0.300530  0.016400  0.834230  1.0  -0.3108
  N  N364  1  0.182170  0.466300  0.165770  1.0  -0.3086
  N  N365  1  0.834230  0.300530  0.016400  1.0  -0.3091
  N  N366  1  0.165770  0.182170  0.466300  1.0  -0.3099
  N  N367  1  0.284130  0.817830  0.983600  1.0  -0.3102
  N  N368  1  0.715870  0.699470  0.533700  1.0  -0.3125
  N  N369  1  0.533700  0.715870  0.699470  1.0  -0.3089
  N  N370  1  0.983600  0.284130  0.817830  1.0  -0.3129
  N  N371  1  0.466300  0.165770  0.182170  1.0  -0.3108
  N  N372  1  0.016400  0.834230  0.300530  1.0  -0.3083
  O  O373  1  0.459590  0.040210  0.128960  1.0  -0.5745
  O  O374  1  0.411080  0.934780  0.052460  1.0  -0.6086
  O  O375  1  0.341920  0.046190  0.121370  1.0  -0.6091
  O  O376  1  0.296840  0.936790  0.067050  1.0  -0.5979
  O  O377  1  0.911250  0.330630  0.871040  1.0  -0.5727
  O  O378  1  0.882320  0.358620  0.947540  1.0  -0.6121
  O  O379  1  0.924820  0.220550  0.878630  1.0  -0.6092
  O  O380  1  0.869740  0.229790  0.932950  1.0  -0.595
  O  O381  1  0.088750  0.959790  0.419380  1.0  -0.573
  O  O382  1  0.117680  0.065220  0.476300  1.0  -0.6102
  O  O383  1  0.075180  0.953810  0.295730  1.0  -0.6029
  O  O384  1  0.130260  0.063210  0.360050  1.0  -0.596
  O  O385  1  0.540410  0.669370  0.580620  1.0  -0.5728
  O  O386  1  0.588920  0.641380  0.523700  1.0  -0.6089
  O  O387  1  0.658080  0.779450  0.704270  1.0  -0.607
  O  O388  1  0.703160  0.770210  0.639950  1.0  -0.5946
  O  O389  1  0.419380  0.088750  0.959790  1.0  -0.5728
  O  O390  1  0.476300  0.117680  0.065220  1.0  -0.6108
  O  O391  1  0.295730  0.075180  0.953810  1.0  -0.604
  O  O392  1  0.360050  0.130260  0.063210  1.0  -0.5956
  O  O393  1  0.580620  0.540410  0.669370  1.0  -0.5719
  O  O394  1  0.523700  0.588920  0.641380  1.0  -0.6084
  O  O395  1  0.704270  0.658080  0.779450  1.0  -0.6077
  O  O396  1  0.639950  0.703160  0.770210  1.0  -0.5945
  O  O397  1  0.128960  0.459590  0.040210  1.0  -0.5726
  O  O398  1  0.052460  0.411080  0.934780  1.0  -0.6066
  O  O399  1  0.121370  0.341920  0.046190  1.0  -0.6066
  O  O400  1  0.067050  0.296840  0.936790  1.0  -0.5949
  O  O401  1  0.871040  0.911250  0.330630  1.0  -0.5724
  O  O402  1  0.947540  0.882320  0.358620  1.0  -0.6102
  O  O403  1  0.878630  0.924820  0.220550  1.0  -0.6093
  O  O404  1  0.932950  0.869740  0.229790  1.0  -0.5951
  O  O405  1  0.330630  0.871040  0.911250  1.0  -0.5731
  O  O406  1  0.358620  0.947540  0.882320  1.0  -0.6126
  O  O407  1  0.220550  0.878630  0.924820  1.0  -0.6096
  O  O408  1  0.229790  0.932950  0.869740  1.0  -0.5934
  O  O409  1  0.040210  0.128960  0.459590  1.0  -0.5716
  O  O410  1  0.934780  0.052460  0.411080  1.0  -0.6083
  O  O411  1  0.046190  0.121370  0.341920  1.0  -0.6086
  O  O412  1  0.936790  0.067050  0.296840  1.0  -0.592
  O  O413  1  0.669370  0.580620  0.540410  1.0  -0.5726
  O  O414  1  0.641380  0.523700  0.588920  1.0  -0.6091
  O  O415  1  0.779450  0.704270  0.658080  1.0  -0.6075
  O  O416  1  0.770210  0.639950  0.703160  1.0  -0.5935
  O  O417  1  0.959790  0.419380  0.088750  1.0  -0.5728
  O  O418  1  0.065220  0.476300  0.117680  1.0  -0.6094
  O  O419  1  0.953810  0.295730  0.075180  1.0  -0.6019
  O  O420  1  0.063210  0.360050  0.130260  1.0  -0.5938
  O  O421  1  0.348780  0.000000  0.000000  1.0  -0.6708
  O  O422  1  0.000000  0.348780  0.000000  1.0  -0.6712
  O  O423  1  0.000000  0.000000  0.348780  1.0  -0.6706
  O  O424  1  0.651220  0.651220  0.651220  1.0  -0.6713
