# generated using pymatgen
data_Ni3H45C72N3O13
_symmetry_space_group_name_H-M   'P 1'
_cell_length_a   29.26980000
_cell_length_b   29.26980000
_cell_length_c   29.26980000
_cell_angle_alpha   109.47100000
_cell_angle_beta   109.47100000
_cell_angle_gamma   109.47100000
_symmetry_Int_Tables_number   1
_chemical_formula_structural   Ni3H45C72N3O13
_chemical_formula_sum   'Ni12 H180 C288 N12 O52'
_cell_volume   19303.71609256
_cell_formula_units_Z   4
loop_
 _symmetry_equiv_pos_site_id
 _symmetry_equiv_pos_as_xyz
  1  'x, y, z'
loop_
 _atom_site_type_symbol
 _atom_site_label
 _atom_site_symmetry_multiplicity
 _atom_site_fract_x
 _atom_site_fract_y
 _atom_site_fract_z
 _atom_site_occupancy
 _atom_site_charge
  Ni  Ni1  1  0.732920  0.075460  0.008140  1.0  0.9697
  Ni  Ni2  1  0.067320  0.724780  0.991860  1.0  0.9693
  Ni  Ni3  1  0.932680  0.924540  0.657460  1.0  0.9706
  Ni  Ni4  1  0.267080  0.275220  0.342540  1.0  0.9702
  Ni  Ni5  1  0.657460  0.932680  0.924540  1.0  0.9699
  Ni  Ni6  1  0.342540  0.267080  0.275220  1.0  0.9689
  Ni  Ni7  1  0.008140  0.732920  0.075460  1.0  0.9706
  Ni  Ni8  1  0.991860  0.067320  0.724780  1.0  0.9704
  Ni  Ni9  1  0.724780  0.991860  0.067320  1.0  0.9691
  Ni  Ni10  1  0.075460  0.008140  0.732920  1.0  0.9692
  Ni  Ni11  1  0.275220  0.342540  0.267080  1.0  0.9691
  Ni  Ni12  1  0.924540  0.657460  0.932680  1.0  0.9695
  H  H13  1  0.156900  0.015400  0.689300  1.0  0.1042
  H  H14  1  0.243400  0.019300  0.713700  1.0  0.116
  H  H15  1  0.257400  0.026800  0.858800  1.0  0.1174
  H  H16  1  0.171000  0.022900  0.834500  1.0  0.1105
  H  H17  1  0.314600  0.018800  0.731400  1.0  0.1242
  H  H18  1  0.399200  0.018600  0.756400  1.0  0.1206
  H  H19  1  0.410900  0.030600  0.902300  1.0  0.1218
  H  H20  1  0.326300  0.030800  0.877300  1.0  0.1158
  H  H21  1  0.428300  0.936500  0.796800  1.0  0.1235
  H  H22  1  0.510800  0.932500  0.828100  1.0  0.1037
  H  H23  1  0.598600  0.099500  0.936700  1.0  0.102
  H  H24  1  0.516100  0.103500  0.905400  1.0  0.1234
  H  H25  1  0.734600  0.931900  0.823500  1.0  0.113
  H  H26  1  0.759600  0.889300  0.755500  1.0  0.109
  H  H27  1  0.816500  0.104100  0.918200  1.0  0.1069
  H  H28  1  0.326100  0.467600  0.310700  1.0  0.1026
  H  H29  1  0.305600  0.529700  0.286300  1.0  0.1185
  H  H30  1  0.168000  0.398600  0.141200  1.0  0.114
  H  H31  1  0.188400  0.336500  0.165500  1.0  0.1111
  H  H32  1  0.287400  0.583200  0.268600  1.0  0.1239
  H  H33  1  0.262200  0.642800  0.243600  1.0  0.1205
  H  H34  1  0.128300  0.508600  0.097700  1.0  0.1221
  H  H35  1  0.153500  0.449000  0.122700  1.0  0.1138
  H  H36  1  0.139700  0.631500  0.203200  1.0  0.122
  H  H37  1  0.104400  0.682700  0.171900  1.0  0.1025
  H  H38  1  0.162800  0.661900  0.063300  1.0  0.1019
  H  H39  1  0.198100  0.610700  0.094600  1.0  0.1234
  H  H40  1  0.108400  0.911100  0.176500  1.0  0.1132
  H  H41  1  0.133800  0.004100  0.244500  1.0  0.1076
  H  H42  1  0.185900  0.898300  0.081800  1.0  0.1066
  H  H43  1  0.673900  0.984600  0.141500  1.0  0.1034
  H  H44  1  0.694400  0.980700  0.224100  1.0  0.1145
  H  H45  1  0.832000  0.973200  0.230600  1.0  0.1111
  H  H46  1  0.811600  0.977100  0.148100  1.0  0.111
  H  H47  1  0.712600  0.981200  0.295800  1.0  0.1221
  H  H48  1  0.737800  0.981400  0.380600  1.0  0.1226
  H  H49  1  0.871700  0.969400  0.380300  1.0  0.1221
  H  H50  1  0.846500  0.969200  0.295500  1.0  0.1106
  H  H51  1  0.860300  0.063500  0.491800  1.0  0.1233
  H  H52  1  0.895600  0.067500  0.578300  1.0  0.1025
  H  H53  1  0.837200  0.900500  0.499100  1.0  0.1014
  H  H54  1  0.801900  0.896500  0.412600  1.0  0.1224
  H  H55  1  0.891600  0.068100  0.802700  1.0  0.1128
  H  H56  1  0.866200  0.110700  0.870300  1.0  0.1084
  H  H57  1  0.814100  0.895900  0.712400  1.0  0.106
  H  H58  1  0.843100  0.532400  0.858500  1.0  0.1023
  H  H59  1  0.756600  0.470300  0.775900  1.0  0.122
  H  H60  1  0.742600  0.601400  0.769400  1.0  0.1129
  H  H61  1  0.829000  0.663500  0.851900  1.0  0.1106
  H  H62  1  0.685400  0.416800  0.704200  1.0  0.1237
  H  H63  1  0.600800  0.357200  0.619400  1.0  0.12
  H  H64  1  0.589100  0.491400  0.619700  1.0  0.124
  H  H65  1  0.673700  0.551000  0.704500  1.0  0.1131
  H  H66  1  0.571700  0.368500  0.508200  1.0  0.1236
  H  H67  1  0.489200  0.317300  0.421700  1.0  0.1033
  H  H68  1  0.401400  0.338100  0.500900  1.0  0.1025
  H  H69  1  0.483900  0.389300  0.587400  1.0  0.1228
  H  H70  1  0.265400  0.088900  0.197300  1.0  0.1128
  H  H71  1  0.240400  0.995900  0.129700  1.0  0.1078
  H  H72  1  0.183500  0.101700  0.287600  1.0  0.1075
  H  H73  1  0.141500  0.673900  0.984600  1.0  0.1023
  H  H74  1  0.224100  0.694400  0.980700  1.0  0.1153
  H  H75  1  0.230600  0.832000  0.973200  1.0  0.1127
  H  H76  1  0.148100  0.811600  0.977100  1.0  0.1108
  H  H77  1  0.295800  0.712600  0.981200  1.0  0.1224
  H  H78  1  0.380600  0.737800  0.981400  1.0  0.1218
  H  H79  1  0.380300  0.871700  0.969400  1.0  0.1231
  H  H80  1  0.295500  0.846500  0.969200  1.0  0.112
  H  H81  1  0.491800  0.860300  0.063500  1.0  0.1212
  H  H82  1  0.578300  0.895600  0.067500  1.0  0.104
  H  H83  1  0.499100  0.837200  0.900500  1.0  0.1018
  H  H84  1  0.412600  0.801900  0.896500  1.0  0.123
  H  H85  1  0.802700  0.891600  0.068100  1.0  0.1127
  H  H86  1  0.870300  0.866200  0.110700  1.0  0.1081
  H  H87  1  0.712400  0.814100  0.895900  1.0  0.1065
  H  H88  1  0.858500  0.843100  0.532400  1.0  0.1029
  H  H89  1  0.775900  0.756600  0.470300  1.0  0.1189
  H  H90  1  0.769400  0.742600  0.601400  1.0  0.1145
  H  H91  1  0.851900  0.829000  0.663500  1.0  0.1104
  H  H92  1  0.704200  0.685400  0.416800  1.0  0.1244
  H  H93  1  0.619400  0.600800  0.357200  1.0  0.1181
  H  H94  1  0.619700  0.589100  0.491400  1.0  0.1228
  H  H95  1  0.704500  0.673700  0.551000  1.0  0.114
  H  H96  1  0.508200  0.571700  0.368500  1.0  0.1241
  H  H97  1  0.421700  0.489200  0.317300  1.0  0.1041
  H  H98  1  0.500900  0.401400  0.338100  1.0  0.101
  H  H99  1  0.587400  0.483900  0.389300  1.0  0.1229
  H  H100  1  0.197300  0.265400  0.088900  1.0  0.112
  H  H101  1  0.129700  0.240400  0.995900  1.0  0.1078
  H  H102  1  0.287600  0.183500  0.101700  1.0  0.1065
  H  H103  1  0.689300  0.156900  0.015400  1.0  0.1031
  H  H104  1  0.713700  0.243400  0.019300  1.0  0.113
  H  H105  1  0.858800  0.257400  0.026800  1.0  0.1145
  H  H106  1  0.834500  0.171000  0.022900  1.0  0.1108
  H  H107  1  0.731400  0.314600  0.018800  1.0  0.1221
  H  H108  1  0.756400  0.399200  0.018600  1.0  0.1219
  H  H109  1  0.902300  0.410900  0.030600  1.0  0.1219
  H  H110  1  0.877300  0.326300  0.030800  1.0  0.115
  H  H111  1  0.796800  0.428300  0.936500  1.0  0.123
  H  H112  1  0.828100  0.510800  0.932500  1.0  0.1026
  H  H113  1  0.936700  0.598600  0.099500  1.0  0.1018
  H  H114  1  0.905400  0.516100  0.103500  1.0  0.1225
  H  H115  1  0.823500  0.734600  0.931900  1.0  0.1117
  H  H116  1  0.755500  0.759600  0.889300  1.0  0.1084
  H  H117  1  0.918200  0.816500  0.104100  1.0  0.1064
  H  H118  1  0.310700  0.326100  0.467600  1.0  0.1033
  H  H119  1  0.286300  0.305600  0.529700  1.0  0.1177
  H  H120  1  0.141200  0.168000  0.398600  1.0  0.115
  H  H121  1  0.165500  0.188400  0.336500  1.0  0.1097
  H  H122  1  0.268600  0.287400  0.583200  1.0  0.124
  H  H123  1  0.243600  0.262200  0.642800  1.0  0.1209
  H  H124  1  0.097700  0.128300  0.508600  1.0  0.1214
  H  H125  1  0.122700  0.153500  0.449000  1.0  0.1098
  H  H126  1  0.203200  0.139700  0.631500  1.0  0.1224
  H  H127  1  0.171900  0.104400  0.682700  1.0  0.1034
  H  H128  1  0.063300  0.162800  0.661900  1.0  0.1018
  H  H129  1  0.094600  0.198100  0.610700  1.0  0.1238
  H  H130  1  0.176500  0.108400  0.911100  1.0  0.1125
  H  H131  1  0.244500  0.133800  0.004100  1.0  0.1071
  H  H132  1  0.081800  0.185900  0.898300  1.0  0.1073
  H  H133  1  0.467600  0.310700  0.326100  1.0  0.1022
  H  H134  1  0.529700  0.286300  0.305600  1.0  0.1155
  H  H135  1  0.398600  0.141200  0.168000  1.0  0.1159
  H  H136  1  0.336500  0.165500  0.188400  1.0  0.1095
  H  H137  1  0.583200  0.268600  0.287400  1.0  0.1238
  H  H138  1  0.642800  0.243600  0.262200  1.0  0.1209
  H  H139  1  0.508600  0.097700  0.128300  1.0  0.1216
  H  H140  1  0.449000  0.122700  0.153500  1.0  0.1129
  H  H141  1  0.631500  0.203200  0.139700  1.0  0.1238
  H  H142  1  0.682700  0.171900  0.104400  1.0  0.103
  H  H143  1  0.661900  0.063300  0.162800  1.0  0.1032
  H  H144  1  0.610700  0.094600  0.198100  1.0  0.1224
  H  H145  1  0.911100  0.176500  0.108400  1.0  0.1139
  H  H146  1  0.004100  0.244500  0.133800  1.0  0.1077
  H  H147  1  0.898300  0.081800  0.185900  1.0  0.1067
  H  H148  1  0.015400  0.689300  0.156900  1.0  0.1039
  H  H149  1  0.019300  0.713700  0.243400  1.0  0.1171
  H  H150  1  0.026800  0.858800  0.257400  1.0  0.1175
  H  H151  1  0.022900  0.834500  0.171000  1.0  0.1098
  H  H152  1  0.018800  0.731400  0.314600  1.0  0.1237
  H  H153  1  0.018600  0.756400  0.399200  1.0  0.1221
  H  H154  1  0.030600  0.902300  0.410900  1.0  0.1222
  H  H155  1  0.030800  0.877300  0.326300  1.0  0.1142
  H  H156  1  0.936500  0.796800  0.428300  1.0  0.1221
  H  H157  1  0.932500  0.828100  0.510800  1.0  0.1033
  H  H158  1  0.099500  0.936700  0.598600  1.0  0.1013
  H  H159  1  0.103500  0.905400  0.516100  1.0  0.1237
  H  H160  1  0.931900  0.823500  0.734600  1.0  0.1122
  H  H161  1  0.889300  0.755500  0.759600  1.0  0.1092
  H  H162  1  0.104100  0.918200  0.816500  1.0  0.1062
  H  H163  1  0.532400  0.858500  0.843100  1.0  0.1033
  H  H164  1  0.470300  0.775900  0.756600  1.0  0.1177
  H  H165  1  0.601400  0.769400  0.742600  1.0  0.1118
  H  H166  1  0.663500  0.851900  0.829000  1.0  0.111
  H  H167  1  0.416800  0.704200  0.685400  1.0  0.1221
  H  H168  1  0.357200  0.619400  0.600800  1.0  0.1202
  H  H169  1  0.491400  0.619700  0.589100  1.0  0.1236
  H  H170  1  0.551000  0.704500  0.673700  1.0  0.1128
  H  H171  1  0.368500  0.508200  0.571700  1.0  0.1219
  H  H172  1  0.317300  0.421700  0.489200  1.0  0.1017
  H  H173  1  0.338100  0.500900  0.401400  1.0  0.1023
  H  H174  1  0.389300  0.587400  0.483900  1.0  0.1235
  H  H175  1  0.088900  0.197300  0.265400  1.0  0.1136
  H  H176  1  0.995900  0.129700  0.240400  1.0  0.1077
  H  H177  1  0.101700  0.287600  0.183500  1.0  0.106
  H  H178  1  0.984600  0.141500  0.673900  1.0  0.1036
  H  H179  1  0.980700  0.224100  0.694400  1.0  0.1162
  H  H180  1  0.973200  0.230600  0.832000  1.0  0.1134
  H  H181  1  0.977100  0.148100  0.811600  1.0  0.1107
  H  H182  1  0.981200  0.295800  0.712600  1.0  0.1242
  H  H183  1  0.981400  0.380600  0.737800  1.0  0.12
  H  H184  1  0.969400  0.380300  0.871700  1.0  0.1225
  H  H185  1  0.969200  0.295500  0.846500  1.0  0.1123
  H  H186  1  0.063500  0.491800  0.860300  1.0  0.1223
  H  H187  1  0.067500  0.578300  0.895600  1.0  0.1029
  H  H188  1  0.900500  0.499100  0.837200  1.0  0.1018
  H  H189  1  0.896500  0.412600  0.801900  1.0  0.1235
  H  H190  1  0.068100  0.802700  0.891600  1.0  0.1121
  H  H191  1  0.110700  0.870300  0.866200  1.0  0.1085
  H  H192  1  0.895900  0.712400  0.814100  1.0  0.1063
  C  C193  1  0.177310  0.017720  0.723730  1.0  0.1041
  C  C194  1  0.228660  0.020020  0.738200  1.0  -0.1372
  C  C195  1  0.258510  0.023390  0.788540  1.0  0.0387
  C  C196  1  0.237010  0.024460  0.824430  1.0  -0.1143
  C  C197  1  0.185660  0.022160  0.809960  1.0  0.1065
  C  C198  1  0.312500  0.024840  0.802000  1.0  0.047
  C  C199  1  0.334140  0.021220  0.766080  1.0  -0.0955
  C  C200  1  0.384430  0.021120  0.780950  1.0  -0.1072
  C  C201  1  0.413060  0.024630  0.831730  1.0  0.0559
  C  C202  1  0.391410  0.028240  0.867630  1.0  -0.1198
  C  C203  1  0.341130  0.028340  0.852770  1.0  -0.111
  C  C204  1  0.464400  0.020350  0.848090  1.0  0.0737
  C  C205  1  0.462860  0.969570  0.825170  1.0  -0.1261
  C  C206  1  0.511900  0.967200  0.843820  1.0  -0.0801
  C  C207  1  0.562480  0.015620  0.885420  1.0  -0.1298
  C  C208  1  0.564020  0.066410  0.908350  1.0  -0.0771
  C  C209  1  0.514980  0.068770  0.889690  1.0  -0.1332
  C  C210  1  0.611670  0.011370  0.914260  1.0  0.7281
  C  C211  1  0.742010  0.011430  0.909020  1.0  0.7479
  C  C212  1  0.769960  0.016490  0.875870  1.0  -0.15
  C  C213  1  0.761110  0.967910  0.833280  1.0  -0.0608
  C  C214  1  0.792460  0.973620  0.805160  1.0  0.051
  C  C215  1  0.786320  0.925090  0.765010  1.0  -0.0927
  C  C216  1  0.810290  0.071160  0.889810  1.0  -0.0599
  C  C217  1  0.293990  0.453580  0.276270  1.0  0.1032
  C  C218  1  0.281820  0.490460  0.261800  1.0  -0.1341
  C  C219  1  0.234850  0.469970  0.211460  1.0  0.0414
  C  C220  1  0.200030  0.412580  0.175570  1.0  -0.1125
  C  C221  1  0.212200  0.375700  0.190040  1.0  0.1075
  C  C222  1  0.222840  0.510500  0.198000  1.0  0.047
  C  C223  1  0.255140  0.568060  0.233920  1.0  -0.0957
  C  C224  1  0.240170  0.603480  0.219050  1.0  -0.1066
  C  C225  1  0.192900  0.581330  0.168270  1.0  0.0563
  C  C226  1  0.160610  0.523780  0.132370  1.0  -0.1214
  C  C227  1  0.175570  0.488360  0.147230  1.0  -0.1087
  C  C228  1  0.172260  0.616310  0.151910  1.0  0.0744
  C  C229  1  0.144400  0.637690  0.174830  1.0  -0.1226
  C  C230  1  0.123380  0.668080  0.156180  1.0  -0.0818
  C  C231  1  0.130200  0.677060  0.114580  1.0  -0.1278
  C  C232  1  0.158060  0.655670  0.091650  1.0  -0.0781
  C  C233  1  0.179080  0.625290  0.110310  1.0  -0.1304
  C  C234  1  0.097110  0.697410  0.085740  1.0  0.7536
  C  C235  1  0.102410  0.832990  0.090980  1.0  0.7488
  C  C236  1  0.140620  0.894090  0.124130  1.0  -0.1445
  C  C237  1  0.134630  0.927830  0.166720  1.0  -0.0649
  C  C238  1  0.168460  0.987300  0.194840  1.0  0.0486
  C  C239  1  0.160080  0.021310  0.234990  1.0  -0.0861
  C  C240  1  0.181350  0.920480  0.110190  1.0  -0.0607
  C  C241  1  0.706010  0.982280  0.159590  1.0  0.1037
  C  C242  1  0.718180  0.979980  0.208640  1.0  -0.1345
  C  C243  1  0.765150  0.976610  0.235120  1.0  0.0407
  C  C244  1  0.799970  0.975540  0.212550  1.0  -0.1117
  C  C245  1  0.787800  0.977840  0.163500  1.0  0.111
  C  C246  1  0.777160  0.975160  0.287660  1.0  0.047
  C  C247  1  0.744860  0.978780  0.312920  1.0  -0.0954
  C  C248  1  0.759830  0.978880  0.363310  1.0  -0.1055
  C  C249  1  0.807100  0.975370  0.388430  1.0  0.0557
  C  C250  1  0.839390  0.971760  0.363170  1.0  -0.1177
  C  C251  1  0.824430  0.971660  0.312790  1.0  -0.1102
  C  C252  1  0.827740  0.979650  0.444050  1.0  0.0731
  C  C253  1  0.855600  0.030430  0.493290  1.0  -0.1266
  C  C254  1  0.876620  0.032800  0.544700  1.0  -0.0789
  C  C255  1  0.869800  0.984380  0.546860  1.0  -0.1301
  C  C256  1  0.841940  0.933590  0.497610  1.0  -0.0739
  C  C257  1  0.820920  0.931230  0.446210  1.0  -0.1317
  C  C258  1  0.902890  0.988630  0.600300  1.0  0.7332
  C  C259  1  0.897590  0.988570  0.730580  1.0  0.7472
  C  C260  1  0.859380  0.983510  0.753470  1.0  -0.1511
  C  C261  1  0.865370  0.032090  0.793200  1.0  -0.0561
  C  C262  1  0.831540  0.026380  0.818840  1.0  0.0512
  C  C263  1  0.839920  0.074910  0.861230  1.0  -0.091
  C  C264  1  0.818650  0.928840  0.739130  1.0  -0.0599
  C  C265  1  0.822690  0.546420  0.840410  1.0  0.0986
  C  C266  1  0.771340  0.509540  0.791360  1.0  -0.1346
  C  C267  1  0.741490  0.530030  0.764880  1.0  0.0377
  C  C268  1  0.762990  0.587420  0.787450  1.0  -0.1128
  C  C269  1  0.814340  0.624300  0.836500  1.0  0.1082
  C  C270  1  0.687500  0.489500  0.712340  1.0  0.0461
  C  C271  1  0.665860  0.431940  0.687080  1.0  -0.0963
  C  C272  1  0.615570  0.396520  0.636690  1.0  -0.1066
  C  C273  1  0.586940  0.418670  0.611570  1.0  0.0555
  C  C274  1  0.608590  0.476220  0.636830  1.0  -0.1293
  C  C275  1  0.658870  0.511640  0.687210  1.0  -0.1084
  C  C276  1  0.535600  0.383690  0.555950  1.0  0.0744
  C  C277  1  0.537140  0.362310  0.506710  1.0  -0.1213
  C  C278  1  0.488100  0.331920  0.455300  1.0  -0.0821
  C  C279  1  0.437520  0.322940  0.453140  1.0  -0.1255
  C  C280  1  0.435980  0.344330  0.502390  1.0  -0.0756
  C  C281  1  0.485020  0.374710  0.553790  1.0  -0.1327
  C  C282  1  0.388330  0.302590  0.399700  1.0  0.7495
  C  C283  1  0.257990  0.167010  0.269420  1.0  0.7514
  C  C284  1  0.230040  0.105910  0.246530  1.0  -0.145
  C  C285  1  0.238890  0.072170  0.206800  1.0  -0.0659
  C  C286  1  0.207540  0.012700  0.181160  1.0  0.0512
  C  C287  1  0.213680  0.978690  0.138770  1.0  -0.084
  C  C288  1  0.189710  0.079520  0.260870  1.0  -0.0608
  C  C289  1  0.159590  0.706010  0.982280  1.0  0.1045
  C  C290  1  0.208640  0.718180  0.979980  1.0  -0.1337
  C  C291  1  0.235120  0.765150  0.976610  1.0  0.0389
  C  C292  1  0.212550  0.799970  0.975540  1.0  -0.1107
  C  C293  1  0.163500  0.787800  0.977840  1.0  0.1095
  C  C294  1  0.287660  0.777160  0.975160  1.0  0.0467
  C  C295  1  0.312920  0.744860  0.978780  1.0  -0.0957
  C  C296  1  0.363310  0.759830  0.978880  1.0  -0.1076
  C  C297  1  0.388430  0.807100  0.975370  1.0  0.0559
  C  C298  1  0.363170  0.839390  0.971760  1.0  -0.1206
  C  C299  1  0.312790  0.824430  0.971660  1.0  -0.1122
  C  C300  1  0.444050  0.827740  0.979650  1.0  0.0741
  C  C301  1  0.493290  0.855600  0.030430  1.0  -0.1232
  C  C302  1  0.544700  0.876620  0.032800  1.0  -0.0839
  C  C303  1  0.546860  0.869800  0.984380  1.0  -0.1269
  C  C304  1  0.497610  0.841940  0.933590  1.0  -0.079
  C  C305  1  0.446210  0.820920  0.931230  1.0  -0.1328
  C  C306  1  0.600300  0.902890  0.988630  1.0  0.7291
  C  C307  1  0.730580  0.897590  0.988570  1.0  0.7485
  C  C308  1  0.753470  0.859380  0.983510  1.0  -0.1502
  C  C309  1  0.793200  0.865370  0.032090  1.0  -0.0579
  C  C310  1  0.818840  0.831540  0.026380  1.0  0.0492
  C  C311  1  0.861230  0.839920  0.074910  1.0  -0.0885
  C  C312  1  0.739130  0.818650  0.928840  1.0  -0.0608
  C  C313  1  0.840410  0.822690  0.546420  1.0  0.0993
  C  C314  1  0.791360  0.771340  0.509540  1.0  -0.1367
  C  C315  1  0.764880  0.741490  0.530030  1.0  0.0392
  C  C316  1  0.787450  0.762990  0.587420  1.0  -0.1146
  C  C317  1  0.836500  0.814340  0.624300  1.0  0.106
  C  C318  1  0.712340  0.687500  0.489500  1.0  0.0459
  C  C319  1  0.687080  0.665860  0.431940  1.0  -0.0941
  C  C320  1  0.636690  0.615570  0.396520  1.0  -0.1061
  C  C321  1  0.611570  0.586940  0.418670  1.0  0.0557
  C  C322  1  0.636830  0.608590  0.476220  1.0  -0.1272
  C  C323  1  0.687210  0.658870  0.511640  1.0  -0.1098
  C  C324  1  0.555950  0.535600  0.383690  1.0  0.0743
  C  C325  1  0.506710  0.537140  0.362310  1.0  -0.1239
  C  C326  1  0.455300  0.488100  0.331920  1.0  -0.0831
  C  C327  1  0.453140  0.437520  0.322940  1.0  -0.126
  C  C328  1  0.502390  0.435980  0.344330  1.0  -0.0726
  C  C329  1  0.553790  0.485020  0.374710  1.0  -0.1287
  C  C330  1  0.399700  0.388330  0.302590  1.0  0.7495
  C  C331  1  0.269420  0.257990  0.167010  1.0  0.7506
  C  C332  1  0.246530  0.230040  0.105910  1.0  -0.1455
  C  C333  1  0.206800  0.238890  0.072170  1.0  -0.0648
  C  C334  1  0.181160  0.207540  0.012700  1.0  0.0509
  C  C335  1  0.138770  0.213680  0.978690  1.0  -0.0843
  C  C336  1  0.260870  0.189710  0.079520  1.0  -0.0604
  C  C337  1  0.723730  0.177310  0.017720  1.0  0.1024
  C  C338  1  0.738200  0.228660  0.020020  1.0  -0.134
  C  C339  1  0.788540  0.258510  0.023390  1.0  0.0411
  C  C340  1  0.824430  0.237010  0.024460  1.0  -0.112
  C  C341  1  0.809960  0.185660  0.022160  1.0  0.1072
  C  C342  1  0.802000  0.312500  0.024840  1.0  0.047
  C  C343  1  0.766080  0.334140  0.021220  1.0  -0.0958
  C  C344  1  0.780950  0.384430  0.021120  1.0  -0.1044
  C  C345  1  0.831730  0.413060  0.024630  1.0  0.0555
  C  C346  1  0.867630  0.391410  0.028240  1.0  -0.1202
  C  C347  1  0.852770  0.341130  0.028340  1.0  -0.1103
  C  C348  1  0.848090  0.464400  0.020350  1.0  0.073
  C  C349  1  0.825170  0.462860  0.969570  1.0  -0.1255
  C  C350  1  0.843820  0.511900  0.967200  1.0  -0.0822
  C  C351  1  0.885420  0.562480  0.015620  1.0  -0.1294
  C  C352  1  0.908350  0.564020  0.066410  1.0  -0.0727
  C  C353  1  0.889690  0.514980  0.068770  1.0  -0.1299
  C  C354  1  0.914260  0.611670  0.011370  1.0  0.7287
  C  C355  1  0.909020  0.742010  0.011430  1.0  0.7496
  C  C356  1  0.875870  0.769960  0.016490  1.0  -0.1508
  C  C357  1  0.833280  0.761110  0.967910  1.0  -0.0602
  C  C358  1  0.805160  0.792460  0.973620  1.0  0.0513
  C  C359  1  0.765010  0.786320  0.925090  1.0  -0.0928
  C  C360  1  0.889810  0.810290  0.071160  1.0  -0.0607
  C  C361  1  0.276270  0.293990  0.453580  1.0  0.1065
  C  C362  1  0.261800  0.281820  0.490460  1.0  -0.1369
  C  C363  1  0.211460  0.234850  0.469970  1.0  0.0416
  C  C364  1  0.175570  0.200030  0.412580  1.0  -0.1119
  C  C365  1  0.190040  0.212200  0.375700  1.0  0.1096
  C  C366  1  0.198000  0.222840  0.510500  1.0  0.0476
  C  C367  1  0.233920  0.255140  0.568060  1.0  -0.0946
  C  C368  1  0.219050  0.240170  0.603480  1.0  -0.1065
  C  C369  1  0.168270  0.192900  0.581330  1.0  0.0565
  C  C370  1  0.132370  0.160610  0.523780  1.0  -0.1215
  C  C371  1  0.147230  0.175570  0.488360  1.0  -0.1118
  C  C372  1  0.151910  0.172260  0.616310  1.0  0.0745
  C  C373  1  0.174830  0.144400  0.637690  1.0  -0.1195
  C  C374  1  0.156180  0.123380  0.668080  1.0  -0.0806
  C  C375  1  0.114580  0.130200  0.677060  1.0  -0.1304
  C  C376  1  0.091650  0.158060  0.655670  1.0  -0.0755
  C  C377  1  0.110310  0.179080  0.625290  1.0  -0.1331
  C  C378  1  0.085740  0.097110  0.697410  1.0  0.7539
  C  C379  1  0.090980  0.102410  0.832990  1.0  0.7478
  C  C380  1  0.124130  0.140620  0.894090  1.0  -0.1454
  C  C381  1  0.166720  0.134630  0.927830  1.0  -0.062
  C  C382  1  0.194840  0.168460  0.987300  1.0  0.0505
  C  C383  1  0.234990  0.160080  0.021310  1.0  -0.088
  C  C384  1  0.110190  0.181350  0.920480  1.0  -0.06
  C  C385  1  0.453580  0.276270  0.293990  1.0  0.1048
  C  C386  1  0.490460  0.261800  0.281820  1.0  -0.1362
  C  C387  1  0.469970  0.211460  0.234850  1.0  0.0401
  C  C388  1  0.412580  0.175570  0.200030  1.0  -0.1121
  C  C389  1  0.375700  0.190040  0.212200  1.0  0.1069
  C  C390  1  0.510500  0.198000  0.222840  1.0  0.0472
  C  C391  1  0.568060  0.233920  0.255140  1.0  -0.0936
  C  C392  1  0.603480  0.219050  0.240170  1.0  -0.1074
  C  C393  1  0.581330  0.168270  0.192900  1.0  0.0561
  C  C394  1  0.523780  0.132370  0.160610  1.0  -0.1222
  C  C395  1  0.488360  0.147230  0.175570  1.0  -0.1133
  C  C396  1  0.616310  0.151910  0.172260  1.0  0.0744
  C  C397  1  0.637690  0.174830  0.144400  1.0  -0.1285
  C  C398  1  0.668080  0.156180  0.123380  1.0  -0.0829
  C  C399  1  0.677060  0.114580  0.130200  1.0  -0.1266
  C  C400  1  0.655670  0.091650  0.158060  1.0  -0.0738
  C  C401  1  0.625290  0.110310  0.179080  1.0  -0.1323
  C  C402  1  0.697410  0.085740  0.097110  1.0  0.7511
  C  C403  1  0.832990  0.090980  0.102410  1.0  0.7495
  C  C404  1  0.894090  0.124130  0.140620  1.0  -0.1447
  C  C405  1  0.927830  0.166720  0.134630  1.0  -0.064
  C  C406  1  0.987300  0.194840  0.168460  1.0  0.0504
  C  C407  1  0.021310  0.234990  0.160080  1.0  -0.0872
  C  C408  1  0.920480  0.110190  0.181350  1.0  -0.0619
  C  C409  1  0.017720  0.723730  0.177310  1.0  0.1047
  C  C410  1  0.020020  0.738200  0.228660  1.0  -0.1346
  C  C411  1  0.023390  0.788540  0.258510  1.0  0.0408
  C  C412  1  0.024460  0.824430  0.237010  1.0  -0.1133
  C  C413  1  0.022160  0.809960  0.185660  1.0  0.111
  C  C414  1  0.024840  0.802000  0.312500  1.0  0.047
  C  C415  1  0.021220  0.766080  0.334140  1.0  -0.0963
  C  C416  1  0.021120  0.780950  0.384430  1.0  -0.1074
  C  C417  1  0.024630  0.831730  0.413060  1.0  0.0558
  C  C418  1  0.028240  0.867630  0.391410  1.0  -0.123
  C  C419  1  0.028340  0.852770  0.341130  1.0  -0.1141
  C  C420  1  0.020350  0.848090  0.464400  1.0  0.0745
  C  C421  1  0.969570  0.825170  0.462860  1.0  -0.1244
  C  C422  1  0.967200  0.843820  0.511900  1.0  -0.081
  C  C423  1  0.015620  0.885420  0.562480  1.0  -0.1332
  C  C424  1  0.066410  0.908350  0.564020  1.0  -0.0748
  C  C425  1  0.068770  0.889690  0.514980  1.0  -0.1306
  C  C426  1  0.011370  0.914260  0.611670  1.0  0.7293
  C  C427  1  0.011430  0.909020  0.742010  1.0  0.7483
  C  C428  1  0.016490  0.875870  0.769960  1.0  -0.1509
  C  C429  1  0.967910  0.833280  0.761110  1.0  -0.0612
  C  C430  1  0.973620  0.805160  0.792460  1.0  0.051
  C  C431  1  0.925090  0.765010  0.786320  1.0  -0.0943
  C  C432  1  0.071160  0.889810  0.810290  1.0  -0.0575
  C  C433  1  0.546420  0.840410  0.822690  1.0  0.0989
  C  C434  1  0.509540  0.791360  0.771340  1.0  -0.1357
  C  C435  1  0.530030  0.764880  0.741490  1.0  0.0394
  C  C436  1  0.587420  0.787450  0.762990  1.0  -0.1134
  C  C437  1  0.624300  0.836500  0.814340  1.0  0.1078
  C  C438  1  0.489500  0.712340  0.687500  1.0  0.0465
  C  C439  1  0.431940  0.687080  0.665860  1.0  -0.0952
  C  C440  1  0.396520  0.636690  0.615570  1.0  -0.1042
  C  C441  1  0.418670  0.611570  0.586940  1.0  0.0552
  C  C442  1  0.476220  0.636830  0.608590  1.0  -0.126
  C  C443  1  0.511640  0.687210  0.658870  1.0  -0.1105
  C  C444  1  0.383690  0.555950  0.535600  1.0  0.0727
  C  C445  1  0.362310  0.506710  0.537140  1.0  -0.1228
  C  C446  1  0.331920  0.455300  0.488100  1.0  -0.0808
  C  C447  1  0.322940  0.453140  0.437520  1.0  -0.1247
  C  C448  1  0.344330  0.502390  0.435980  1.0  -0.0785
  C  C449  1  0.374710  0.553790  0.485020  1.0  -0.1307
  C  C450  1  0.302590  0.399700  0.388330  1.0  0.7489
  C  C451  1  0.167010  0.269420  0.257990  1.0  0.7515
  C  C452  1  0.105910  0.246530  0.230040  1.0  -0.1461
  C  C453  1  0.072170  0.206800  0.238890  1.0  -0.0662
  C  C454  1  0.012700  0.181160  0.207540  1.0  0.0496
  C  C455  1  0.978690  0.138770  0.213680  1.0  -0.0841
  C  C456  1  0.079520  0.260870  0.189710  1.0  -0.0607
  C  C457  1  0.982280  0.159590  0.706010  1.0  0.1032
  C  C458  1  0.979980  0.208640  0.718180  1.0  -0.1378
  C  C459  1  0.976610  0.235120  0.765150  1.0  0.038
  C  C460  1  0.975540  0.212550  0.799970  1.0  -0.1153
  C  C461  1  0.977840  0.163500  0.787800  1.0  0.1062
  C  C462  1  0.975160  0.287660  0.777160  1.0  0.0473
  C  C463  1  0.978780  0.312920  0.744860  1.0  -0.0949
  C  C464  1  0.978880  0.363310  0.759830  1.0  -0.107
  C  C465  1  0.975370  0.388430  0.807100  1.0  0.0553
  C  C466  1  0.971760  0.363170  0.839390  1.0  -0.1219
  C  C467  1  0.971660  0.312790  0.824430  1.0  -0.1099
  C  C468  1  0.979650  0.444050  0.827740  1.0  0.0741
  C  C469  1  0.030430  0.493290  0.855600  1.0  -0.1213
  C  C470  1  0.032800  0.544700  0.876620  1.0  -0.0787
  C  C471  1  0.984380  0.546860  0.869800  1.0  -0.128
  C  C472  1  0.933590  0.497610  0.841940  1.0  -0.0761
  C  C473  1  0.931230  0.446210  0.820920  1.0  -0.1302
  C  C474  1  0.988630  0.600300  0.902890  1.0  0.7304
  C  C475  1  0.988570  0.730580  0.897590  1.0  0.7476
  C  C476  1  0.983510  0.753470  0.859380  1.0  -0.1499
  C  C477  1  0.032090  0.793200  0.865370  1.0  -0.0577
  C  C478  1  0.026380  0.818840  0.831540  1.0  0.0511
  C  C479  1  0.074910  0.861230  0.839920  1.0  -0.0901
  C  C480  1  0.928840  0.739130  0.818650  1.0  -0.0596
  N  N481  1  0.155820  0.018800  0.759620  1.0  -0.3233
  N  N482  1  0.259180  0.396200  0.240380  1.0  -0.3241
  N  N483  1  0.740820  0.981200  0.137020  1.0  -0.3255
  N  N484  1  0.844180  0.603800  0.862980  1.0  -0.3241
  N  N485  1  0.137020  0.740820  0.981200  1.0  -0.3242
  N  N486  1  0.862980  0.844180  0.603800  1.0  -0.3257
  N  N487  1  0.759620  0.155820  0.018800  1.0  -0.3264
  N  N488  1  0.240380  0.259180  0.396200  1.0  -0.3256
  N  N489  1  0.396200  0.240380  0.259180  1.0  -0.3242
  N  N490  1  0.018800  0.759620  0.155820  1.0  -0.3261
  N  N491  1  0.603800  0.862980  0.844180  1.0  -0.3257
  N  N492  1  0.981200  0.137020  0.740820  1.0  -0.3249
  O  O493  1  0.655340  0.054280  0.953240  1.0  -0.6327
  O  O494  1  0.608530  0.964730  0.894540  1.0  -0.6226
  O  O495  1  0.753930  0.054800  0.946270  1.0  -0.6052
  O  O496  1  0.709270  0.961880  0.895490  1.0  -0.6156
  O  O497  1  0.101040  0.702100  0.046760  1.0  -0.6378
  O  O498  1  0.070190  0.713990  0.105460  1.0  -0.6202
  O  O499  1  0.108530  0.807660  0.053730  1.0  -0.6047
  O  O500  1  0.066390  0.813780  0.104510  1.0  -0.6134
  O  O501  1  0.898960  0.945720  0.601060  1.0  -0.6385
  O  O502  1  0.929810  0.035270  0.643800  1.0  -0.623
  O  O503  1  0.891470  0.945200  0.699130  1.0  -0.6071
  O  O504  1  0.933610  0.038120  0.747390  1.0  -0.6155
  O  O505  1  0.344660  0.297900  0.398940  1.0  -0.635
  O  O506  1  0.391470  0.286010  0.356200  1.0  -0.6199
  O  O507  1  0.246070  0.192340  0.300870  1.0  -0.6026
  O  O508  1  0.290730  0.186220  0.252610  1.0  -0.6146
  O  O509  1  0.601060  0.898960  0.945720  1.0  -0.6381
  O  O510  1  0.643800  0.929810  0.035270  1.0  -0.6195
  O  O511  1  0.699130  0.891470  0.945200  1.0  -0.6031
  O  O512  1  0.747390  0.933610  0.038120  1.0  -0.6128
  O  O513  1  0.398940  0.344660  0.297900  1.0  -0.6375
  O  O514  1  0.356200  0.391470  0.286010  1.0  -0.6198
  O  O515  1  0.300870  0.246070  0.192340  1.0  -0.6043
  O  O516  1  0.252610  0.290730  0.186220  1.0  -0.6152
  O  O517  1  0.953240  0.655340  0.054280  1.0  -0.6324
  O  O518  1  0.894540  0.608530  0.964730  1.0  -0.6206
  O  O519  1  0.946270  0.753930  0.054800  1.0  -0.604
  O  O520  1  0.895490  0.709270  0.961880  1.0  -0.6129
  O  O521  1  0.046760  0.101040  0.702100  1.0  -0.6385
  O  O522  1  0.105460  0.070190  0.713990  1.0  -0.622
  O  O523  1  0.053730  0.108530  0.807660  1.0  -0.6036
  O  O524  1  0.104510  0.066390  0.813780  1.0  -0.6146
  O  O525  1  0.702100  0.046760  0.101040  1.0  -0.6381
  O  O526  1  0.713990  0.105460  0.070190  1.0  -0.62
  O  O527  1  0.807660  0.053730  0.108530  1.0  -0.6046
  O  O528  1  0.813780  0.104510  0.066390  1.0  -0.6148
  O  O529  1  0.054280  0.953240  0.655340  1.0  -0.6317
  O  O530  1  0.964730  0.894540  0.608530  1.0  -0.6209
  O  O531  1  0.054800  0.946270  0.753930  1.0  -0.6042
  O  O532  1  0.961880  0.895490  0.709270  1.0  -0.6145
  O  O533  1  0.297900  0.398940  0.344660  1.0  -0.6367
  O  O534  1  0.286010  0.356200  0.391470  1.0  -0.6206
  O  O535  1  0.192340  0.300870  0.246070  1.0  -0.605
  O  O536  1  0.186220  0.252610  0.290730  1.0  -0.615
  O  O537  1  0.945720  0.601060  0.898960  1.0  -0.6363
  O  O538  1  0.035270  0.643800  0.929810  1.0  -0.6212
  O  O539  1  0.945200  0.699130  0.891470  1.0  -0.6056
  O  O540  1  0.038120  0.747390  0.933610  1.0  -0.6143
  O  O541  1  0.711760  0.000000  0.000000  1.0  -0.7694
  O  O542  1  0.000000  0.711760  0.000000  1.0  -0.7687
  O  O543  1  0.000000  0.000000  0.711760  1.0  -0.7686
  O  O544  1  0.288240  0.288240  0.288240  1.0  -0.7694
