# generated using pymatgen
data_Sm5(SO4)12
_symmetry_space_group_name_H-M   'P 1'
_cell_length_a   20.64940000
_cell_length_b   35.26100000
_cell_length_c   10.13180000
_cell_angle_alpha   90.00000000
_cell_angle_beta   115.00400000
_cell_angle_gamma   90.00000000
_symmetry_Int_Tables_number   1
_chemical_formula_structural   Sm5(SO4)12
_chemical_formula_sum   'Sm20 S48 O192'
_cell_volume   6685.75167931
_cell_formula_units_Z   4
loop_
 _symmetry_equiv_pos_site_id
 _symmetry_equiv_pos_as_xyz
  1  'x, y, z'
loop_
 _atom_site_type_symbol
 _atom_site_label
 _atom_site_symmetry_multiplicity
 _atom_site_fract_x
 _atom_site_fract_y
 _atom_site_fract_z
 _atom_site_occupancy
 _atom_site_charge
  Sm  Sm1  1  0.636980  0.470080  0.977960  1.0  2.3306
  Sm  Sm2  1  0.756990  0.308030  0.010540  1.0  2.3325
  Sm  Sm3  1  0.136980  0.970080  0.977960  1.0  2.3306
  Sm  Sm4  1  0.256990  0.808030  0.010540  1.0  2.3325
  Sm  Sm5  1  0.363020  0.470080  0.522040  1.0  2.3306
  Sm  Sm6  1  0.243010  0.308030  0.489460  1.0  2.3318
  Sm  Sm7  1  0.863020  0.970080  0.522040  1.0  2.3306
  Sm  Sm8  1  0.743010  0.808030  0.489460  1.0  2.3318
  Sm  Sm9  1  0.363020  0.529920  0.022040  1.0  2.3307
  Sm  Sm10  1  0.243010  0.691970  0.989460  1.0  2.3324
  Sm  Sm11  1  0.863020  0.029920  0.022040  1.0  2.3307
  Sm  Sm12  1  0.743010  0.191970  0.989460  1.0  2.3324
  Sm  Sm13  1  0.636980  0.529920  0.477960  1.0  2.3355
  Sm  Sm14  1  0.756990  0.691970  0.510540  1.0  2.3331
  Sm  Sm15  1  0.136980  0.029920  0.477960  1.0  2.3355
  Sm  Sm16  1  0.256990  0.191970  0.510540  1.0  2.3331
  Sm  Sm17  1  0.000000  0.280950  0.250000  1.0  2.3929
  Sm  Sm18  1  0.500000  0.780950  0.250000  1.0  2.3929
  Sm  Sm19  1  0.000000  0.719050  0.750000  1.0  2.3921
  Sm  Sm20  1  0.500000  0.219050  0.750000  1.0  2.3921
  S  S21  1  0.844780  0.247010  0.320680  1.0  1.6524
  S  S22  1  0.707210  0.390340  0.019990  1.0  1.6978
  S  S23  1  0.557890  0.535420  0.139420  1.0  1.7222
  S  S24  1  0.867330  0.232920  0.943290  1.0  1.739
  S  S25  1  0.753980  0.526910  0.873440  1.0  1.5659
  S  S26  1  0.903580  0.344390  0.043180  1.0  1.725
  S  S27  1  0.344780  0.747010  0.320680  1.0  1.6524
  S  S28  1  0.207210  0.890340  0.019990  1.0  1.6978
  S  S29  1  0.057890  0.035420  0.139420  1.0  1.7222
  S  S30  1  0.367330  0.732920  0.943290  1.0  1.739
  S  S31  1  0.253980  0.026910  0.873440  1.0  1.5656
  S  S32  1  0.403580  0.844390  0.043180  1.0  1.725
  S  S33  1  0.155220  0.247010  0.179320  1.0  1.6525
  S  S34  1  0.292790  0.390340  0.480010  1.0  1.6976
  S  S35  1  0.442110  0.535420  0.360580  1.0  1.7229
  S  S36  1  0.132670  0.232920  0.556710  1.0  1.7378
  S  S37  1  0.246020  0.526910  0.626560  1.0  1.568
  S  S38  1  0.096420  0.344390  0.456820  1.0  1.7255
  S  S39  1  0.655220  0.747010  0.179320  1.0  1.6525
  S  S40  1  0.792790  0.890340  0.480010  1.0  1.6976
  S  S41  1  0.942110  0.035420  0.360580  1.0  1.7229
  S  S42  1  0.632670  0.732920  0.556710  1.0  1.7378
  S  S43  1  0.746020  0.026910  0.626560  1.0  1.566
  S  S44  1  0.596420  0.844390  0.456820  1.0  1.7255
  S  S45  1  0.155220  0.752990  0.679320  1.0  1.6524
  S  S46  1  0.292790  0.609660  0.980010  1.0  1.6931
  S  S47  1  0.442110  0.464580  0.860580  1.0  1.7229
  S  S48  1  0.132670  0.767080  0.056710  1.0  1.738
  S  S49  1  0.246020  0.473090  0.126560  1.0  1.5634
  S  S50  1  0.096420  0.655610  0.956820  1.0  1.7232
  S  S51  1  0.655220  0.252990  0.679320  1.0  1.6524
  S  S52  1  0.792790  0.109660  0.980010  1.0  1.6931
  S  S53  1  0.942110  0.964580  0.860580  1.0  1.7229
  S  S54  1  0.632670  0.267080  0.056710  1.0  1.738
  S  S55  1  0.746020  0.973090  0.126560  1.0  1.5623
  S  S56  1  0.596420  0.155610  0.956820  1.0  1.7232
  S  S57  1  0.844780  0.752990  0.820680  1.0  1.6519
  S  S58  1  0.707210  0.609660  0.519990  1.0  1.6971
  S  S59  1  0.557890  0.464580  0.639420  1.0  1.7218
  S  S60  1  0.867330  0.767080  0.443290  1.0  1.739
  S  S61  1  0.753980  0.473090  0.373440  1.0  1.5659
  S  S62  1  0.903580  0.655610  0.543180  1.0  1.721
  S  S63  1  0.344780  0.252990  0.820680  1.0  1.6519
  S  S64  1  0.207210  0.109660  0.519990  1.0  1.6971
  S  S65  1  0.057890  0.964580  0.639420  1.0  1.7218
  S  S66  1  0.367330  0.267080  0.443290  1.0  1.739
  S  S67  1  0.253980  0.973090  0.373440  1.0  1.5607
  S  S68  1  0.403580  0.155610  0.543180  1.0  1.721
  O  O69  1  0.799690  0.280640  0.251700  1.0  -0.7489
  O  O70  1  0.815430  0.253140  0.986900  1.0  -0.8321
  O  O71  1  0.585040  0.528040  0.028500  1.0  -0.7092
  O  O72  1  0.850100  0.192460  0.944800  1.0  -0.679
  O  O73  1  0.739540  0.426730  0.004500  1.0  -0.7456
  O  O74  1  0.917120  0.253660  0.329900  1.0  -0.6945
  O  O75  1  0.600200  0.565330  0.241600  1.0  -0.7101
  O  O76  1  0.893300  0.324470  0.164900  1.0  -0.8679
  O  O77  1  0.939960  0.240000  0.054600  1.0  -0.6306
  O  O78  1  0.565100  0.501300  0.229100  1.0  -0.6943
  O  O79  1  0.758190  0.368470  0.145200  1.0  -0.7011
  O  O80  1  0.848000  0.242360  0.466000  1.0  -0.5288
  O  O81  1  0.836560  0.338210  0.912000  1.0  -0.6777
  O  O82  1  0.641950  0.401270  0.036900  1.0  -0.6857
  O  O83  1  0.482950  0.548080  0.063300  1.0  -0.6936
  O  O84  1  0.814500  0.212590  0.233600  1.0  -0.7074
  O  O85  1  0.689850  0.365590  0.892300  1.0  -0.6861
  O  O86  1  0.965490  0.325240  0.036900  1.0  -0.6509
  O  O87  1  0.860300  0.244940  0.801900  1.0  -0.524
  O  O88  1  0.916400  0.384650  0.073700  1.0  -0.5228
  O  O89  1  0.714000  0.514950  0.957400  1.0  -0.6731
  O  O90  1  0.710000  0.518970  0.719900  1.0  -0.6072
  O  O91  1  0.771500  0.566450  0.894900  1.0  -0.4664
  O  O92  1  0.819000  0.504200  0.921900  1.0  -0.5283
  O  O93  1  0.299690  0.780640  0.251700  1.0  -0.7489
  O  O94  1  0.315430  0.753140  0.986900  1.0  -0.8321
  O  O95  1  0.085040  0.028040  0.028500  1.0  -0.7092
  O  O96  1  0.350100  0.692460  0.944800  1.0  -0.679
  O  O97  1  0.239540  0.926730  0.004500  1.0  -0.7456
  O  O98  1  0.417120  0.753660  0.329900  1.0  -0.6945
  O  O99  1  0.100200  0.065330  0.241600  1.0  -0.7101
  O  O100  1  0.393300  0.824470  0.164900  1.0  -0.8679
  O  O101  1  0.439960  0.740000  0.054600  1.0  -0.6306
  O  O102  1  0.065100  0.001300  0.229100  1.0  -0.6943
  O  O103  1  0.258190  0.868470  0.145200  1.0  -0.7011
  O  O104  1  0.348000  0.742360  0.466000  1.0  -0.5288
  O  O105  1  0.336560  0.838210  0.912000  1.0  -0.6777
  O  O106  1  0.141950  0.901270  0.036900  1.0  -0.6857
  O  O107  1  0.982950  0.048080  0.063300  1.0  -0.6936
  O  O108  1  0.314500  0.712590  0.233600  1.0  -0.7074
  O  O109  1  0.189850  0.865590  0.892300  1.0  -0.6861
  O  O110  1  0.465490  0.825240  0.036900  1.0  -0.6509
  O  O111  1  0.360300  0.744940  0.801900  1.0  -0.524
  O  O112  1  0.416400  0.884650  0.073700  1.0  -0.5228
  O  O113  1  0.214000  0.014950  0.957400  1.0  -0.6731
  O  O114  1  0.210000  0.018970  0.719900  1.0  -0.6072
  O  O115  1  0.271500  0.066450  0.894900  1.0  -0.4664
  O  O116  1  0.319000  0.004200  0.921900  1.0  -0.5283
  O  O117  1  0.200310  0.280640  0.248300  1.0  -0.7491
  O  O118  1  0.184570  0.253140  0.513100  1.0  -0.8313
  O  O119  1  0.414960  0.528040  0.471500  1.0  -0.7076
  O  O120  1  0.149900  0.192460  0.555200  1.0  -0.6783
  O  O121  1  0.260460  0.426730  0.495500  1.0  -0.7457
  O  O122  1  0.082880  0.253660  0.170100  1.0  -0.6922
  O  O123  1  0.399800  0.565330  0.258400  1.0  -0.7108
  O  O124  1  0.106700  0.324470  0.335100  1.0  -0.8654
  O  O125  1  0.060040  0.240000  0.445400  1.0  -0.6296
  O  O126  1  0.434900  0.501300  0.270900  1.0  -0.6938
  O  O127  1  0.241810  0.368470  0.354800  1.0  -0.7
  O  O128  1  0.152000  0.242360  0.034000  1.0  -0.5299
  O  O129  1  0.163440  0.338210  0.588000  1.0  -0.6777
  O  O130  1  0.358050  0.401270  0.463100  1.0  -0.6873
  O  O131  1  0.517050  0.548080  0.436700  1.0  -0.6959
  O  O132  1  0.185500  0.212590  0.266400  1.0  -0.7085
  O  O133  1  0.310150  0.365590  0.607700  1.0  -0.6836
  O  O134  1  0.034510  0.325240  0.463100  1.0  -0.6479
  O  O135  1  0.139700  0.244940  0.698100  1.0  -0.5222
  O  O136  1  0.083600  0.384650  0.426300  1.0  -0.5226
  O  O137  1  0.286000  0.514950  0.542600  1.0  -0.6698
  O  O138  1  0.290000  0.518970  0.780100  1.0  -0.6055
  O  O139  1  0.228500  0.566450  0.605100  1.0  -0.4687
  O  O140  1  0.181000  0.504200  0.578100  1.0  -0.5265
  O  O141  1  0.700310  0.780640  0.248300  1.0  -0.7491
  O  O142  1  0.684570  0.753140  0.513100  1.0  -0.8313
  O  O143  1  0.914960  0.028040  0.471500  1.0  -0.7076
  O  O144  1  0.649900  0.692460  0.555200  1.0  -0.6783
  O  O145  1  0.760460  0.926730  0.495500  1.0  -0.7457
  O  O146  1  0.582880  0.753660  0.170100  1.0  -0.6922
  O  O147  1  0.899800  0.065330  0.258400  1.0  -0.7108
  O  O148  1  0.606700  0.824470  0.335100  1.0  -0.8654
  O  O149  1  0.560040  0.740000  0.445400  1.0  -0.6296
  O  O150  1  0.934900  0.001300  0.270900  1.0  -0.6938
  O  O151  1  0.741810  0.868470  0.354800  1.0  -0.7
  O  O152  1  0.652000  0.742360  0.034000  1.0  -0.5299
  O  O153  1  0.663440  0.838210  0.588000  1.0  -0.6777
  O  O154  1  0.858050  0.901270  0.463100  1.0  -0.6873
  O  O155  1  0.017050  0.048080  0.436700  1.0  -0.6959
  O  O156  1  0.685500  0.712590  0.266400  1.0  -0.7085
  O  O157  1  0.810150  0.865590  0.607700  1.0  -0.6836
  O  O158  1  0.534510  0.825240  0.463100  1.0  -0.6479
  O  O159  1  0.639700  0.744940  0.698100  1.0  -0.5222
  O  O160  1  0.583600  0.884650  0.426300  1.0  -0.5226
  O  O161  1  0.786000  0.014950  0.542600  1.0  -0.6698
  O  O162  1  0.790000  0.018970  0.780100  1.0  -0.6055
  O  O163  1  0.728500  0.066450  0.605100  1.0  -0.4687
  O  O164  1  0.681000  0.004200  0.578100  1.0  -0.5265
  O  O165  1  0.200310  0.719360  0.748300  1.0  -0.7492
  O  O166  1  0.184570  0.746860  0.013100  1.0  -0.8321
  O  O167  1  0.414960  0.471960  0.971500  1.0  -0.7085
  O  O168  1  0.149900  0.807540  0.055200  1.0  -0.6795
  O  O169  1  0.260460  0.573270  0.995500  1.0  -0.7457
  O  O170  1  0.082880  0.746340  0.670100  1.0  -0.6928
  O  O171  1  0.399800  0.434670  0.758400  1.0  -0.712
  O  O172  1  0.106700  0.675530  0.835100  1.0  -0.8663
  O  O173  1  0.060040  0.760000  0.945400  1.0  -0.6297
  O  O174  1  0.434900  0.498700  0.770900  1.0  -0.6956
  O  O175  1  0.241810  0.631530  0.854800  1.0  -0.7002
  O  O176  1  0.152000  0.757640  0.534000  1.0  -0.5298
  O  O177  1  0.163440  0.661790  0.088000  1.0  -0.6786
  O  O178  1  0.358050  0.598730  0.963100  1.0  -0.6872
  O  O179  1  0.517050  0.451920  0.936700  1.0  -0.6944
  O  O180  1  0.185500  0.787410  0.766400  1.0  -0.71
  O  O181  1  0.310150  0.634410  0.107700  1.0  -0.6832
  O  O182  1  0.034510  0.674760  0.963100  1.0  -0.6479
  O  O183  1  0.139700  0.755060  0.198100  1.0  -0.522
  O  O184  1  0.083600  0.615350  0.926300  1.0  -0.5212
  O  O185  1  0.286000  0.485050  0.042600  1.0  -0.6695
  O  O186  1  0.290000  0.481030  0.280100  1.0  -0.6055
  O  O187  1  0.228500  0.433550  0.105100  1.0  -0.4669
  O  O188  1  0.181000  0.495800  0.078100  1.0  -0.525
  O  O189  1  0.700310  0.219360  0.748300  1.0  -0.7492
  O  O190  1  0.684570  0.246860  0.013100  1.0  -0.8321
  O  O191  1  0.914960  0.971960  0.971500  1.0  -0.7085
  O  O192  1  0.649900  0.307540  0.055200  1.0  -0.6795
  O  O193  1  0.760460  0.073270  0.995500  1.0  -0.7457
  O  O194  1  0.582880  0.246340  0.670100  1.0  -0.6931
  O  O195  1  0.899800  0.934670  0.758400  1.0  -0.712
  O  O196  1  0.606700  0.175530  0.835100  1.0  -0.8663
  O  O197  1  0.560040  0.260000  0.945400  1.0  -0.6297
  O  O198  1  0.934900  0.998700  0.770900  1.0  -0.6956
  O  O199  1  0.741810  0.131530  0.854800  1.0  -0.7002
  O  O200  1  0.652000  0.257640  0.534000  1.0  -0.5298
  O  O201  1  0.663440  0.161790  0.088000  1.0  -0.6786
  O  O202  1  0.858050  0.098730  0.963100  1.0  -0.6872
  O  O203  1  0.017050  0.951920  0.936700  1.0  -0.6944
  O  O204  1  0.685500  0.287410  0.766400  1.0  -0.71
  O  O205  1  0.810150  0.134410  0.107700  1.0  -0.6832
  O  O206  1  0.534510  0.174760  0.963100  1.0  -0.6479
  O  O207  1  0.639700  0.255060  0.198100  1.0  -0.522
  O  O208  1  0.583600  0.115350  0.926300  1.0  -0.5212
  O  O209  1  0.786000  0.985050  0.042600  1.0  -0.6695
  O  O210  1  0.790000  0.981030  0.280100  1.0  -0.6055
  O  O211  1  0.728500  0.933550  0.105100  1.0  -0.4669
  O  O212  1  0.681000  0.995800  0.078100  1.0  -0.525
  O  O213  1  0.799690  0.719360  0.751700  1.0  -0.7501
  O  O214  1  0.815430  0.746860  0.486900  1.0  -0.8324
  O  O215  1  0.585040  0.471960  0.528500  1.0  -0.7098
  O  O216  1  0.850100  0.807540  0.444800  1.0  -0.6805
  O  O217  1  0.739540  0.573270  0.504500  1.0  -0.7462
  O  O218  1  0.917120  0.746340  0.829900  1.0  -0.6946
  O  O219  1  0.600200  0.434670  0.741600  1.0  -0.7114
  O  O220  1  0.893300  0.675530  0.664900  1.0  -0.8678
  O  O221  1  0.939960  0.760000  0.554600  1.0  -0.6312
  O  O222  1  0.565100  0.498700  0.729100  1.0  -0.6953
  O  O223  1  0.758190  0.631530  0.645200  1.0  -0.7007
  O  O224  1  0.848000  0.757640  0.966000  1.0  -0.5288
  O  O225  1  0.836560  0.661790  0.412000  1.0  -0.6772
  O  O226  1  0.641950  0.598730  0.536900  1.0  -0.6855
  O  O227  1  0.482950  0.451920  0.563300  1.0  -0.6935
  O  O228  1  0.814500  0.787410  0.733600  1.0  -0.7056
  O  O229  1  0.689850  0.634410  0.392300  1.0  -0.6857
  O  O230  1  0.965490  0.674760  0.536900  1.0  -0.6507
  O  O231  1  0.860300  0.755060  0.301900  1.0  -0.524
  O  O232  1  0.916400  0.615350  0.573700  1.0  -0.5216
  O  O233  1  0.714000  0.485050  0.457400  1.0  -0.6727
  O  O234  1  0.710000  0.481030  0.219900  1.0  -0.6071
  O  O235  1  0.771500  0.433550  0.394900  1.0  -0.4667
  O  O236  1  0.819000  0.495800  0.421900  1.0  -0.5272
  O  O237  1  0.299690  0.219360  0.751700  1.0  -0.7501
  O  O238  1  0.315430  0.246860  0.486900  1.0  -0.8324
  O  O239  1  0.085040  0.971960  0.528500  1.0  -0.7098
  O  O240  1  0.350100  0.307540  0.444800  1.0  -0.6805
  O  O241  1  0.239540  0.073270  0.504500  1.0  -0.7462
  O  O242  1  0.417120  0.246340  0.829900  1.0  -0.6948
  O  O243  1  0.100200  0.934670  0.741600  1.0  -0.7114
  O  O244  1  0.393300  0.175530  0.664900  1.0  -0.8678
  O  O245  1  0.439960  0.260000  0.554600  1.0  -0.6311
  O  O246  1  0.065100  0.998700  0.729100  1.0  -0.6953
  O  O247  1  0.258190  0.131530  0.645200  1.0  -0.7007
  O  O248  1  0.348000  0.257640  0.966000  1.0  -0.5288
  O  O249  1  0.336560  0.161790  0.412000  1.0  -0.6772
  O  O250  1  0.141950  0.098730  0.536900  1.0  -0.6855
  O  O251  1  0.982950  0.951920  0.563300  1.0  -0.6935
  O  O252  1  0.314500  0.287410  0.733600  1.0  -0.7056
  O  O253  1  0.189850  0.134410  0.392300  1.0  -0.6857
  O  O254  1  0.465490  0.174760  0.536900  1.0  -0.6507
  O  O255  1  0.360300  0.255060  0.301900  1.0  -0.524
  O  O256  1  0.416400  0.115350  0.573700  1.0  -0.5216
  O  O257  1  0.214000  0.985050  0.457400  1.0  -0.6727
  O  O258  1  0.210000  0.981030  0.219900  1.0  -0.6071
  O  O259  1  0.271500  0.933550  0.394900  1.0  -0.4667
  O  O260  1  0.319000  0.995800  0.421900  1.0  -0.5272
