# generated using pymatgen
data_Np5(C6O11)2
_symmetry_space_group_name_H-M   'P 1'
_cell_length_a   12.96500000
_cell_length_b   12.97960000
_cell_length_c   20.10380000
_cell_angle_alpha   90.00000000
_cell_angle_beta   95.16960000
_cell_angle_gamma   90.00000000
_symmetry_Int_Tables_number   1
_chemical_formula_structural   Np5(C6O11)2
_chemical_formula_sum   'Np20 C48 O88'
_cell_volume   3369.31660836
_cell_formula_units_Z   4
loop_
 _symmetry_equiv_pos_site_id
 _symmetry_equiv_pos_as_xyz
  1  'x, y, z'
loop_
 _atom_site_type_symbol
 _atom_site_label
 _atom_site_symmetry_multiplicity
 _atom_site_fract_x
 _atom_site_fract_y
 _atom_site_fract_z
 _atom_site_occupancy
 _atom_site_charge
  Np  Np1  1  0.399550  0.875380  0.368140  1.0  2.4
  Np  Np2  1  0.279400  0.587700  0.304160  1.0  2.5188
  Np  Np3  1  0.198400  0.285600  0.338330  1.0  2.3643
  Np  Np4  1  0.011190  0.696780  0.372100  1.0  2.5013
  Np  Np5  1  0.098280  0.978710  0.301940  1.0  2.2544
  Np  Np6  1  0.695160  0.781330  0.335440  1.0  2.2815
  Np  Np7  1  0.801410  0.090730  0.342360  1.0  2.3435
  Np  Np8  1  0.509050  0.176230  0.332370  1.0  2.4752
  Np  Np9  1  0.892810  0.394400  0.334970  1.0  2.3814
  Np  Np10  1  0.584940  0.475200  0.338700  1.0  2.275
  Np  Np11  1  0.899550  0.124620  0.868140  1.0  2.4001
  Np  Np12  1  0.779400  0.412300  0.804160  1.0  2.5198
  Np  Np13  1  0.698400  0.714400  0.838330  1.0  2.3649
  Np  Np14  1  0.511190  0.303220  0.872100  1.0  2.5073
  Np  Np15  1  0.598280  0.021290  0.801940  1.0  2.2503
  Np  Np16  1  0.195160  0.218670  0.835440  1.0  2.2827
  Np  Np17  1  0.301410  0.909270  0.842360  1.0  2.3436
  Np  Np18  1  0.009050  0.823770  0.832370  1.0  2.4744
  Np  Np19  1  0.392810  0.605600  0.834970  1.0  2.3805
  Np  Np20  1  0.084940  0.524800  0.838700  1.0  2.2744
  C  C21  1  0.390200  0.524600  0.702400  1.0  0.6443
  C  C22  1  0.517600  0.937700  0.153000  1.0  0.0215
  C  C23  1  0.569600  0.075800  0.962800  1.0  0.6477
  C  C24  1  0.505200  0.889900  0.222100  1.0  0.6341
  C  C25  1  0.608700  0.061400  0.088300  1.0  -0.0191
  C  C26  1  0.514600  0.343600  0.587200  1.0  -0.0509
  C  C27  1  0.463800  0.905700  0.096200  1.0  -0.0757
  C  C28  1  0.680800  0.149800  0.085200  1.0  0.6083
  C  C29  1  0.471900  0.949900  0.036000  1.0  -0.0551
  C  C30  1  0.490000  0.316000  0.460500  1.0  0.7176
  C  C31  1  0.267700  0.566900  0.574400  1.0  0.6859
  C  C32  1  0.537200  0.364100  0.713700  1.0  0.6378
  C  C33  1  0.603700  0.271600  0.588400  1.0  0.6524
  C  C34  1  0.651500  0.056300  0.211700  1.0  0.6857
  C  C35  1  0.385900  0.818000  0.097500  1.0  0.6946
  C  C36  1  0.461000  0.366600  0.523400  1.0  -0.1787
  C  C37  1  0.485800  0.393400  0.643300  1.0  -0.0848
  C  C38  1  0.408700  0.465600  0.638900  1.0  -0.0537
  C  C39  1  0.410200  0.925900  0.971400  1.0  0.6883
  C  C40  1  0.320200  0.456200  0.452800  1.0  0.6676
  C  C41  1  0.556300  0.027700  0.031400  1.0  -0.0824
  C  C42  1  0.375600  0.440100  0.519200  1.0  0.0096
  C  C43  1  0.592100  0.018000  0.148900  1.0  -0.078
  C  C44  1  0.353500  0.488600  0.577300  1.0  -0.1122
  C  C45  1  0.890200  0.475400  0.202400  1.0  0.6455
  C  C46  1  0.017600  0.062300  0.653000  1.0  0.0215
  C  C47  1  0.069600  0.924200  0.462800  1.0  0.6501
  C  C48  1  0.005200  0.110100  0.722100  1.0  0.6335
  C  C49  1  0.108700  0.938600  0.588300  1.0  -0.0194
  C  C50  1  0.014600  0.656400  0.087200  1.0  -0.0509
  C  C51  1  0.963800  0.094300  0.596200  1.0  -0.0748
  C  C52  1  0.180800  0.850200  0.585200  1.0  0.6088
  C  C53  1  0.971900  0.050100  0.536000  1.0  -0.055
  C  C54  1  0.990000  0.684000  0.960500  1.0  0.7182
  C  C55  1  0.767700  0.433100  0.074400  1.0  0.6864
  C  C56  1  0.037200  0.635900  0.213700  1.0  0.6349
  C  C57  1  0.103700  0.728400  0.088400  1.0  0.6525
  C  C58  1  0.151500  0.943700  0.711700  1.0  0.6856
  C  C59  1  0.885900  0.182000  0.597500  1.0  0.6935
  C  C60  1  0.961000  0.633400  0.023400  1.0  -0.1785
  C  C61  1  0.985800  0.606600  0.143300  1.0  -0.0848
  C  C62  1  0.908700  0.534400  0.138900  1.0  -0.0538
  C  C63  1  0.910200  0.074100  0.471400  1.0  0.6881
  C  C64  1  0.820200  0.543800  0.952800  1.0  0.6647
  C  C65  1  0.056300  0.972300  0.531400  1.0  -0.0833
  C  C66  1  0.875600  0.559900  0.019200  1.0  0.0095
  C  C67  1  0.092100  0.982000  0.648900  1.0  -0.0781
  C  C68  1  0.853500  0.511400  0.077300  1.0  -0.1124
  O  O69  1  0.063100  0.323400  0.348000  1.0  -0.872
  O  O70  1  0.945600  0.519600  0.363200  1.0  -0.8096
  O  O71  1  0.462200  0.052800  0.360800  1.0  -0.9046
  O  O72  1  0.452800  0.520300  0.312500  1.0  -0.8713
  O  O73  1  0.719900  0.433400  0.362100  1.0  -0.8545
  O  O74  1  0.497100  0.218700  0.459500  1.0  -0.6094
  O  O75  1  0.732900  0.918400  0.339100  1.0  -0.8538
  O  O76  1  0.475700  0.346500  0.755900  1.0  -0.6213
  O  O77  1  0.745700  0.067400  0.213000  1.0  -0.5741
  O  O78  1  0.584500  0.005500  0.919500  1.0  -0.69
  O  O79  1  0.334700  0.245200  0.335500  1.0  -0.8232
  O  O80  1  0.332400  0.544100  0.422400  1.0  -0.6588
  O  O81  1  0.313700  0.513200  0.733600  1.0  -0.5734
  O  O82  1  0.563700  0.165800  0.955200  1.0  -0.6298
  O  O83  1  0.637400  0.362400  0.721300  1.0  -0.6816
  O  O84  1  0.149100  0.113200  0.302400  1.0  -0.8379
  O  O85  1  0.146100  0.649200  0.370400  1.0  -0.823
  O  O86  1  0.604400  0.069700  0.264200  1.0  -0.7962
  O  O87  1  0.351300  0.999400  0.949100  1.0  -0.6446
  O  O88  1  0.266800  0.927400  0.356600  1.0  -0.9421
  O  O89  1  0.531400  0.825000  0.380600  1.0  -0.8052
  O  O90  1  0.500100  0.372600  0.412600  1.0  -0.6655
  O  O91  1  0.465400  0.580800  0.727200  1.0  -0.6375
  O  O92  1  0.921800  0.039600  0.312800  1.0  -0.8912
  O  O93  1  0.226300  0.456400  0.295200  1.0  -0.8092
  O  O94  1  0.653900  0.645100  0.325000  1.0  -0.9139
  O  O95  1  0.580100  0.834100  0.242600  1.0  -0.6984
  O  O96  1  0.421400  0.843400  0.940200  1.0  -0.5782
  O  O97  1  0.645100  0.231700  0.114300  1.0  -0.436
  O  O98  1  0.261300  0.387500  0.431200  1.0  -0.67
  O  O99  1  0.679700  0.308900  0.559000  1.0  -0.4537
  O  O100  1  0.687100  0.143800  0.381100  1.0  -0.7467
  O  O101  1  0.760000  0.141700  0.058100  1.0  -0.4323
  O  O102  1  0.402900  0.750400  0.139900  1.0  -0.477
  O  O103  1  0.559600  0.294700  0.295600  1.0  -0.7407
  O  O104  1  0.189200  0.550600  0.536000  1.0  -0.4771
  O  O105  1  0.284400  0.640300  0.613800  1.0  -0.4867
  O  O106  1  0.599800  0.187500  0.615500  1.0  -0.4472
  O  O107  1  0.844800  0.263100  0.309100  1.0  -0.864
  O  O108  1  0.875200  0.736600  0.371800  1.0  -0.8905
  O  O109  1  0.424500  0.907000  0.249800  1.0  -0.6295
  O  O110  1  0.308200  0.823500  0.056300  1.0  -0.48
  O  O111  1  0.049200  0.844600  0.304100  1.0  -0.82
  O  O112  1  0.335300  0.719800  0.313200  1.0  -0.8822
  O  O113  1  0.563100  0.676600  0.848000  1.0  -0.8722
  O  O114  1  0.445600  0.480400  0.863200  1.0  -0.8109
  O  O115  1  0.962200  0.947200  0.860800  1.0  -0.9039
  O  O116  1  0.952800  0.479700  0.812500  1.0  -0.8712
  O  O117  1  0.219900  0.566600  0.862100  1.0  -0.8538
  O  O118  1  0.997100  0.781300  0.959500  1.0  -0.6079
  O  O119  1  0.232900  0.081600  0.839100  1.0  -0.8555
  O  O120  1  0.975700  0.653500  0.255900  1.0  -0.6217
  O  O121  1  0.245700  0.932600  0.713000  1.0  -0.5765
  O  O122  1  0.084500  0.994500  0.419500  1.0  -0.6885
  O  O123  1  0.834700  0.754800  0.835500  1.0  -0.8238
  O  O124  1  0.832400  0.455900  0.922400  1.0  -0.654
  O  O125  1  0.813700  0.486800  0.233600  1.0  -0.5734
  O  O126  1  0.063700  0.834200  0.455200  1.0  -0.6306
  O  O127  1  0.137400  0.637600  0.221300  1.0  -0.6816
  O  O128  1  0.649100  0.886800  0.802400  1.0  -0.8374
  O  O129  1  0.646100  0.350800  0.870400  1.0  -0.8231
  O  O130  1  0.104400  0.930300  0.764200  1.0  -0.7951
  O  O131  1  0.851300  0.000600  0.449100  1.0  -0.6424
  O  O132  1  0.766800  0.072600  0.856600  1.0  -0.9425
  O  O133  1  0.031400  0.175000  0.880600  1.0  -0.8052
  O  O134  1  0.000100  0.627400  0.912600  1.0  -0.6661
  O  O135  1  0.965400  0.419200  0.227200  1.0  -0.6374
  O  O136  1  0.421800  0.960400  0.812800  1.0  -0.891
  O  O137  1  0.726300  0.543600  0.795200  1.0  -0.8095
  O  O138  1  0.153900  0.354900  0.825000  1.0  -0.9136
  O  O139  1  0.080100  0.165900  0.742600  1.0  -0.6999
  O  O140  1  0.921400  0.156600  0.440200  1.0  -0.5755
  O  O141  1  0.145100  0.768300  0.614300  1.0  -0.4352
  O  O142  1  0.761300  0.612500  0.931200  1.0  -0.6701
  O  O143  1  0.179700  0.691100  0.059000  1.0  -0.4536
  O  O144  1  0.187100  0.856200  0.881100  1.0  -0.7465
  O  O145  1  0.260000  0.858300  0.558100  1.0  -0.4321
  O  O146  1  0.902900  0.249600  0.639900  1.0  -0.4767
  O  O147  1  0.059600  0.705300  0.795600  1.0  -0.7403
  O  O148  1  0.689200  0.449400  0.036000  1.0  -0.4765
  O  O149  1  0.784400  0.359700  0.113800  1.0  -0.4863
  O  O150  1  0.099800  0.812500  0.115500  1.0  -0.4496
  O  O151  1  0.344800  0.736900  0.809100  1.0  -0.8636
  O  O152  1  0.375200  0.263400  0.871800  1.0  -0.8903
  O  O153  1  0.924500  0.093000  0.749800  1.0  -0.6297
  O  O154  1  0.808200  0.176500  0.556300  1.0  -0.4795
  O  O155  1  0.549200  0.155400  0.804100  1.0  -0.8198
  O  O156  1  0.835300  0.280200  0.813200  1.0  -0.8822
