# generated using pymatgen
data_CuP2H10(C4O3)2
_symmetry_space_group_name_H-M   'P 1'
_cell_length_a   7.02360000
_cell_length_b   9.85890000
_cell_length_c   10.06650000
_cell_angle_alpha   90.82850000
_cell_angle_beta   110.41800000
_cell_angle_gamma   90.00000000
_symmetry_Int_Tables_number   1
_chemical_formula_structural   CuP2H10(C4O3)2
_chemical_formula_sum   'Cu2 P4 H20 C16 O12'
_cell_volume   653.18249600
_cell_formula_units_Z   2
loop_
 _symmetry_equiv_pos_site_id
 _symmetry_equiv_pos_as_xyz
  1  'x, y, z'
loop_
 _atom_site_type_symbol
 _atom_site_label
 _atom_site_symmetry_multiplicity
 _atom_site_fract_x
 _atom_site_fract_y
 _atom_site_fract_z
 _atom_site_occupancy
 _atom_site_charge
  Cu  Cu1  1  0.063780  0.250000  0.000000  1.0  0.9172
  Cu  Cu2  1  0.936220  0.750000  0.000000  1.0  0.9191
  P  P3  1  0.913080  0.993090  0.791160  1.0  1.4435
  P  P4  1  0.121920  0.506910  0.208840  1.0  1.4442
  P  P5  1  0.086920  0.006910  0.208840  1.0  1.4424
  P  P6  1  0.878080  0.493090  0.791160  1.0  1.4441
  H  H7  1  0.000000  0.793300  0.607000  1.0  0.0852
  H  H8  1  0.939700  0.197900  0.605000  1.0  0.0794
  H  H9  1  0.503700  0.969200  0.596000  1.0  0.0941
  H  H10  1  0.409000  0.035400  0.701000  1.0  0.1196
  H  H11  1  0.533600  0.900900  0.741400  1.0  0.0794
  H  H12  1  0.393000  0.706700  0.393000  1.0  0.0852
  H  H13  1  0.334700  0.302100  0.395000  1.0  0.0803
  H  H14  1  0.907700  0.530800  0.404000  1.0  0.0942
  H  H15  1  0.708000  0.464600  0.299000  1.0  0.116
  H  H16  1  0.792200  0.599100  0.258600  1.0  0.0793
  H  H17  1  0.000000  0.206700  0.393000  1.0  0.085
  H  H18  1  0.060300  0.802100  0.395000  1.0  0.0792
  H  H19  1  0.496300  0.030800  0.404000  1.0  0.0958
  H  H20  1  0.591000  0.964600  0.299000  1.0  0.1199
  H  H21  1  0.466400  0.099100  0.258600  1.0  0.0802
  H  H22  1  0.607000  0.293300  0.607000  1.0  0.0855
  H  H23  1  0.665300  0.697900  0.605000  1.0  0.0796
  H  H24  1  0.092300  0.469200  0.596000  1.0  0.094
  H  H25  1  0.292000  0.535400  0.701000  1.0  0.1198
  H  H26  1  0.207800  0.400900  0.741400  1.0  0.0799
  C  C27  1  0.962800  0.994800  0.626200  1.0  -0.2237
  C  C28  1  0.999800  0.876200  0.564000  1.0  -0.0332
  C  C29  1  0.963700  0.118400  0.562600  1.0  -0.0626
  C  C30  1  0.522800  0.985800  0.694000  1.0  -0.0642
  C  C31  1  0.336600  0.505200  0.373800  1.0  -0.2246
  C  C32  1  0.435800  0.623800  0.436000  1.0  -0.0354
  C  C33  1  0.401100  0.381600  0.437400  1.0  -0.0621
  C  C34  1  0.828800  0.514200  0.306000  1.0  -0.0631
  C  C35  1  0.037200  0.005200  0.373800  1.0  -0.215
  C  C36  1  0.000200  0.123800  0.436000  1.0  -0.0348
  C  C37  1  0.036300  0.881600  0.437400  1.0  -0.0632
  C  C38  1  0.477200  0.014200  0.306000  1.0  -0.0639
  C  C39  1  0.663400  0.494800  0.626200  1.0  -0.2129
  C  C40  1  0.564200  0.376200  0.564000  1.0  -0.034
  C  C41  1  0.598900  0.618400  0.562600  1.0  -0.0648
  C  C42  1  0.171200  0.485800  0.694000  1.0  -0.0655
  O  O43  1  0.062100  0.085500  0.894800  1.0  -0.8017
  O  O44  1  0.698000  0.060300  0.756400  1.0  -0.3438
  O  O45  1  0.907700  0.847000  0.829000  1.0  -0.8335
  O  O46  1  0.167300  0.414500  0.105200  1.0  -0.8035
  O  O47  1  0.941600  0.439700  0.243600  1.0  -0.3458
  O  O48  1  0.078700  0.653000  0.171000  1.0  -0.8346
  O  O49  1  0.937900  0.914500  0.105200  1.0  -0.8007
  O  O50  1  0.302000  0.939700  0.243600  1.0  -0.3445
  O  O51  1  0.092300  0.153000  0.171000  1.0  -0.8315
  O  O52  1  0.832700  0.585500  0.894800  1.0  -0.8015
  O  O53  1  0.058400  0.560300  0.756400  1.0  -0.344
  O  O54  1  0.921300  0.347000  0.829000  1.0  -0.8341
