# generated using pymatgen
data_CdH8C15O4
_symmetry_space_group_name_H-M   'P 1'
_cell_length_a   11.49170000
_cell_length_b   18.52400000
_cell_length_c   25.72700000
_cell_angle_alpha   90.00000000
_cell_angle_beta   96.28000000
_cell_angle_gamma   90.00000000
_symmetry_Int_Tables_number   1
_chemical_formula_structural   CdH8C15O4
_chemical_formula_sum   'Cd8 H64 C120 O32'
_cell_volume   5443.70062541
_cell_formula_units_Z   8
loop_
 _symmetry_equiv_pos_site_id
 _symmetry_equiv_pos_as_xyz
  1  'x, y, z'
loop_
 _atom_site_type_symbol
 _atom_site_label
 _atom_site_symmetry_multiplicity
 _atom_site_fract_x
 _atom_site_fract_y
 _atom_site_fract_z
 _atom_site_occupancy
 _atom_site_charge
  Cd  Cd1  1  0.038300  0.437330  0.053660  1.0  1.089
  Cd  Cd2  1  0.024170  0.750420  0.941720  1.0  1.0036
  Cd  Cd3  1  0.961700  0.937330  0.446340  1.0  1.0886
  Cd  Cd4  1  0.975830  0.250420  0.558280  1.0  1.0071
  Cd  Cd5  1  0.961700  0.562670  0.946340  1.0  1.0883
  Cd  Cd6  1  0.975830  0.249580  0.058280  1.0  1.0069
  Cd  Cd7  1  0.038300  0.062670  0.553660  1.0  1.0891
  Cd  Cd8  1  0.024170  0.749580  0.441720  1.0  1.0077
  H  H9  1  0.539600  0.852200  0.240500  1.0  0.1205
  H  H10  1  0.651200  0.908200  0.309200  1.0  0.1157
  H  H11  1  0.889300  0.749100  0.312100  1.0  0.1106
  H  H12  1  0.781500  0.695500  0.240900  1.0  0.1235
  H  H13  1  0.527400  0.654100  0.285600  1.0  0.1222
  H  H14  1  0.429800  0.652500  0.360500  1.0  0.1083
  H  H15  1  0.168400  0.771000  0.287200  1.0  0.1118
  H  H16  1  0.263100  0.771200  0.211900  1.0  0.1186
  H  H17  1  0.338800  0.592200  0.179400  1.0  0.1094
  H  H18  1  0.215900  0.548800  0.108500  1.0  0.1112
  H  H19  1  0.281800  0.727400  0.025700  1.0  0.1124
  H  H20  1  0.411400  0.768300  0.096000  1.0  0.1239
  H  H21  1  0.701700  0.821000  0.137900  1.0  0.1224
  H  H22  1  0.808300  0.800000  0.067400  1.0  0.1139
  H  H23  1  0.709400  0.590500  0.065400  1.0  0.1177
  H  H24  1  0.599300  0.612300  0.134500  1.0  0.116
  H  H25  1  0.460400  0.352200  0.259500  1.0  0.1204
  H  H26  1  0.348800  0.408200  0.190800  1.0  0.1158
  H  H27  1  0.110700  0.249100  0.187900  1.0  0.1108
  H  H28  1  0.218500  0.195500  0.259100  1.0  0.1234
  H  H29  1  0.472600  0.154100  0.214400  1.0  0.1225
  H  H30  1  0.570200  0.152500  0.139500  1.0  0.108
  H  H31  1  0.831600  0.271000  0.212800  1.0  0.1115
  H  H32  1  0.736900  0.271200  0.288100  1.0  0.118
  H  H33  1  0.661200  0.092200  0.320600  1.0  0.1092
  H  H34  1  0.784100  0.048800  0.391500  1.0  0.1113
  H  H35  1  0.718200  0.227400  0.474300  1.0  0.1125
  H  H36  1  0.588600  0.268300  0.404000  1.0  0.1256
  H  H37  1  0.298300  0.321000  0.362100  1.0  0.1228
  H  H38  1  0.191700  0.300000  0.432600  1.0  0.1143
  H  H39  1  0.290600  0.090500  0.434600  1.0  0.1175
  H  H40  1  0.400700  0.112300  0.365500  1.0  0.1164
  H  H41  1  0.460400  0.147800  0.759500  1.0  0.1204
  H  H42  1  0.348800  0.091800  0.690800  1.0  0.1158
  H  H43  1  0.110700  0.250900  0.687900  1.0  0.1108
  H  H44  1  0.218500  0.304500  0.759100  1.0  0.124
  H  H45  1  0.472600  0.345900  0.714400  1.0  0.1225
  H  H46  1  0.570200  0.347500  0.639500  1.0  0.108
  H  H47  1  0.831600  0.229000  0.712800  1.0  0.1115
  H  H48  1  0.736900  0.228800  0.788100  1.0  0.1185
  H  H49  1  0.661200  0.407800  0.820600  1.0  0.1094
  H  H50  1  0.784100  0.451200  0.891500  1.0  0.1114
  H  H51  1  0.718200  0.272600  0.974300  1.0  0.1126
  H  H52  1  0.588600  0.231700  0.904000  1.0  0.1241
  H  H53  1  0.298300  0.179000  0.862100  1.0  0.122
  H  H54  1  0.191700  0.200000  0.932600  1.0  0.1143
  H  H55  1  0.290600  0.409500  0.934600  1.0  0.1182
  H  H56  1  0.400700  0.387700  0.865500  1.0  0.117
  H  H57  1  0.539600  0.647800  0.740500  1.0  0.1203
  H  H58  1  0.651200  0.591800  0.809200  1.0  0.1157
  H  H59  1  0.889300  0.750900  0.812100  1.0  0.1106
  H  H60  1  0.781500  0.804500  0.740900  1.0  0.1236
  H  H61  1  0.527400  0.845900  0.785600  1.0  0.1224
  H  H62  1  0.429800  0.847500  0.860500  1.0  0.1082
  H  H63  1  0.168400  0.729000  0.787200  1.0  0.1117
  H  H64  1  0.263100  0.728800  0.711900  1.0  0.1173
  H  H65  1  0.338800  0.907800  0.679400  1.0  0.1096
  H  H66  1  0.215900  0.951200  0.608500  1.0  0.111
  H  H67  1  0.281800  0.772600  0.525700  1.0  0.1127
  H  H68  1  0.411400  0.731700  0.596000  1.0  0.1251
  H  H69  1  0.701700  0.679000  0.637900  1.0  0.1223
  H  H70  1  0.808300  0.700000  0.567400  1.0  0.1142
  H  H71  1  0.709400  0.909500  0.565400  1.0  0.1184
  H  H72  1  0.599300  0.887700  0.634500  1.0  0.1169
  C  C73  1  0.463400  0.711300  0.191870  1.0  -0.0295
  C  C74  1  0.575500  0.731300  0.189920  1.0  -0.0306
  C  C75  1  0.646800  0.766800  0.234720  1.0  0.0915
  C  C76  1  0.611000  0.830700  0.255000  1.0  -0.1281
  C  C77  1  0.677300  0.863900  0.295900  1.0  -0.0454
  C  C78  1  0.780800  0.833900  0.317720  1.0  -0.1399
  C  C79  1  0.818200  0.770700  0.297340  1.0  -0.0655
  C  C80  1  0.753000  0.738200  0.255600  1.0  -0.1315
  C  C81  1  0.405100  0.713200  0.240920  1.0  0.0578
  C  C82  1  0.454100  0.677800  0.285460  1.0  -0.1381
  C  C83  1  0.395400  0.676900  0.330100  1.0  -0.0368
  C  C84  1  0.288600  0.710500  0.331260  1.0  -0.1282
  C  C85  1  0.240900  0.746500  0.286980  1.0  -0.0276
  C  C86  1  0.298100  0.747100  0.242270  1.0  -0.1351
  C  C87  1  0.387000  0.684500  0.145260  1.0  0.0252
  C  C88  1  0.328200  0.619700  0.148000  1.0  -0.1222
  C  C89  1  0.254100  0.593900  0.105970  1.0  -0.0382
  C  C90  1  0.235800  0.634000  0.060200  1.0  -0.1201
  C  C91  1  0.294100  0.699500  0.056820  1.0  -0.0656
  C  C92  1  0.370400  0.724200  0.098860  1.0  -0.1294
  C  C93  1  0.639600  0.718700  0.143480  1.0  0.0593
  C  C94  1  0.702700  0.774000  0.123080  1.0  -0.1324
  C  C95  1  0.767100  0.761400  0.081410  1.0  -0.0451
  C  C96  1  0.771500  0.693500  0.060260  1.0  -0.1273
  C  C97  1  0.707900  0.637500  0.080160  1.0  -0.041
  C  C98  1  0.642700  0.650500  0.121250  1.0  -0.1421
  C  C99  1  0.150700  0.607800  0.016340  1.0  0.6816
  C  C100  1  0.225300  0.708700  0.379600  1.0  0.6923
  C  C101  1  0.848300  0.869700  0.363230  1.0  0.6827
  C  C102  1  0.847300  0.678400  0.017580  1.0  0.742
  C  C103  1  0.536600  0.211300  0.308130  1.0  -0.029
  C  C104  1  0.424500  0.231300  0.310080  1.0  -0.0308
  C  C105  1  0.353200  0.266800  0.265280  1.0  0.0906
  C  C106  1  0.389000  0.330700  0.245000  1.0  -0.1283
  C  C107  1  0.322700  0.363900  0.204100  1.0  -0.0439
  C  C108  1  0.219200  0.333900  0.182280  1.0  -0.1397
  C  C109  1  0.181800  0.270700  0.202660  1.0  -0.0664
  C  C110  1  0.247000  0.238200  0.244400  1.0  -0.1314
  C  C111  1  0.594900  0.213200  0.259080  1.0  0.0576
  C  C112  1  0.545900  0.177800  0.214540  1.0  -0.1377
  C  C113  1  0.604600  0.176900  0.169900  1.0  -0.0372
  C  C114  1  0.711400  0.210500  0.168740  1.0  -0.1272
  C  C115  1  0.759100  0.246500  0.213020  1.0  -0.0268
  C  C116  1  0.701900  0.247100  0.257730  1.0  -0.1354
  C  C117  1  0.613000  0.184500  0.354740  1.0  0.0255
  C  C118  1  0.671800  0.119700  0.352000  1.0  -0.1231
  C  C119  1  0.745900  0.093900  0.394030  1.0  -0.0382
  C  C120  1  0.764200  0.134000  0.439800  1.0  -0.1187
  C  C121  1  0.705900  0.199500  0.443180  1.0  -0.0655
  C  C122  1  0.629600  0.224200  0.401140  1.0  -0.1296
  C  C123  1  0.360400  0.218700  0.356520  1.0  0.0591
  C  C124  1  0.297300  0.274000  0.376920  1.0  -0.1346
  C  C125  1  0.232900  0.261400  0.418590  1.0  -0.045
  C  C126  1  0.228500  0.193500  0.439740  1.0  -0.1261
  C  C127  1  0.292100  0.137500  0.419840  1.0  -0.0414
  C  C128  1  0.357300  0.150500  0.378750  1.0  -0.1419
  C  C129  1  0.849300  0.107800  0.483660  1.0  0.6802
  C  C130  1  0.774700  0.208700  0.120400  1.0  0.6911
  C  C131  1  0.151700  0.369700  0.136770  1.0  0.6828
  C  C132  1  0.152700  0.178400  0.482420  1.0  0.7427
  C  C133  1  0.536600  0.288700  0.808130  1.0  -0.029
  C  C134  1  0.424500  0.268700  0.810080  1.0  -0.0308
  C  C135  1  0.353200  0.233200  0.765280  1.0  0.0907
  C  C136  1  0.389000  0.169300  0.745000  1.0  -0.1293
  C  C137  1  0.322700  0.136100  0.704100  1.0  -0.0457
  C  C138  1  0.219200  0.166100  0.682280  1.0  -0.1406
  C  C139  1  0.181800  0.229300  0.702660  1.0  -0.0663
  C  C140  1  0.247000  0.261800  0.744400  1.0  -0.1311
  C  C141  1  0.594900  0.286800  0.759080  1.0  0.0577
  C  C142  1  0.545900  0.322200  0.714540  1.0  -0.1384
  C  C143  1  0.604600  0.323100  0.669900  1.0  -0.0383
  C  C144  1  0.711400  0.289500  0.668740  1.0  -0.1274
  C  C145  1  0.759100  0.253500  0.713020  1.0  -0.027
  C  C146  1  0.701900  0.252900  0.757730  1.0  -0.1345
  C  C147  1  0.613000  0.315500  0.854740  1.0  0.026
  C  C148  1  0.671800  0.380300  0.852000  1.0  -0.1215
  C  C149  1  0.745900  0.406100  0.894030  1.0  -0.038
  C  C150  1  0.764200  0.366000  0.939800  1.0  -0.1188
  C  C151  1  0.705900  0.300500  0.943180  1.0  -0.0653
  C  C152  1  0.629600  0.275800  0.901140  1.0  -0.1291
  C  C153  1  0.360400  0.281300  0.856520  1.0  0.0591
  C  C154  1  0.297300  0.226000  0.876920  1.0  -0.1334
  C  C155  1  0.232900  0.238600  0.918590  1.0  -0.0451
  C  C156  1  0.228500  0.306500  0.939740  1.0  -0.1263
  C  C157  1  0.292100  0.362500  0.919840  1.0  -0.042
  C  C158  1  0.357300  0.349500  0.878750  1.0  -0.1397
  C  C159  1  0.849300  0.392200  0.983660  1.0  0.6805
  C  C160  1  0.774700  0.291300  0.620400  1.0  0.6913
  C  C161  1  0.151700  0.130300  0.636770  1.0  0.6834
  C  C162  1  0.152700  0.321600  0.982420  1.0  0.7428
  C  C163  1  0.463400  0.788700  0.691870  1.0  -0.0294
  C  C164  1  0.575500  0.768700  0.689920  1.0  -0.0305
  C  C165  1  0.646800  0.733200  0.734720  1.0  0.0917
  C  C166  1  0.611000  0.669300  0.755000  1.0  -0.1276
  C  C167  1  0.677300  0.636100  0.795900  1.0  -0.0455
  C  C168  1  0.780800  0.666100  0.817720  1.0  -0.1403
  C  C169  1  0.818200  0.729300  0.797340  1.0  -0.0664
  C  C170  1  0.753000  0.761800  0.755600  1.0  -0.1315
  C  C171  1  0.405100  0.786800  0.740920  1.0  0.0577
  C  C172  1  0.454100  0.822200  0.785460  1.0  -0.14
  C  C173  1  0.395400  0.823100  0.830100  1.0  -0.0368
  C  C174  1  0.288600  0.789500  0.831260  1.0  -0.1286
  C  C175  1  0.240900  0.753500  0.786980  1.0  -0.0275
  C  C176  1  0.298100  0.752900  0.742270  1.0  -0.1349
  C  C177  1  0.387000  0.815500  0.645260  1.0  0.0257
  C  C178  1  0.328200  0.880300  0.648000  1.0  -0.1209
  C  C179  1  0.254100  0.906100  0.605970  1.0  -0.0384
  C  C180  1  0.235800  0.866000  0.560200  1.0  -0.1198
  C  C181  1  0.294100  0.800500  0.556820  1.0  -0.0656
  C  C182  1  0.370400  0.775800  0.598860  1.0  -0.1294
  C  C183  1  0.639600  0.781300  0.643480  1.0  0.0592
  C  C184  1  0.702700  0.726000  0.623080  1.0  -0.1324
  C  C185  1  0.767100  0.738600  0.581410  1.0  -0.0465
  C  C186  1  0.771500  0.806500  0.560260  1.0  -0.1269
  C  C187  1  0.707900  0.862500  0.580160  1.0  -0.041
  C  C188  1  0.642700  0.849500  0.621250  1.0  -0.14
  C  C189  1  0.150700  0.892200  0.516340  1.0  0.6818
  C  C190  1  0.225300  0.791300  0.879600  1.0  0.6919
  C  C191  1  0.848300  0.630300  0.863230  1.0  0.6832
  C  C192  1  0.847300  0.821600  0.517580  1.0  0.7419
  O  O193  1  0.104700  0.546290  0.019590  1.0  -0.6804
  O  O194  1  0.123800  0.647540  0.976810  1.0  -0.7721
  O  O195  1  0.866600  0.612280  0.008800  1.0  -0.6329
  O  O196  1  0.886000  0.730500  0.994710  1.0  -0.6779
  O  O197  1  0.275800  0.686900  0.420500  1.0  -0.3513
  O  O198  1  0.126500  0.732700  0.375820  1.0  -0.5711
  O  O199  1  0.938900  0.839820  0.385600  1.0  -0.6832
  O  O200  1  0.814100  0.929220  0.378570  1.0  -0.6145
  O  O201  1  0.895300  0.046290  0.480410  1.0  -0.6794
  O  O202  1  0.876200  0.147540  0.523190  1.0  -0.7726
  O  O203  1  0.133400  0.112280  0.491200  1.0  -0.6342
  O  O204  1  0.114000  0.230500  0.505290  1.0  -0.6773
  O  O205  1  0.724200  0.186900  0.079500  1.0  -0.3525
  O  O206  1  0.873500  0.232700  0.124180  1.0  -0.5738
  O  O207  1  0.061100  0.339820  0.114400  1.0  -0.684
  O  O208  1  0.185900  0.429220  0.121430  1.0  -0.6146
  O  O209  1  0.895300  0.453710  0.980410  1.0  -0.6816
  O  O210  1  0.876200  0.352460  0.023190  1.0  -0.7753
  O  O211  1  0.133400  0.387720  0.991200  1.0  -0.6346
  O  O212  1  0.114000  0.269500  0.005290  1.0  -0.6768
  O  O213  1  0.724200  0.313100  0.579500  1.0  -0.3523
  O  O214  1  0.873500  0.267300  0.624180  1.0  -0.5741
  O  O215  1  0.061100  0.160180  0.614400  1.0  -0.6836
  O  O216  1  0.185900  0.070780  0.621430  1.0  -0.6143
  O  O217  1  0.104700  0.953710  0.519590  1.0  -0.6817
  O  O218  1  0.123800  0.852460  0.476810  1.0  -0.7756
  O  O219  1  0.866600  0.887720  0.508800  1.0  -0.6334
  O  O220  1  0.886000  0.769500  0.494710  1.0  -0.6769
  O  O221  1  0.275800  0.813100  0.920500  1.0  -0.3505
  O  O222  1  0.126500  0.767300  0.875820  1.0  -0.5712
  O  O223  1  0.938900  0.660180  0.885600  1.0  -0.6829
  O  O224  1  0.814100  0.570780  0.878570  1.0  -0.6137
