# generated using pymatgen
data_CdH8C15O4
_symmetry_space_group_name_H-M   'P 1'
_cell_length_a   11.41370000
_cell_length_b   16.59200000
_cell_length_c   26.04100000
_cell_angle_alpha   90.00000000
_cell_angle_beta   95.29000000
_cell_angle_gamma   90.00000000
_symmetry_Int_Tables_number   1
_chemical_formula_structural   CdH8C15O4
_chemical_formula_sum   'Cd8 H64 C120 O32'
_cell_volume   4910.53888506
_cell_formula_units_Z   8
loop_
 _symmetry_equiv_pos_site_id
 _symmetry_equiv_pos_as_xyz
  1  'x, y, z'
loop_
 _atom_site_type_symbol
 _atom_site_label
 _atom_site_symmetry_multiplicity
 _atom_site_fract_x
 _atom_site_fract_y
 _atom_site_fract_z
 _atom_site_occupancy
 _atom_site_charge
  Cd  Cd1  1  0.885910  0.058870  0.960780  1.0  1.1118
  Cd  Cd2  1  0.831830  0.266120  0.963070  1.0  1.0978
  Cd  Cd3  1  0.114090  0.558870  0.539220  1.0  1.1082
  Cd  Cd4  1  0.168170  0.766120  0.536930  1.0  1.0977
  Cd  Cd5  1  0.114090  0.941130  0.039220  1.0  1.1089
  Cd  Cd6  1  0.168170  0.733880  0.036930  1.0  1.1012
  Cd  Cd7  1  0.885910  0.441130  0.460780  1.0  1.1077
  Cd  Cd8  1  0.831830  0.233880  0.463070  1.0  1.1012
  H  H9  1  0.250400  0.088300  0.778600  1.0  0.1125
  H  H10  1  0.143200  0.078100  0.849900  1.0  0.1125
  H  H11  1  0.048400  0.311600  0.832600  1.0  0.1116
  H  H12  1  0.155700  0.320900  0.761200  1.0  0.1135
  H  H13  1  0.318000  0.125100  0.621300  1.0  0.1097
  H  H14  1  0.410300  0.120300  0.545300  1.0  0.1128
  H  H15  1  0.683000  0.247300  0.614500  1.0  0.1055
  H  H16  1  0.593000  0.246800  0.690500  1.0  0.1067
  H  H17  1  0.444900  0.270100  0.798800  1.0  0.1119
  H  H18  1  0.580900  0.240700  0.868800  1.0  0.1086
  H  H19  1  0.645700  0.026000  0.803800  1.0  0.1134
  H  H20  1  0.512700  0.058600  0.733800  1.0  0.1093
  H  H21  1  0.064000  0.173000  0.668100  1.0  0.1194
  H  H22  1  0.953200  0.233800  0.599500  1.0  0.1063
  H  H23  1  0.207200  0.401300  0.590400  1.0  0.0989
  H  H24  1  0.321200  0.339000  0.658300  1.0  0.1205
  H  H25  1  0.749600  0.588300  0.721400  1.0  0.1123
  H  H26  1  0.856800  0.578100  0.650100  1.0  0.1125
  H  H27  1  0.951600  0.811600  0.667400  1.0  0.1113
  H  H28  1  0.844300  0.820900  0.738800  1.0  0.1129
  H  H29  1  0.682000  0.625100  0.878700  1.0  0.1095
  H  H30  1  0.589700  0.620300  0.954700  1.0  0.1131
  H  H31  1  0.317000  0.747300  0.885500  1.0  0.1054
  H  H32  1  0.407000  0.746800  0.809500  1.0  0.1067
  H  H33  1  0.555100  0.770100  0.701200  1.0  0.1117
  H  H34  1  0.419100  0.740700  0.631200  1.0  0.1087
  H  H35  1  0.354300  0.526000  0.696200  1.0  0.1132
  H  H36  1  0.487300  0.558600  0.766200  1.0  0.11
  H  H37  1  0.936000  0.673000  0.831900  1.0  0.1192
  H  H38  1  0.046800  0.733800  0.900500  1.0  0.1059
  H  H39  1  0.792800  0.901300  0.909600  1.0  0.0987
  H  H40  1  0.678800  0.839000  0.841700  1.0  0.1204
  H  H41  1  0.749600  0.911700  0.221400  1.0  0.1126
  H  H42  1  0.856800  0.921900  0.150100  1.0  0.1128
  H  H43  1  0.951600  0.688400  0.167400  1.0  0.111
  H  H44  1  0.844300  0.679100  0.238800  1.0  0.1133
  H  H45  1  0.682000  0.874900  0.378700  1.0  0.1101
  H  H46  1  0.589700  0.879700  0.454700  1.0  0.1132
  H  H47  1  0.317000  0.752700  0.385500  1.0  0.1054
  H  H48  1  0.407000  0.753200  0.309500  1.0  0.1061
  H  H49  1  0.555100  0.729900  0.201200  1.0  0.1116
  H  H50  1  0.419100  0.759300  0.131200  1.0  0.1083
  H  H51  1  0.354300  0.974000  0.196200  1.0  0.1127
  H  H52  1  0.487300  0.941400  0.266200  1.0  0.11
  H  H53  1  0.936000  0.827000  0.331900  1.0  0.1188
  H  H54  1  0.046800  0.766200  0.400500  1.0  0.1058
  H  H55  1  0.792800  0.598700  0.409600  1.0  0.0988
  H  H56  1  0.678800  0.661000  0.341700  1.0  0.1201
  H  H57  1  0.250400  0.411700  0.278600  1.0  0.1129
  H  H58  1  0.143200  0.421900  0.349900  1.0  0.1123
  H  H59  1  0.048400  0.188400  0.332600  1.0  0.1111
  H  H60  1  0.155700  0.179100  0.261200  1.0  0.1132
  H  H61  1  0.318000  0.374900  0.121300  1.0  0.1101
  H  H62  1  0.410300  0.379700  0.045300  1.0  0.1129
  H  H63  1  0.683000  0.252700  0.114500  1.0  0.1055
  H  H64  1  0.593000  0.253200  0.190500  1.0  0.1064
  H  H65  1  0.444900  0.229900  0.298800  1.0  0.1113
  H  H66  1  0.580900  0.259300  0.368800  1.0  0.1086
  H  H67  1  0.645700  0.474000  0.303800  1.0  0.1137
  H  H68  1  0.512700  0.441400  0.233800  1.0  0.1099
  H  H69  1  0.064000  0.327000  0.168100  1.0  0.1194
  H  H70  1  0.953200  0.266200  0.099500  1.0  0.1062
  H  H71  1  0.207200  0.098700  0.090400  1.0  0.0988
  H  H72  1  0.321200  0.161000  0.158300  1.0  0.1201
  C  C73  1  0.387500  0.189700  0.712400  1.0  -0.0298
  C  C74  1  0.274900  0.212100  0.714500  1.0  -0.0447
  C  C75  1  0.211700  0.205500  0.761900  1.0  0.0826
  C  C76  1  0.208600  0.133900  0.789400  1.0  -0.1489
  C  C77  1  0.145900  0.127900  0.832100  1.0  -0.0238
  C  C78  1  0.086800  0.194200  0.849100  1.0  -0.1498
  C  C79  1  0.089900  0.265900  0.821900  1.0  -0.0269
  C  C80  1  0.153000  0.271100  0.779100  1.0  -0.1494
  C  C81  1  0.445000  0.188000  0.663300  1.0  0.0652
  C  C82  1  0.392800  0.149900  0.620000  1.0  -0.1508
  C  C83  1  0.447500  0.147100  0.574700  1.0  -0.0395
  C  C84  1  0.556400  0.183300  0.572000  1.0  -0.1221
  C  C85  1  0.609000  0.221500  0.615700  1.0  -0.048
  C  C86  1  0.554400  0.222200  0.660600  1.0  -0.1367
  C  C87  1  0.466700  0.167400  0.759100  1.0  0.0833
  C  C88  1  0.486800  0.220600  0.799500  1.0  -0.1316
  C  C89  1  0.567600  0.203000  0.841400  1.0  -0.0337
  C  C90  1  0.628100  0.131600  0.843400  1.0  -0.151
  C  C91  1  0.606100  0.076400  0.802800  1.0  -0.0426
  C  C92  1  0.526300  0.095900  0.761400  1.0  -0.1506
  C  C93  1  0.204000  0.249500  0.669600  1.0  0.0888
  C  C94  1  0.093700  0.219200  0.652100  1.0  -0.1452
  C  C95  1  0.027500  0.255700  0.611700  1.0  -0.0292
  C  C96  1  0.068300  0.324100  0.588700  1.0  -0.1674
  C  C97  1  0.178300  0.354700  0.606200  1.0  -0.02
  C  C98  1  0.246200  0.317700  0.646600  1.0  -0.1442
  C  C99  1  0.996300  0.365500  0.546100  1.0  0.7348
  C  C100  1  0.716100  0.111300  0.887000  1.0  0.6921
  C  C101  1  0.016200  0.186700  0.894700  1.0  0.7159
  C  C102  1  0.618600  0.179600  0.523600  1.0  0.6927
  C  C103  1  0.612500  0.689700  0.787600  1.0  -0.0304
  C  C104  1  0.725100  0.712100  0.785500  1.0  -0.0446
  C  C105  1  0.788300  0.705500  0.738100  1.0  0.0824
  C  C106  1  0.791400  0.633900  0.710600  1.0  -0.1491
  C  C107  1  0.854100  0.627900  0.667900  1.0  -0.0244
  C  C108  1  0.913200  0.694200  0.650900  1.0  -0.1497
  C  C109  1  0.910100  0.765900  0.678100  1.0  -0.0274
  C  C110  1  0.847000  0.771100  0.720900  1.0  -0.1483
  C  C111  1  0.555000  0.688000  0.836700  1.0  0.0647
  C  C112  1  0.607200  0.649900  0.880000  1.0  -0.1513
  C  C113  1  0.552500  0.647100  0.925300  1.0  -0.0395
  C  C114  1  0.443600  0.683300  0.928000  1.0  -0.1242
  C  C115  1  0.391000  0.721500  0.884300  1.0  -0.0482
  C  C116  1  0.445600  0.722200  0.839400  1.0  -0.1361
  C  C117  1  0.533300  0.667400  0.740900  1.0  0.0826
  C  C118  1  0.513200  0.720600  0.700500  1.0  -0.1322
  C  C119  1  0.432400  0.703000  0.658600  1.0  -0.0344
  C  C120  1  0.371900  0.631600  0.656600  1.0  -0.1504
  C  C121  1  0.393900  0.576400  0.697200  1.0  -0.0418
  C  C122  1  0.473700  0.595900  0.738600  1.0  -0.1507
  C  C123  1  0.796000  0.749500  0.830400  1.0  0.0904
  C  C124  1  0.906300  0.719200  0.847900  1.0  -0.143
  C  C125  1  0.972500  0.755700  0.888300  1.0  -0.0298
  C  C126  1  0.931700  0.824100  0.911300  1.0  -0.1668
  C  C127  1  0.821700  0.854700  0.893800  1.0  -0.0209
  C  C128  1  0.753800  0.817700  0.853400  1.0  -0.144
  C  C129  1  0.003700  0.865500  0.953900  1.0  0.7343
  C  C130  1  0.283900  0.611300  0.613000  1.0  0.6931
  C  C131  1  0.983800  0.686700  0.605300  1.0  0.7142
  C  C132  1  0.381400  0.679600  0.976400  1.0  0.6974
  C  C133  1  0.612500  0.810300  0.287600  1.0  -0.0304
  C  C134  1  0.725100  0.787900  0.285500  1.0  -0.0443
  C  C135  1  0.788300  0.794500  0.238100  1.0  0.0822
  C  C136  1  0.791400  0.866100  0.210600  1.0  -0.1492
  C  C137  1  0.854100  0.872100  0.167900  1.0  -0.0239
  C  C138  1  0.913200  0.805800  0.150900  1.0  -0.15
  C  C139  1  0.910100  0.734100  0.178100  1.0  -0.0283
  C  C140  1  0.847000  0.728900  0.220900  1.0  -0.149
  C  C141  1  0.555000  0.812000  0.336700  1.0  0.0643
  C  C142  1  0.607200  0.850100  0.380000  1.0  -0.1508
  C  C143  1  0.552500  0.852900  0.425300  1.0  -0.0398
  C  C144  1  0.443600  0.816700  0.428000  1.0  -0.1244
  C  C145  1  0.391000  0.778500  0.384300  1.0  -0.0476
  C  C146  1  0.445600  0.777800  0.339400  1.0  -0.1368
  C  C147  1  0.533300  0.832600  0.240900  1.0  0.082
  C  C148  1  0.513200  0.779400  0.200500  1.0  -0.1341
  C  C149  1  0.432400  0.797000  0.158600  1.0  -0.0363
  C  C150  1  0.371900  0.868400  0.156600  1.0  -0.1505
  C  C151  1  0.393900  0.923600  0.197200  1.0  -0.0425
  C  C152  1  0.473700  0.904100  0.238600  1.0  -0.149
  C  C153  1  0.796000  0.750500  0.330400  1.0  0.0904
  C  C154  1  0.906300  0.780800  0.347900  1.0  -0.1423
  C  C155  1  0.972500  0.744300  0.388300  1.0  -0.03
  C  C156  1  0.931700  0.675900  0.411300  1.0  -0.1664
  C  C157  1  0.821700  0.645300  0.393800  1.0  -0.0206
  C  C158  1  0.753800  0.682300  0.353400  1.0  -0.143
  C  C159  1  0.003700  0.634500  0.453900  1.0  0.7344
  C  C160  1  0.283900  0.888700  0.113000  1.0  0.6939
  C  C161  1  0.983800  0.813300  0.105300  1.0  0.7137
  C  C162  1  0.381400  0.820400  0.476400  1.0  0.6971
  C  C163  1  0.387500  0.310300  0.212400  1.0  -0.0298
  C  C164  1  0.274900  0.287900  0.214500  1.0  -0.0443
  C  C165  1  0.211700  0.294500  0.261900  1.0  0.0824
  C  C166  1  0.208600  0.366100  0.289400  1.0  -0.1487
  C  C167  1  0.145900  0.372100  0.332100  1.0  -0.0227
  C  C168  1  0.086800  0.305800  0.349100  1.0  -0.1497
  C  C169  1  0.089900  0.234100  0.321900  1.0  -0.0269
  C  C170  1  0.153000  0.228900  0.279100  1.0  -0.149
  C  C171  1  0.445000  0.312000  0.163300  1.0  0.0644
  C  C172  1  0.392800  0.350100  0.120000  1.0  -0.1502
  C  C173  1  0.447500  0.352900  0.074700  1.0  -0.0395
  C  C174  1  0.556400  0.316700  0.072000  1.0  -0.1219
  C  C175  1  0.609000  0.278500  0.115700  1.0  -0.0475
  C  C176  1  0.554400  0.277800  0.160600  1.0  -0.1363
  C  C177  1  0.466700  0.332600  0.259100  1.0  0.0828
  C  C178  1  0.486800  0.279400  0.299500  1.0  -0.1326
  C  C179  1  0.567600  0.297000  0.341400  1.0  -0.0359
  C  C180  1  0.628100  0.368400  0.343400  1.0  -0.1513
  C  C181  1  0.606100  0.423600  0.302800  1.0  -0.0424
  C  C182  1  0.526300  0.404100  0.261400  1.0  -0.1486
  C  C183  1  0.204000  0.250500  0.169600  1.0  0.0889
  C  C184  1  0.093700  0.280800  0.152100  1.0  -0.1448
  C  C185  1  0.027500  0.244300  0.111700  1.0  -0.0298
  C  C186  1  0.068300  0.175900  0.088700  1.0  -0.1679
  C  C187  1  0.178300  0.145300  0.106200  1.0  -0.02
  C  C188  1  0.246200  0.182300  0.146600  1.0  -0.1441
  C  C189  1  0.996300  0.134500  0.046100  1.0  0.7351
  C  C190  1  0.716100  0.388700  0.387000  1.0  0.6924
  C  C191  1  0.016200  0.313300  0.394700  1.0  0.7161
  C  C192  1  0.618600  0.320400  0.023600  1.0  0.6925
  O  O193  1  0.727900  0.157900  0.925420  1.0  -0.6731
  O  O194  1  0.775800  0.048100  0.884010  1.0  -0.5764
  O  O195  1  0.021600  0.121900  0.918780  1.0  -0.619
  O  O196  1  0.955400  0.248500  0.904580  1.0  -0.6507
  O  O197  1  0.710700  0.219200  0.523380  1.0  -0.6173
  O  O198  1  0.574000  0.137200  0.487500  1.0  -0.5991
  O  O199  1  0.019800  0.436500  0.534980  1.0  -0.6486
  O  O200  1  0.911800  0.329500  0.522290  1.0  -0.6643
  O  O201  1  0.272100  0.657900  0.574580  1.0  -0.6711
  O  O202  1  0.224200  0.548100  0.615990  1.0  -0.5771
  O  O203  1  0.978400  0.621900  0.581220  1.0  -0.6197
  O  O204  1  0.044600  0.748500  0.595420  1.0  -0.653
  O  O205  1  0.289300  0.719200  0.976620  1.0  -0.6155
  O  O206  1  0.426000  0.637200  0.012500  1.0  -0.6011
  O  O207  1  0.980200  0.936500  0.965020  1.0  -0.6497
  O  O208  1  0.088200  0.829500  0.977710  1.0  -0.6666
  O  O209  1  0.272100  0.842100  0.074580  1.0  -0.6724
  O  O210  1  0.224200  0.951900  0.115990  1.0  -0.5763
  O  O211  1  0.978400  0.878100  0.081220  1.0  -0.6195
  O  O212  1  0.044600  0.751500  0.095420  1.0  -0.6527
  O  O213  1  0.289300  0.780800  0.476620  1.0  -0.6161
  O  O214  1  0.426000  0.862800  0.512500  1.0  -0.6026
  O  O215  1  0.980200  0.563500  0.465020  1.0  -0.6471
  O  O216  1  0.088200  0.670500  0.477710  1.0  -0.6656
  O  O217  1  0.727900  0.342100  0.425420  1.0  -0.6733
  O  O218  1  0.775800  0.451900  0.384010  1.0  -0.5762
  O  O219  1  0.021600  0.378100  0.418780  1.0  -0.6198
  O  O220  1  0.955400  0.251500  0.404580  1.0  -0.6522
  O  O221  1  0.710700  0.280800  0.023380  1.0  -0.6178
  O  O222  1  0.574000  0.362800  0.987500  1.0  -0.5993
  O  O223  1  0.019800  0.063500  0.034980  1.0  -0.6463
  O  O224  1  0.911800  0.170500  0.022290  1.0  -0.6632
