# generated using pymatgen
data_CdH21C27(NO)5
_symmetry_space_group_name_H-M   'P 1'
_cell_length_a   11.20290000
_cell_length_b   21.07470000
_cell_length_c   21.07470000
_cell_angle_alpha   120.00000000
_cell_angle_beta   90.00000000
_cell_angle_gamma   90.00000000
_symmetry_Int_Tables_number   1
_chemical_formula_structural   CdH21C27(NO)5
_chemical_formula_sum   'Cd6 H126 C162 N30 O30'
_cell_volume   4309.07341451
_cell_formula_units_Z   6
loop_
 _symmetry_equiv_pos_site_id
 _symmetry_equiv_pos_as_xyz
  1  'x, y, z'
loop_
 _atom_site_type_symbol
 _atom_site_label
 _atom_site_symmetry_multiplicity
 _atom_site_fract_x
 _atom_site_fract_y
 _atom_site_fract_z
 _atom_site_occupancy
 _atom_site_charge
  Cd  Cd1  1  0.939190  0.429000  0.976370  1.0  0.9509
  Cd  Cd2  1  0.605860  0.547370  0.571000  1.0  0.9509
  Cd  Cd3  1  0.272520  0.023630  0.452630  1.0  0.9517
  Cd  Cd4  1  0.439190  0.571000  0.023630  1.0  0.9511
  Cd  Cd5  1  0.105860  0.452630  0.429000  1.0  0.9514
  Cd  Cd6  1  0.772520  0.976370  0.547370  1.0  0.952
  H  H7  1  0.841000  0.844400  0.087900  1.0  0.1257
  H  H8  1  0.028100  0.792700  0.063700  1.0  0.1204
  H  H9  1  0.052900  0.674600  0.037500  1.0  0.0967
  H  H10  1  0.621400  0.781900  0.984000  1.0  0.0975
  H  H11  1  0.426800  0.820600  0.996900  1.0  0.1424
  H  H12  1  0.421200  0.836500  0.193800  1.0  0.1187
  H  H13  1  0.605700  0.794500  0.175100  1.0  0.0865
  H  H14  1  0.670500  0.392300  0.900000  1.0  0.1068
  H  H15  1  0.614500  0.299900  0.776200  1.0  0.1125
  H  H16  1  0.961800  0.297500  0.793800  1.0  0.0898
  H  H17  1  0.749900  0.183200  0.670700  1.0  0.106
  H  H18  1  0.883200  0.205200  0.669500  1.0  0.1208
  H  H19  1  0.689900  0.158800  0.553500  1.0  0.0987
  H  H20  1  0.650400  0.197500  0.470600  1.0  0.0911
  H  H21  1  0.789200  0.393700  0.610600  1.0  0.1059
  H  H22  1  0.830400  0.356000  0.691900  1.0  0.0954
  H  H23  1  0.643800  0.291500  0.438700  1.0  0.1066
  H  H24  1  0.664600  0.372900  0.500600  1.0  0.103
  H  H25  1  0.848200  0.219000  0.365700  1.0  0.1261
  H  H26  1  0.027600  0.266500  0.340500  1.0  0.1028
  H  H27  1  0.853700  0.432400  0.495000  1.0  0.098
  H  H28  1  0.507670  0.243500  0.155600  1.0  0.1265
  H  H29  1  0.694770  0.271000  0.207300  1.0  0.1198
  H  H30  1  0.719570  0.362900  0.325400  1.0  0.0966
  H  H31  1  0.288070  0.202100  0.218100  1.0  0.0964
  H  H32  1  0.093470  0.176300  0.179400  1.0  0.1398
  H  H33  1  0.087870  0.357300  0.163500  1.0  0.1169
  H  H34  1  0.272370  0.380600  0.205500  1.0  0.0871
  H  H35  1  0.337170  0.507700  0.607700  1.0  0.1064
  H  H36  1  0.281170  0.476300  0.700100  1.0  0.1123
  H  H37  1  0.628470  0.496300  0.702500  1.0  0.09
  H  H38  1  0.416570  0.487500  0.816800  1.0  0.104
  H  H39  1  0.549870  0.464300  0.794800  1.0  0.1186
  H  H40  1  0.356570  0.394700  0.841200  1.0  0.0985
  H  H41  1  0.317070  0.273100  0.802500  1.0  0.0918
  H  H42  1  0.455870  0.216900  0.606300  1.0  0.1053
  H  H43  1  0.497070  0.335900  0.644000  1.0  0.0968
  H  H44  1  0.310470  0.147200  0.708500  1.0  0.106
  H  H45  1  0.331270  0.127700  0.627100  1.0  0.1021
  H  H46  1  0.514870  0.146700  0.781000  1.0  0.1249
  H  H47  1  0.694270  0.074000  0.733500  1.0  0.1021
  H  H48  1  0.520370  0.062600  0.567600  1.0  0.0964
  H  H49  1  0.174330  0.912100  0.756500  1.0  0.1263
  H  H50  1  0.361430  0.936300  0.729000  1.0  0.1204
  H  H51  1  0.386230  0.962500  0.637100  1.0  0.0968
  H  H52  1  0.954730  0.016000  0.797900  1.0  0.0977
  H  H53  1  0.760130  0.003100  0.823700  1.0  0.1424
  H  H54  1  0.754530  0.806200  0.642700  1.0  0.1179
  H  H55  1  0.939030  0.824900  0.619400  1.0  0.086
  H  H56  1  0.003830  0.100000  0.492300  1.0  0.1063
  H  H57  1  0.947830  0.223800  0.523700  1.0  0.1122
  H  H58  1  0.295130  0.206200  0.503700  1.0  0.0894
  H  H59  1  0.083230  0.329300  0.512500  1.0  0.1047
  H  H60  1  0.216530  0.330500  0.535700  1.0  0.1187
  H  H61  1  0.023230  0.446500  0.605300  1.0  0.0993
  H  H62  1  0.983730  0.529400  0.726900  1.0  0.0913
  H  H63  1  0.122530  0.389400  0.783100  1.0  0.1051
  H  H64  1  0.163730  0.308100  0.664100  1.0  0.0958
  H  H65  1  0.977130  0.561300  0.852800  1.0  0.1069
  H  H66  1  0.997930  0.499400  0.872300  1.0  0.1017
  H  H67  1  0.181530  0.634300  0.853300  1.0  0.1257
  H  H68  1  0.360930  0.659500  0.926000  1.0  0.1028
  H  H69  1  0.187030  0.505000  0.937400  1.0  0.0973
  H  H70  1  0.341000  0.155600  0.912100  1.0  0.1254
  H  H71  1  0.528100  0.207300  0.936300  1.0  0.1198
  H  H72  1  0.552900  0.325400  0.962500  1.0  0.0967
  H  H73  1  0.121400  0.218100  0.016000  1.0  0.0977
  H  H74  1  0.926800  0.179400  0.003100  1.0  0.1419
  H  H75  1  0.921200  0.163500  0.806200  1.0  0.1181
  H  H76  1  0.105700  0.205500  0.824900  1.0  0.0867
  H  H77  1  0.170500  0.607700  0.100000  1.0  0.1063
  H  H78  1  0.114500  0.700100  0.223800  1.0  0.1121
  H  H79  1  0.461800  0.702500  0.206200  1.0  0.0896
  H  H80  1  0.249900  0.816800  0.329300  1.0  0.1058
  H  H81  1  0.383200  0.794800  0.330500  1.0  0.1205
  H  H82  1  0.189900  0.841200  0.446500  1.0  0.0988
  H  H83  1  0.150400  0.802500  0.529400  1.0  0.0908
  H  H84  1  0.289200  0.606300  0.389400  1.0  0.106
  H  H85  1  0.330400  0.644000  0.308100  1.0  0.0958
  H  H86  1  0.143800  0.708500  0.561300  1.0  0.1069
  H  H87  1  0.164600  0.627100  0.499400  1.0  0.1031
  H  H88  1  0.348200  0.781000  0.634300  1.0  0.1269
  H  H89  1  0.527600  0.733500  0.659500  1.0  0.1029
  H  H90  1  0.353700  0.567600  0.505000  1.0  0.0987
  H  H91  1  0.007670  0.756500  0.844400  1.0  0.1269
  H  H92  1  0.194770  0.729000  0.792700  1.0  0.121
  H  H93  1  0.219570  0.637100  0.674600  1.0  0.0966
  H  H94  1  0.788070  0.797900  0.781900  1.0  0.0969
  H  H95  1  0.593470  0.823700  0.820600  1.0  0.1427
  H  H96  1  0.587870  0.642700  0.836500  1.0  0.1171
  H  H97  1  0.772370  0.619400  0.794500  1.0  0.0869
  H  H98  1  0.837170  0.492300  0.392300  1.0  0.1067
  H  H99  1  0.781170  0.523700  0.299900  1.0  0.1126
  H  H100  1  0.128470  0.503700  0.297500  1.0  0.0899
  H  H101  1  0.916570  0.512500  0.183200  1.0  0.1042
  H  H102  1  0.049870  0.535700  0.205200  1.0  0.1188
  H  H103  1  0.856570  0.605300  0.158800  1.0  0.0987
  H  H104  1  0.817070  0.726900  0.197500  1.0  0.0924
  H  H105  1  0.955870  0.783100  0.393700  1.0  0.1042
  H  H106  1  0.997070  0.664100  0.356000  1.0  0.0961
  H  H107  1  0.810470  0.852800  0.291500  1.0  0.1059
  H  H108  1  0.831270  0.872300  0.372900  1.0  0.1022
  H  H109  1  0.014870  0.853300  0.219000  1.0  0.1266
  H  H110  1  0.194270  0.926000  0.266500  1.0  0.1026
  H  H111  1  0.020370  0.937400  0.432400  1.0  0.0973
  H  H112  1  0.674330  0.087900  0.243500  1.0  0.1276
  H  H113  1  0.861430  0.063700  0.271000  1.0  0.1206
  H  H114  1  0.886230  0.037500  0.362900  1.0  0.0968
  H  H115  1  0.454730  0.984000  0.202100  1.0  0.0971
  H  H116  1  0.260130  0.996900  0.176300  1.0  0.1418
  H  H117  1  0.254530  0.193800  0.357300  1.0  0.1187
  H  H118  1  0.439030  0.175100  0.380600  1.0  0.0858
  H  H119  1  0.503830  0.900000  0.507700  1.0  0.1065
  H  H120  1  0.447830  0.776200  0.476300  1.0  0.1122
  H  H121  1  0.795130  0.793800  0.496300  1.0  0.0898
  H  H122  1  0.583230  0.670700  0.487500  1.0  0.1044
  H  H123  1  0.716530  0.669500  0.464300  1.0  0.1188
  H  H124  1  0.523230  0.553500  0.394700  1.0  0.0989
  H  H125  1  0.483730  0.470600  0.273100  1.0  0.0908
  H  H126  1  0.622530  0.610600  0.216900  1.0  0.1063
  H  H127  1  0.663730  0.691900  0.335900  1.0  0.0955
  H  H128  1  0.477130  0.438700  0.147200  1.0  0.1069
  H  H129  1  0.497930  0.500600  0.127700  1.0  0.102
  H  H130  1  0.681530  0.365700  0.146700  1.0  0.1261
  H  H131  1  0.860930  0.340500  0.074000  1.0  0.1028
  H  H132  1  0.687030  0.495000  0.062600  1.0  0.0976
  C  C133  1  0.895000  0.571100  0.013200  1.0  0.6115
  C  C134  1  0.652900  0.636600  0.038500  1.0  0.6513
  C  C135  1  0.878900  0.650000  0.034900  1.0  -0.0959
  C  C136  1  0.763400  0.679600  0.046500  1.0  -0.0986
  C  C137  1  0.752400  0.753300  0.066300  1.0  0.092
  C  C138  1  0.850200  0.795200  0.073900  1.0  -0.1535
  C  C139  1  0.961900  0.764800  0.060800  1.0  -0.0848
  C  C140  1  0.976300  0.693900  0.043600  1.0  -0.0569
  C  C141  1  0.579600  0.792200  0.026300  1.0  0.041
  C  C142  1  0.461700  0.815500  0.034200  1.0  -0.2982
  C  C143  1  0.393200  0.831600  0.096400  1.0  0.4615
  C  C144  1  0.458100  0.824200  0.149500  1.0  -0.2871
  C  C145  1  0.569300  0.800500  0.138800  1.0  0.0355
  C  C146  1  0.723100  0.361900  0.863100  1.0  0.0567
  C  C147  1  0.691600  0.311100  0.794900  1.0  -0.1605
  C  C148  1  0.882100  0.310500  0.805300  1.0  0.1469
  C  C149  1  0.802100  0.223800  0.680500  1.0  -0.0588
  C  C150  1  0.769100  0.252400  0.631300  1.0  0.029
  C  C151  1  0.711700  0.205800  0.564600  1.0  -0.0998
  C  C152  1  0.687200  0.229300  0.514900  1.0  -0.1035
  C  C153  1  0.716900  0.299300  0.530500  1.0  0.0165
  C  C154  1  0.770400  0.346000  0.598600  1.0  -0.1221
  C  C155  1  0.795300  0.323500  0.647300  1.0  -0.1286
  C  C156  1  0.699300  0.324200  0.476100  1.0  -0.0531
  C  C157  1  0.871400  0.267900  0.388700  1.0  -0.155
  C  C158  1  0.970400  0.294300  0.375400  1.0  0.0574
  C  C159  1  0.875700  0.385200  0.459800  1.0  0.1478
  C  C160  1  0.561670  0.442100  0.428900  1.0  0.611
  C  C161  1  0.319570  0.401900  0.363400  1.0  0.6511
  C  C162  1  0.545570  0.384900  0.350000  1.0  -0.0977
  C  C163  1  0.430070  0.366900  0.320400  1.0  -0.0992
  C  C164  1  0.419070  0.313000  0.246700  1.0  0.092
  C  C165  1  0.516870  0.278700  0.204800  1.0  -0.1529
  C  C166  1  0.628570  0.296000  0.235200  1.0  -0.0839
  C  C167  1  0.642970  0.349700  0.306100  1.0  -0.0579
  C  C168  1  0.246270  0.234100  0.207800  1.0  0.0408
  C  C169  1  0.128370  0.218700  0.184500  1.0  -0.2976
  C  C170  1  0.059870  0.264800  0.168400  1.0  0.4588
  C  C171  1  0.124770  0.325300  0.175800  1.0  -0.2845
  C  C172  1  0.235970  0.338300  0.199500  1.0  0.0372
  C  C173  1  0.389770  0.501200  0.638100  1.0  0.0592
  C  C174  1  0.358270  0.483800  0.688900  1.0  -0.1602
  C  C175  1  0.548770  0.494800  0.689500  1.0  0.146
  C  C176  1  0.468770  0.456700  0.776200  1.0  -0.0585
  C  C177  1  0.435770  0.378900  0.747600  1.0  0.0295
  C  C178  1  0.378370  0.358800  0.794200  1.0  -0.0994
  C  C179  1  0.353870  0.285600  0.770700  1.0  -0.1045
  C  C180  1  0.383570  0.231200  0.700700  1.0  0.0172
  C  C181  1  0.437070  0.252600  0.654000  1.0  -0.1228
  C  C182  1  0.461970  0.323800  0.676500  1.0  -0.1293
  C  C183  1  0.365970  0.151900  0.675800  1.0  -0.0527
  C  C184  1  0.538070  0.120800  0.732100  1.0  -0.1496
  C  C185  1  0.637070  0.081100  0.705700  1.0  0.0584
  C  C186  1  0.542370  0.074600  0.614800  1.0  0.1469
  C  C187  1  0.228330  0.986800  0.557900  1.0  0.6107
  C  C188  1  0.986230  0.961500  0.598100  1.0  0.6516
  C  C189  1  0.212230  0.965100  0.615100  1.0  -0.0976
  C  C190  1  0.096730  0.953500  0.633100  1.0  -0.0992
  C  C191  1  0.085730  0.933700  0.687000  1.0  0.0928
  C  C192  1  0.183530  0.926100  0.721300  1.0  -0.1462
  C  C193  1  0.295230  0.939200  0.704000  1.0  -0.0835
  C  C194  1  0.309630  0.956400  0.650300  1.0  -0.0552
  C  C195  1  0.912930  0.973700  0.765900  1.0  0.0397
  C  C196  1  0.795030  0.965800  0.781300  1.0  -0.291
  C  C197  1  0.726530  0.903600  0.735200  1.0  0.4597
  C  C198  1  0.791430  0.850500  0.674700  1.0  -0.2849
  C  C199  1  0.902630  0.861200  0.661700  1.0  0.036
  C  C200  1  0.056430  0.136900  0.498800  1.0  0.0563
  C  C201  1  0.024930  0.205100  0.516200  1.0  -0.1613
  C  C202  1  0.215430  0.194700  0.505200  1.0  0.15
  C  C203  1  0.135430  0.319500  0.543300  1.0  -0.0574
  C  C204  1  0.102430  0.368700  0.621100  1.0  0.0289
  C  C205  1  0.045030  0.435400  0.641200  1.0  -0.0987
  C  C206  1  0.020530  0.485100  0.714400  1.0  -0.1021
  C  C207  1  0.050230  0.469500  0.768800  1.0  0.0165
  C  C208  1  0.103730  0.401400  0.747400  1.0  -0.1206
  C  C209  1  0.128630  0.352700  0.676200  1.0  -0.1283
  C  C210  1  0.032630  0.523900  0.848100  1.0  -0.0529
  C  C211  1  0.204730  0.611300  0.879200  1.0  -0.1537
  C  C212  1  0.303730  0.624600  0.918900  1.0  0.0558
  C  C213  1  0.209030  0.540200  0.925400  1.0  0.1468
  C  C214  1  0.395000  0.428900  0.986800  1.0  0.6109
  C  C215  1  0.152900  0.363400  0.961500  1.0  0.6502
  C  C216  1  0.378900  0.350000  0.965100  1.0  -0.0973
  C  C217  1  0.263400  0.320400  0.953500  1.0  -0.0973
  C  C218  1  0.252400  0.246700  0.933700  1.0  0.0933
  C  C219  1  0.350200  0.204800  0.926100  1.0  -0.1532
  C  C220  1  0.461900  0.235200  0.939200  1.0  -0.0827
  C  C221  1  0.476300  0.306100  0.956400  1.0  -0.0571
  C  C222  1  0.079600  0.207800  0.973700  1.0  0.0404
  C  C223  1  0.961700  0.184500  0.965800  1.0  -0.299
  C  C224  1  0.893200  0.168400  0.903600  1.0  0.4605
  C  C225  1  0.958100  0.175800  0.850500  1.0  -0.2873
  C  C226  1  0.069300  0.199500  0.861200  1.0  0.0361
  C  C227  1  0.223100  0.638100  0.136900  1.0  0.0564
  C  C228  1  0.191600  0.688900  0.205100  1.0  -0.1608
  C  C229  1  0.382100  0.689500  0.194700  1.0  0.1465
  C  C230  1  0.302100  0.776200  0.319500  1.0  -0.0608
  C  C231  1  0.269100  0.747600  0.368700  1.0  0.0295
  C  C232  1  0.211700  0.794200  0.435400  1.0  -0.0996
  C  C233  1  0.187200  0.770700  0.485100  1.0  -0.1037
  C  C234  1  0.216900  0.700700  0.469500  1.0  0.0168
  C  C235  1  0.270400  0.654000  0.401400  1.0  -0.1216
  C  C236  1  0.295300  0.676500  0.352700  1.0  -0.1286
  C  C237  1  0.199300  0.675800  0.523900  1.0  -0.0523
  C  C238  1  0.371400  0.732100  0.611300  1.0  -0.1534
  C  C239  1  0.470400  0.705700  0.624600  1.0  0.0577
  C  C240  1  0.375700  0.614800  0.540200  1.0  0.1493
  C  C241  1  0.061670  0.557900  0.571100  1.0  0.6097
  C  C242  1  0.819570  0.598100  0.636600  1.0  0.6514
  C  C243  1  0.045570  0.615100  0.650000  1.0  -0.0978
  C  C244  1  0.930070  0.633100  0.679600  1.0  -0.0997
  C  C245  1  0.919070  0.687000  0.753300  1.0  0.0916
  C  C246  1  0.016870  0.721300  0.795200  1.0  -0.1525
  C  C247  1  0.128570  0.704000  0.764800  1.0  -0.0832
  C  C248  1  0.142970  0.650300  0.693900  1.0  -0.0574
  C  C249  1  0.746270  0.765900  0.792200  1.0  0.0398
  C  C250  1  0.628370  0.781300  0.815500  1.0  -0.2982
  C  C251  1  0.559870  0.735200  0.831600  1.0  0.4607
  C  C252  1  0.624770  0.674700  0.824200  1.0  -0.2869
  C  C253  1  0.735970  0.661700  0.800500  1.0  0.0371
  C  C254  1  0.889770  0.498800  0.361900  1.0  0.0597
  C  C255  1  0.858270  0.516200  0.311100  1.0  -0.1592
  C  C256  1  0.048770  0.505200  0.310500  1.0  0.1484
  C  C257  1  0.968770  0.543300  0.223800  1.0  -0.0585
  C  C258  1  0.935770  0.621100  0.252400  1.0  0.0298
  C  C259  1  0.878370  0.641200  0.205800  1.0  -0.0988
  C  C260  1  0.853870  0.714400  0.229300  1.0  -0.1031
  C  C261  1  0.883570  0.768800  0.299300  1.0  0.0165
  C  C262  1  0.937070  0.747400  0.346000  1.0  -0.1228
  C  C263  1  0.961970  0.676200  0.323500  1.0  -0.1278
  C  C264  1  0.865970  0.848100  0.324200  1.0  -0.0529
  C  C265  1  0.038070  0.879200  0.267900  1.0  -0.1492
  C  C266  1  0.137070  0.918900  0.294300  1.0  0.058
  C  C267  1  0.042370  0.925400  0.385200  1.0  0.1467
  C  C268  1  0.728330  0.013200  0.442100  1.0  0.6114
  C  C269  1  0.486230  0.038500  0.401900  1.0  0.6519
  C  C270  1  0.712230  0.034900  0.384900  1.0  -0.0979
  C  C271  1  0.596730  0.046500  0.366900  1.0  -0.0994
  C  C272  1  0.585730  0.066300  0.313000  1.0  0.0924
  C  C273  1  0.683530  0.073900  0.278700  1.0  -0.146
  C  C274  1  0.795230  0.060800  0.296000  1.0  -0.0791
  C  C275  1  0.809630  0.043600  0.349700  1.0  -0.0548
  C  C276  1  0.412930  0.026300  0.234100  1.0  0.0395
  C  C277  1  0.295030  0.034200  0.218700  1.0  -0.2955
  C  C278  1  0.226530  0.096400  0.264800  1.0  0.4628
  C  C279  1  0.291430  0.149500  0.325300  1.0  -0.2876
  C  C280  1  0.402630  0.138800  0.338300  1.0  0.0362
  C  C281  1  0.556430  0.863100  0.501200  1.0  0.0559
  C  C282  1  0.524930  0.794900  0.483800  1.0  -0.161
  C  C283  1  0.715430  0.805300  0.494800  1.0  0.149
  C  C284  1  0.635430  0.680500  0.456700  1.0  -0.057
  C  C285  1  0.602430  0.631300  0.378900  1.0  0.0286
  C  C286  1  0.545030  0.564600  0.358800  1.0  -0.0979
  C  C287  1  0.520530  0.514900  0.285600  1.0  -0.103
  C  C288  1  0.550230  0.530500  0.231200  1.0  0.0172
  C  C289  1  0.603730  0.598600  0.252600  1.0  -0.1193
  C  C290  1  0.628630  0.647300  0.323800  1.0  -0.1283
  C  C291  1  0.532630  0.476100  0.151900  1.0  -0.0528
  C  C292  1  0.704730  0.388700  0.120800  1.0  -0.1528
  C  C293  1  0.803730  0.375400  0.081100  1.0  0.0551
  C  C294  1  0.709030  0.459800  0.074600  1.0  0.146
  N  N295  1  0.846000  0.362000  0.870000  1.0  -0.4091
  N  N296  1  0.794200  0.279100  0.758400  1.0  0.0608
  N  N297  1  0.811100  0.325700  0.441800  1.0  0.0546
  N  N298  1  0.975100  0.368800  0.421200  1.0  -0.4087
  N  N299  1  0.633700  0.784300  0.078100  1.0  0.0333
  N  N300  1  0.512670  0.508000  0.638000  1.0  -0.4062
  N  N301  1  0.460870  0.479300  0.720900  1.0  0.0611
  N  N302  1  0.477770  0.116100  0.674300  1.0  0.0548
  N  N303  1  0.641770  0.052400  0.631200  1.0  -0.4074
  N  N304  1  0.300370  0.293800  0.215700  1.0  0.0326
  N  N305  1  0.179330  0.130000  0.492000  1.0  -0.4075
  N  N306  1  0.127530  0.241600  0.520700  1.0  0.0602
  N  N307  1  0.144430  0.558200  0.883900  1.0  0.054
  N  N308  1  0.308430  0.578800  0.947600  1.0  -0.4085
  N  N309  1  0.967030  0.921900  0.706200  1.0  0.0331
  N  N310  1  0.346000  0.638000  0.130000  1.0  -0.4082
  N  N311  1  0.294200  0.720900  0.241600  1.0  0.0614
  N  N312  1  0.311100  0.674300  0.558200  1.0  0.0546
  N  N313  1  0.475100  0.631200  0.578800  1.0  -0.4074
  N  N314  1  0.133700  0.215700  0.921900  1.0  0.0331
  N  N315  1  0.012670  0.492000  0.362000  1.0  -0.4053
  N  N316  1  0.960870  0.520700  0.279100  1.0  0.0609
  N  N317  1  0.977770  0.883900  0.325700  1.0  0.0545
  N  N318  1  0.141770  0.947600  0.368800  1.0  -0.4094
  N  N319  1  0.800370  0.706200  0.784300  1.0  0.0327
  N  N320  1  0.679330  0.870000  0.508000  1.0  -0.4082
  N  N321  1  0.627530  0.758400  0.479300  1.0  0.0608
  N  N322  1  0.644430  0.441800  0.116100  1.0  0.0539
  N  N323  1  0.808430  0.421200  0.052400  1.0  -0.4091
  N  N324  1  0.467030  0.078100  0.293800  1.0  0.0332
  O  O325  1  0.994300  0.549200  0.023000  1.0  -0.5916
  O  O326  1  0.810400  0.527800  0.983100  1.0  -0.5723
  O  O327  1  0.624600  0.625900  0.089800  1.0  -0.6004
  O  O328  1  0.590500  0.616700  0.982300  1.0  -0.5927
  O  O329  1  0.285600  0.850700  0.101200  1.0  -0.5751
  O  O330  1  0.660970  0.473800  0.450800  1.0  -0.5936
  O  O331  1  0.477070  0.455300  0.472200  1.0  -0.5722
  O  O332  1  0.291270  0.463900  0.374100  1.0  -0.5997
  O  O333  1  0.257170  0.365600  0.383300  1.0  -0.5923
  O  O334  1  0.952270  0.250500  0.149300  1.0  -0.5732
  O  O335  1  0.327630  0.977000  0.526200  1.0  -0.5915
  O  O336  1  0.143730  0.016900  0.544700  1.0  -0.5743
  O  O337  1  0.957930  0.910200  0.536100  1.0  -0.6001
  O  O338  1  0.923830  0.017700  0.634400  1.0  -0.5902
  O  O339  1  0.618930  0.898800  0.749500  1.0  -0.5747
  O  O340  1  0.494300  0.450800  0.977000  1.0  -0.5917
  O  O341  1  0.310400  0.472200  0.016900  1.0  -0.5726
  O  O342  1  0.124600  0.374100  0.910200  1.0  -0.6005
  O  O343  1  0.090500  0.383300  0.017700  1.0  -0.593
  O  O344  1  0.785600  0.149300  0.898800  1.0  -0.5752
  O  O345  1  0.160970  0.526200  0.549200  1.0  -0.5926
  O  O346  1  0.977070  0.544700  0.527800  1.0  -0.5724
  O  O347  1  0.791270  0.536100  0.625900  1.0  -0.5998
  O  O348  1  0.757170  0.634400  0.616700  1.0  -0.5927
  O  O349  1  0.452270  0.749500  0.850700  1.0  -0.5731
  O  O350  1  0.827630  0.023000  0.473800  1.0  -0.5918
  O  O351  1  0.643730  0.983100  0.455300  1.0  -0.5737
  O  O352  1  0.457930  0.089800  0.463900  1.0  -0.6004
  O  O353  1  0.423830  0.982300  0.365600  1.0  -0.5907
  O  O354  1  0.118930  0.101200  0.250500  1.0  -0.5748
