# generated using pymatgen
data_Co3H26C40(N5O4)2
_symmetry_space_group_name_H-M   'P 1'
_cell_length_a   11.49320000
_cell_length_b   11.61320000
_cell_length_c   11.81820000
_cell_angle_alpha   65.27500000
_cell_angle_beta   81.17400000
_cell_angle_gamma   72.75200000
_symmetry_Int_Tables_number   1
_chemical_formula_structural   Co3H26C40(N5O4)2
_chemical_formula_sum   'Co3 H26 C40 N10 O8'
_cell_volume   1367.58130355
_cell_formula_units_Z   1
loop_
 _symmetry_equiv_pos_site_id
 _symmetry_equiv_pos_as_xyz
  1  'x, y, z'
loop_
 _atom_site_type_symbol
 _atom_site_label
 _atom_site_symmetry_multiplicity
 _atom_site_fract_x
 _atom_site_fract_y
 _atom_site_fract_z
 _atom_site_occupancy
 _atom_site_charge
  Co  Co1  1  0.000000  0.000000  0.500000  1.0  0.9826
  Co  Co2  1  0.000000  0.500000  0.500000  1.0  0.5452
  Co  Co3  1  0.000000  0.000000  0.000000  1.0  0.5536
  H  H4  1  0.044000  0.662300  0.179500  1.0  0.0881
  H  H5  1  0.835100  0.275600  0.368200  1.0  0.0861
  H  H6  1  0.637300  0.401300  0.370800  1.0  0.122
  H  H7  1  0.578800  0.118200  0.702500  1.0  0.1192
  H  H8  1  0.779900  0.001300  0.691500  1.0  0.0833
  H  H9  1  0.204600  0.368800  0.704600  1.0  0.0776
  H  H10  1  0.412800  0.274600  0.718600  1.0  0.1192
  H  H11  1  0.443700  0.444700  0.344300  1.0  0.129
  H  H12  1  0.234700  0.531900  0.341200  1.0  0.0765
  H  H13  1  0.841700  0.817800  0.019900  1.0  0.0801
  H  H14  1  0.643600  0.809300  0.024900  1.0  0.1255
  H  H15  1  0.536500  0.194500  0.960100  1.0  0.1258
  H  H16  1  0.740300  0.190700  0.954300  1.0  0.0895
  H  H17  1  0.956000  0.337700  0.820500  1.0  0.0912
  H  H18  1  0.164900  0.724400  0.631800  1.0  0.0857
  H  H19  1  0.362700  0.598700  0.629200  1.0  0.1243
  H  H20  1  0.421200  0.881800  0.297500  1.0  0.1201
  H  H21  1  0.220100  0.998700  0.308500  1.0  0.0844
  H  H22  1  0.795400  0.631200  0.295400  1.0  0.0776
  H  H23  1  0.587200  0.725400  0.281400  1.0  0.1189
  H  H24  1  0.556300  0.555300  0.655700  1.0  0.1288
  H  H25  1  0.765300  0.468100  0.658800  1.0  0.076
  H  H26  1  0.158300  0.182200  0.980100  1.0  0.0799
  H  H27  1  0.356400  0.190700  0.975100  1.0  0.1264
  H  H28  1  0.463500  0.805500  0.039900  1.0  0.1252
  H  H29  1  0.259700  0.809300  0.045700  1.0  0.0888
  C  C30  1  0.023600  0.716600  0.225200  1.0  0.2087
  C  C31  1  0.981500  0.887400  0.268500  1.0  -0.0443
  C  C32  1  0.978400  0.778000  0.378100  1.0  -0.0481
  C  C33  1  0.948700  0.755500  0.510900  1.0  0.642
  C  C34  1  0.961900  0.029200  0.235200  1.0  0.6554
  C  C35  1  0.781900  0.242600  0.436700  1.0  0.175
  C  C36  1  0.663600  0.318500  0.437400  1.0  -0.2151
  C  C37  1  0.584200  0.272900  0.535600  1.0  0.0831
  C  C38  1  0.629700  0.152400  0.632200  1.0  -0.1949
  C  C39  1  0.750100  0.082700  0.624600  1.0  0.169
  C  C40  1  0.253400  0.382200  0.629900  1.0  0.1642
  C  C41  1  0.378300  0.325400  0.639000  1.0  -0.2094
  C  C42  1  0.452300  0.342800  0.532600  1.0  0.1003
  C  C43  1  0.396400  0.424700  0.420100  1.0  -0.1994
  C  C44  1  0.271200  0.476800  0.419300  1.0  0.1672
  C  C45  1  0.778500  0.895800  0.008200  1.0  0.1634
  C  C46  1  0.660200  0.889400  0.012100  1.0  -0.2083
  C  C47  1  0.564700  0.001500  0.997000  1.0  0.079
  C  C48  1  0.597500  0.114600  0.973800  1.0  -0.203
  C  C49  1  0.720000  0.111600  0.970600  1.0  0.1539
  C  C50  1  0.976400  0.283400  0.774800  1.0  0.2087
  C  C51  1  0.018500  0.112600  0.731500  1.0  -0.0434
  C  C52  1  0.021600  0.222000  0.621900  1.0  -0.0475
  C  C53  1  0.051300  0.244500  0.489100  1.0  0.6416
  C  C54  1  0.038100  0.970800  0.764800  1.0  0.6567
  C  C55  1  0.218100  0.757400  0.563300  1.0  0.1748
  C  C56  1  0.336400  0.681500  0.562600  1.0  -0.2184
  C  C57  1  0.415800  0.727100  0.464400  1.0  0.0833
  C  C58  1  0.370300  0.847600  0.367800  1.0  -0.1923
  C  C59  1  0.249900  0.917300  0.375400  1.0  0.1705
  C  C60  1  0.746600  0.617800  0.370100  1.0  0.164
  C  C61  1  0.621700  0.674600  0.361000  1.0  -0.2102
  C  C62  1  0.547700  0.657200  0.467400  1.0  0.1008
  C  C63  1  0.603600  0.575300  0.579900  1.0  -0.1989
  C  C64  1  0.728800  0.523200  0.580700  1.0  0.1675
  C  C65  1  0.221500  0.104200  0.991800  1.0  0.1634
  C  C66  1  0.339800  0.110600  0.987900  1.0  -0.2076
  C  C67  1  0.435300  0.998500  0.003000  1.0  0.0785
  C  C68  1  0.402500  0.885400  0.026200  1.0  -0.2025
  C  C69  1  0.280000  0.888400  0.029400  1.0  0.153
  N  N70  1  0.005700  0.669800  0.348000  1.0  -0.3055
  N  N71  1  0.010400  0.845700  0.171200  1.0  -0.3487
  N  N72  1  0.825800  0.125000  0.527600  1.0  -0.334
  N  N73  1  0.199000  0.454300  0.521500  1.0  -0.274
  N  N74  1  0.810200  0.002500  0.989400  1.0  -0.2759
  N  N75  1  0.994300  0.330200  0.652000  1.0  -0.3063
  N  N76  1  0.989600  0.154300  0.828800  1.0  -0.3546
  N  N77  1  0.174200  0.875000  0.472400  1.0  -0.3349
  N  N78  1  0.801000  0.545700  0.478500  1.0  -0.2772
  N  N79  1  0.189800  0.997500  0.010600  1.0  -0.283
  O  O80  1  0.958200  0.075300  0.313800  1.0  -0.5799
  O  O81  1  0.951700  0.101700  0.119000  1.0  -0.5496
  O  O82  1  0.918600  0.849000  0.545800  1.0  -0.5862
  O  O83  1  0.954500  0.637700  0.584700  1.0  -0.5394
  O  O84  1  0.041800  0.924700  0.686200  1.0  -0.5782
  O  O85  1  0.048300  0.898300  0.881000  1.0  -0.5497
  O  O86  1  0.081400  0.151000  0.454200  1.0  -0.5877
  O  O87  1  0.045500  0.362300  0.415300  1.0  -0.5467
