# generated using pymatgen
data_NdH6C16(NO4)2
_symmetry_space_group_name_H-M   'P 1'
_cell_length_a   23.21430000
_cell_length_b   23.21430000
_cell_length_c   23.21430000
_cell_angle_alpha   109.47100000
_cell_angle_beta   109.47100000
_cell_angle_gamma   109.47100000
_symmetry_Int_Tables_number   1
_chemical_formula_structural   NdH6C16(NO4)2
_chemical_formula_sum   'Nd12 H72 C192 N24 O96'
_cell_volume   9630.49110672
_cell_formula_units_Z   12
loop_
 _symmetry_equiv_pos_site_id
 _symmetry_equiv_pos_as_xyz
  1  'x, y, z'
loop_
 _atom_site_type_symbol
 _atom_site_label
 _atom_site_symmetry_multiplicity
 _atom_site_fract_x
 _atom_site_fract_y
 _atom_site_fract_z
 _atom_site_occupancy
 _atom_site_charge
  Nd  Nd1  1  0.500000  0.000000  0.000000  1.0  2.2301
  Nd  Nd2  1  0.500000  0.500000  0.500000  1.0  2.2301
  Nd  Nd3  1  0.000000  0.500000  0.000000  1.0  2.2301
  Nd  Nd4  1  0.000000  0.000000  0.500000  1.0  2.2301
  Nd  Nd5  1  0.331670  0.000000  0.000000  1.0  2.2408
  Nd  Nd6  1  0.500000  0.331670  0.500000  1.0  2.2406
  Nd  Nd7  1  0.000000  0.500000  0.831670  1.0  2.2428
  Nd  Nd8  1  0.168330  0.168330  0.668330  1.0  2.2404
  Nd  Nd9  1  0.668330  0.000000  0.000000  1.0  2.2404
  Nd  Nd10  1  0.500000  0.668330  0.500000  1.0  2.2399
  Nd  Nd11  1  0.000000  0.500000  0.168330  1.0  2.2418
  Nd  Nd12  1  0.831670  0.831670  0.331670  1.0  2.2409
  H  H13  1  0.361000  0.766200  0.988200  1.0  0.1523
  H  H14  1  0.142100  0.705600  0.816500  1.0  0.14
  H  H15  1  0.241500  0.810100  0.858000  1.0  0.1328
  H  H16  1  0.278000  0.372800  0.511800  1.0  0.1522
  H  H17  1  0.389100  0.325600  0.683500  1.0  0.1385
  H  H18  1  0.452100  0.383500  0.642000  1.0  0.1332
  H  H19  1  0.222000  0.733800  0.094800  1.0  0.1525
  H  H20  1  0.110900  0.794400  0.936500  1.0  0.1391
  H  H21  1  0.047900  0.689900  0.931400  1.0  0.133
  H  H22  1  0.139000  0.127200  0.405200  1.0  0.1521
  H  H23  1  0.357900  0.174400  0.563500  1.0  0.1392
  H  H24  1  0.258500  0.116500  0.568600  1.0  0.1334
  H  H25  1  0.594800  0.222000  0.233800  1.0  0.1519
  H  H26  1  0.436500  0.110900  0.294400  1.0  0.1406
  H  H27  1  0.431400  0.047900  0.189900  1.0  0.1333
  H  H28  1  0.905200  0.139000  0.627200  1.0  0.1528
  H  H29  1  0.063500  0.357900  0.674400  1.0  0.14
  H  H30  1  0.068600  0.258500  0.616500  1.0  0.1332
  H  H31  1  0.488200  0.361000  0.266200  1.0  0.1522
  H  H32  1  0.316500  0.142100  0.205600  1.0  0.1398
  H  H33  1  0.358000  0.241500  0.310100  1.0  0.1339
  H  H34  1  0.011800  0.278000  0.872800  1.0  0.1528
  H  H35  1  0.183500  0.389100  0.825600  1.0  0.1396
  H  H36  1  0.142000  0.452100  0.883500  1.0  0.1316
  H  H37  1  0.372800  0.011800  0.778000  1.0  0.1518
  H  H38  1  0.325600  0.183500  0.889100  1.0  0.1413
  H  H39  1  0.383500  0.142000  0.952100  1.0  0.1343
  H  H40  1  0.766200  0.488200  0.861000  1.0  0.1527
  H  H41  1  0.705600  0.316500  0.642100  1.0  0.1384
  H  H42  1  0.810100  0.358000  0.741500  1.0  0.1337
  H  H43  1  0.127200  0.905200  0.639000  1.0  0.1525
  H  H44  1  0.174400  0.063500  0.857900  1.0  0.1407
  H  H45  1  0.116500  0.068600  0.758500  1.0  0.1339
  H  H46  1  0.733800  0.594800  0.722000  1.0  0.1543
  H  H47  1  0.794400  0.436500  0.610900  1.0  0.1403
  H  H48  1  0.689900  0.431400  0.547900  1.0  0.1335
  H  H49  1  0.639000  0.233800  0.011800  1.0  0.1521
  H  H50  1  0.857900  0.294400  0.183500  1.0  0.14
  H  H51  1  0.758500  0.189900  0.142000  1.0  0.1331
  H  H52  1  0.722000  0.627200  0.488200  1.0  0.152
  H  H53  1  0.610900  0.674400  0.316500  1.0  0.1387
  H  H54  1  0.547900  0.616500  0.358000  1.0  0.1337
  H  H55  1  0.778000  0.266200  0.905200  1.0  0.1522
  H  H56  1  0.889100  0.205600  0.063500  1.0  0.1386
  H  H57  1  0.952100  0.310100  0.068600  1.0  0.1329
  H  H58  1  0.861000  0.872800  0.594800  1.0  0.1524
  H  H59  1  0.642100  0.825600  0.436500  1.0  0.1399
  H  H60  1  0.741500  0.883500  0.431400  1.0  0.1334
  H  H61  1  0.405200  0.778000  0.766200  1.0  0.1524
  H  H62  1  0.563500  0.889100  0.705600  1.0  0.1407
  H  H63  1  0.568600  0.952100  0.810100  1.0  0.1342
  H  H64  1  0.094800  0.861000  0.372800  1.0  0.1524
  H  H65  1  0.936500  0.642100  0.325600  1.0  0.1403
  H  H66  1  0.931400  0.741500  0.383500  1.0  0.1335
  H  H67  1  0.511800  0.639000  0.733800  1.0  0.1535
  H  H68  1  0.683500  0.857900  0.794400  1.0  0.1404
  H  H69  1  0.642000  0.758500  0.689900  1.0  0.1341
  H  H70  1  0.988200  0.722000  0.127200  1.0  0.1522
  H  H71  1  0.816500  0.610900  0.174400  1.0  0.1394
  H  H72  1  0.858000  0.547900  0.116500  1.0  0.132
  H  H73  1  0.627200  0.988200  0.222000  1.0  0.1533
  H  H74  1  0.674400  0.816500  0.110900  1.0  0.1398
  H  H75  1  0.616500  0.858000  0.047900  1.0  0.1342
  H  H76  1  0.233800  0.511800  0.139000  1.0  0.1515
  H  H77  1  0.294400  0.683500  0.357900  1.0  0.1395
  H  H78  1  0.189900  0.642000  0.258500  1.0  0.1338
  H  H79  1  0.872800  0.094800  0.361000  1.0  0.1536
  H  H80  1  0.825600  0.936500  0.142100  1.0  0.1398
  H  H81  1  0.883500  0.931400  0.241500  1.0  0.1342
  H  H82  1  0.266200  0.405200  0.278000  1.0  0.1532
  H  H83  1  0.205600  0.563500  0.389100  1.0  0.1412
  H  H84  1  0.310100  0.568600  0.452100  1.0  0.1335
  C  C85  1  0.373330  0.868020  0.956690  1.0  0.7229
  C  C86  1  0.310380  0.799250  0.928650  1.0  -0.1181
  C  C87  1  0.126720  0.611210  0.859390  1.0  0.734
  C  C88  1  0.191230  0.674490  0.880140  1.0  -0.0769
  C  C89  1  0.256170  0.693260  0.931650  1.0  0.2188
  C  C90  1  0.316070  0.754820  0.954590  1.0  -0.0617
  C  C91  1  0.186390  0.718390  0.852480  1.0  -0.0321
  C  C92  1  0.245400  0.780220  0.876880  1.0  -0.019
  C  C93  1  0.411330  0.416640  0.543310  1.0  0.7236
  C  C94  1  0.370600  0.381730  0.571350  1.0  -0.1186
  C  C95  1  0.251820  0.267330  0.640610  1.0  0.7384
  C  C96  1  0.294350  0.311090  0.619860  1.0  -0.0735
  C  C97  1  0.261610  0.324520  0.568350  1.0  0.2209
  C  C98  1  0.300230  0.361480  0.545410  1.0  -0.0637
  C  C99  1  0.365910  0.333910  0.647520  1.0  -0.0324
  C  C100  1  0.403340  0.368520  0.623120  1.0  -0.0265
  C  C101  1  0.088670  0.631980  0.005310  1.0  0.7227
  C  C102  1  0.129400  0.700750  0.011130  1.0  -0.1163
  C  C103  1  0.248180  0.888790  0.015510  1.0  0.7394
  C  C104  1  0.205650  0.825510  0.016740  1.0  -0.0759
  C  C105  1  0.238390  0.806740  0.062910  1.0  0.2241
  C  C106  1  0.199770  0.745180  0.061250  1.0  -0.0601
  C  C107  1  0.134090  0.781610  0.968000  1.0  -0.0301
  C  C108  1  0.096660  0.719780  0.965180  1.0  -0.0234
  C  C109  1  0.126670  0.083360  0.494690  1.0  0.7185
  C  C110  1  0.189620  0.118270  0.488870  1.0  -0.1139
  C  C111  1  0.373280  0.232670  0.484490  1.0  0.739
  C  C112  1  0.308770  0.188910  0.483260  1.0  -0.0741
  C  C113  1  0.243830  0.175480  0.437090  1.0  0.2232
  C  C114  1  0.183930  0.138520  0.438750  1.0  -0.062
  C  C115  1  0.313610  0.166090  0.532000  1.0  -0.0324
  C  C116  1  0.254600  0.131480  0.534820  1.0  -0.0249
  C  C117  1  0.505310  0.088670  0.131980  1.0  0.7242
  C  C118  1  0.511130  0.129400  0.200750  1.0  -0.1203
  C  C119  1  0.515510  0.248180  0.388790  1.0  0.7391
  C  C120  1  0.516740  0.205650  0.325510  1.0  -0.0764
  C  C121  1  0.562910  0.238390  0.306740  1.0  0.2177
  C  C122  1  0.561250  0.199770  0.245180  1.0  -0.0647
  C  C123  1  0.468000  0.134090  0.281610  1.0  -0.0335
  C  C124  1  0.465180  0.096660  0.219780  1.0  -0.0283
  C  C125  1  0.994690  0.126670  0.583360  1.0  0.7224
  C  C126  1  0.988870  0.189620  0.618270  1.0  -0.1171
  C  C127  1  0.984490  0.373280  0.732670  1.0  0.7344
  C  C128  1  0.983260  0.308770  0.688910  1.0  -0.074
  C  C129  1  0.937090  0.243830  0.675480  1.0  0.2197
  C  C130  1  0.938750  0.183930  0.638520  1.0  -0.0659
  C  C131  1  0.032000  0.313610  0.666090  1.0  -0.0338
  C  C132  1  0.034820  0.254600  0.631480  1.0  -0.0201
  C  C133  1  0.456690  0.373330  0.368020  1.0  0.7215
  C  C134  1  0.428650  0.310380  0.299250  1.0  -0.1181
  C  C135  1  0.359390  0.126720  0.111210  1.0  0.7372
  C  C136  1  0.380140  0.191230  0.174490  1.0  -0.0738
  C  C137  1  0.431650  0.256170  0.193260  1.0  0.2208
  C  C138  1  0.454590  0.316070  0.254820  1.0  -0.0642
  C  C139  1  0.352480  0.186390  0.218390  1.0  -0.0328
  C  C140  1  0.376880  0.245400  0.280220  1.0  -0.0218
  C  C141  1  0.043310  0.411330  0.916640  1.0  0.7189
  C  C142  1  0.071350  0.370600  0.881730  1.0  -0.1158
  C  C143  1  0.140610  0.251820  0.767330  1.0  0.735
  C  C144  1  0.119860  0.294350  0.811090  1.0  -0.0745
  C  C145  1  0.068350  0.261610  0.824520  1.0  0.224
  C  C146  1  0.045410  0.300230  0.861480  1.0  -0.0645
  C  C147  1  0.147520  0.365910  0.833910  1.0  -0.0345
  C  C148  1  0.123120  0.403340  0.868520  1.0  -0.0255
  C  C149  1  0.416640  0.043310  0.911330  1.0  0.7207
  C  C150  1  0.381730  0.071350  0.870600  1.0  -0.1198
  C  C151  1  0.267330  0.140610  0.751820  1.0  0.7353
  C  C152  1  0.311090  0.119860  0.794350  1.0  -0.0744
  C  C153  1  0.324520  0.068350  0.761610  1.0  0.2216
  C  C154  1  0.361480  0.045410  0.800230  1.0  -0.064
  C  C155  1  0.333910  0.147520  0.865910  1.0  -0.0298
  C  C156  1  0.368520  0.123120  0.903340  1.0  -0.0249
  C  C157  1  0.868020  0.456690  0.873330  1.0  0.7221
  C  C158  1  0.799250  0.428650  0.810380  1.0  -0.1175
  C  C159  1  0.611210  0.359390  0.626720  1.0  0.7345
  C  C160  1  0.674490  0.380140  0.691230  1.0  -0.0741
  C  C161  1  0.693260  0.431650  0.756170  1.0  0.225
  C  C162  1  0.754820  0.454590  0.816070  1.0  -0.0606
  C  C163  1  0.718390  0.352480  0.686390  1.0  -0.03
  C  C164  1  0.780220  0.376880  0.745400  1.0  -0.0257
  C  C165  1  0.083360  0.994690  0.626670  1.0  0.7228
  C  C166  1  0.118270  0.988870  0.689620  1.0  -0.1209
  C  C167  1  0.232670  0.984490  0.873280  1.0  0.7394
  C  C168  1  0.188910  0.983260  0.808770  1.0  -0.075
  C  C169  1  0.175480  0.937090  0.743830  1.0  0.2245
  C  C170  1  0.138520  0.938750  0.683930  1.0  -0.0604
  C  C171  1  0.166090  0.032000  0.813610  1.0  -0.0301
  C  C172  1  0.131480  0.034820  0.754600  1.0  -0.025
  C  C173  1  0.631980  0.505310  0.588670  1.0  0.7191
  C  C174  1  0.700750  0.511130  0.629400  1.0  -0.1159
  C  C175  1  0.888790  0.515510  0.748180  1.0  0.7335
  C  C176  1  0.825510  0.516740  0.705650  1.0  -0.0767
  C  C177  1  0.806740  0.562910  0.738390  1.0  0.2249
  C  C178  1  0.745180  0.561250  0.699770  1.0  -0.0589
  C  C179  1  0.781610  0.468000  0.634090  1.0  -0.0319
  C  C180  1  0.719780  0.465180  0.596660  1.0  -0.0223
  C  C181  1  0.626670  0.131980  0.043310  1.0  0.7149
  C  C182  1  0.689620  0.200750  0.071350  1.0  -0.1181
  C  C183  1  0.873280  0.388790  0.140610  1.0  0.7347
  C  C184  1  0.808770  0.325510  0.119860  1.0  -0.0763
  C  C185  1  0.743830  0.306740  0.068350  1.0  0.2202
  C  C186  1  0.683930  0.245180  0.045410  1.0  -0.063
  C  C187  1  0.813610  0.281610  0.147520  1.0  -0.0345
  C  C188  1  0.754600  0.219780  0.123120  1.0  -0.0201
  C  C189  1  0.588670  0.583360  0.456690  1.0  0.7178
  C  C190  1  0.629400  0.618270  0.428650  1.0  -0.1184
  C  C191  1  0.748180  0.732670  0.359390  1.0  0.7389
  C  C192  1  0.705650  0.688910  0.380140  1.0  -0.0755
  C  C193  1  0.738390  0.675480  0.431650  1.0  0.2207
  C  C194  1  0.699770  0.638520  0.454590  1.0  -0.0629
  C  C195  1  0.634090  0.666090  0.352480  1.0  -0.0285
  C  C196  1  0.596660  0.631480  0.376880  1.0  -0.0252
  C  C197  1  0.911330  0.368020  0.994690  1.0  0.7163
  C  C198  1  0.870600  0.299250  0.988870  1.0  -0.1155
  C  C199  1  0.751820  0.111210  0.984490  1.0  0.7372
  C  C200  1  0.794350  0.174490  0.983260  1.0  -0.0756
  C  C201  1  0.761610  0.193260  0.937090  1.0  0.2192
  C  C202  1  0.800230  0.254820  0.938750  1.0  -0.0623
  C  C203  1  0.865910  0.218390  0.032000  1.0  -0.0327
  C  C204  1  0.903340  0.280220  0.034820  1.0  -0.0219
  C  C205  1  0.873330  0.916640  0.505310  1.0  0.7138
  C  C206  1  0.810380  0.881730  0.511130  1.0  -0.1146
  C  C207  1  0.626720  0.767330  0.515510  1.0  0.7387
  C  C208  1  0.691230  0.811090  0.516740  1.0  -0.0724
  C  C209  1  0.756170  0.824520  0.562910  1.0  0.224
  C  C210  1  0.816070  0.861480  0.561250  1.0  -0.0596
  C  C211  1  0.686390  0.833910  0.468000  1.0  -0.032
  C  C212  1  0.745400  0.868520  0.465180  1.0  -0.0261
  C  C213  1  0.494690  0.911330  0.868020  1.0  0.7173
  C  C214  1  0.488870  0.870600  0.799250  1.0  -0.1194
  C  C215  1  0.484490  0.751820  0.611210  1.0  0.7408
  C  C216  1  0.483260  0.794350  0.674490  1.0  -0.0737
  C  C217  1  0.437090  0.761610  0.693260  1.0  0.2187
  C  C218  1  0.438750  0.800230  0.754820  1.0  -0.0659
  C  C219  1  0.532000  0.865910  0.718390  1.0  -0.0296
  C  C220  1  0.534820  0.903340  0.780220  1.0  -0.0277
  C  C221  1  0.005310  0.873330  0.416640  1.0  0.7165
  C  C222  1  0.011130  0.810380  0.381730  1.0  -0.1189
  C  C223  1  0.015510  0.626720  0.267330  1.0  0.7344
  C  C224  1  0.016740  0.691230  0.311090  1.0  -0.0764
  C  C225  1  0.062910  0.756170  0.324520  1.0  0.2195
  C  C226  1  0.061250  0.816070  0.361480  1.0  -0.0661
  C  C227  1  0.968000  0.686390  0.333910  1.0  -0.0356
  C  C228  1  0.965180  0.745400  0.368520  1.0  -0.0203
  C  C229  1  0.543310  0.626670  0.631980  1.0  0.7157
  C  C230  1  0.571350  0.689620  0.700750  1.0  -0.1183
  C  C231  1  0.640610  0.873280  0.888790  1.0  0.7361
  C  C232  1  0.619860  0.808770  0.825510  1.0  -0.0756
  C  C233  1  0.568350  0.743830  0.806740  1.0  0.2239
  C  C234  1  0.545410  0.683930  0.745180  1.0  -0.0685
  C  C235  1  0.647520  0.813610  0.781610  1.0  -0.0343
  C  C236  1  0.623120  0.754600  0.719780  1.0  -0.0237
  C  C237  1  0.956690  0.588670  0.083360  1.0  0.7141
  C  C238  1  0.928650  0.629400  0.118270  1.0  -0.1162
  C  C239  1  0.859390  0.748180  0.232670  1.0  0.7349
  C  C240  1  0.880140  0.705650  0.188910  1.0  -0.0728
  C  C241  1  0.931650  0.738390  0.175480  1.0  0.2217
  C  C242  1  0.954590  0.699770  0.138520  1.0  -0.0637
  C  C243  1  0.852480  0.634090  0.166090  1.0  -0.0341
  C  C244  1  0.876880  0.596660  0.131480  1.0  -0.0254
  C  C245  1  0.583360  0.956690  0.088670  1.0  0.7119
  C  C246  1  0.618270  0.928650  0.129400  1.0  -0.1191
  C  C247  1  0.732670  0.859390  0.248180  1.0  0.7359
  C  C248  1  0.688910  0.880140  0.205650  1.0  -0.0732
  C  C249  1  0.675480  0.931650  0.238390  1.0  0.2284
  C  C250  1  0.638520  0.954590  0.199770  1.0  -0.063
  C  C251  1  0.666090  0.852480  0.134090  1.0  -0.0307
  C  C252  1  0.631480  0.876880  0.096660  1.0  -0.0262
  C  C253  1  0.131980  0.543310  0.126670  1.0  0.7123
  C  C254  1  0.200750  0.571350  0.189620  1.0  -0.1154
  C  C255  1  0.388790  0.640610  0.373280  1.0  0.7354
  C  C256  1  0.325510  0.619860  0.308770  1.0  -0.0752
  C  C257  1  0.306740  0.568350  0.243830  1.0  0.22
  C  C258  1  0.245180  0.545410  0.183930  1.0  -0.0631
  C  C259  1  0.281610  0.647520  0.313610  1.0  -0.0294
  C  C260  1  0.219780  0.623120  0.254600  1.0  -0.0243
  C  C261  1  0.916640  0.005310  0.373330  1.0  0.7163
  C  C262  1  0.881730  0.011130  0.310380  1.0  -0.1217
  C  C263  1  0.767330  0.015510  0.126720  1.0  0.7385
  C  C264  1  0.811090  0.016740  0.191230  1.0  -0.0755
  C  C265  1  0.824520  0.062910  0.256170  1.0  0.2238
  C  C266  1  0.861480  0.061250  0.316070  1.0  -0.0595
  C  C267  1  0.833910  0.968000  0.186390  1.0  -0.0275
  C  C268  1  0.868520  0.965180  0.245400  1.0  -0.0247
  C  C269  1  0.368020  0.494690  0.411330  1.0  0.7148
  C  C270  1  0.299250  0.488870  0.370600  1.0  -0.115
  C  C271  1  0.111210  0.484490  0.251820  1.0  0.7343
  C  C272  1  0.174490  0.483260  0.294350  1.0  -0.075
  C  C273  1  0.193260  0.437090  0.261610  1.0  0.2239
  C  C274  1  0.254820  0.438750  0.300230  1.0  -0.061
  C  C275  1  0.218390  0.532000  0.365910  1.0  -0.0342
  C  C276  1  0.280220  0.534820  0.403340  1.0  -0.0221
  N  N277  1  0.270400  0.650500  0.960900  1.0  -0.2463
  N  N278  1  0.189600  0.309500  0.539100  1.0  -0.2348
  N  N279  1  0.310400  0.849500  0.119900  1.0  -0.2452
  N  N280  1  0.229600  0.190500  0.380100  1.0  -0.244
  N  N281  1  0.619900  0.310400  0.349500  1.0  -0.2444
  N  N282  1  0.880100  0.229600  0.690500  1.0  -0.2423
  N  N283  1  0.460900  0.270400  0.150500  1.0  -0.2475
  N  N284  1  0.039100  0.189600  0.809500  1.0  -0.2445
  N  N285  1  0.309500  0.039100  0.689600  1.0  -0.2452
  N  N286  1  0.650500  0.460900  0.770400  1.0  -0.2377
  N  N287  1  0.190500  0.880100  0.729600  1.0  -0.2443
  N  N288  1  0.849500  0.619900  0.810400  1.0  -0.2504
  N  N289  1  0.729600  0.349500  0.039100  1.0  -0.241
  N  N290  1  0.810400  0.690500  0.460900  1.0  -0.2418
  N  N291  1  0.689600  0.150500  0.880100  1.0  -0.2412
  N  N292  1  0.770400  0.809500  0.619900  1.0  -0.2433
  N  N293  1  0.380100  0.689600  0.650500  1.0  -0.2419
  N  N294  1  0.119900  0.770400  0.309500  1.0  -0.2466
  N  N295  1  0.539100  0.729600  0.849500  1.0  -0.2465
  N  N296  1  0.960900  0.810400  0.190500  1.0  -0.246
  N  N297  1  0.690500  0.960900  0.310400  1.0  -0.2449
  N  N298  1  0.349500  0.539100  0.229600  1.0  -0.245
  N  N299  1  0.809500  0.119900  0.270400  1.0  -0.2443
  N  N300  1  0.150500  0.380100  0.189600  1.0  -0.2464
  O  O301  1  0.434000  0.879130  0.991470  1.0  -0.6328
  O  O302  1  0.364400  0.915220  0.945680  1.0  -0.753
  O  O303  1  0.130780  0.575140  0.889920  1.0  -0.6133
  O  O304  1  0.066270  0.593450  0.811760  1.0  -0.6717
  O  O305  1  0.387660  0.442530  0.508530  1.0  -0.6365
  O  O306  1  0.469540  0.418720  0.554320  1.0  -0.75
  O  O307  1  0.185220  0.240860  0.610080  1.0  -0.6103
  O  O308  1  0.281690  0.254510  0.688240  1.0  -0.6749
  O  O309  1  0.112340  0.620870  0.054870  1.0  -0.6364
  O  O310  1  0.030460  0.584780  0.949180  1.0  -0.7515
  O  O311  1  0.314780  0.924860  0.055640  1.0  -0.6124
  O  O312  1  0.218310  0.906550  0.972820  1.0  -0.652
  O  O313  1  0.066000  0.057470  0.445130  1.0  -0.6387
  O  O314  1  0.135600  0.081280  0.550820  1.0  -0.7472
  O  O315  1  0.369220  0.259140  0.444360  1.0  -0.609
  O  O316  1  0.433730  0.245490  0.527180  1.0  -0.6667
  O  O317  1  0.554870  0.112340  0.120870  1.0  -0.6365
  O  O318  1  0.449180  0.030460  0.084780  1.0  -0.7516
  O  O319  1  0.555640  0.314780  0.424860  1.0  -0.6114
  O  O320  1  0.472820  0.218310  0.406550  1.0  -0.66
  O  O321  1  0.945130  0.066000  0.557470  1.0  -0.6355
  O  O322  1  0.050820  0.135600  0.581280  1.0  -0.7517
  O  O323  1  0.944360  0.369220  0.759140  1.0  -0.6113
  O  O324  1  0.027180  0.433730  0.745490  1.0  -0.6701
  O  O325  1  0.491470  0.434000  0.379130  1.0  -0.638
  O  O326  1  0.445680  0.364400  0.415220  1.0  -0.7487
  O  O327  1  0.389920  0.130780  0.075140  1.0  -0.6132
  O  O328  1  0.311760  0.066270  0.093450  1.0  -0.668
  O  O329  1  0.008530  0.387660  0.942530  1.0  -0.6393
  O  O330  1  0.054320  0.469540  0.918720  1.0  -0.755
  O  O331  1  0.110080  0.185220  0.740860  1.0  -0.6108
  O  O332  1  0.188240  0.281690  0.754510  1.0  -0.674
  O  O333  1  0.442530  0.008530  0.887660  1.0  -0.6397
  O  O334  1  0.418720  0.054320  0.969540  1.0  -0.7502
  O  O335  1  0.240860  0.110080  0.685220  1.0  -0.6133
  O  O336  1  0.254510  0.188240  0.781690  1.0  -0.6632
  O  O337  1  0.879130  0.491470  0.934000  1.0  -0.641
  O  O338  1  0.915220  0.445680  0.864400  1.0  -0.7517
  O  O339  1  0.575140  0.389920  0.630780  1.0  -0.6128
  O  O340  1  0.593450  0.311760  0.566270  1.0  -0.6661
  O  O341  1  0.057470  0.945130  0.566000  1.0  -0.6348
  O  O342  1  0.081280  0.050820  0.635600  1.0  -0.7528
  O  O343  1  0.259140  0.944360  0.869220  1.0  -0.6088
  O  O344  1  0.245490  0.027180  0.933730  1.0  -0.673
  O  O345  1  0.620870  0.554870  0.612340  1.0  -0.6354
  O  O346  1  0.584780  0.449180  0.530460  1.0  -0.7536
  O  O347  1  0.924860  0.555640  0.814780  1.0  -0.6122
  O  O348  1  0.906550  0.472820  0.718310  1.0  -0.6571
  O  O349  1  0.566000  0.120870  0.008530  1.0  -0.6324
  O  O350  1  0.635600  0.084780  0.054320  1.0  -0.7528
  O  O351  1  0.869220  0.424860  0.110080  1.0  -0.6123
  O  O352  1  0.933730  0.406550  0.188240  1.0  -0.6704
  O  O353  1  0.612340  0.557470  0.491470  1.0  -0.6373
  O  O354  1  0.530460  0.581280  0.445680  1.0  -0.7497
  O  O355  1  0.814780  0.759140  0.389920  1.0  -0.6085
  O  O356  1  0.718310  0.745490  0.311760  1.0  -0.6762
  O  O357  1  0.887660  0.379130  0.945130  1.0  -0.6363
  O  O358  1  0.969540  0.415220  0.050820  1.0  -0.7512
  O  O359  1  0.685220  0.075140  0.944360  1.0  -0.6119
  O  O360  1  0.781690  0.093450  0.027180  1.0  -0.6502
  O  O361  1  0.934000  0.942530  0.554870  1.0  -0.6365
  O  O362  1  0.864400  0.918720  0.449180  1.0  -0.7492
  O  O363  1  0.630780  0.740860  0.555640  1.0  -0.6112
  O  O364  1  0.566270  0.754510  0.472820  1.0  -0.67
  O  O365  1  0.445130  0.887660  0.879130  1.0  -0.6351
  O  O366  1  0.550820  0.969540  0.915220  1.0  -0.7549
  O  O367  1  0.444360  0.685220  0.575140  1.0  -0.6109
  O  O368  1  0.527180  0.781690  0.593450  1.0  -0.6627
  O  O369  1  0.054870  0.934000  0.442530  1.0  -0.6369
  O  O370  1  0.949180  0.864400  0.418720  1.0  -0.7521
  O  O371  1  0.055640  0.630780  0.240860  1.0  -0.6109
  O  O372  1  0.972820  0.566270  0.254510  1.0  -0.6677
  O  O373  1  0.508530  0.566000  0.620870  1.0  -0.636
  O  O374  1  0.554320  0.635600  0.584780  1.0  -0.7483
  O  O375  1  0.610080  0.869220  0.924860  1.0  -0.6141
  O  O376  1  0.688240  0.933730  0.906550  1.0  -0.6649
  O  O377  1  0.991470  0.612340  0.057470  1.0  -0.6396
  O  O378  1  0.945680  0.530460  0.081280  1.0  -0.7532
  O  O379  1  0.889920  0.814780  0.259140  1.0  -0.6118
  O  O380  1  0.811760  0.718310  0.245490  1.0  -0.6722
  O  O381  1  0.557470  0.991470  0.112340  1.0  -0.6375
  O  O382  1  0.581280  0.945680  0.030460  1.0  -0.7504
  O  O383  1  0.759140  0.889920  0.314780  1.0  -0.6148
  O  O384  1  0.745490  0.811760  0.218310  1.0  -0.6629
  O  O385  1  0.120870  0.508530  0.066000  1.0  -0.6405
  O  O386  1  0.084780  0.554320  0.135600  1.0  -0.7524
  O  O387  1  0.424860  0.610080  0.369220  1.0  -0.6131
  O  O388  1  0.406550  0.688240  0.433730  1.0  -0.6663
  O  O389  1  0.942530  0.054870  0.434000  1.0  -0.6365
  O  O390  1  0.918720  0.949180  0.364400  1.0  -0.7507
  O  O391  1  0.740860  0.055640  0.130780  1.0  -0.6107
  O  O392  1  0.754510  0.972820  0.066270  1.0  -0.6765
  O  O393  1  0.379130  0.445130  0.387660  1.0  -0.6345
  O  O394  1  0.415220  0.550820  0.469540  1.0  -0.7559
  O  O395  1  0.075140  0.444360  0.185220  1.0  -0.6111
  O  O396  1  0.093450  0.527180  0.281690  1.0  -0.6532
