# generated using pymatgen
data_Pr3H6C48(N4O15)2
_symmetry_space_group_name_H-M   'P 1'
_cell_length_a   23.40690000
_cell_length_b   23.40690000
_cell_length_c   23.40690000
_cell_angle_alpha   109.47100000
_cell_angle_beta   109.47100000
_cell_angle_gamma   109.47100000
_symmetry_Int_Tables_number   1
_chemical_formula_structural   Pr3H6C48(N4O15)2
_chemical_formula_sum   'Pr12 H24 C192 N32 O120'
_cell_volume   9872.18660931
_cell_formula_units_Z   4
loop_
 _symmetry_equiv_pos_site_id
 _symmetry_equiv_pos_as_xyz
  1  'x, y, z'
loop_
 _atom_site_type_symbol
 _atom_site_label
 _atom_site_symmetry_multiplicity
 _atom_site_fract_x
 _atom_site_fract_y
 _atom_site_fract_z
 _atom_site_occupancy
 _atom_site_charge
  Pr  Pr1  1  0.169600  0.169600  0.669600  1.0  2.2189
  Pr  Pr2  1  0.000000  0.500000  0.830400  1.0  2.221
  Pr  Pr3  1  0.500000  0.330400  0.500000  1.0  2.2189
  Pr  Pr4  1  0.330400  0.000000  0.000000  1.0  2.2193
  Pr  Pr5  1  0.830400  0.830400  0.330400  1.0  2.2194
  Pr  Pr6  1  0.000000  0.500000  0.169600  1.0  2.2202
  Pr  Pr7  1  0.500000  0.669600  0.500000  1.0  2.2188
  Pr  Pr8  1  0.669600  0.000000  0.000000  1.0  2.2192
  Pr  Pr9  1  0.500000  0.000000  0.000000  1.0  2.2037
  Pr  Pr10  1  0.500000  0.500000  0.500000  1.0  2.2037
  Pr  Pr11  1  0.000000  0.500000  0.000000  1.0  2.2037
  Pr  Pr12  1  0.000000  0.000000  0.500000  1.0  2.2037
  H  H13  1  0.379800  0.137400  0.948800  1.0  0.142
  H  H14  1  0.688600  0.431000  0.551200  1.0  0.1413
  H  H15  1  0.811400  0.362600  0.742400  1.0  0.143
  H  H16  1  0.120200  0.069000  0.757600  1.0  0.1433
  H  H17  1  0.242400  0.811400  0.862600  1.0  0.1423
  H  H18  1  0.257600  0.120200  0.569000  1.0  0.1416
  H  H19  1  0.448800  0.379800  0.637400  1.0  0.1437
  H  H20  1  0.051200  0.688600  0.931000  1.0  0.1425
  H  H21  1  0.431000  0.051200  0.188600  1.0  0.1434
  H  H22  1  0.137400  0.448800  0.879800  1.0  0.1422
  H  H23  1  0.069000  0.257600  0.620200  1.0  0.1422
  H  H24  1  0.362600  0.242400  0.311400  1.0  0.1427
  H  H25  1  0.620200  0.862600  0.051200  1.0  0.143
  H  H26  1  0.311400  0.569000  0.448800  1.0  0.142
  H  H27  1  0.188600  0.637400  0.257600  1.0  0.1427
  H  H28  1  0.879800  0.931000  0.242400  1.0  0.1432
  H  H29  1  0.757600  0.188600  0.137400  1.0  0.143
  H  H30  1  0.742400  0.879800  0.431000  1.0  0.1423
  H  H31  1  0.551200  0.620200  0.362600  1.0  0.1443
  H  H32  1  0.948800  0.311400  0.069000  1.0  0.1424
  H  H33  1  0.569000  0.948800  0.811400  1.0  0.1434
  H  H34  1  0.862600  0.551200  0.120200  1.0  0.1423
  H  H35  1  0.931000  0.742400  0.379800  1.0  0.1427
  H  H36  1  0.637400  0.757600  0.688600  1.0  0.1426
  C  C37  1  0.268300  0.141800  0.752300  1.0  0.6955
  C  C38  1  0.311200  0.120600  0.795000  1.0  -0.0823
  C  C39  1  0.323800  0.067600  0.760800  1.0  0.2362
  C  C40  1  0.360800  0.045000  0.799800  1.0  0.0744
  C  C41  1  0.381300  0.070600  0.870900  1.0  -0.0961
  C  C42  1  0.415000  0.042000  0.910200  1.0  0.7322
  C  C43  1  0.367300  0.120800  0.901900  1.0  0.0308
  C  C44  1  0.334900  0.148400  0.865900  1.0  0.083
  C  C45  1  0.889500  0.516000  0.747700  1.0  0.6998
  C  C46  1  0.825600  0.516200  0.705000  1.0  -0.0825
  C  C47  1  0.806800  0.563000  0.739200  1.0  0.2356
  C  C48  1  0.745200  0.561000  0.700200  1.0  0.0777
  C  C49  1  0.699700  0.510400  0.629100  1.0  -0.0971
  C  C50  1  0.631800  0.504800  0.589800  1.0  0.7322
  C  C51  1  0.718900  0.465400  0.598100  1.0  0.0328
  C  C52  1  0.782500  0.469000  0.634100  1.0  0.0746
  C  C53  1  0.610500  0.358200  0.626500  1.0  0.6973
  C  C54  1  0.674400  0.379400  0.690600  1.0  -0.0815
  C  C55  1  0.693200  0.432400  0.756200  1.0  0.234
  C  C56  1  0.754800  0.455000  0.815800  1.0  0.0708
  C  C57  1  0.800300  0.429400  0.810700  1.0  -0.0948
  C  C58  1  0.868200  0.458000  0.873000  1.0  0.7362
  C  C59  1  0.781100  0.379200  0.746500  1.0  0.0324
  C  C60  1  0.717500  0.351600  0.686500  1.0  0.0791
  C  C61  1  0.231700  0.984000  0.873500  1.0  0.7035
  C  C62  1  0.188800  0.983800  0.809400  1.0  -0.0814
  C  C63  1  0.176200  0.937000  0.743800  1.0  0.2345
  C  C64  1  0.139200  0.939000  0.684200  1.0  0.0783
  C  C65  1  0.118700  0.989600  0.689300  1.0  -0.0981
  C  C66  1  0.085000  0.995200  0.627000  1.0  0.7333
  C  C67  1  0.132700  0.034600  0.753500  1.0  0.031
  C  C68  1  0.165100  0.031000  0.813500  1.0  0.0752
  C  C69  1  0.126500  0.610500  0.858200  1.0  0.7
  C  C70  1  0.190600  0.674400  0.879400  1.0  -0.0821
  C  C71  1  0.256200  0.693200  0.932400  1.0  0.2323
  C  C72  1  0.315800  0.754800  0.955000  1.0  0.0711
  C  C73  1  0.310700  0.800300  0.929400  1.0  -0.0946
  C  C74  1  0.373000  0.868200  0.958000  1.0  0.7336
  C  C75  1  0.246500  0.781100  0.879200  1.0  0.0313
  C  C76  1  0.186500  0.717500  0.851600  1.0  0.0761
  C  C77  1  0.373500  0.231700  0.484000  1.0  0.7013
  C  C78  1  0.309400  0.188800  0.483800  1.0  -0.0782
  C  C79  1  0.243800  0.176200  0.437000  1.0  0.2392
  C  C80  1  0.184200  0.139200  0.439000  1.0  0.0766
  C  C81  1  0.189300  0.118700  0.489600  1.0  -0.0959
  C  C82  1  0.127000  0.085000  0.495200  1.0  0.7331
  C  C83  1  0.253500  0.132700  0.534600  1.0  0.0328
  C  C84  1  0.313500  0.165100  0.531000  1.0  0.0748
  C  C85  1  0.252300  0.268300  0.641800  1.0  0.7029
  C  C86  1  0.295000  0.311200  0.620600  1.0  -0.082
  C  C87  1  0.260800  0.323800  0.567600  1.0  0.2306
  C  C88  1  0.299800  0.360800  0.545000  1.0  0.075
  C  C89  1  0.370900  0.381300  0.570600  1.0  -0.0964
  C  C90  1  0.410200  0.415000  0.542000  1.0  0.7355
  C  C91  1  0.401900  0.367300  0.620800  1.0  0.0328
  C  C92  1  0.365900  0.334900  0.648400  1.0  0.078
  C  C93  1  0.247700  0.889500  0.016000  1.0  0.7012
  C  C94  1  0.205000  0.825600  0.016200  1.0  -0.0821
  C  C95  1  0.239200  0.806800  0.063000  1.0  0.2358
  C  C96  1  0.200200  0.745200  0.061000  1.0  0.0712
  C  C97  1  0.129100  0.699700  0.010400  1.0  -0.0942
  C  C98  1  0.089800  0.631800  0.004800  1.0  0.7359
  C  C99  1  0.098100  0.718900  0.965400  1.0  0.0309
  C  C100  1  0.134100  0.782500  0.969000  1.0  0.0731
  C  C101  1  0.516000  0.247700  0.389500  1.0  0.7043
  C  C102  1  0.516200  0.205000  0.325600  1.0  -0.0809
  C  C103  1  0.563000  0.239200  0.306800  1.0  0.229
  C  C104  1  0.561000  0.200200  0.245200  1.0  0.0719
  C  C105  1  0.510400  0.129100  0.199700  1.0  -0.0956
  C  C106  1  0.504800  0.089800  0.131800  1.0  0.734
  C  C107  1  0.465400  0.098100  0.218900  1.0  0.0304
  C  C108  1  0.469000  0.134100  0.282500  1.0  0.0757
  C  C109  1  0.141800  0.252300  0.768300  1.0  0.7026
  C  C110  1  0.120600  0.295000  0.811200  1.0  -0.0817
  C  C111  1  0.067600  0.260800  0.823800  1.0  0.2337
  C  C112  1  0.045000  0.299800  0.860800  1.0  0.0711
  C  C113  1  0.070600  0.370900  0.881300  1.0  -0.0936
  C  C114  1  0.042000  0.410200  0.915000  1.0  0.7342
  C  C115  1  0.120800  0.401900  0.867300  1.0  0.0323
  C  C116  1  0.148400  0.365900  0.834900  1.0  0.0735
  C  C117  1  0.984000  0.373500  0.731700  1.0  0.7009
  C  C118  1  0.983800  0.309400  0.688800  1.0  -0.0818
  C  C119  1  0.937000  0.243800  0.676200  1.0  0.2314
  C  C120  1  0.939000  0.184200  0.639200  1.0  0.0736
  C  C121  1  0.989600  0.189300  0.618700  1.0  -0.0972
  C  C122  1  0.995200  0.127000  0.585000  1.0  0.7353
  C  C123  1  0.034600  0.253500  0.632700  1.0  0.0314
  C  C124  1  0.031000  0.313500  0.665100  1.0  0.0735
  C  C125  1  0.358200  0.126500  0.110500  1.0  0.6998
  C  C126  1  0.379400  0.190600  0.174400  1.0  -0.0832
  C  C127  1  0.432400  0.256200  0.193200  1.0  0.2353
  C  C128  1  0.455000  0.315800  0.254800  1.0  0.0723
  C  C129  1  0.429400  0.310700  0.300300  1.0  -0.0947
  C  C130  1  0.458000  0.373000  0.368200  1.0  0.7341
  C  C131  1  0.379200  0.246500  0.281100  1.0  0.031
  C  C132  1  0.351600  0.186500  0.217500  1.0  0.0724
  C  C133  1  0.731700  0.858200  0.247700  1.0  0.6985
  C  C134  1  0.688800  0.879400  0.205000  1.0  -0.0825
  C  C135  1  0.676200  0.932400  0.239200  1.0  0.2359
  C  C136  1  0.639200  0.955000  0.200200  1.0  0.0733
  C  C137  1  0.618700  0.929400  0.129100  1.0  -0.0959
  C  C138  1  0.585000  0.958000  0.089800  1.0  0.7336
  C  C139  1  0.632700  0.879200  0.098100  1.0  0.0305
  C  C140  1  0.665100  0.851600  0.134100  1.0  0.0827
  C  C141  1  0.110500  0.484000  0.252300  1.0  0.6971
  C  C142  1  0.174400  0.483800  0.295000  1.0  -0.083
  C  C143  1  0.193200  0.437000  0.260800  1.0  0.2363
  C  C144  1  0.254800  0.439000  0.299800  1.0  0.0795
  C  C145  1  0.300300  0.489600  0.370900  1.0  -0.0979
  C  C146  1  0.368200  0.495200  0.410200  1.0  0.7328
  C  C147  1  0.281100  0.534600  0.401900  1.0  0.0337
  C  C148  1  0.217500  0.531000  0.365900  1.0  0.078
  C  C149  1  0.389500  0.641800  0.373500  1.0  0.6976
  C  C150  1  0.325600  0.620600  0.309400  1.0  -0.0798
  C  C151  1  0.306800  0.567600  0.243800  1.0  0.2341
  C  C152  1  0.245200  0.545000  0.184200  1.0  0.0732
  C  C153  1  0.199700  0.570600  0.189300  1.0  -0.0951
  C  C154  1  0.131800  0.542000  0.127000  1.0  0.7355
  C  C155  1  0.218900  0.620800  0.253500  1.0  0.031
  C  C156  1  0.282500  0.648400  0.313500  1.0  0.0813
  C  C157  1  0.768300  0.016000  0.126500  1.0  0.7036
  C  C158  1  0.811200  0.016200  0.190600  1.0  -0.0802
  C  C159  1  0.823800  0.063000  0.256200  1.0  0.2329
  C  C160  1  0.860800  0.061000  0.315800  1.0  0.0754
  C  C161  1  0.881300  0.010400  0.310700  1.0  -0.0967
  C  C162  1  0.915000  0.004800  0.373000  1.0  0.7338
  C  C163  1  0.867300  0.965400  0.246500  1.0  0.0329
  C  C164  1  0.834900  0.969000  0.186500  1.0  0.0734
  C  C165  1  0.873500  0.389500  0.141800  1.0  0.6984
  C  C166  1  0.809400  0.325600  0.120600  1.0  -0.0841
  C  C167  1  0.743800  0.306800  0.067600  1.0  0.2311
  C  C168  1  0.684200  0.245200  0.045000  1.0  0.0756
  C  C169  1  0.689300  0.199700  0.070600  1.0  -0.095
  C  C170  1  0.627000  0.131800  0.042000  1.0  0.7352
  C  C171  1  0.753500  0.218900  0.120800  1.0  0.0326
  C  C172  1  0.813500  0.282500  0.148400  1.0  0.0766
  C  C173  1  0.626500  0.768300  0.516000  1.0  0.7012
  C  C174  1  0.690600  0.811200  0.516200  1.0  -0.0808
  C  C175  1  0.756200  0.823800  0.563000  1.0  0.2351
  C  C176  1  0.815800  0.860800  0.561000  1.0  0.0724
  C  C177  1  0.810700  0.881300  0.510400  1.0  -0.0938
  C  C178  1  0.873000  0.915000  0.504800  1.0  0.7342
  C  C179  1  0.746500  0.867300  0.465400  1.0  0.0309
  C  C180  1  0.686500  0.834900  0.469000  1.0  0.0756
  C  C181  1  0.747700  0.731700  0.358200  1.0  0.7021
  C  C182  1  0.705000  0.688800  0.379400  1.0  -0.0801
  C  C183  1  0.739200  0.676200  0.432400  1.0  0.2307
  C  C184  1  0.700200  0.639200  0.455000  1.0  0.0736
  C  C185  1  0.629100  0.618700  0.429400  1.0  -0.0971
  C  C186  1  0.589800  0.585000  0.458000  1.0  0.737
  C  C187  1  0.598100  0.632700  0.379200  1.0  0.0312
  C  C188  1  0.634100  0.665100  0.351600  1.0  0.077
  C  C189  1  0.752300  0.110500  0.984000  1.0  0.702
  C  C190  1  0.795000  0.174400  0.983800  1.0  -0.0793
  C  C191  1  0.760800  0.193200  0.937000  1.0  0.2358
  C  C192  1  0.799800  0.254800  0.939000  1.0  0.0764
  C  C193  1  0.870900  0.300300  0.989600  1.0  -0.0947
  C  C194  1  0.910200  0.368200  0.995200  1.0  0.7351
  C  C195  1  0.901900  0.281100  0.034600  1.0  0.0317
  C  C196  1  0.865900  0.217500  0.031000  1.0  0.0761
  C  C197  1  0.484000  0.752300  0.610500  1.0  0.7044
  C  C198  1  0.483800  0.795000  0.674400  1.0  -0.0814
  C  C199  1  0.437000  0.760800  0.693200  1.0  0.2282
  C  C200  1  0.439000  0.799800  0.754800  1.0  0.0723
  C  C201  1  0.489600  0.870900  0.800300  1.0  -0.0966
  C  C202  1  0.495200  0.910200  0.868200  1.0  0.7365
  C  C203  1  0.534600  0.901900  0.781100  1.0  0.0306
  C  C204  1  0.531000  0.865900  0.717500  1.0  0.0723
  C  C205  1  0.858200  0.747700  0.231700  1.0  0.7011
  C  C206  1  0.879400  0.705000  0.188800  1.0  -0.0809
  C  C207  1  0.932400  0.739200  0.176200  1.0  0.2344
  C  C208  1  0.955000  0.700200  0.139200  1.0  0.0731
  C  C209  1  0.929400  0.629100  0.118700  1.0  -0.0942
  C  C210  1  0.958000  0.589800  0.085000  1.0  0.7338
  C  C211  1  0.879200  0.598100  0.132700  1.0  0.0321
  C  C212  1  0.851600  0.634100  0.165100  1.0  0.0754
  C  C213  1  0.016000  0.626500  0.268300  1.0  0.7023
  C  C214  1  0.016200  0.690600  0.311200  1.0  -0.0805
  C  C215  1  0.063000  0.756200  0.323800  1.0  0.2294
  C  C216  1  0.061000  0.815800  0.360800  1.0  0.0739
  C  C217  1  0.010400  0.810700  0.381300  1.0  -0.0954
  C  C218  1  0.004800  0.873000  0.415000  1.0  0.7345
  C  C219  1  0.965400  0.746500  0.367300  1.0  0.0338
  C  C220  1  0.969000  0.686500  0.334900  1.0  0.0748
  C  C221  1  0.641800  0.873500  0.889500  1.0  0.7003
  C  C222  1  0.620600  0.809400  0.825600  1.0  -0.0812
  C  C223  1  0.567600  0.743800  0.806800  1.0  0.2328
  C  C224  1  0.545000  0.684200  0.745200  1.0  0.071
  C  C225  1  0.570600  0.689300  0.699700  1.0  -0.0957
  C  C226  1  0.542000  0.627000  0.631800  1.0  0.7349
  C  C227  1  0.620800  0.753500  0.718900  1.0  0.0324
  C  C228  1  0.648400  0.813500  0.782500  1.0  0.0735
  N  N229  1  0.312100  0.040600  0.693300  1.0  -0.207
  N  N230  1  0.847300  0.618800  0.806700  1.0  -0.2081
  N  N231  1  0.652700  0.459400  0.771500  1.0  -0.2003
  N  N232  1  0.187900  0.881200  0.728500  1.0  -0.2042
  N  N233  1  0.271500  0.652700  0.959400  1.0  -0.2079
  N  N234  1  0.228500  0.187900  0.381200  1.0  -0.2058
  N  N235  1  0.193300  0.312100  0.540600  1.0  -0.2011
  N  N236  1  0.306700  0.847300  0.118800  1.0  -0.2031
  N  N237  1  0.618800  0.306700  0.347300  1.0  -0.2047
  N  N238  1  0.040600  0.193300  0.812100  1.0  -0.2039
  N  N239  1  0.881200  0.228500  0.687900  1.0  -0.2039
  N  N240  1  0.459400  0.271500  0.152700  1.0  -0.2085
  N  N241  1  0.687900  0.959400  0.306700  1.0  -0.2077
  N  N242  1  0.152700  0.381200  0.193300  1.0  -0.2067
  N  N243  1  0.347300  0.540600  0.228500  1.0  -0.2035
  N  N244  1  0.812100  0.118800  0.271500  1.0  -0.2053
  N  N245  1  0.728500  0.347300  0.040600  1.0  -0.2064
  N  N246  1  0.771500  0.812100  0.618800  1.0  -0.208
  N  N247  1  0.806700  0.687900  0.459400  1.0  -0.2044
  N  N248  1  0.693300  0.152700  0.881200  1.0  -0.2048
  N  N249  1  0.381200  0.693300  0.652700  1.0  -0.2019
  N  N250  1  0.959400  0.806700  0.187900  1.0  -0.2088
  N  N251  1  0.118800  0.771500  0.312100  1.0  -0.2064
  N  N252  1  0.540600  0.728500  0.847300  1.0  -0.2107
  N  N253  1  0.943600  0.000000  0.000000  1.0  0.829
  N  N254  1  0.500000  0.943600  0.500000  1.0  0.8311
  N  N255  1  0.000000  0.500000  0.443600  1.0  0.8274
  N  N256  1  0.556400  0.556400  0.056400  1.0  0.8296
  N  N257  1  0.056400  0.000000  0.000000  1.0  0.8272
  N  N258  1  0.500000  0.056400  0.500000  1.0  0.8287
  N  N259  1  0.000000  0.500000  0.556400  1.0  0.829
  N  N260  1  0.443600  0.443600  0.943600  1.0  0.8301
  O  O261  1  0.243300  0.111700  0.686800  1.0  -0.5621
  O  O262  1  0.256000  0.188600  0.783200  1.0  -0.597
  O  O263  1  0.440000  0.007300  0.887500  1.0  -0.5631
  O  O264  1  0.417300  0.053700  0.969400  1.0  -0.7619
  O  O265  1  0.924900  0.556500  0.813200  1.0  -0.5599
  O  O266  1  0.905400  0.472800  0.716800  1.0  -0.6067
  O  O267  1  0.619800  0.552500  0.612500  1.0  -0.5592
  O  O268  1  0.584300  0.447900  0.530600  1.0  -0.7647
  O  O269  1  0.575100  0.388300  0.631600  1.0  -0.5599
  O  O270  1  0.594600  0.311400  0.567400  1.0  -0.5977
  O  O271  1  0.880200  0.492700  0.932700  1.0  -0.5611
  O  O272  1  0.915700  0.446300  0.863600  1.0  -0.7633
  O  O273  1  0.256700  0.943500  0.868400  1.0  -0.5569
  O  O274  1  0.244000  0.027200  0.932600  1.0  -0.6017
  O  O275  1  0.060000  0.947500  0.567300  1.0  -0.5594
  O  O276  1  0.082700  0.052100  0.636400  1.0  -0.7612
  O  O277  1  0.131600  0.575100  0.888300  1.0  -0.564
  O  O278  1  0.067400  0.594600  0.811400  1.0  -0.6056
  O  O279  1  0.432700  0.880200  0.992700  1.0  -0.5605
  O  O280  1  0.363600  0.915700  0.946300  1.0  -0.7614
  O  O281  1  0.368400  0.256700  0.443500  1.0  -0.556
  O  O282  1  0.432600  0.244000  0.527200  1.0  -0.6005
  O  O283  1  0.067300  0.060000  0.447500  1.0  -0.5628
  O  O284  1  0.136400  0.082700  0.552100  1.0  -0.7595
  O  O285  1  0.186800  0.243300  0.611700  1.0  -0.5585
  O  O286  1  0.283200  0.256000  0.688600  1.0  -0.606
  O  O287  1  0.387500  0.440000  0.507300  1.0  -0.5584
  O  O288  1  0.469400  0.417300  0.553700  1.0  -0.7609
  O  O289  1  0.313200  0.924900  0.056500  1.0  -0.5583
  O  O290  1  0.216800  0.905400  0.972800  1.0  -0.5958
  O  O291  1  0.112500  0.619800  0.052500  1.0  -0.5609
  O  O292  1  0.030600  0.584300  0.947900  1.0  -0.7609
  O  O293  1  0.556500  0.313200  0.424900  1.0  -0.5582
  O  O294  1  0.472800  0.216800  0.405400  1.0  -0.6034
  O  O295  1  0.552500  0.112500  0.119800  1.0  -0.5613
  O  O296  1  0.447900  0.030600  0.084300  1.0  -0.7621
  O  O297  1  0.111700  0.186800  0.743300  1.0  -0.5573
  O  O298  1  0.188600  0.283200  0.756000  1.0  -0.6035
  O  O299  1  0.007300  0.387500  0.940000  1.0  -0.563
  O  O300  1  0.053700  0.469400  0.917300  1.0  -0.7636
  O  O301  1  0.943500  0.368400  0.756700  1.0  -0.5608
  O  O302  1  0.027200  0.432600  0.744000  1.0  -0.6052
  O  O303  1  0.947500  0.067300  0.560000  1.0  -0.5602
  O  O304  1  0.052100  0.136400  0.582700  1.0  -0.7599
  O  O305  1  0.388300  0.131600  0.075100  1.0  -0.5626
  O  O306  1  0.311400  0.067400  0.094600  1.0  -0.5971
  O  O307  1  0.492700  0.432700  0.380200  1.0  -0.5609
  O  O308  1  0.446300  0.363600  0.415700  1.0  -0.7603
  O  O309  1  0.756700  0.888300  0.313200  1.0  -0.5629
  O  O310  1  0.744000  0.811400  0.216800  1.0  -0.5985
  O  O311  1  0.560000  0.992700  0.112500  1.0  -0.5624
  O  O312  1  0.582700  0.946300  0.030600  1.0  -0.7614
  O  O313  1  0.075100  0.443500  0.186800  1.0  -0.559
  O  O314  1  0.094600  0.527200  0.283200  1.0  -0.6035
  O  O315  1  0.380200  0.447500  0.387500  1.0  -0.56
  O  O316  1  0.415700  0.552100  0.469400  1.0  -0.7641
  O  O317  1  0.424900  0.611700  0.368400  1.0  -0.5615
  O  O318  1  0.405400  0.688600  0.432600  1.0  -0.598
  O  O319  1  0.119800  0.507300  0.067300  1.0  -0.5622
  O  O320  1  0.084300  0.553700  0.136400  1.0  -0.7597
  O  O321  1  0.743300  0.056500  0.131600  1.0  -0.5578
  O  O322  1  0.756000  0.972800  0.067400  1.0  -0.6025
  O  O323  1  0.940000  0.052500  0.432700  1.0  -0.5595
  O  O324  1  0.917300  0.947900  0.363600  1.0  -0.7606
  O  O325  1  0.868400  0.424900  0.111700  1.0  -0.5614
  O  O326  1  0.932600  0.405400  0.188600  1.0  -0.604
  O  O327  1  0.567300  0.119800  0.007300  1.0  -0.5606
  O  O328  1  0.636400  0.084300  0.053700  1.0  -0.7623
  O  O329  1  0.631600  0.743300  0.556500  1.0  -0.558
  O  O330  1  0.567400  0.756000  0.472800  1.0  -0.6005
  O  O331  1  0.932700  0.940000  0.552500  1.0  -0.5636
  O  O332  1  0.863600  0.917300  0.447900  1.0  -0.7604
  O  O333  1  0.813200  0.756700  0.388300  1.0  -0.5581
  O  O334  1  0.716800  0.744000  0.311400  1.0  -0.6017
  O  O335  1  0.612500  0.560000  0.492700  1.0  -0.5606
  O  O336  1  0.530600  0.582700  0.446300  1.0  -0.7568
  O  O337  1  0.686800  0.075100  0.943500  1.0  -0.5592
  O  O338  1  0.783200  0.094600  0.027200  1.0  -0.594
  O  O339  1  0.887500  0.380200  0.947500  1.0  -0.5592
  O  O340  1  0.969400  0.415700  0.052100  1.0  -0.7604
  O  O341  1  0.443500  0.686800  0.575100  1.0  -0.5609
  O  O342  1  0.527200  0.783200  0.594600  1.0  -0.6067
  O  O343  1  0.447500  0.887500  0.880200  1.0  -0.5613
  O  O344  1  0.552100  0.969400  0.915700  1.0  -0.7622
  O  O345  1  0.888300  0.813200  0.256700  1.0  -0.5565
  O  O346  1  0.811400  0.716800  0.244000  1.0  -0.6013
  O  O347  1  0.992700  0.612500  0.060000  1.0  -0.5617
  O  O348  1  0.946300  0.530600  0.082700  1.0  -0.7627
  O  O349  1  0.056500  0.631600  0.243300  1.0  -0.5609
  O  O350  1  0.972800  0.567400  0.256000  1.0  -0.6037
  O  O351  1  0.052500  0.932700  0.440000  1.0  -0.5593
  O  O352  1  0.947900  0.863600  0.417300  1.0  -0.7585
  O  O353  1  0.611700  0.868400  0.924900  1.0  -0.5615
  O  O354  1  0.688600  0.932600  0.905400  1.0  -0.5967
  O  O355  1  0.507300  0.567300  0.619800  1.0  -0.5628
  O  O356  1  0.553700  0.636400  0.584300  1.0  -0.7604
  O  O357  1  0.916100  0.941700  0.999600  1.0  -0.5115
  O  O358  1  0.974400  0.057900  0.058300  1.0  -0.5122
  O  O359  1  0.916500  0.000400  0.942100  1.0  -0.5144
  O  O360  1  0.442100  0.916500  0.500400  1.0  -0.5125
  O  O361  1  0.499600  0.916100  0.441700  1.0  -0.5143
  O  O362  1  0.558300  0.974400  0.557900  1.0  -0.5123
  O  O363  1  0.057900  0.558300  0.474400  1.0  -0.5097
  O  O364  1  0.000400  0.442100  0.416500  1.0  -0.5065
  O  O365  1  0.941700  0.499600  0.416100  1.0  -0.5105
  O  O366  1  0.583900  0.583500  0.025600  1.0  -0.5151
  O  O367  1  0.525600  0.583900  0.083500  1.0  -0.5144
  O  O368  1  0.583500  0.525600  0.083900  1.0  -0.5109
  O  O369  1  0.083900  0.058300  0.000400  1.0  -0.5067
  O  O370  1  0.025600  0.942100  0.941700  1.0  -0.5114
  O  O371  1  0.083500  0.999600  0.057900  1.0  -0.5089
  O  O372  1  0.557900  0.083500  0.499600  1.0  -0.5137
  O  O373  1  0.500400  0.083900  0.558300  1.0  -0.5089
  O  O374  1  0.441700  0.025600  0.442100  1.0  -0.5149
  O  O375  1  0.942100  0.441700  0.525600  1.0  -0.5076
  O  O376  1  0.999600  0.557900  0.583500  1.0  -0.5054
  O  O377  1  0.058300  0.500400  0.583900  1.0  -0.506
  O  O378  1  0.416100  0.416500  0.974400  1.0  -0.514
  O  O379  1  0.474400  0.416100  0.916500  1.0  -0.5093
  O  O380  1  0.416500  0.474400  0.916100  1.0  -0.5073
