# generated using pymatgen
data_DyHC5(NO2)2
_symmetry_space_group_name_H-M   'P 1'
_cell_length_a   15.99190000
_cell_length_b   16.36130000
_cell_length_c   16.36130000
_cell_angle_alpha   76.18190000
_cell_angle_beta   60.74400000
_cell_angle_gamma   60.74400000
_symmetry_Int_Tables_number   1
_chemical_formula_structural   DyHC5(NO2)2
_chemical_formula_sum   'Dy16 H16 C80 N32 O64'
_cell_volume   3258.45428252
_cell_formula_units_Z   16
loop_
 _symmetry_equiv_pos_site_id
 _symmetry_equiv_pos_as_xyz
  1  'x, y, z'
loop_
 _atom_site_type_symbol
 _atom_site_label
 _atom_site_symmetry_multiplicity
 _atom_site_fract_x
 _atom_site_fract_y
 _atom_site_fract_z
 _atom_site_occupancy
 _atom_site_charge
  Dy  Dy1  1  0.582360  0.620150  0.033580  1.0  2.2527
  Dy  Dy2  1  0.124800  0.887030  0.024950  1.0  2.2658
  Dy  Dy3  1  0.736090  0.879850  0.466420  1.0  2.25
  Dy  Dy4  1  0.536780  0.612970  0.475050  1.0  2.2661
  Dy  Dy5  1  0.615940  0.966420  0.120150  1.0  2.2559
  Dy  Dy6  1  0.149750  0.975050  0.387030  1.0  2.2671
  Dy  Dy7  1  0.202510  0.533580  0.379850  1.0  2.2549
  Dy  Dy8  1  0.011830  0.524950  0.112970  1.0  2.2661
  Dy  Dy9  1  0.417640  0.379850  0.966420  1.0  2.253
  Dy  Dy10  1  0.875200  0.112970  0.975050  1.0  2.2656
  Dy  Dy11  1  0.263910  0.120150  0.533580  1.0  2.2482
  Dy  Dy12  1  0.463220  0.387030  0.524950  1.0  2.2652
  Dy  Dy13  1  0.384060  0.033580  0.879850  1.0  2.2564
  Dy  Dy14  1  0.850250  0.024950  0.612970  1.0  2.2663
  Dy  Dy15  1  0.797490  0.466420  0.620150  1.0  2.2542
  Dy  Dy16  1  0.988170  0.475050  0.887030  1.0  2.2665
  H  H17  1  0.052700  0.752600  0.253600  1.0  0.0348
  H  H18  1  0.480600  0.598100  0.283500  1.0  0.038
  H  H19  1  0.558900  0.747400  0.246400  1.0  0.0337
  H  H20  1  0.862200  0.901900  0.216500  1.0  0.0396
  H  H21  1  0.306300  0.746400  0.252600  1.0  0.035
  H  H22  1  0.764100  0.716500  0.098100  1.0  0.0399
  H  H23  1  0.805300  0.753600  0.247400  1.0  0.0334
  H  H24  1  0.078700  0.783500  0.401900  1.0  0.0416
  H  H25  1  0.947300  0.247400  0.746400  1.0  0.0349
  H  H26  1  0.519400  0.401900  0.716500  1.0  0.0385
  H  H27  1  0.441100  0.252600  0.753600  1.0  0.0346
  H  H28  1  0.137800  0.098100  0.783500  1.0  0.0406
  H  H29  1  0.693700  0.253600  0.747400  1.0  0.0347
  H  H30  1  0.235900  0.283500  0.901900  1.0  0.0392
  H  H31  1  0.194700  0.246400  0.752600  1.0  0.0346
  H  H32  1  0.921300  0.216500  0.598100  1.0  0.041
  C  C33  1  0.126300  0.725800  0.217800  1.0  0.4025
  C  C34  1  0.292000  0.632500  0.171700  1.0  -0.0231
  C  C35  1  0.280800  0.703400  0.106400  1.0  0.0109
  C  C36  1  0.353700  0.724500  0.015900  1.0  0.7746
  C  C37  1  0.384200  0.552600  0.180000  1.0  0.7534
  C  C38  1  0.552100  0.584300  0.259900  1.0  0.4363
  C  C39  1  0.714100  0.556600  0.163200  1.0  0.0307
  C  C40  1  0.702000  0.547900  0.254100  1.0  0.0394
  C  C41  1  0.773900  0.531700  0.294100  1.0  0.7486
  C  C42  1  0.802000  0.545700  0.068100  1.0  0.7333
  C  C43  1  0.569900  0.774200  0.282200  1.0  0.4044
  C  C44  1  0.596200  0.867500  0.328300  1.0  -0.0228
  C  C45  1  0.590600  0.796600  0.393600  1.0  0.0102
  C  C46  1  0.594100  0.775500  0.484100  1.0  0.7791
  C  C47  1  0.616800  0.947400  0.320000  1.0  0.7529
  C  C48  1  0.896300  0.915700  0.240100  1.0  0.4363
  C  C49  1  0.933900  0.943400  0.336800  1.0  0.0287
  C  C50  1  0.004000  0.952100  0.245900  1.0  0.0401
  C  C51  1  0.099700  0.968300  0.205900  1.0  0.7483
  C  C52  1  0.915800  0.954300  0.431900  1.0  0.7345
  C  C53  1  0.344100  0.782200  0.225800  1.0  0.4036
  C  C54  1  0.463700  0.828300  0.132500  1.0  -0.0236
  C  C55  1  0.387200  0.893600  0.203400  1.0  0.0098
  C  C56  1  0.369600  0.984100  0.224500  1.0  0.7715
  C  C57  1  0.564200  0.820000  0.052600  1.0  0.7492
  C  C58  1  0.812000  0.740100  0.084300  1.0  0.4386
  C  C59  1  0.877300  0.836800  0.056600  1.0  0.0298
  C  C60  1  0.956100  0.745900  0.047900  1.0  0.0403
  C  C61  1  0.068000  0.705900  0.031700  1.0  0.7493
  C  C62  1  0.870100  0.931900  0.045700  1.0  0.7344
  C  C63  1  0.852100  0.717800  0.274200  1.0  0.4036
  C  C64  1  0.924500  0.671700  0.367500  1.0  -0.0245
  C  C65  1  0.984200  0.606400  0.296600  1.0  0.0113
  C  C66  1  0.078200  0.515900  0.275500  1.0  0.7708
  C  C67  1  0.936800  0.680000  0.447400  1.0  0.7595
  C  C68  1  0.136400  0.759900  0.415700  1.0  0.4376
  C  C69  1  0.270700  0.663200  0.443400  1.0  0.0301
  C  C70  1  0.249900  0.754100  0.452100  1.0  0.0408
  C  C71  1  0.305600  0.794100  0.468300  1.0  0.754
  C  C72  1  0.347700  0.568100  0.454300  1.0  0.7347
  C  C73  1  0.873700  0.274200  0.782200  1.0  0.4023
  C  C74  1  0.708000  0.367500  0.828300  1.0  -0.0222
  C  C75  1  0.719200  0.296600  0.893600  1.0  0.0108
  C  C76  1  0.646300  0.275500  0.984100  1.0  0.7653
  C  C77  1  0.615800  0.447400  0.820000  1.0  0.753
  C  C78  1  0.447900  0.415700  0.740100  1.0  0.4372
  C  C79  1  0.285900  0.443400  0.836800  1.0  0.0299
  C  C80  1  0.298000  0.452100  0.745900  1.0  0.0385
  C  C81  1  0.226100  0.468300  0.705900  1.0  0.7494
  C  C82  1  0.198000  0.454300  0.931900  1.0  0.7336
  C  C83  1  0.430100  0.225800  0.717800  1.0  0.4021
  C  C84  1  0.403800  0.132500  0.671700  1.0  -0.0236
  C  C85  1  0.409400  0.203400  0.606400  1.0  0.0107
  C  C86  1  0.405900  0.224500  0.515900  1.0  0.7844
  C  C87  1  0.383200  0.052600  0.680000  1.0  0.7533
  C  C88  1  0.103700  0.084300  0.759900  1.0  0.4353
  C  C89  1  0.066100  0.056600  0.663200  1.0  0.0307
  C  C90  1  0.996000  0.047900  0.754100  1.0  0.0384
  C  C91  1  0.900300  0.031700  0.794100  1.0  0.7491
  C  C92  1  0.084200  0.045700  0.568100  1.0  0.7323
  C  C93  1  0.655900  0.217800  0.774200  1.0  0.4031
  C  C94  1  0.536300  0.171700  0.867500  1.0  -0.0232
  C  C95  1  0.612800  0.106400  0.796600  1.0  0.0102
  C  C96  1  0.630400  0.015900  0.775500  1.0  0.7707
  C  C97  1  0.435800  0.180000  0.947400  1.0  0.7515
  C  C98  1  0.188000  0.259900  0.915700  1.0  0.4384
  C  C99  1  0.122700  0.163200  0.943400  1.0  0.0294
  C  C100  1  0.043900  0.254100  0.952100  1.0  0.0401
  C  C101  1  0.932000  0.294100  0.968300  1.0  0.7503
  C  C102  1  0.129900  0.068100  0.954300  1.0  0.734
  C  C103  1  0.147900  0.282200  0.725800  1.0  0.402
  C  C104  1  0.075500  0.328300  0.632500  1.0  -0.0245
  C  C105  1  0.015800  0.393600  0.703400  1.0  0.0107
  C  C106  1  0.921800  0.484100  0.724500  1.0  0.7724
  C  C107  1  0.063200  0.320000  0.552600  1.0  0.7592
  C  C108  1  0.863600  0.240100  0.584300  1.0  0.4372
  C  C109  1  0.729300  0.336800  0.556600  1.0  0.0308
  C  C110  1  0.750100  0.245900  0.547900  1.0  0.0403
  C  C111  1  0.694400  0.205900  0.531700  1.0  0.752
  C  C112  1  0.652300  0.431900  0.545700  1.0  0.7328
  N  N113  1  0.173900  0.762900  0.137100  1.0  -0.5772
  N  N114  1  0.192600  0.646600  0.243400  1.0  -0.6213
  N  N115  1  0.615800  0.580900  0.168100  1.0  -0.6686
  N  N116  1  0.598500  0.566700  0.315100  1.0  -0.6191
  N  N117  1  0.573900  0.737100  0.362900  1.0  -0.576
  N  N118  1  0.582600  0.853400  0.256600  1.0  -0.6239
  N  N119  1  0.864800  0.919100  0.331900  1.0  -0.672
  N  N120  1  0.980300  0.933300  0.184900  1.0  -0.62
  N  N121  1  0.311000  0.862900  0.262900  1.0  -0.5784
  N  N122  1  0.436000  0.756600  0.146600  1.0  -0.6213
  N  N123  1  0.783900  0.831900  0.080900  1.0  -0.6713
  N  N124  1  0.913600  0.684900  0.066700  1.0  -0.622
  N  N125  1  0.936800  0.637100  0.237100  1.0  -0.5757
  N  N126  1  0.839200  0.743400  0.353400  1.0  -0.6207
  N  N127  1  0.196700  0.668100  0.419100  1.0  -0.6705
  N  N128  1  0.165200  0.815100  0.433300  1.0  -0.6224
  N  N129  1  0.826100  0.237100  0.862900  1.0  -0.5771
  N  N130  1  0.807400  0.353400  0.756600  1.0  -0.6233
  N  N131  1  0.384200  0.419100  0.831900  1.0  -0.6689
  N  N132  1  0.401500  0.433300  0.684900  1.0  -0.6192
  N  N133  1  0.426100  0.262900  0.637100  1.0  -0.5749
  N  N134  1  0.417400  0.146600  0.743400  1.0  -0.6212
  N  N135  1  0.135200  0.080900  0.668100  1.0  -0.6705
  N  N136  1  0.019700  0.066700  0.815100  1.0  -0.6188
  N  N137  1  0.689000  0.137100  0.737100  1.0  -0.5781
  N  N138  1  0.564000  0.243400  0.853400  1.0  -0.6209
  N  N139  1  0.216100  0.168100  0.919100  1.0  -0.6692
  N  N140  1  0.086400  0.315100  0.933300  1.0  -0.6217
  N  N141  1  0.063200  0.362900  0.762900  1.0  -0.576
  N  N142  1  0.160800  0.256600  0.646600  1.0  -0.621
  N  N143  1  0.803300  0.331900  0.580900  1.0  -0.6714
  N  N144  1  0.834800  0.184900  0.566700  1.0  -0.6217
  O  O145  1  0.309670  0.793960  0.971100  1.0  -0.7311
  O  O146  1  0.453360  0.679120  0.982760  1.0  -0.7822
  O  O147  1  0.476800  0.544600  0.128600  1.0  -0.756
  O  O148  1  0.365200  0.492100  0.242500  1.0  -0.7188
  O  O149  1  0.729030  0.543400  0.381940  1.0  -0.6835
  O  O150  1  0.871720  0.505880  0.243480  1.0  -0.7518
  O  O151  1  0.898860  0.513290  0.054190  1.0  -0.8409
  O  O152  1  0.778510  0.568060  0.000520  1.0  -0.7463
  O  O153  1  0.574730  0.706040  0.528900  1.0  -0.7286
  O  O154  1  0.615240  0.820880  0.517240  1.0  -0.7885
  O  O155  1  0.650000  0.955400  0.371400  1.0  -0.7589
  O  O156  1  0.599800  0.007900  0.257500  1.0  -0.7193
  O  O157  1  0.154370  0.956600  0.118060  1.0  -0.6821
  O  O158  1  0.121080  0.994120  0.256520  1.0  -0.7513
  O  O159  1  0.966340  0.986710  0.445810  1.0  -0.842
  O  O160  1  0.847090  0.931940  0.499480  1.0  -0.7439
  O  O161  1  0.280770  0.028900  0.293960  1.0  -0.7276
  O  O162  1  0.436120  0.017240  0.179120  1.0  -0.783
  O  O163  1  0.605400  0.871400  0.044600  1.0  -0.7556
  O  O164  1  0.607700  0.757500  0.992100  1.0  -0.7206
  O  O165  1  0.110970  0.618060  0.043400  1.0  -0.6833
  O  O166  1  0.115200  0.756520  0.005880  1.0  -0.7498
  O  O167  1  0.953050  0.945810  0.013290  1.0  -0.8419
  O  O168  1  0.779030  0.999480  0.068060  1.0  -0.7428
  O  O169  1  0.103630  0.471100  0.206040  1.0  -0.7289
  O  O170  1  0.132480  0.482760  0.320880  1.0  -0.7827
  O  O171  1  0.021400  0.628600  0.455400  1.0  -0.7591
  O  O172  1  0.857300  0.742500  0.507900  1.0  -0.7204
  O  O173  1  0.272430  0.881940  0.456600  1.0  -0.6831
  O  O174  1  0.377600  0.743480  0.494120  1.0  -0.7557
  O  O175  1  0.412150  0.554190  0.486710  1.0  -0.8428
  O  O176  1  0.346570  0.500520  0.431940  1.0  -0.7451
  O  O177  1  0.690330  0.206040  0.028900  1.0  -0.7328
  O  O178  1  0.546640  0.320880  0.017240  1.0  -0.784
  O  O179  1  0.523200  0.455400  0.871400  1.0  -0.7573
  O  O180  1  0.634800  0.507900  0.757500  1.0  -0.7195
  O  O181  1  0.270970  0.456600  0.618060  1.0  -0.6844
  O  O182  1  0.128280  0.494120  0.756520  1.0  -0.7509
  O  O183  1  0.101140  0.486710  0.945810  1.0  -0.841
  O  O184  1  0.221490  0.431940  0.999480  1.0  -0.7493
  O  O185  1  0.425270  0.293960  0.471100  1.0  -0.7294
  O  O186  1  0.384760  0.179120  0.482760  1.0  -0.7884
  O  O187  1  0.350000  0.044600  0.628600  1.0  -0.7567
  O  O188  1  0.400200  0.992100  0.742500  1.0  -0.7189
  O  O189  1  0.845630  0.043400  0.881940  1.0  -0.6804
  O  O190  1  0.878920  0.005880  0.743480  1.0  -0.7511
  O  O191  1  0.033660  0.013290  0.554190  1.0  -0.842
  O  O192  1  0.152910  0.068060  0.500520  1.0  -0.7457
  O  O193  1  0.719230  0.971100  0.706040  1.0  -0.7288
  O  O194  1  0.563880  0.982760  0.820880  1.0  -0.7824
  O  O195  1  0.394600  0.128600  0.955400  1.0  -0.754
  O  O196  1  0.392300  0.242500  0.007900  1.0  -0.7209
  O  O197  1  0.889030  0.381940  0.956600  1.0  -0.6832
  O  O198  1  0.884800  0.243480  0.994120  1.0  -0.7492
  O  O199  1  0.046950  0.054190  0.986710  1.0  -0.8414
  O  O200  1  0.220970  0.000520  0.931940  1.0  -0.7444
  O  O201  1  0.896370  0.528900  0.793960  1.0  -0.7284
  O  O202  1  0.867520  0.517240  0.679120  1.0  -0.7834
  O  O203  1  0.978600  0.371400  0.544600  1.0  -0.7586
  O  O204  1  0.142700  0.257500  0.492100  1.0  -0.7206
  O  O205  1  0.727570  0.118060  0.543400  1.0  -0.6831
  O  O206  1  0.622400  0.256520  0.505880  1.0  -0.7544
  O  O207  1  0.587850  0.445810  0.513290  1.0  -0.8449
  O  O208  1  0.653430  0.499480  0.568060  1.0  -0.7441
