# generated using pymatgen
data_NiH16C24N2O5
_symmetry_space_group_name_H-M   'P 1'
_cell_length_a   11.28450000
_cell_length_b   11.28450000
_cell_length_c   19.88500000
_cell_angle_alpha   85.32660000
_cell_angle_beta   85.32660000
_cell_angle_gamma   66.15780000
_symmetry_Int_Tables_number   1
_chemical_formula_structural   NiH16C24N2O5
_chemical_formula_sum   'Ni4 H64 C96 N8 O20'
_cell_volume   2305.09121515
_cell_formula_units_Z   4
loop_
 _symmetry_equiv_pos_site_id
 _symmetry_equiv_pos_as_xyz
  1  'x, y, z'
loop_
 _atom_site_type_symbol
 _atom_site_label
 _atom_site_symmetry_multiplicity
 _atom_site_fract_x
 _atom_site_fract_y
 _atom_site_fract_z
 _atom_site_occupancy
 _atom_site_charge
  Ni  Ni1  1  0.025620  0.859740  0.925300  1.0  0.846
  Ni  Ni2  1  0.140260  0.974380  0.574700  1.0  0.8446
  Ni  Ni3  1  0.974380  0.140260  0.074700  1.0  0.8442
  Ni  Ni4  1  0.859740  0.025620  0.425300  1.0  0.8446
  H  H5  1  0.199300  0.959700  0.835500  1.0  0.0927
  H  H6  1  0.401000  0.969200  0.831500  1.0  0.1225
  H  H7  1  0.465900  0.762700  0.010200  1.0  0.1295
  H  H8  1  0.260600  0.763800  0.010300  1.0  0.0779
  H  H9  1  0.620100  0.808100  0.018400  1.0  0.1203
  H  H10  1  0.825100  0.807300  0.017400  1.0  0.0797
  H  H11  1  0.818800  0.907400  0.826300  1.0  0.0813
  H  H12  1  0.611400  0.916600  0.822700  1.0  0.1193
  H  H13  1  0.628600  0.060200  0.555100  1.0  0.1008
  H  H14  1  0.433900  0.119900  0.620400  1.0  0.1295
  H  H15  1  0.608500  0.179500  0.775400  1.0  0.1261
  H  H16  1  0.802100  0.122500  0.709600  1.0  0.1034
  H  H17  1  0.271100  0.221500  0.856900  1.0  0.123
  H  H18  1  0.163200  0.417600  0.908100  1.0  0.0976
  H  H19  1  0.259500  0.605500  0.745800  1.0  0.0971
  H  H20  1  0.374700  0.407100  0.696100  1.0  0.1272
  H  H21  1  0.040300  0.800700  0.664500  1.0  0.0922
  H  H22  1  0.030800  0.599000  0.668500  1.0  0.1223
  H  H23  1  0.237300  0.534100  0.489800  1.0  0.1273
  H  H24  1  0.236200  0.739400  0.489700  1.0  0.0763
  H  H25  1  0.191900  0.379900  0.481600  1.0  0.1194
  H  H26  1  0.192700  0.174900  0.482600  1.0  0.08
  H  H27  1  0.092600  0.181200  0.673700  1.0  0.0821
  H  H28  1  0.083400  0.388600  0.677300  1.0  0.1172
  H  H29  1  0.939800  0.371400  0.944900  1.0  0.1008
  H  H30  1  0.880100  0.566100  0.879600  1.0  0.1257
  H  H31  1  0.820500  0.391500  0.724600  1.0  0.1266
  H  H32  1  0.877500  0.197900  0.790400  1.0  0.103
  H  H33  1  0.778500  0.728900  0.643100  1.0  0.1241
  H  H34  1  0.582400  0.836800  0.591900  1.0  0.0972
  H  H35  1  0.394500  0.740500  0.754200  1.0  0.097
  H  H36  1  0.592900  0.625300  0.803900  1.0  0.1262
  H  H37  1  0.800700  0.040300  0.164500  1.0  0.0932
  H  H38  1  0.599000  0.030800  0.168500  1.0  0.1227
  H  H39  1  0.534100  0.237300  0.989800  1.0  0.1289
  H  H40  1  0.739400  0.236200  0.989700  1.0  0.0777
  H  H41  1  0.379900  0.191900  0.981600  1.0  0.1203
  H  H42  1  0.174900  0.192700  0.982600  1.0  0.08
  H  H43  1  0.181200  0.092600  0.173700  1.0  0.0814
  H  H44  1  0.388600  0.083400  0.177300  1.0  0.1177
  H  H45  1  0.371400  0.939800  0.444900  1.0  0.1013
  H  H46  1  0.566100  0.880100  0.379600  1.0  0.1262
  H  H47  1  0.391500  0.820500  0.224600  1.0  0.1265
  H  H48  1  0.197900  0.877500  0.290400  1.0  0.1016
  H  H49  1  0.728900  0.778500  0.143100  1.0  0.1228
  H  H50  1  0.836800  0.582400  0.091900  1.0  0.0974
  H  H51  1  0.740500  0.394500  0.254200  1.0  0.0951
  H  H52  1  0.625300  0.592900  0.303900  1.0  0.1258
  H  H53  1  0.959700  0.199300  0.335500  1.0  0.0925
  H  H54  1  0.969200  0.401000  0.331500  1.0  0.1216
  H  H55  1  0.762700  0.465900  0.510200  1.0  0.1275
  H  H56  1  0.763800  0.260600  0.510300  1.0  0.0766
  H  H57  1  0.808100  0.620100  0.518400  1.0  0.1198
  H  H58  1  0.807300  0.825100  0.517400  1.0  0.0803
  H  H59  1  0.907400  0.818800  0.326300  1.0  0.0816
  H  H60  1  0.916600  0.611400  0.322700  1.0  0.119
  H  H61  1  0.060200  0.628600  0.055100  1.0  0.1009
  H  H62  1  0.119900  0.433900  0.120400  1.0  0.1301
  H  H63  1  0.179500  0.608500  0.275400  1.0  0.1267
  H  H64  1  0.122500  0.802100  0.209600  1.0  0.1027
  H  H65  1  0.221500  0.271100  0.356900  1.0  0.1227
  H  H66  1  0.417600  0.163200  0.408100  1.0  0.0974
  H  H67  1  0.605500  0.259500  0.245800  1.0  0.0971
  H  H68  1  0.407100  0.374700  0.196100  1.0  0.1273
  C  C69  1  0.254000  0.920400  0.872000  1.0  0.1715
  C  C70  1  0.375000  0.925400  0.868800  1.0  -0.1913
  C  C71  1  0.458100  0.865300  0.921000  1.0  0.0783
  C  C72  1  0.412600  0.805000  0.973600  1.0  -0.2072
  C  C73  1  0.289500  0.805900  0.973300  1.0  0.17
  C  C74  1  0.590700  0.864900  0.920200  1.0  0.0927
  C  C75  1  0.657800  0.831000  0.977700  1.0  -0.2048
  C  C76  1  0.781000  0.830200  0.976600  1.0  0.1666
  C  C77  1  0.777500  0.888500  0.866800  1.0  0.1615
  C  C78  1  0.653200  0.893200  0.864200  1.0  -0.1943
  C  C79  1  0.735500  0.082700  0.626300  1.0  -0.1773
  C  C80  1  0.625100  0.083900  0.600200  1.0  -0.0114
  C  C81  1  0.509300  0.119300  0.638800  1.0  -0.2278
  C  C82  1  0.504600  0.153400  0.703800  1.0  0.2754
  C  C83  1  0.612800  0.154800  0.730400  1.0  -0.2092
  C  C84  1  0.727900  0.120300  0.691400  1.0  -0.0086
  C  C85  1  0.861600  0.040800  0.584600  1.0  0.6493
  C  C86  1  0.332300  0.298100  0.771800  1.0  0.2889
  C  C87  1  0.269600  0.299800  0.834600  1.0  -0.2431
  C  C88  1  0.205100  0.416100  0.864600  1.0  0.0054
  C  C89  1  0.200200  0.531800  0.831900  1.0  -0.1515
  C  C90  1  0.262700  0.527300  0.768900  1.0  -0.0161
  C  C91  1  0.330300  0.409500  0.739000  1.0  -0.2265
  C  C92  1  0.129000  0.657000  0.865300  1.0  0.6291
  C  C93  1  0.079600  0.746000  0.628000  1.0  0.1738
  C  C94  1  0.074600  0.625000  0.631200  1.0  -0.1903
  C  C95  1  0.134700  0.541900  0.579000  1.0  0.079
  C  C96  1  0.195000  0.587400  0.526400  1.0  -0.2038
  C  C97  1  0.194100  0.710500  0.526700  1.0  0.1723
  C  C98  1  0.135100  0.409300  0.579800  1.0  0.0915
  C  C99  1  0.169000  0.342200  0.522300  1.0  -0.2072
  C  C100  1  0.169800  0.219000  0.523400  1.0  0.1667
  C  C101  1  0.111500  0.222500  0.633200  1.0  0.1624
  C  C102  1  0.106800  0.346800  0.635800  1.0  -0.1929
  C  C103  1  0.917300  0.264500  0.873700  1.0  -0.18
  C  C104  1  0.916100  0.374900  0.899800  1.0  -0.0043
  C  C105  1  0.880700  0.490700  0.861200  1.0  -0.2251
  C  C106  1  0.846600  0.495400  0.796200  1.0  0.2743
  C  C107  1  0.845200  0.387200  0.769600  1.0  -0.207
  C  C108  1  0.879700  0.272100  0.808600  1.0  -0.009
  C  C109  1  0.959200  0.138400  0.915400  1.0  0.6451
  C  C110  1  0.701900  0.667700  0.728200  1.0  0.2965
  C  C111  1  0.700200  0.730400  0.665400  1.0  -0.2358
  C  C112  1  0.583900  0.794900  0.635400  1.0  0.0034
  C  C113  1  0.468200  0.799800  0.668100  1.0  -0.1556
  C  C114  1  0.472700  0.737300  0.731100  1.0  -0.0186
  C  C115  1  0.590500  0.669700  0.761000  1.0  -0.2304
  C  C116  1  0.343000  0.871000  0.634700  1.0  0.6282
  C  C117  1  0.746000  0.079600  0.128000  1.0  0.1746
  C  C118  1  0.625000  0.074600  0.131200  1.0  -0.1913
  C  C119  1  0.541900  0.134700  0.079000  1.0  0.0777
  C  C120  1  0.587400  0.195000  0.026400  1.0  -0.2067
  C  C121  1  0.710500  0.194100  0.026700  1.0  0.1692
  C  C122  1  0.409300  0.135100  0.079800  1.0  0.0924
  C  C123  1  0.342200  0.169000  0.022300  1.0  -0.2061
  C  C124  1  0.219000  0.169800  0.023400  1.0  0.1648
  C  C125  1  0.222500  0.111500  0.133200  1.0  0.1626
  C  C126  1  0.346800  0.106800  0.135800  1.0  -0.1933
  C  C127  1  0.264500  0.917300  0.373700  1.0  -0.1777
  C  C128  1  0.374900  0.916100  0.399800  1.0  -0.0017
  C  C129  1  0.490700  0.880700  0.361200  1.0  -0.2244
  C  C130  1  0.495400  0.846600  0.296200  1.0  0.2755
  C  C131  1  0.387200  0.845200  0.269600  1.0  -0.2068
  C  C132  1  0.272100  0.879700  0.308600  1.0  -0.0084
  C  C133  1  0.138400  0.959200  0.415400  1.0  0.6425
  C  C134  1  0.667700  0.701900  0.228200  1.0  0.2972
  C  C135  1  0.730400  0.700200  0.165400  1.0  -0.2401
  C  C136  1  0.794900  0.583900  0.135400  1.0  0.0033
  C  C137  1  0.799800  0.468200  0.168100  1.0  -0.1529
  C  C138  1  0.737300  0.472700  0.231100  1.0  -0.0218
  C  C139  1  0.669700  0.590500  0.261000  1.0  -0.2321
  C  C140  1  0.871000  0.343000  0.134700  1.0  0.6277
  C  C141  1  0.920400  0.254000  0.372000  1.0  0.1708
  C  C142  1  0.925400  0.375000  0.368800  1.0  -0.1914
  C  C143  1  0.865300  0.458100  0.421000  1.0  0.0795
  C  C144  1  0.805000  0.412600  0.473600  1.0  -0.2048
  C  C145  1  0.805900  0.289500  0.473300  1.0  0.1724
  C  C146  1  0.864900  0.590700  0.420200  1.0  0.0913
  C  C147  1  0.831000  0.657800  0.477700  1.0  -0.2064
  C  C148  1  0.830200  0.781000  0.476600  1.0  0.1659
  C  C149  1  0.888500  0.777500  0.366800  1.0  0.1639
  C  C150  1  0.893200  0.653200  0.364200  1.0  -0.1927
  C  C151  1  0.082700  0.735500  0.126300  1.0  -0.1783
  C  C152  1  0.083900  0.625100  0.100200  1.0  -0.0107
  C  C153  1  0.119300  0.509300  0.138800  1.0  -0.2252
  C  C154  1  0.153400  0.504600  0.203800  1.0  0.2744
  C  C155  1  0.154800  0.612800  0.230400  1.0  -0.2087
  C  C156  1  0.120300  0.727900  0.191400  1.0  -0.0086
  C  C157  1  0.040800  0.861600  0.084600  1.0  0.6451
  C  C158  1  0.298100  0.332300  0.271800  1.0  0.2888
  C  C159  1  0.299800  0.269600  0.334600  1.0  -0.2416
  C  C160  1  0.416100  0.205100  0.364600  1.0  -0.0029
  C  C161  1  0.531800  0.200200  0.331900  1.0  -0.1527
  C  C162  1  0.527300  0.262700  0.268900  1.0  -0.0172
  C  C163  1  0.409500  0.330300  0.239000  1.0  -0.2275
  C  C164  1  0.657000  0.129000  0.365300  1.0  0.6255
  N  N165  1  0.210220  0.863020  0.923800  1.0  -0.2973
  N  N166  1  0.840560  0.859360  0.922300  1.0  -0.2822
  N  N167  1  0.136980  0.789780  0.576200  1.0  -0.2979
  N  N168  1  0.140640  0.159440  0.577700  1.0  -0.2844
  N  N169  1  0.789780  0.136980  0.076200  1.0  -0.2955
  N  N170  1  0.159440  0.140640  0.077700  1.0  -0.2841
  N  N171  1  0.863020  0.210220  0.423800  1.0  -0.2993
  N  N172  1  0.859360  0.840560  0.422300  1.0  -0.2859
  O  O173  1  0.112470  0.653270  0.929680  1.0  -0.5857
  O  O174  1  0.088560  0.762560  0.831510  1.0  -0.546
  O  O175  1  0.390900  0.178100  0.743700  1.0  -0.2746
  O  O176  1  0.865070  0.998470  0.527750  1.0  -0.6178
  O  O177  1  0.955180  0.050180  0.610520  1.0  -0.5822
  O  O178  1  0.346730  0.887530  0.570320  1.0  -0.5849
  O  O179  1  0.237440  0.911440  0.668490  1.0  -0.5467
  O  O180  1  0.821900  0.609100  0.756300  1.0  -0.274
  O  O181  1  0.001530  0.134930  0.972250  1.0  -0.6172
  O  O182  1  0.949820  0.044820  0.889480  1.0  -0.5844
  O  O183  1  0.887530  0.346730  0.070320  1.0  -0.5867
  O  O184  1  0.911440  0.237440  0.168490  1.0  -0.5463
  O  O185  1  0.609100  0.821900  0.256300  1.0  -0.2734
  O  O186  1  0.134930  0.001530  0.472250  1.0  -0.6167
  O  O187  1  0.044820  0.949820  0.389480  1.0  -0.583
  O  O188  1  0.653270  0.112470  0.429680  1.0  -0.5836
  O  O189  1  0.762560  0.088560  0.331510  1.0  -0.5468
  O  O190  1  0.178100  0.390900  0.243700  1.0  -0.2763
  O  O191  1  0.998470  0.865070  0.027750  1.0  -0.6181
  O  O192  1  0.050180  0.955180  0.110520  1.0  -0.583
