# generated using pymatgen
data_CuPH3(CO)3
_symmetry_space_group_name_H-M   'P 1'
_cell_length_a   4.82180000
_cell_length_b   18.29500000
_cell_length_c   19.89110000
_cell_angle_alpha   90.00000000
_cell_angle_beta   90.00000000
_cell_angle_gamma   95.07700000
_symmetry_Int_Tables_number   1
_chemical_formula_structural   CuPH3(CO)3
_chemical_formula_sum   'Cu12 P12 H36 C36 O36'
_cell_volume   1747.80579621
_cell_formula_units_Z   12
loop_
 _symmetry_equiv_pos_site_id
 _symmetry_equiv_pos_as_xyz
  1  'x, y, z'
loop_
 _atom_site_type_symbol
 _atom_site_label
 _atom_site_symmetry_multiplicity
 _atom_site_fract_x
 _atom_site_fract_y
 _atom_site_fract_z
 _atom_site_occupancy
 _atom_site_charge
  Cu  Cu1  1  0.977980  0.797600  0.296440  1.0  0.8299
  Cu  Cu2  1  0.420340  0.748740  0.157410  1.0  1.185
  Cu  Cu3  1  0.892700  0.703500  0.030000  1.0  1.1355
  Cu  Cu4  1  0.522020  0.702400  0.796440  1.0  0.8506
  Cu  Cu5  1  0.079660  0.751260  0.657410  1.0  1.1846
  Cu  Cu6  1  0.607300  0.796500  0.530000  1.0  1.1408
  Cu  Cu7  1  0.022020  0.202400  0.703560  1.0  0.8524
  Cu  Cu8  1  0.579660  0.251260  0.842590  1.0  1.1844
  Cu  Cu9  1  0.107300  0.296500  0.970000  1.0  1.1428
  Cu  Cu10  1  0.477980  0.297600  0.203560  1.0  0.8323
  Cu  Cu11  1  0.920340  0.248740  0.342590  1.0  1.1846
  Cu  Cu12  1  0.392700  0.203500  0.470000  1.0  1.1383
  P  P13  1  0.922900  0.651530  0.174600  1.0  1.5656
  P  P14  1  0.072400  0.731600  0.442780  1.0  1.6024
  P  P15  1  0.423900  0.346790  0.352780  1.0  1.5746
  P  P16  1  0.577100  0.848470  0.674600  1.0  1.5662
  P  P17  1  0.427600  0.768400  0.942780  1.0  1.6047
  P  P18  1  0.076100  0.153210  0.852780  1.0  1.5746
  P  P19  1  0.077100  0.348470  0.825400  1.0  1.57
  P  P20  1  0.927600  0.268400  0.557220  1.0  1.6048
  P  P21  1  0.576100  0.653210  0.647220  1.0  1.5749
  P  P22  1  0.422900  0.151530  0.325400  1.0  1.569
  P  P23  1  0.572400  0.231600  0.057220  1.0  1.6023
  P  P24  1  0.923900  0.846790  0.147220  1.0  1.5752
  H  H25  1  0.196300  0.625000  0.317900  1.0  0.1333
  H  H26  1  0.703400  0.529700  0.459600  1.0  0.1054
  H  H27  1  0.558500  0.481000  0.267100  1.0  0.1214
  H  H28  1  0.865300  0.526000  0.181900  1.0  0.1757
  H  H29  1  0.169300  0.554300  0.202600  1.0  0.1877
  H  H30  1  0.321300  0.630000  0.445600  1.0  0.1836
  H  H31  1  0.064500  0.618600  0.493800  1.0  0.1788
  H  H32  1  0.197000  0.449900  0.372100  1.0  0.173
  H  H33  1  0.369900  0.431600  0.435700  1.0  0.1706
  H  H34  1  0.303700  0.875000  0.817900  1.0  0.1332
  H  H35  1  0.796600  0.970300  0.959600  1.0  0.1055
  H  H36  1  0.941500  0.019000  0.767100  1.0  0.1215
  H  H37  1  0.634700  0.974000  0.681900  1.0  0.1762
  H  H38  1  0.330700  0.945700  0.702600  1.0  0.1881
  H  H39  1  0.178700  0.870000  0.945600  1.0  0.1825
  H  H40  1  0.435500  0.881400  0.993800  1.0  0.1793
  H  H41  1  0.303000  0.050100  0.872100  1.0  0.1714
  H  H42  1  0.130100  0.068400  0.935700  1.0  0.1697
  H  H43  1  0.803700  0.375000  0.682100  1.0  0.1338
  H  H44  1  0.296600  0.470300  0.540400  1.0  0.1053
  H  H45  1  0.441500  0.519000  0.732900  1.0  0.1207
  H  H46  1  0.134700  0.474000  0.818100  1.0  0.1755
  H  H47  1  0.830700  0.445700  0.797400  1.0  0.1874
  H  H48  1  0.678700  0.370000  0.554400  1.0  0.1826
  H  H49  1  0.935500  0.381400  0.506200  1.0  0.1796
  H  H50  1  0.803000  0.550100  0.627900  1.0  0.1699
  H  H51  1  0.630100  0.568400  0.564300  1.0  0.1726
  H  H52  1  0.696300  0.125000  0.182100  1.0  0.1331
  H  H53  1  0.203400  0.029700  0.040400  1.0  0.1052
  H  H54  1  0.058500  0.981000  0.232900  1.0  0.1209
  H  H55  1  0.365300  0.026000  0.318100  1.0  0.1752
  H  H56  1  0.669300  0.054300  0.297400  1.0  0.1885
  H  H57  1  0.821300  0.130000  0.054400  1.0  0.1839
  H  H58  1  0.564500  0.118600  0.006200  1.0  0.1801
  H  H59  1  0.697000  0.949900  0.127900  1.0  0.1722
  H  H60  1  0.869900  0.931600  0.064300  1.0  0.172
  C  C61  1  0.896600  0.553800  0.281200  1.0  0.1963
  C  C62  1  0.043200  0.593300  0.330200  1.0  -0.2233
  C  C63  1  0.970100  0.587500  0.397400  1.0  0.1905
  C  C64  1  0.750700  0.536000  0.414500  1.0  -0.2458
  C  C65  1  0.601700  0.494200  0.367100  1.0  0.2004
  C  C66  1  0.667300  0.505600  0.300100  1.0  -0.2201
  C  C67  1  0.974900  0.563000  0.207900  1.0  -0.5608
  C  C68  1  0.123800  0.635600  0.449500  1.0  -0.5856
  C  C69  1  0.375500  0.435200  0.387000  1.0  -0.5723
  C  C70  1  0.603400  0.946200  0.781200  1.0  0.1965
  C  C71  1  0.456800  0.906700  0.830200  1.0  -0.2276
  C  C72  1  0.529900  0.912500  0.897400  1.0  0.1939
  C  C73  1  0.749300  0.964000  0.914500  1.0  -0.241
  C  C74  1  0.898300  0.005800  0.867100  1.0  0.1999
  C  C75  1  0.832700  0.994400  0.800100  1.0  -0.2218
  C  C76  1  0.525100  0.937000  0.707900  1.0  -0.5585
  C  C77  1  0.376200  0.864400  0.949500  1.0  -0.5871
  C  C78  1  0.124500  0.064800  0.887000  1.0  -0.5703
  C  C79  1  0.103400  0.446200  0.718800  1.0  0.1955
  C  C80  1  0.956800  0.406700  0.669800  1.0  -0.2269
  C  C81  1  0.029900  0.412500  0.602600  1.0  0.1946
  C  C82  1  0.249300  0.464000  0.585500  1.0  -0.2394
  C  C83  1  0.398300  0.505800  0.632900  1.0  0.2008
  C  C84  1  0.332700  0.494400  0.699900  1.0  -0.2212
  C  C85  1  0.025100  0.437000  0.792100  1.0  -0.5624
  C  C86  1  0.876200  0.364400  0.550500  1.0  -0.5879
  C  C87  1  0.624500  0.564800  0.613000  1.0  -0.5728
  C  C88  1  0.396600  0.053800  0.218800  1.0  0.1954
  C  C89  1  0.543200  0.093300  0.169800  1.0  -0.2215
  C  C90  1  0.470100  0.087500  0.102600  1.0  0.1912
  C  C91  1  0.250700  0.036000  0.085500  1.0  -0.244
  C  C92  1  0.101700  0.994200  0.132900  1.0  0.2009
  C  C93  1  0.167300  0.005600  0.199900  1.0  -0.2209
  C  C94  1  0.474900  0.063000  0.292100  1.0  -0.5626
  C  C95  1  0.623800  0.135600  0.050500  1.0  -0.5865
  C  C96  1  0.875500  0.935200  0.113000  1.0  -0.5723
  O  O97  1  0.109900  0.709200  0.213280  1.0  -0.8357
  O  O98  1  0.616100  0.663300  0.183260  1.0  -0.808
  O  O99  1  0.012700  0.652400  0.101300  1.0  -0.872
  O  O100  1  0.164400  0.757000  0.372530  1.0  -0.809
  O  O101  1  0.766200  0.743300  0.454120  1.0  -0.8244
  O  O102  1  0.246800  0.772400  0.497100  1.0  -0.848
  O  O103  1  0.312500  0.343660  0.280940  1.0  -0.8655
  O  O104  1  0.239300  0.289330  0.395030  1.0  -0.855
  O  O105  1  0.730900  0.334850  0.359780  1.0  -0.8038
  O  O106  1  0.390100  0.790800  0.713280  1.0  -0.8349
  O  O107  1  0.883900  0.836700  0.683260  1.0  -0.8089
  O  O108  1  0.487300  0.847600  0.601300  1.0  -0.8727
  O  O109  1  0.335600  0.743000  0.872530  1.0  -0.8086
  O  O110  1  0.733800  0.756700  0.954120  1.0  -0.826
  O  O111  1  0.253200  0.727600  0.997100  1.0  -0.8471
  O  O112  1  0.187500  0.156340  0.780940  1.0  -0.8657
  O  O113  1  0.260700  0.210670  0.895030  1.0  -0.8546
  O  O114  1  0.769100  0.165150  0.859780  1.0  -0.8027
  O  O115  1  0.890100  0.290800  0.786720  1.0  -0.8342
  O  O116  1  0.383900  0.336700  0.816740  1.0  -0.8087
  O  O117  1  0.987300  0.347600  0.898700  1.0  -0.8714
  O  O118  1  0.835600  0.243000  0.627470  1.0  -0.8086
  O  O119  1  0.233800  0.256700  0.545880  1.0  -0.8265
  O  O120  1  0.753200  0.227600  0.502900  1.0  -0.8471
  O  O121  1  0.687500  0.656340  0.719060  1.0  -0.8658
  O  O122  1  0.760700  0.710670  0.604970  1.0  -0.8544
  O  O123  1  0.269100  0.665150  0.640220  1.0  -0.8029
  O  O124  1  0.609900  0.209200  0.286720  1.0  -0.8339
  O  O125  1  0.116100  0.163300  0.316740  1.0  -0.808
  O  O126  1  0.512700  0.152400  0.398700  1.0  -0.8731
  O  O127  1  0.664400  0.257000  0.127470  1.0  -0.8089
  O  O128  1  0.266200  0.243300  0.045880  1.0  -0.8252
  O  O129  1  0.746800  0.272400  0.002900  1.0  -0.8472
  O  O130  1  0.812500  0.843660  0.219060  1.0  -0.8666
  O  O131  1  0.739300  0.789330  0.104970  1.0  -0.8555
  O  O132  1  0.230900  0.834850  0.140220  1.0  -0.8042
