# generated using pymatgen
data_Cd3H40C50(NO3)4
_symmetry_space_group_name_H-M   'P 1'
_cell_length_a   32.20700000
_cell_length_b   13.37800000
_cell_length_c   15.87100000
_cell_angle_alpha   90.00000000
_cell_angle_beta   91.05000000
_cell_angle_gamma   90.00000000
_symmetry_Int_Tables_number   1
_chemical_formula_structural   Cd3H40C50(NO3)4
_chemical_formula_sum   'Cd12 H160 C200 N16 O48'
_cell_volume   6837.11406798
_cell_formula_units_Z   4
loop_
 _symmetry_equiv_pos_site_id
 _symmetry_equiv_pos_as_xyz
  1  'x, y, z'
loop_
 _atom_site_type_symbol
 _atom_site_label
 _atom_site_symmetry_multiplicity
 _atom_site_fract_x
 _atom_site_fract_y
 _atom_site_fract_z
 _atom_site_occupancy
 _atom_site_charge
  Cd  Cd1  1  0.606010  0.695080  0.235570  1.0  0.9606
  Cd  Cd2  1  0.106010  0.195080  0.235570  1.0  0.9606
  Cd  Cd3  1  0.393990  0.695080  0.264430  1.0  0.9612
  Cd  Cd4  1  0.893990  0.195080  0.264430  1.0  0.9612
  Cd  Cd5  1  0.393990  0.304920  0.764430  1.0  0.9608
  Cd  Cd6  1  0.893990  0.804920  0.764430  1.0  0.9608
  Cd  Cd7  1  0.606010  0.304920  0.735570  1.0  0.9601
  Cd  Cd8  1  0.106010  0.804920  0.735570  1.0  0.9601
  Cd  Cd9  1  0.500000  0.774970  0.250000  1.0  1.1669
  Cd  Cd10  1  0.000000  0.274970  0.250000  1.0  1.1669
  Cd  Cd11  1  0.500000  0.225030  0.750000  1.0  1.1644
  Cd  Cd12  1  0.000000  0.725030  0.750000  1.0  1.1644
  H  H13  1  0.642200  0.949600  0.439500  1.0  0.1109
  H  H14  1  0.632900  0.069700  0.542200  1.0  0.0935
  H  H15  1  0.516900  0.966700  0.580400  1.0  0.1034
  H  H16  1  0.524600  0.849800  0.470700  1.0  0.1133
  H  H17  1  0.571300  0.471200  0.006800  1.0  0.089
  H  H18  1  0.469300  0.609900  0.096800  1.0  0.1198
  H  H19  1  0.656400  0.620700  0.402700  1.0  0.0941
  H  H20  1  0.672900  0.478300  0.480900  1.0  0.1197
  H  H21  1  0.590700  0.324000  0.339300  1.0  0.1249
  H  H22  1  0.580400  0.466400  0.258300  1.0  0.0695
  H  H23  1  0.820900  0.346000  0.293400  1.0  0.1018
  H  H24  1  0.750800  0.358400  0.318500  1.0  0.1249
  H  H25  1  0.748000  0.059800  0.356700  1.0  0.138
  H  H26  1  0.816800  0.057100  0.324900  1.0  0.0786
  H  H27  1  0.625100  0.236000  0.449100  1.0  0.0983
  H  H28  1  0.640200  0.302500  0.527900  1.0  0.1017
  H  H29  1  0.708200  0.315100  0.463100  1.0  0.0974
  H  H30  1  0.697100  0.204000  0.492800  1.0  0.0932
  H  H31  1  0.681100  0.267800  0.323300  1.0  0.1079
  H  H32  1  0.681000  0.154800  0.356600  1.0  0.1024
  H  H33  1  0.142200  0.449600  0.439500  1.0  0.1109
  H  H34  1  0.132900  0.569700  0.542200  1.0  0.0935
  H  H35  1  0.016900  0.466700  0.580400  1.0  0.1034
  H  H36  1  0.024600  0.349800  0.470700  1.0  0.1133
  H  H37  1  0.071300  0.971200  0.006800  1.0  0.089
  H  H38  1  0.969300  0.109900  0.096800  1.0  0.1198
  H  H39  1  0.156400  0.120700  0.402700  1.0  0.0941
  H  H40  1  0.172900  0.978300  0.480900  1.0  0.1197
  H  H41  1  0.090700  0.824000  0.339300  1.0  0.1249
  H  H42  1  0.080400  0.966400  0.258300  1.0  0.0695
  H  H43  1  0.320900  0.846000  0.293400  1.0  0.1018
  H  H44  1  0.250800  0.858400  0.318500  1.0  0.1249
  H  H45  1  0.248000  0.559800  0.356700  1.0  0.138
  H  H46  1  0.316800  0.557100  0.324900  1.0  0.0786
  H  H47  1  0.125100  0.736000  0.449100  1.0  0.0983
  H  H48  1  0.140200  0.802500  0.527900  1.0  0.1017
  H  H49  1  0.208200  0.815100  0.463100  1.0  0.0974
  H  H50  1  0.197100  0.704000  0.492800  1.0  0.0932
  H  H51  1  0.181100  0.767800  0.323300  1.0  0.1079
  H  H52  1  0.181000  0.654800  0.356600  1.0  0.1024
  H  H53  1  0.357800  0.949600  0.060500  1.0  0.1106
  H  H54  1  0.367100  0.069700  0.957800  1.0  0.0936
  H  H55  1  0.483100  0.966700  0.919600  1.0  0.1029
  H  H56  1  0.475400  0.849800  0.029300  1.0  0.1137
  H  H57  1  0.428700  0.471200  0.493200  1.0  0.0886
  H  H58  1  0.530700  0.609900  0.403200  1.0  0.1199
  H  H59  1  0.343600  0.620700  0.097300  1.0  0.0945
  H  H60  1  0.327100  0.478300  0.019100  1.0  0.1199
  H  H61  1  0.409300  0.324000  0.160700  1.0  0.1254
  H  H62  1  0.419600  0.466400  0.241700  1.0  0.0701
  H  H63  1  0.179100  0.346000  0.206600  1.0  0.1021
  H  H64  1  0.249200  0.358400  0.181500  1.0  0.1244
  H  H65  1  0.252000  0.059800  0.143300  1.0  0.1375
  H  H66  1  0.183200  0.057100  0.175100  1.0  0.0787
  H  H67  1  0.374900  0.236000  0.050900  1.0  0.0991
  H  H68  1  0.359800  0.302500  0.972100  1.0  0.1032
  H  H69  1  0.291800  0.315100  0.036900  1.0  0.0977
  H  H70  1  0.302900  0.204000  0.007200  1.0  0.0934
  H  H71  1  0.318900  0.267800  0.176700  1.0  0.1082
  H  H72  1  0.319000  0.154800  0.143400  1.0  0.1037
  H  H73  1  0.857800  0.449600  0.060500  1.0  0.1106
  H  H74  1  0.867100  0.569700  0.957800  1.0  0.0936
  H  H75  1  0.983100  0.466700  0.919600  1.0  0.1029
  H  H76  1  0.975400  0.349800  0.029300  1.0  0.1137
  H  H77  1  0.928700  0.971200  0.493200  1.0  0.0886
  H  H78  1  0.030700  0.109900  0.403200  1.0  0.1199
  H  H79  1  0.843600  0.120700  0.097300  1.0  0.0945
  H  H80  1  0.827100  0.978300  0.019100  1.0  0.1199
  H  H81  1  0.909300  0.824000  0.160700  1.0  0.1254
  H  H82  1  0.919600  0.966400  0.241700  1.0  0.0701
  H  H83  1  0.679100  0.846000  0.206600  1.0  0.1021
  H  H84  1  0.749200  0.858400  0.181500  1.0  0.1244
  H  H85  1  0.752000  0.559800  0.143300  1.0  0.1375
  H  H86  1  0.683200  0.557100  0.175100  1.0  0.0787
  H  H87  1  0.874900  0.736000  0.050900  1.0  0.0991
  H  H88  1  0.859800  0.802500  0.972100  1.0  0.1032
  H  H89  1  0.791800  0.815100  0.036900  1.0  0.0977
  H  H90  1  0.802900  0.704000  0.007200  1.0  0.0934
  H  H91  1  0.818900  0.767800  0.176700  1.0  0.1082
  H  H92  1  0.819000  0.654800  0.143400  1.0  0.1037
  H  H93  1  0.357800  0.050400  0.560500  1.0  0.1102
  H  H94  1  0.367100  0.930300  0.457800  1.0  0.0937
  H  H95  1  0.483100  0.033300  0.419600  1.0  0.1031
  H  H96  1  0.475400  0.150200  0.529300  1.0  0.1136
  H  H97  1  0.428700  0.528800  0.993200  1.0  0.089
  H  H98  1  0.530700  0.390100  0.903200  1.0  0.1196
  H  H99  1  0.343600  0.379300  0.597300  1.0  0.0942
  H  H100  1  0.327100  0.521700  0.519100  1.0  0.1184
  H  H101  1  0.409300  0.676000  0.660700  1.0  0.1253
  H  H102  1  0.419600  0.533600  0.741700  1.0  0.0699
  H  H103  1  0.179100  0.654000  0.706600  1.0  0.1012
  H  H104  1  0.249200  0.641600  0.681500  1.0  0.1247
  H  H105  1  0.252000  0.940200  0.643300  1.0  0.1375
  H  H106  1  0.183200  0.942900  0.675100  1.0  0.0787
  H  H107  1  0.374900  0.764000  0.550900  1.0  0.0983
  H  H108  1  0.359800  0.697500  0.472100  1.0  0.1037
  H  H109  1  0.291800  0.684900  0.536900  1.0  0.0969
  H  H110  1  0.302900  0.796000  0.507200  1.0  0.0934
  H  H111  1  0.318900  0.732200  0.676700  1.0  0.1086
  H  H112  1  0.319000  0.845200  0.643400  1.0  0.1036
  H  H113  1  0.857800  0.550400  0.560500  1.0  0.1102
  H  H114  1  0.867100  0.430300  0.457800  1.0  0.0937
  H  H115  1  0.983100  0.533300  0.419600  1.0  0.1031
  H  H116  1  0.975400  0.650200  0.529300  1.0  0.1136
  H  H117  1  0.928700  0.028800  0.993200  1.0  0.089
  H  H118  1  0.030700  0.890100  0.903200  1.0  0.1196
  H  H119  1  0.843600  0.879300  0.597300  1.0  0.0942
  H  H120  1  0.827100  0.021700  0.519100  1.0  0.1184
  H  H121  1  0.909300  0.176000  0.660700  1.0  0.1253
  H  H122  1  0.919600  0.033600  0.741700  1.0  0.0699
  H  H123  1  0.679100  0.154000  0.706600  1.0  0.1012
  H  H124  1  0.749200  0.141600  0.681500  1.0  0.1247
  H  H125  1  0.752000  0.440200  0.643300  1.0  0.1375
  H  H126  1  0.683200  0.442900  0.675100  1.0  0.0787
  H  H127  1  0.874900  0.264000  0.550900  1.0  0.0983
  H  H128  1  0.859800  0.197500  0.472100  1.0  0.1037
  H  H129  1  0.791800  0.184900  0.536900  1.0  0.0969
  H  H130  1  0.802900  0.296000  0.507200  1.0  0.0934
  H  H131  1  0.818900  0.232200  0.676700  1.0  0.1086
  H  H132  1  0.819000  0.345200  0.643400  1.0  0.1036
  H  H133  1  0.642200  0.050400  0.939500  1.0  0.1109
  H  H134  1  0.632900  0.930300  0.042200  1.0  0.0936
  H  H135  1  0.516900  0.033300  0.080400  1.0  0.1034
  H  H136  1  0.524600  0.150200  0.970700  1.0  0.1134
  H  H137  1  0.571300  0.528800  0.506800  1.0  0.0889
  H  H138  1  0.469300  0.390100  0.596800  1.0  0.1199
  H  H139  1  0.656400  0.379300  0.902700  1.0  0.0943
  H  H140  1  0.672900  0.521700  0.980900  1.0  0.1185
  H  H141  1  0.590700  0.676000  0.839300  1.0  0.1253
  H  H142  1  0.580400  0.533600  0.758300  1.0  0.0691
  H  H143  1  0.820900  0.654000  0.793400  1.0  0.1012
  H  H144  1  0.750800  0.641600  0.818500  1.0  0.1245
  H  H145  1  0.748000  0.940200  0.856700  1.0  0.1379
  H  H146  1  0.816800  0.942900  0.824900  1.0  0.0781
  H  H147  1  0.625100  0.764000  0.949100  1.0  0.0984
  H  H148  1  0.640200  0.697500  0.027900  1.0  0.1015
  H  H149  1  0.708200  0.684900  0.963100  1.0  0.0975
  H  H150  1  0.697100  0.796000  0.992800  1.0  0.0918
  H  H151  1  0.681100  0.732200  0.823300  1.0  0.1079
  H  H152  1  0.681000  0.845200  0.856600  1.0  0.1042
  H  H153  1  0.142200  0.550400  0.939500  1.0  0.1109
  H  H154  1  0.132900  0.430300  0.042200  1.0  0.0936
  H  H155  1  0.016900  0.533300  0.080400  1.0  0.1034
  H  H156  1  0.024600  0.650200  0.970700  1.0  0.1134
  H  H157  1  0.071300  0.028800  0.506800  1.0  0.0889
  H  H158  1  0.969300  0.890100  0.596800  1.0  0.1199
  H  H159  1  0.156400  0.879300  0.902700  1.0  0.0943
  H  H160  1  0.172900  0.021700  0.980900  1.0  0.1185
  H  H161  1  0.090700  0.176000  0.839300  1.0  0.1253
  H  H162  1  0.080400  0.033600  0.758300  1.0  0.0691
  H  H163  1  0.320900  0.154000  0.793400  1.0  0.1012
  H  H164  1  0.250800  0.141600  0.818500  1.0  0.1245
  H  H165  1  0.248000  0.440200  0.856700  1.0  0.1379
  H  H166  1  0.316800  0.442900  0.824900  1.0  0.0781
  H  H167  1  0.125100  0.264000  0.949100  1.0  0.0984
  H  H168  1  0.140200  0.197500  0.027900  1.0  0.1015
  H  H169  1  0.208200  0.184900  0.963100  1.0  0.0975
  H  H170  1  0.197100  0.296000  0.992800  1.0  0.0918
  H  H171  1  0.181100  0.232200  0.823300  1.0  0.1079
  H  H172  1  0.181000  0.345200  0.856600  1.0  0.1042
  C  C173  1  0.584040  0.890000  0.443400  1.0  -0.1192
  C  C174  1  0.616200  0.954500  0.466700  1.0  -0.0622
  C  C175  1  0.610850  0.025100  0.528300  1.0  -0.0216
  C  C176  1  0.573330  0.032000  0.570800  1.0  -0.1016
  C  C177  1  0.542080  0.964900  0.550200  1.0  -0.0185
  C  C178  1  0.546700  0.894000  0.485400  1.0  -0.0589
  C  C179  1  0.590200  0.816100  0.373000  1.0  0.6971
  C  C180  1  0.566610  0.113000  0.636400  1.0  0.7094
  C  C181  1  0.524970  0.547800  0.060900  1.0  -0.1105
  C  C182  1  0.542180  0.483100  0.004000  1.0  -0.0144
  C  C183  1  0.481800  0.565800  0.057900  1.0  -0.0736
  C  C184  1  0.551590  0.597100  0.126300  1.0  0.6844
  C  C185  1  0.643600  0.559000  0.387900  1.0  0.1521
  C  C186  1  0.653200  0.474100  0.435800  1.0  -0.2148
  C  C187  1  0.634000  0.384200  0.418000  1.0  0.1697
  C  C188  1  0.605700  0.383300  0.352500  1.0  -0.2537
  C  C189  1  0.599100  0.470100  0.305200  1.0  0.1704
  C  C190  1  0.805300  0.287000  0.303800  1.0  0.134
  C  C191  1  0.763900  0.294800  0.320700  1.0  -0.1529
  C  C192  1  0.740600  0.210400  0.341300  1.0  0.1192
  C  C193  1  0.761800  0.120100  0.342500  1.0  -0.2233
  C  C194  1  0.802700  0.119500  0.323000  1.0  0.1639
  C  C195  1  0.644200  0.290300  0.467100  1.0  -0.2019
  C  C196  1  0.689400  0.257800  0.452600  1.0  -0.1049
  C  C197  1  0.694700  0.220500  0.363100  1.0  -0.2789
  C  C198  1  0.084040  0.390000  0.443400  1.0  -0.1192
  C  C199  1  0.116200  0.454500  0.466700  1.0  -0.0622
  C  C200  1  0.110850  0.525100  0.528300  1.0  -0.0216
  C  C201  1  0.073330  0.532000  0.570800  1.0  -0.1016
  C  C202  1  0.042080  0.464900  0.550200  1.0  -0.0185
  C  C203  1  0.046700  0.394000  0.485400  1.0  -0.0589
  C  C204  1  0.090200  0.316100  0.373000  1.0  0.6971
  C  C205  1  0.066610  0.613000  0.636400  1.0  0.7094
  C  C206  1  0.024970  0.047800  0.060900  1.0  -0.1105
  C  C207  1  0.042180  0.983100  0.004000  1.0  -0.0144
  C  C208  1  0.981800  0.065800  0.057900  1.0  -0.0736
  C  C209  1  0.051590  0.097100  0.126300  1.0  0.6844
  C  C210  1  0.143600  0.059000  0.387900  1.0  0.1521
  C  C211  1  0.153200  0.974100  0.435800  1.0  -0.2148
  C  C212  1  0.134000  0.884200  0.418000  1.0  0.1697
  C  C213  1  0.105700  0.883300  0.352500  1.0  -0.2537
  C  C214  1  0.099100  0.970100  0.305200  1.0  0.1704
  C  C215  1  0.305300  0.787000  0.303800  1.0  0.134
  C  C216  1  0.263900  0.794800  0.320700  1.0  -0.1529
  C  C217  1  0.240600  0.710400  0.341300  1.0  0.1192
  C  C218  1  0.261800  0.620100  0.342500  1.0  -0.2233
  C  C219  1  0.302700  0.619500  0.323000  1.0  0.1639
  C  C220  1  0.144200  0.790300  0.467100  1.0  -0.2019
  C  C221  1  0.189400  0.757800  0.452600  1.0  -0.1049
  C  C222  1  0.194700  0.720500  0.363100  1.0  -0.2789
  C  C223  1  0.415960  0.890000  0.056600  1.0  -0.1198
  C  C224  1  0.383800  0.954500  0.033300  1.0  -0.0627
  C  C225  1  0.389150  0.025100  0.971700  1.0  -0.0207
  C  C226  1  0.426670  0.032000  0.929200  1.0  -0.1011
  C  C227  1  0.457920  0.964900  0.949800  1.0  -0.0201
  C  C228  1  0.453300  0.894000  0.014600  1.0  -0.0592
  C  C229  1  0.409800  0.816100  0.127000  1.0  0.6975
  C  C230  1  0.433390  0.113000  0.863600  1.0  0.7101
  C  C231  1  0.475030  0.547800  0.439100  1.0  -0.11
  C  C232  1  0.457820  0.483100  0.496000  1.0  -0.013
  C  C233  1  0.518200  0.565800  0.442100  1.0  -0.0754
  C  C234  1  0.448410  0.597100  0.373700  1.0  0.6848
  C  C235  1  0.356400  0.559000  0.112100  1.0  0.1516
  C  C236  1  0.346800  0.474100  0.064200  1.0  -0.2153
  C  C237  1  0.366000  0.384200  0.082000  1.0  0.1714
  C  C238  1  0.394300  0.383300  0.147500  1.0  -0.2516
  C  C239  1  0.400900  0.470100  0.194800  1.0  0.1689
  C  C240  1  0.194700  0.287000  0.196200  1.0  0.1327
  C  C241  1  0.236100  0.294800  0.179300  1.0  -0.1536
  C  C242  1  0.259400  0.210400  0.158700  1.0  0.1213
  C  C243  1  0.238200  0.120100  0.157500  1.0  -0.2224
  C  C244  1  0.197300  0.119500  0.177000  1.0  0.1656
  C  C245  1  0.355800  0.290300  0.032900  1.0  -0.2017
  C  C246  1  0.310600  0.257800  0.047400  1.0  -0.1048
  C  C247  1  0.305300  0.220500  0.136900  1.0  -0.2788
  C  C248  1  0.915960  0.390000  0.056600  1.0  -0.1198
  C  C249  1  0.883800  0.454500  0.033300  1.0  -0.0627
  C  C250  1  0.889150  0.525100  0.971700  1.0  -0.0207
  C  C251  1  0.926670  0.532000  0.929200  1.0  -0.1011
  C  C252  1  0.957920  0.464900  0.949800  1.0  -0.0201
  C  C253  1  0.953300  0.394000  0.014600  1.0  -0.0592
  C  C254  1  0.909800  0.316100  0.127000  1.0  0.6975
  C  C255  1  0.933390  0.613000  0.863600  1.0  0.7101
  C  C256  1  0.975030  0.047800  0.439100  1.0  -0.11
  C  C257  1  0.957820  0.983100  0.496000  1.0  -0.013
  C  C258  1  0.018200  0.065800  0.442100  1.0  -0.0754
  C  C259  1  0.948410  0.097100  0.373700  1.0  0.6848
  C  C260  1  0.856400  0.059000  0.112100  1.0  0.1516
  C  C261  1  0.846800  0.974100  0.064200  1.0  -0.2153
  C  C262  1  0.866000  0.884200  0.082000  1.0  0.1714
  C  C263  1  0.894300  0.883300  0.147500  1.0  -0.2516
  C  C264  1  0.900900  0.970100  0.194800  1.0  0.1689
  C  C265  1  0.694700  0.787000  0.196200  1.0  0.1327
  C  C266  1  0.736100  0.794800  0.179300  1.0  -0.1536
  C  C267  1  0.759400  0.710400  0.158700  1.0  0.1213
  C  C268  1  0.738200  0.620100  0.157500  1.0  -0.2224
  C  C269  1  0.697300  0.619500  0.177000  1.0  0.1656
  C  C270  1  0.855800  0.790300  0.032900  1.0  -0.2017
  C  C271  1  0.810600  0.757800  0.047400  1.0  -0.1048
  C  C272  1  0.805300  0.720500  0.136900  1.0  -0.2788
  C  C273  1  0.415960  0.110000  0.556600  1.0  -0.1196
  C  C274  1  0.383800  0.045500  0.533300  1.0  -0.063
  C  C275  1  0.389150  0.974900  0.471700  1.0  -0.021
  C  C276  1  0.426670  0.968000  0.429200  1.0  -0.1028
  C  C277  1  0.457920  0.035100  0.449800  1.0  -0.0196
  C  C278  1  0.453300  0.106000  0.514600  1.0  -0.0585
  C  C279  1  0.409800  0.183900  0.627000  1.0  0.6977
  C  C280  1  0.433390  0.887000  0.363600  1.0  0.7101
  C  C281  1  0.475030  0.452200  0.939100  1.0  -0.1103
  C  C282  1  0.457820  0.516900  0.996000  1.0  -0.0131
  C  C283  1  0.518200  0.434200  0.942100  1.0  -0.0758
  C  C284  1  0.448410  0.402900  0.873700  1.0  0.6847
  C  C285  1  0.356400  0.441000  0.612100  1.0  0.1499
  C  C286  1  0.346800  0.525900  0.564200  1.0  -0.2141
  C  C287  1  0.366000  0.615800  0.582000  1.0  0.1716
  C  C288  1  0.394300  0.616700  0.647500  1.0  -0.2522
  C  C289  1  0.400900  0.529900  0.694800  1.0  0.1697
  C  C290  1  0.194700  0.713000  0.696200  1.0  0.1333
  C  C291  1  0.236100  0.705200  0.679300  1.0  -0.1559
  C  C292  1  0.259400  0.789600  0.658700  1.0  0.1212
  C  C293  1  0.238200  0.879900  0.657500  1.0  -0.2198
  C  C294  1  0.197300  0.880500  0.677000  1.0  0.1653
  C  C295  1  0.355800  0.709700  0.532900  1.0  -0.2022
  C  C296  1  0.310600  0.742200  0.547400  1.0  -0.1045
  C  C297  1  0.305300  0.779500  0.636900  1.0  -0.2796
  C  C298  1  0.915960  0.610000  0.556600  1.0  -0.1196
  C  C299  1  0.883800  0.545500  0.533300  1.0  -0.063
  C  C300  1  0.889150  0.474900  0.471700  1.0  -0.021
  C  C301  1  0.926670  0.468000  0.429200  1.0  -0.1028
  C  C302  1  0.957920  0.535100  0.449800  1.0  -0.0196
  C  C303  1  0.953300  0.606000  0.514600  1.0  -0.0585
  C  C304  1  0.909800  0.683900  0.627000  1.0  0.6977
  C  C305  1  0.933390  0.387000  0.363600  1.0  0.7101
  C  C306  1  0.975030  0.952200  0.939100  1.0  -0.1103
  C  C307  1  0.957820  0.016900  0.996000  1.0  -0.0131
  C  C308  1  0.018200  0.934200  0.942100  1.0  -0.0758
  C  C309  1  0.948410  0.902900  0.873700  1.0  0.6847
  C  C310  1  0.856400  0.941000  0.612100  1.0  0.1499
  C  C311  1  0.846800  0.025900  0.564200  1.0  -0.2141
  C  C312  1  0.866000  0.115800  0.582000  1.0  0.1716
  C  C313  1  0.894300  0.116700  0.647500  1.0  -0.2522
  C  C314  1  0.900900  0.029900  0.694800  1.0  0.1697
  C  C315  1  0.694700  0.213000  0.696200  1.0  0.1333
  C  C316  1  0.736100  0.205200  0.679300  1.0  -0.1559
  C  C317  1  0.759400  0.289600  0.658700  1.0  0.1212
  C  C318  1  0.738200  0.379900  0.657500  1.0  -0.2198
  C  C319  1  0.697300  0.380500  0.677000  1.0  0.1653
  C  C320  1  0.855800  0.209700  0.532900  1.0  -0.2022
  C  C321  1  0.810600  0.242200  0.547400  1.0  -0.1045
  C  C322  1  0.805300  0.279500  0.636900  1.0  -0.2796
  C  C323  1  0.584040  0.110000  0.943400  1.0  -0.1191
  C  C324  1  0.616200  0.045500  0.966700  1.0  -0.0621
  C  C325  1  0.610850  0.974900  0.028300  1.0  -0.0216
  C  C326  1  0.573330  0.968000  0.070800  1.0  -0.1015
  C  C327  1  0.542080  0.035100  0.050200  1.0  -0.0185
  C  C328  1  0.546700  0.106000  0.985400  1.0  -0.0584
  C  C329  1  0.590200  0.183900  0.873000  1.0  0.6975
  C  C330  1  0.566610  0.887000  0.136400  1.0  0.7096
  C  C331  1  0.524970  0.452200  0.560900  1.0  -0.1106
  C  C332  1  0.542180  0.516900  0.504000  1.0  -0.0142
  C  C333  1  0.481800  0.434200  0.557900  1.0  -0.074
  C  C334  1  0.551590  0.402900  0.626300  1.0  0.6841
  C  C335  1  0.643600  0.441000  0.887900  1.0  0.1506
  C  C336  1  0.653200  0.525900  0.935800  1.0  -0.2138
  C  C337  1  0.634000  0.615800  0.918000  1.0  0.1694
  C  C338  1  0.605700  0.616700  0.852500  1.0  -0.2535
  C  C339  1  0.599100  0.529900  0.805200  1.0  0.1711
  C  C340  1  0.805300  0.713000  0.803800  1.0  0.1322
  C  C341  1  0.763900  0.705200  0.820700  1.0  -0.1549
  C  C342  1  0.740600  0.789600  0.841300  1.0  0.12
  C  C343  1  0.761800  0.879900  0.842500  1.0  -0.2196
  C  C344  1  0.802700  0.880500  0.823000  1.0  0.1651
  C  C345  1  0.644200  0.709700  0.967100  1.0  -0.2018
  C  C346  1  0.689400  0.742200  0.952600  1.0  -0.1054
  C  C347  1  0.694700  0.779500  0.863100  1.0  -0.2776
  C  C348  1  0.084040  0.610000  0.943400  1.0  -0.1191
  C  C349  1  0.116200  0.545500  0.966700  1.0  -0.0621
  C  C350  1  0.110850  0.474900  0.028300  1.0  -0.0216
  C  C351  1  0.073330  0.468000  0.070800  1.0  -0.1015
  C  C352  1  0.042080  0.535100  0.050200  1.0  -0.0185
  C  C353  1  0.046700  0.606000  0.985400  1.0  -0.0584
  C  C354  1  0.090200  0.683900  0.873000  1.0  0.6975
  C  C355  1  0.066610  0.387000  0.136400  1.0  0.7096
  C  C356  1  0.024970  0.952200  0.560900  1.0  -0.1106
  C  C357  1  0.042180  0.016900  0.504000  1.0  -0.0142
  C  C358  1  0.981800  0.934200  0.557900  1.0  -0.074
  C  C359  1  0.051590  0.902900  0.626300  1.0  0.6841
  C  C360  1  0.143600  0.941000  0.887900  1.0  0.1506
  C  C361  1  0.153200  0.025900  0.935800  1.0  -0.2138
  C  C362  1  0.134000  0.115800  0.918000  1.0  0.1694
  C  C363  1  0.105700  0.116700  0.852500  1.0  -0.2535
  C  C364  1  0.099100  0.029900  0.805200  1.0  0.1711
  C  C365  1  0.305300  0.213000  0.803800  1.0  0.1322
  C  C366  1  0.263900  0.205200  0.820700  1.0  -0.1549
  C  C367  1  0.240600  0.289600  0.841300  1.0  0.12
  C  C368  1  0.261800  0.379900  0.842500  1.0  -0.2196
  C  C369  1  0.302700  0.380500  0.823000  1.0  0.1651
  C  C370  1  0.144200  0.209700  0.967100  1.0  -0.2018
  C  C371  1  0.189400  0.242200  0.952600  1.0  -0.1054
  C  C372  1  0.194700  0.279500  0.863100  1.0  -0.2776
  N  N373  1  0.616990  0.556600  0.321500  1.0  -0.342
  N  N374  1  0.824230  0.198900  0.301700  1.0  -0.3423
  N  N375  1  0.116990  0.056600  0.321500  1.0  -0.342
  N  N376  1  0.324230  0.698900  0.301700  1.0  -0.3423
  N  N377  1  0.383010  0.556600  0.178500  1.0  -0.3418
  N  N378  1  0.175770  0.198900  0.198300  1.0  -0.3401
  N  N379  1  0.883010  0.056600  0.178500  1.0  -0.3418
  N  N380  1  0.675770  0.698900  0.198300  1.0  -0.3401
  N  N381  1  0.383010  0.443400  0.678500  1.0  -0.3411
  N  N382  1  0.175770  0.801100  0.698300  1.0  -0.3401
  N  N383  1  0.883010  0.943400  0.678500  1.0  -0.3411
  N  N384  1  0.675770  0.301100  0.698300  1.0  -0.3401
  N  N385  1  0.616990  0.443400  0.821500  1.0  -0.3418
  N  N386  1  0.824230  0.801100  0.801700  1.0  -0.342
  N  N387  1  0.116990  0.943400  0.821500  1.0  -0.3418
  N  N388  1  0.324230  0.301100  0.801700  1.0  -0.342
  O  O389  1  0.558870  0.770500  0.342300  1.0  -0.7184
  O  O390  1  0.626260  0.801500  0.346700  1.0  -0.6111
  O  O391  1  0.531080  0.116500  0.667200  1.0  -0.646
  O  O392  1  0.596810  0.168000  0.654100  1.0  -0.6342
  O  O393  1  0.590670  0.586700  0.123000  1.0  -0.6044
  O  O394  1  0.535440  0.647100  0.185200  1.0  -0.7214
  O  O395  1  0.058870  0.270500  0.342300  1.0  -0.7184
  O  O396  1  0.126260  0.301500  0.346700  1.0  -0.6111
  O  O397  1  0.031080  0.616500  0.667200  1.0  -0.646
  O  O398  1  0.096810  0.668000  0.654100  1.0  -0.6342
  O  O399  1  0.090670  0.086700  0.123000  1.0  -0.6044
  O  O400  1  0.035440  0.147100  0.185200  1.0  -0.7214
  O  O401  1  0.441130  0.770500  0.157700  1.0  -0.7184
  O  O402  1  0.373740  0.801500  0.153300  1.0  -0.6125
  O  O403  1  0.468920  0.116500  0.832800  1.0  -0.6464
  O  O404  1  0.403190  0.168000  0.845900  1.0  -0.6344
  O  O405  1  0.409330  0.586700  0.377000  1.0  -0.6048
  O  O406  1  0.464560  0.647100  0.314800  1.0  -0.7202
  O  O407  1  0.941130  0.270500  0.157700  1.0  -0.7184
  O  O408  1  0.873740  0.301500  0.153300  1.0  -0.6125
  O  O409  1  0.968920  0.616500  0.832800  1.0  -0.6464
  O  O410  1  0.903190  0.668000  0.845900  1.0  -0.6344
  O  O411  1  0.909330  0.086700  0.377000  1.0  -0.6048
  O  O412  1  0.964560  0.147100  0.314800  1.0  -0.7202
  O  O413  1  0.441130  0.229500  0.657700  1.0  -0.7179
  O  O414  1  0.373740  0.198500  0.653300  1.0  -0.6106
  O  O415  1  0.468920  0.883500  0.332800  1.0  -0.6466
  O  O416  1  0.403190  0.832000  0.345900  1.0  -0.6348
  O  O417  1  0.409330  0.413300  0.877000  1.0  -0.6038
  O  O418  1  0.464560  0.352900  0.814800  1.0  -0.7209
  O  O419  1  0.941130  0.729500  0.657700  1.0  -0.7179
  O  O420  1  0.873740  0.698500  0.653300  1.0  -0.6106
  O  O421  1  0.968920  0.383500  0.332800  1.0  -0.6466
  O  O422  1  0.903190  0.332000  0.345900  1.0  -0.6348
  O  O423  1  0.909330  0.913300  0.877000  1.0  -0.6038
  O  O424  1  0.964560  0.852900  0.814800  1.0  -0.7209
  O  O425  1  0.558870  0.229500  0.842300  1.0  -0.718
  O  O426  1  0.626260  0.198500  0.846700  1.0  -0.6117
  O  O427  1  0.531080  0.883500  0.167200  1.0  -0.6464
  O  O428  1  0.596810  0.832000  0.154100  1.0  -0.6347
  O  O429  1  0.590670  0.413300  0.623000  1.0  -0.604
  O  O430  1  0.535440  0.352900  0.685200  1.0  -0.7216
  O  O431  1  0.058870  0.729500  0.842300  1.0  -0.718
  O  O432  1  0.126260  0.698500  0.846700  1.0  -0.6117
  O  O433  1  0.031080  0.383500  0.167200  1.0  -0.6464
  O  O434  1  0.096810  0.332000  0.154100  1.0  -0.6347
  O  O435  1  0.090670  0.913300  0.623000  1.0  -0.604
  O  O436  1  0.035440  0.852900  0.685200  1.0  -0.7216
