# generated using pymatgen
data_Mn3H26C24N6O19
_symmetry_space_group_name_H-M   'P 1'
_cell_length_a   9.55650000
_cell_length_b   12.47060000
_cell_length_c   22.75710000
_cell_angle_alpha   90.00000000
_cell_angle_beta   101.59400000
_cell_angle_gamma   90.00000000
_symmetry_Int_Tables_number   1
_chemical_formula_structural   Mn3H26C24N6O19
_chemical_formula_sum   'Mn6 H52 C48 N12 O38'
_cell_volume   2656.74742226
_cell_formula_units_Z   2
loop_
 _symmetry_equiv_pos_site_id
 _symmetry_equiv_pos_as_xyz
  1  'x, y, z'
loop_
 _atom_site_type_symbol
 _atom_site_label
 _atom_site_symmetry_multiplicity
 _atom_site_fract_x
 _atom_site_fract_y
 _atom_site_fract_z
 _atom_site_occupancy
 _atom_site_charge
  Mn  Mn1  1  0.942170  0.193490  0.309210  1.0  1.1808
  Mn  Mn2  1  0.615080  0.356490  0.282710  1.0  1.1804
  Mn  Mn3  1  0.217390  0.330130  0.273970  1.0  1.1403
  Mn  Mn4  1  0.442170  0.806510  0.809210  1.0  1.1808
  Mn  Mn5  1  0.115080  0.643510  0.782710  1.0  1.1817
  Mn  Mn6  1  0.717390  0.669870  0.773970  1.0  1.1405
  H  H7  1  0.416200  0.194200  0.259500  1.0  0.4524
  H  H8  1  0.443100  0.219000  0.319400  1.0  0.4558
  H  H9  1  0.149300  0.953200  0.138300  1.0  0.0924
  H  H10  1  0.200900  0.881300  0.197000  1.0  0.0919
  H  H11  1  0.977600  0.038200  0.186200  1.0  0.1438
  H  H12  1  0.033700  0.968300  0.245000  1.0  0.1361
  H  H13  1  0.745800  0.570800  0.186100  1.0  0.0879
  H  H14  1  0.826500  0.637600  0.243000  1.0  0.0982
  H  H15  1  0.044100  0.549800  0.236800  1.0  0.1356
  H  H16  1  0.961800  0.481900  0.180600  1.0  0.1371
  H  H17  1  0.722100  0.870000  0.001800  1.0  0.0945
  H  H18  1  0.634000  0.764200  0.011400  1.0  0.0906
  H  H19  1  0.890500  0.769800  0.965900  1.0  0.1415
  H  H20  1  0.821700  0.660300  0.982900  1.0  0.1442
  H  H21  1  0.647000  0.160100  0.495300  1.0  0.0958
  H  H22  1  0.725800  0.050900  0.483700  1.0  0.0997
  H  H23  1  0.839600  0.255200  0.459800  1.0  0.1378
  H  H24  1  0.886700  0.141500  0.437800  1.0  0.1337
  H  H25  1  0.039800  0.362300  0.686000  1.0  0.0833
  H  H26  1  0.915900  0.405800  0.633600  1.0  0.1028
  H  H27  1  0.865200  0.310000  0.739700  1.0  0.1352
  H  H28  1  0.745600  0.362300  0.688100  1.0  0.1281
  H  H29  1  0.196600  0.979100  0.608700  1.0  0.087
  H  H30  1  0.221500  0.026300  0.675500  1.0  0.0867
  H  H31  1  0.034000  0.861500  0.625900  1.0  0.1412
  H  H32  1  0.008600  0.924000  0.684000  1.0  0.1411
  H  H33  1  0.916200  0.805800  0.759500  1.0  0.4543
  H  H34  1  0.943100  0.781000  0.819400  1.0  0.4558
  H  H35  1  0.649300  0.046800  0.638300  1.0  0.0921
  H  H36  1  0.700900  0.118700  0.697000  1.0  0.0922
  H  H37  1  0.477600  0.961800  0.686200  1.0  0.1442
  H  H38  1  0.533700  0.031700  0.745000  1.0  0.1354
  H  H39  1  0.245800  0.429200  0.686100  1.0  0.0878
  H  H40  1  0.326500  0.362400  0.743000  1.0  0.0986
  H  H41  1  0.544100  0.450200  0.736800  1.0  0.1364
  H  H42  1  0.461800  0.518100  0.680600  1.0  0.1366
  H  H43  1  0.222100  0.130000  0.501800  1.0  0.0932
  H  H44  1  0.134000  0.235800  0.511400  1.0  0.0919
  H  H45  1  0.390500  0.230200  0.465900  1.0  0.1415
  H  H46  1  0.321700  0.339700  0.482900  1.0  0.145
  H  H47  1  0.147000  0.839900  0.995300  1.0  0.0954
  H  H48  1  0.225800  0.949100  0.983700  1.0  0.1018
  H  H49  1  0.339600  0.744800  0.959800  1.0  0.1387
  H  H50  1  0.386700  0.858500  0.937800  1.0  0.1334
  H  H51  1  0.539800  0.637700  0.186000  1.0  0.0824
  H  H52  1  0.415900  0.594200  0.133600  1.0  0.1033
  H  H53  1  0.365200  0.690000  0.239700  1.0  0.1346
  H  H54  1  0.245600  0.637700  0.188100  1.0  0.1278
  H  H55  1  0.696600  0.020900  0.108700  1.0  0.0882
  H  H56  1  0.721500  0.973700  0.175500  1.0  0.0876
  H  H57  1  0.534000  0.138500  0.125900  1.0  0.1425
  H  H58  1  0.508600  0.076000  0.184000  1.0  0.1411
  C  C59  1  0.977020  0.762300  0.188420  1.0  0.6306
  C  C60  1  0.791540  0.694900  0.107540  1.0  0.5915
  C  C61  1  0.927840  0.855200  0.092640  1.0  0.6167
  C  C62  1  0.117600  0.918500  0.172500  1.0  0.0646
  C  C63  1  0.063400  0.004100  0.210700  1.0  -0.4039
  C  C64  1  0.168200  0.089200  0.234100  1.0  0.7752
  C  C65  1  0.838300  0.603700  0.205000  1.0  0.0684
  C  C66  1  0.951200  0.517200  0.218400  1.0  -0.4142
  C  C67  1  0.909240  0.434000  0.261140  1.0  0.8054
  C  C68  1  0.730970  0.793000  0.012470  1.0  0.0709
  C  C69  1  0.799100  0.734000  0.967900  1.0  -0.4075
  C  C70  1  0.710710  0.727200  0.905310  1.0  0.7956
  C  C71  1  0.826700  0.229500  0.586000  1.0  0.622
  C  C72  1  0.037910  0.171700  0.657610  1.0  0.5836
  C  C73  1  0.945670  0.065300  0.567770  1.0  0.5994
  C  C74  1  0.740770  0.127900  0.493570  1.0  0.0269
  C  C75  1  0.803900  0.183700  0.444900  1.0  -0.4005
  C  C76  1  0.702610  0.196900  0.387810  1.0  0.7467
  C  C77  1  0.939400  0.350600  0.665300  1.0  0.0681
  C  C78  1  0.846900  0.367200  0.708900  1.0  -0.3767
  C  C79  1  0.873600  0.475900  0.739400  1.0  0.7475
  C  C80  1  0.148300  0.998100  0.641900  1.0  0.0797
  C  C81  1  0.082800  0.901100  0.661900  1.0  -0.3959
  C  C82  1  0.182400  0.824500  0.701300  1.0  0.7875
  C  C83  1  0.477020  0.237700  0.688420  1.0  0.6304
  C  C84  1  0.291540  0.305100  0.607540  1.0  0.592
  C  C85  1  0.427840  0.144800  0.592640  1.0  0.6167
  C  C86  1  0.617600  0.081500  0.672500  1.0  0.0647
  C  C87  1  0.563400  0.995900  0.710700  1.0  -0.4027
  C  C88  1  0.668200  0.910800  0.734100  1.0  0.775
  C  C89  1  0.338300  0.396300  0.705000  1.0  0.0686
  C  C90  1  0.451200  0.482800  0.718400  1.0  -0.4146
  C  C91  1  0.409240  0.566000  0.761140  1.0  0.8056
  C  C92  1  0.230970  0.207000  0.512470  1.0  0.0708
  C  C93  1  0.299100  0.266000  0.467900  1.0  -0.4047
  C  C94  1  0.210710  0.272800  0.405310  1.0  0.7967
  C  C95  1  0.326700  0.770500  0.086000  1.0  0.6219
  C  C96  1  0.537910  0.828300  0.157610  1.0  0.5844
  C  C97  1  0.445670  0.934700  0.067770  1.0  0.5908
  C  C98  1  0.240770  0.872100  0.993570  1.0  0.0211
  C  C99  1  0.303900  0.816300  0.944900  1.0  -0.4009
  C  C100  1  0.202610  0.803100  0.887810  1.0  0.7466
  C  C101  1  0.439400  0.649400  0.165300  1.0  0.0681
  C  C102  1  0.346900  0.632800  0.208900  1.0  -0.375
  C  C103  1  0.373600  0.524100  0.239400  1.0  0.7465
  C  C104  1  0.648300  0.001900  0.141900  1.0  0.0794
  C  C105  1  0.582800  0.098900  0.161900  1.0  -0.3952
  C  C106  1  0.682400  0.175500  0.201300  1.0  0.7871
  N  N107  1  0.005530  0.840300  0.150030  1.0  -0.3123
  N  N108  1  0.876590  0.686300  0.164690  1.0  -0.3068
  N  N109  1  0.818700  0.780700  0.073800  1.0  -0.3235
  N  N110  1  0.838950  0.139400  0.552950  1.0  -0.3167
  N  N111  1  0.928790  0.244200  0.636590  1.0  -0.3294
  N  N112  1  0.040430  0.082000  0.621430  1.0  -0.3353
  N  N113  1  0.505530  0.159700  0.650030  1.0  -0.3126
  N  N114  1  0.376590  0.313700  0.664690  1.0  -0.3057
  N  N115  1  0.318700  0.219300  0.573800  1.0  -0.3237
  N  N116  1  0.338950  0.860600  0.052950  1.0  -0.3168
  N  N117  1  0.428790  0.755800  0.136590  1.0  -0.3287
  N  N118  1  0.540430  0.918000  0.121430  1.0  -0.3351
  O  O119  1  0.038250  0.757600  0.240250  1.0  -0.5029
  O  O120  1  0.697700  0.631900  0.088600  1.0  -0.5011
  O  O121  1  0.950540  0.928600  0.060440  1.0  -0.5111
  O  O122  1  0.128370  0.161400  0.267370  1.0  -0.6965
  O  O123  1  0.289780  0.086400  0.221480  1.0  -0.5919
  O  O124  1  0.799580  0.448500  0.280980  1.0  -0.6156
  O  O125  1  0.990130  0.352200  0.273230  1.0  -0.6962
  O  O126  1  0.761180  0.671500  0.868880  1.0  -0.609
  O  O127  1  0.592330  0.777400  0.893430  1.0  -0.653
  O  O128  1  0.731520  0.294100  0.569720  1.0  -0.5253
  O  O129  1  0.123620  0.186400  0.701320  1.0  -0.4802
  O  O130  1  0.960680  0.989200  0.535580  1.0  -0.5131
  O  O131  1  0.749410  0.236100  0.343210  1.0  -0.7106
  O  O132  1  0.574080  0.171800  0.385380  1.0  -0.5846
  O  O133  1  0.982560  0.526900  0.731860  1.0  -0.613
  O  O134  1  0.784520  0.509000  0.769920  1.0  -0.6208
  O  O135  1  0.297970  0.862800  0.730170  1.0  -0.625
  O  O136  1  0.139740  0.730800  0.705440  1.0  -0.6288
  O  O137  1  0.427390  0.245800  0.284390  1.0  -0.8552
  O  O138  1  0.538250  0.242400  0.740250  1.0  -0.5029
  O  O139  1  0.197700  0.368100  0.588600  1.0  -0.5017
  O  O140  1  0.450540  0.071400  0.560440  1.0  -0.5084
  O  O141  1  0.628370  0.838600  0.767370  1.0  -0.696
  O  O142  1  0.789780  0.913600  0.721480  1.0  -0.5914
  O  O143  1  0.299580  0.551500  0.780980  1.0  -0.6159
  O  O144  1  0.490130  0.647800  0.773230  1.0  -0.6959
  O  O145  1  0.261180  0.328500  0.368880  1.0  -0.61
  O  O146  1  0.092330  0.222600  0.393430  1.0  -0.6534
  O  O147  1  0.231520  0.705900  0.069720  1.0  -0.5252
  O  O148  1  0.623620  0.813600  0.201320  1.0  -0.4803
  O  O149  1  0.460680  0.010800  0.035580  1.0  -0.5139
  O  O150  1  0.249410  0.763900  0.843210  1.0  -0.7111
  O  O151  1  0.074080  0.828200  0.885380  1.0  -0.5848
  O  O152  1  0.482560  0.473100  0.231860  1.0  -0.613
  O  O153  1  0.284520  0.491000  0.269920  1.0  -0.6214
  O  O154  1  0.797970  0.137200  0.230170  1.0  -0.6246
  O  O155  1  0.639740  0.269200  0.205440  1.0  -0.6276
  O  O156  1  0.927390  0.754200  0.784390  1.0  -0.8571
