# generated using pymatgen
data_BaH8C8N4O5
_symmetry_space_group_name_H-M   'P 1'
_cell_length_a   9.52610000
_cell_length_b   15.77000000
_cell_length_c   4.31280000
_cell_angle_alpha   90.00000000
_cell_angle_beta   97.76700000
_cell_angle_gamma   90.00000000
_symmetry_Int_Tables_number   1
_chemical_formula_structural   BaH8C8N4O5
_chemical_formula_sum   'Ba2 H16 C16 N8 O10'
_cell_volume   641.95335609
_cell_formula_units_Z   2
loop_
 _symmetry_equiv_pos_site_id
 _symmetry_equiv_pos_as_xyz
  1  'x, y, z'
loop_
 _atom_site_type_symbol
 _atom_site_label
 _atom_site_symmetry_multiplicity
 _atom_site_fract_x
 _atom_site_fract_y
 _atom_site_fract_z
 _atom_site_occupancy
 _atom_site_charge
  Ba  Ba1  1  0.500000  0.500000  0.500000  1.0  1.6163
  Ba  Ba2  1  0.000000  0.000000  0.500000  1.0  1.6163
  H  H3  1  0.746000  0.544000  0.062000  1.0  0.4082
  H  H4  1  0.536000  0.715000  0.261000  1.0  0.2928
  H  H5  1  0.209900  0.683500  0.608900  1.0  0.0637
  H  H6  1  0.518300  0.851400  0.222100  1.0  0.0506
  H  H7  1  0.246000  0.044000  0.062000  1.0  0.408
  H  H8  1  0.036000  0.215000  0.261000  1.0  0.2928
  H  H9  1  0.709900  0.183500  0.608900  1.0  0.0637
  H  H10  1  0.018300  0.351400  0.222100  1.0  0.0506
  H  H11  1  0.746000  0.456000  0.062000  1.0  0.4075
  H  H12  1  0.536000  0.285000  0.261000  1.0  0.292
  H  H13  1  0.209900  0.316500  0.608900  1.0  0.0642
  H  H14  1  0.518300  0.148600  0.222100  1.0  0.0507
  H  H15  1  0.246000  0.956000  0.062000  1.0  0.4073
  H  H16  1  0.036000  0.785000  0.261000  1.0  0.292
  H  H17  1  0.709900  0.816500  0.608900  1.0  0.0642
  H  H18  1  0.018300  0.648600  0.222100  1.0  0.0507
  C  C19  1  0.382800  0.678800  0.934600  1.0  0.5085
  C  C20  1  0.274000  0.717300  0.735400  1.0  -0.1507
  C  C21  1  0.258500  0.805800  0.720700  1.0  0.5412
  C  C22  1  0.454700  0.817500  0.094500  1.0  0.1672
  C  C23  1  0.882800  0.178800  0.934600  1.0  0.5085
  C  C24  1  0.774000  0.217300  0.735400  1.0  -0.1507
  C  C25  1  0.758500  0.305800  0.720700  1.0  0.5412
  C  C26  1  0.954700  0.317500  0.094500  1.0  0.1672
  C  C27  1  0.382800  0.321200  0.934600  1.0  0.5072
  C  C28  1  0.274000  0.282700  0.735400  1.0  -0.1525
  C  C29  1  0.258500  0.194200  0.720700  1.0  0.5412
  C  C30  1  0.454700  0.182500  0.094500  1.0  0.1679
  C  C31  1  0.882800  0.821200  0.934600  1.0  0.5072
  C  C32  1  0.774000  0.782700  0.735400  1.0  -0.1525
  C  C33  1  0.758500  0.694200  0.720700  1.0  0.5412
  C  C34  1  0.954700  0.682500  0.094500  1.0  0.1679
  N  N35  1  0.472200  0.733700  0.117100  1.0  -0.3388
  N  N36  1  0.355800  0.855600  0.908600  1.0  -0.3996
  N  N37  1  0.972200  0.233700  0.117100  1.0  -0.3388
  N  N38  1  0.855800  0.355600  0.908600  1.0  -0.3996
  N  N39  1  0.472200  0.266300  0.117100  1.0  -0.3386
  N  N40  1  0.355800  0.144400  0.908600  1.0  -0.4006
  N  N41  1  0.972200  0.766300  0.117100  1.0  -0.3386
  N  N42  1  0.855800  0.644400  0.908600  1.0  -0.4006
  O  O43  1  0.407400  0.600000  0.967100  1.0  -0.7537
  O  O44  1  0.160500  0.844700  0.548500  1.0  -0.708
  O  O45  1  0.907400  0.100000  0.967100  1.0  -0.7537
  O  O46  1  0.660500  0.344700  0.548500  1.0  -0.708
  O  O47  1  0.407400  0.400000  0.967100  1.0  -0.7582
  O  O48  1  0.160500  0.155300  0.548500  1.0  -0.7089
  O  O49  1  0.907400  0.900000  0.967100  1.0  -0.7582
  O  O50  1  0.660500  0.655300  0.548500  1.0  -0.7089
  O  O51  1  0.694500  0.500000  0.070300  1.0  -0.9693
  O  O52  1  0.194500  0.000000  0.070300  1.0  -0.9693
