# generated using pymatgen
data_CaH8C14SO6
_symmetry_space_group_name_H-M   'P 1'
_cell_length_a   5.56730000
_cell_length_b   11.82140000
_cell_length_c   22.76030000
_cell_angle_alpha   100.35600000
_cell_angle_beta   90.00000000
_cell_angle_gamma   90.00000000
_symmetry_Int_Tables_number   1
_chemical_formula_structural   CaH8C14SO6
_chemical_formula_sum   'Ca4 H32 C56 S4 O24'
_cell_volume   1473.52843675
_cell_formula_units_Z   4
loop_
 _symmetry_equiv_pos_site_id
 _symmetry_equiv_pos_as_xyz
  1  'x, y, z'
loop_
 _atom_site_type_symbol
 _atom_site_label
 _atom_site_symmetry_multiplicity
 _atom_site_fract_x
 _atom_site_fract_y
 _atom_site_fract_z
 _atom_site_occupancy
 _atom_site_charge
  Ca  Ca1  1  0.755850  0.636820  0.722870  1.0  1.5939
  Ca  Ca2  1  0.255850  0.863180  0.777130  1.0  1.5947
  Ca  Ca3  1  0.244150  0.363180  0.277130  1.0  1.595
  Ca  Ca4  1  0.744150  0.136820  0.222870  1.0  1.5946
  H  H5  1  0.199600  0.194500  0.618900  1.0  0.1033
  H  H6  1  0.124900  0.231800  0.406100  1.0  0.1103
  H  H7  1  0.554100  0.420600  0.537200  1.0  0.1018
  H  H8  1  0.562300  0.338800  0.672900  1.0  0.1098
  H  H9  1  0.478300  0.183900  0.719700  1.0  0.0846
  H  H10  1  0.118600  0.043900  0.669100  1.0  0.1076
  H  H11  1  0.206600  0.275100  0.507800  1.0  0.1054
  H  H12  1  0.471300  0.373100  0.435800  1.0  0.0936
  H  H13  1  0.699600  0.305500  0.881100  1.0  0.1033
  H  H14  1  0.624900  0.268200  0.093900  1.0  0.1105
  H  H15  1  0.054100  0.079400  0.962800  1.0  0.1016
  H  H16  1  0.062300  0.161200  0.827100  1.0  0.1102
  H  H17  1  0.978300  0.316100  0.780300  1.0  0.085
  H  H18  1  0.618600  0.456100  0.830900  1.0  0.1077
  H  H19  1  0.706600  0.224900  0.992200  1.0  0.1054
  H  H20  1  0.971300  0.126900  0.064200  1.0  0.0938
  H  H21  1  0.800400  0.805500  0.381100  1.0  0.1029
  H  H22  1  0.875100  0.768200  0.593900  1.0  0.1104
  H  H23  1  0.445900  0.579400  0.462800  1.0  0.1016
  H  H24  1  0.437700  0.661200  0.327100  1.0  0.1104
  H  H25  1  0.521700  0.816100  0.280300  1.0  0.0848
  H  H26  1  0.881400  0.956100  0.330900  1.0  0.1075
  H  H27  1  0.793400  0.724900  0.492200  1.0  0.1056
  H  H28  1  0.528700  0.626900  0.564200  1.0  0.0941
  H  H29  1  0.300400  0.694500  0.118900  1.0  0.103
  H  H30  1  0.375100  0.731800  0.906100  1.0  0.1098
  H  H31  1  0.945900  0.920600  0.037200  1.0  0.1018
  H  H32  1  0.937700  0.838800  0.172900  1.0  0.1097
  H  H33  1  0.021700  0.683900  0.219700  1.0  0.0848
  H  H34  1  0.381400  0.543900  0.169100  1.0  0.1072
  H  H35  1  0.293400  0.775100  0.007800  1.0  0.1053
  H  H36  1  0.028700  0.873100  0.935800  1.0  0.0938
  C  C37  1  0.741400  0.004540  0.734890  1.0  0.7597
  C  C38  1  0.739300  0.276740  0.344930  1.0  0.7534
  C  C39  1  0.890800  0.355060  0.531360  1.0  -0.2085
  C  C40  1  0.889600  0.281060  0.642190  1.0  -0.2261
  C  C41  1  0.056700  0.192960  0.639960  1.0  -0.045
  C  C42  1  0.011400  0.270250  0.432280  1.0  -0.0506
  C  C43  1  0.792700  0.301280  0.410690  1.0  -0.1159
  C  C44  1  0.668700  0.383440  0.510800  1.0  -0.0344
  C  C45  1  0.672800  0.279490  0.671900  1.0  -0.0203
  C  C46  1  0.624400  0.187240  0.700250  1.0  -0.0452
  C  C47  1  0.007100  0.102620  0.669600  1.0  -0.0526
  C  C48  1  0.061000  0.296550  0.493050  1.0  -0.0375
  C  C49  1  0.791700  0.099820  0.699940  1.0  -0.1114
  C  C50  1  0.620400  0.355460  0.450210  1.0  -0.0415
  C  C51  1  0.241400  0.495460  0.765110  1.0  0.7611
  C  C52  1  0.239300  0.223260  0.155070  1.0  0.7538
  C  C53  1  0.390800  0.144940  0.968640  1.0  -0.2095
  C  C54  1  0.389600  0.218940  0.857810  1.0  -0.2264
  C  C55  1  0.556700  0.307040  0.860040  1.0  -0.0434
  C  C56  1  0.511400  0.229750  0.067720  1.0  -0.0504
  C  C57  1  0.292700  0.198720  0.089310  1.0  -0.1159
  C  C58  1  0.168700  0.116560  0.989200  1.0  -0.0348
  C  C59  1  0.172800  0.220510  0.828100  1.0  -0.0211
  C  C60  1  0.124400  0.312760  0.799750  1.0  -0.0442
  C  C61  1  0.507100  0.397380  0.830400  1.0  -0.0504
  C  C62  1  0.561000  0.203450  0.006950  1.0  -0.0364
  C  C63  1  0.291700  0.400180  0.800060  1.0  -0.1114
  C  C64  1  0.120400  0.144540  0.049790  1.0  -0.0433
  C  C65  1  0.258600  0.995460  0.265110  1.0  0.7613
  C  C66  1  0.260700  0.723260  0.655070  1.0  0.7535
  C  C67  1  0.109200  0.644940  0.468640  1.0  -0.2095
  C  C68  1  0.110400  0.718940  0.357810  1.0  -0.2267
  C  C69  1  0.943300  0.807040  0.360040  1.0  -0.0442
  C  C70  1  0.988600  0.729750  0.567720  1.0  -0.051
  C  C71  1  0.207300  0.698720  0.589310  1.0  -0.1156
  C  C72  1  0.331300  0.616560  0.489200  1.0  -0.0349
  C  C73  1  0.327200  0.720510  0.328100  1.0  -0.021
  C  C74  1  0.375600  0.812760  0.299750  1.0  -0.0459
  C  C75  1  0.992900  0.897380  0.330400  1.0  -0.0507
  C  C76  1  0.939000  0.703450  0.506950  1.0  -0.037
  C  C77  1  0.208300  0.900180  0.300060  1.0  -0.1116
  C  C78  1  0.379600  0.644540  0.549790  1.0  -0.0438
  C  C79  1  0.758600  0.504540  0.234890  1.0  0.7601
  C  C80  1  0.760700  0.776740  0.844930  1.0  0.7526
  C  C81  1  0.609200  0.855060  0.031360  1.0  -0.2086
  C  C82  1  0.610400  0.781060  0.142190  1.0  -0.2265
  C  C83  1  0.443300  0.692960  0.139960  1.0  -0.0437
  C  C84  1  0.488600  0.770250  0.932280  1.0  -0.0501
  C  C85  1  0.707300  0.801280  0.910690  1.0  -0.1156
  C  C86  1  0.831300  0.883440  0.010800  1.0  -0.0347
  C  C87  1  0.827200  0.779490  0.171900  1.0  -0.02
  C  C88  1  0.875600  0.687240  0.200250  1.0  -0.0473
  C  C89  1  0.492900  0.602620  0.169600  1.0  -0.0507
  C  C90  1  0.439000  0.796550  0.993050  1.0  -0.0374
  C  C91  1  0.708300  0.599820  0.199940  1.0  -0.1115
  C  C92  1  0.879600  0.855460  0.950210  1.0  -0.0428
  S  S93  1  0.963630  0.398350  0.607680  1.0  1.1504
  S  S94  1  0.463630  0.101650  0.892320  1.0  1.1501
  S  S95  1  0.036370  0.601650  0.392320  1.0  1.1508
  S  S96  1  0.536370  0.898350  0.107680  1.0  1.1511
  O  O97  1  0.805000  0.493100  0.630960  1.0  -0.6248
  O  O98  1  0.915200  0.262260  0.309360  1.0  -0.7781
  O  O99  1  0.218900  0.415340  0.611760  1.0  -0.5341
  O  O100  1  0.525700  0.984230  0.743780  1.0  -0.7316
  O  O101  1  0.919100  0.956950  0.752850  1.0  -0.7141
  O  O102  1  0.525100  0.267580  0.328320  1.0  -0.7057
  O  O103  1  0.305000  0.006900  0.869040  1.0  -0.6248
  O  O104  1  0.415200  0.237740  0.190640  1.0  -0.7769
  O  O105  1  0.718900  0.084660  0.888240  1.0  -0.5341
  O  O106  1  0.025700  0.515770  0.756220  1.0  -0.7311
  O  O107  1  0.419100  0.543050  0.747150  1.0  -0.7139
  O  O108  1  0.025100  0.232420  0.171680  1.0  -0.7059
  O  O109  1  0.195000  0.506900  0.369040  1.0  -0.6249
  O  O110  1  0.084800  0.737740  0.690640  1.0  -0.7766
  O  O111  1  0.781100  0.584660  0.388240  1.0  -0.5326
  O  O112  1  0.474300  0.015770  0.256220  1.0  -0.7317
  O  O113  1  0.080900  0.043050  0.247150  1.0  -0.7139
  O  O114  1  0.474900  0.732420  0.671680  1.0  -0.7052
  O  O115  1  0.695000  0.993100  0.130960  1.0  -0.6251
  O  O116  1  0.584800  0.762260  0.809360  1.0  -0.7777
  O  O117  1  0.281100  0.915340  0.111760  1.0  -0.5325
  O  O118  1  0.974300  0.484230  0.243780  1.0  -0.7315
  O  O119  1  0.580900  0.456950  0.252850  1.0  -0.7144
  O  O120  1  0.974900  0.767580  0.828320  1.0  -0.7049
