# generated using pymatgen
data_Cd2H45C45N18ClO6
_symmetry_space_group_name_H-M   'P 1'
_cell_length_a   9.63980000
_cell_length_b   13.06500000
_cell_length_c   21.05400000
_cell_angle_alpha   102.46000000
_cell_angle_beta   102.39000000
_cell_angle_gamma   99.52000000
_symmetry_Int_Tables_number   1
_chemical_formula_structural   Cd2H45C45N18ClO6
_chemical_formula_sum   'Cd4 H90 C90 N36 Cl2 O12'
_cell_volume   2465.78659124
_cell_formula_units_Z   2
loop_
 _symmetry_equiv_pos_site_id
 _symmetry_equiv_pos_as_xyz
  1  'x, y, z'
loop_
 _atom_site_type_symbol
 _atom_site_label
 _atom_site_symmetry_multiplicity
 _atom_site_fract_x
 _atom_site_fract_y
 _atom_site_fract_z
 _atom_site_occupancy
 _atom_site_charge
  Cd  Cd1  1  0.080260  0.830520  0.104200  1.0  0.939
  Cd  Cd2  1  0.832870  0.107450  0.544360  1.0  0.9853
  Cd  Cd3  1  0.919740  0.169480  0.895800  1.0  0.9391
  Cd  Cd4  1  0.167130  0.892550  0.455640  1.0  0.9848
  H  H5  1  0.542600  0.734800  0.171200  1.0  0.1013
  H  H6  1  0.753700  0.725900  0.244100  1.0  0.1017
  H  H7  1  0.466700  0.952000  0.318000  1.0  0.099
  H  H8  1  0.766300  0.646900  0.107200  1.0  0.0964
  H  H9  1  0.161200  0.619800  0.172000  1.0  0.103
  H  H10  1  0.059100  0.402500  0.178600  1.0  0.0829
  H  H11  1  0.092300  0.484500  0.249100  1.0  0.084
  H  H12  1  0.998300  0.562300  0.310200  1.0  0.1105
  H  H13  1  0.853400  0.569600  0.331600  1.0  0.1227
  H  H14  1  0.972200  0.523700  0.373100  1.0  0.1168
  H  H15  1  0.929000  0.205200  0.115000  1.0  0.1229
  H  H16  1  0.768100  0.205200  0.080300  1.0  0.1188
  H  H17  1  0.890100  0.310300  0.099100  1.0  0.1173
  H  H18  1  0.553100  0.204600  0.318600  1.0  0.1089
  H  H19  1  0.507500  0.126100  0.246200  1.0  0.1186
  H  H20  1  0.638900  0.115000  0.300900  1.0  0.1215
  H  H21  1  0.606400  0.359400  0.359600  1.0  0.087
  H  H22  1  0.732600  0.462400  0.380500  1.0  0.0957
  H  H23  1  0.637300  0.248800  0.447200  1.0  0.1008
  H  H24  1  0.055700  0.319100  0.512700  1.0  0.0823
  H  H25  1  0.642100  0.096300  0.109900  1.0  0.1021
  H  H26  1  0.582100  0.063400  0.167900  1.0  0.1097
  H  H27  1  0.806100  0.971500  0.073900  1.0  0.1006
  H  H28  1  0.973500  0.922400  0.245600  1.0  0.0812
  H  H29  1  0.914100  0.582200  0.985300  1.0  0.0843
  H  H30  1  0.845000  0.858700  0.967100  1.0  0.1088
  H  H31  1  0.547800  0.694400  0.855300  1.0  0.1062
  H  H32  1  0.650200  0.800400  0.854500  1.0  0.1013
  H  H33  1  0.511200  0.432300  0.781000  1.0  0.1216
  H  H34  1  0.510700  0.539700  0.831400  1.0  0.1195
  H  H35  1  0.387500  0.494000  0.764000  1.0  0.1182
  H  H36  1  0.776900  0.889400  0.764300  1.0  0.1174
  H  H37  1  0.833800  0.857300  0.831100  1.0  0.112
  H  H38  1  0.924000  0.851400  0.777200  1.0  0.101
  H  H39  1  0.764600  0.493900  0.582100  1.0  0.1266
  H  H40  1  0.593900  0.465200  0.559500  1.0  0.1062
  H  H41  1  0.680100  0.575700  0.555900  1.0  0.12
  H  H42  1  0.445300  0.401400  0.604200  1.0  0.1018
  H  H43  1  0.429900  0.382200  0.673700  1.0  0.0839
  H  H44  1  0.523300  0.228500  0.551800  1.0  0.0989
  H  H45  1  0.844500  0.235800  0.698900  1.0  0.0833
  H  H46  1  0.882700  0.681700  0.620200  1.0  0.0825
  H  H47  1  0.950400  0.769700  0.688500  1.0  0.1028
  H  H48  1  0.980300  0.919000  0.620500  1.0  0.107
  H  H49  1  0.569500  0.911700  0.558600  1.0  0.0866
  H  H50  1  0.457400  0.265200  0.828800  1.0  0.1006
  H  H51  1  0.246300  0.274100  0.755900  1.0  0.102
  H  H52  1  0.533300  0.048000  0.682000  1.0  0.0988
  H  H53  1  0.233700  0.353100  0.892800  1.0  0.0948
  H  H54  1  0.838800  0.380200  0.828000  1.0  0.1021
  H  H55  1  0.940900  0.597500  0.821400  1.0  0.0834
  H  H56  1  0.907700  0.515500  0.750900  1.0  0.0843
  H  H57  1  0.001700  0.437700  0.689800  1.0  0.1109
  H  H58  1  0.146600  0.430400  0.668400  1.0  0.123
  H  H59  1  0.027800  0.476300  0.626900  1.0  0.117
  H  H60  1  0.071000  0.794800  0.885000  1.0  0.1214
  H  H61  1  0.231900  0.794800  0.919700  1.0  0.1201
  H  H62  1  0.109900  0.689700  0.900900  1.0  0.1168
  H  H63  1  0.446900  0.795400  0.681400  1.0  0.1082
  H  H64  1  0.492500  0.873900  0.753800  1.0  0.1186
  H  H65  1  0.361100  0.885000  0.699100  1.0  0.119
  H  H66  1  0.393600  0.640600  0.640400  1.0  0.0896
  H  H67  1  0.267400  0.537600  0.619500  1.0  0.0965
  H  H68  1  0.362700  0.751200  0.552800  1.0  0.1009
  H  H69  1  0.944300  0.680900  0.487300  1.0  0.0827
  H  H70  1  0.357900  0.903700  0.890100  1.0  0.1013
  H  H71  1  0.417900  0.936600  0.832100  1.0  0.1091
  H  H72  1  0.193900  0.028500  0.926100  1.0  0.101
  H  H73  1  0.026500  0.077600  0.754400  1.0  0.0811
  H  H74  1  0.085900  0.417800  0.014700  1.0  0.0849
  H  H75  1  0.155000  0.141300  0.032900  1.0  0.1106
  H  H76  1  0.452200  0.305600  0.144700  1.0  0.1057
  H  H77  1  0.349800  0.199600  0.145500  1.0  0.1017
  H  H78  1  0.488800  0.567700  0.219000  1.0  0.1226
  H  H79  1  0.489300  0.460300  0.168600  1.0  0.1185
  H  H80  1  0.612500  0.506000  0.236000  1.0  0.1175
  H  H81  1  0.223100  0.110600  0.235700  1.0  0.117
  H  H82  1  0.166200  0.142700  0.168900  1.0  0.1117
  H  H83  1  0.076000  0.148600  0.222800  1.0  0.0999
  H  H84  1  0.235400  0.506100  0.417900  1.0  0.1252
  H  H85  1  0.406100  0.534800  0.440500  1.0  0.1054
  H  H86  1  0.319900  0.424300  0.444100  1.0  0.1193
  H  H87  1  0.554700  0.598600  0.395800  1.0  0.1014
  H  H88  1  0.570100  0.617800  0.326300  1.0  0.084
  H  H89  1  0.476700  0.771500  0.448200  1.0  0.0996
  H  H90  1  0.155500  0.764200  0.301100  1.0  0.0833
  H  H91  1  0.117300  0.318300  0.379800  1.0  0.0826
  H  H92  1  0.049600  0.230300  0.311500  1.0  0.1016
  H  H93  1  0.019700  0.081000  0.379500  1.0  0.1067
  H  H94  1  0.430500  0.088300  0.441400  1.0  0.0864
  C  C95  1  0.338500  0.840400  0.191700  1.0  0.6493
  C  C96  1  0.481600  0.842400  0.237600  1.0  -0.1655
  C  C97  1  0.569200  0.776200  0.215600  1.0  -0.0357
  C  C98  1  0.695900  0.771200  0.259100  1.0  -0.1201
  C  C99  1  0.737400  0.833600  0.325360  1.0  -0.078
  C  C100  1  0.654400  0.905800  0.347140  1.0  -0.1368
  C  C101  1  0.525200  0.907100  0.303250  1.0  -0.0247
  C  C102  1  0.867700  0.819600  0.373400  1.0  0.6603
  C  C103  1  0.707800  0.982000  0.416150  1.0  0.6628
  C  C104  1  0.845900  0.622500  0.127000  1.0  0.2664
  C  C105  1  0.060300  0.609300  0.162100  1.0  0.1552
  C  C106  1  0.017100  0.449100  0.207800  1.0  -0.0594
  C  C107  1  0.894400  0.380700  0.224400  1.0  -0.0943
  C  C108  1  0.856300  0.416500  0.284200  1.0  0.0843
  C  C109  1  0.752700  0.346800  0.302400  1.0  -0.1234
  C  C110  1  0.691300  0.241800  0.261400  1.0  0.0954
  C  C111  1  0.728100  0.208800  0.200600  1.0  -0.0947
  C  C112  1  0.826500  0.279600  0.180900  1.0  0.0898
  C  C113  1  0.926400  0.528200  0.328800  1.0  -0.3508
  C  C114  1  0.856100  0.247100  0.112600  1.0  -0.3583
  C  C115  1  0.588200  0.164800  0.283800  1.0  -0.3567
  C  C116  1  0.710500  0.384500  0.367100  1.0  -0.0561
  C  C117  1  0.735700  0.278000  0.453900  1.0  0.1574
  C  C118  1  0.962000  0.317500  0.488700  1.0  0.2844
  C  C119  1  0.669100  0.094900  0.156800  1.0  -0.0511
  C  C120  1  0.829600  0.973200  0.119300  1.0  0.1403
  C  C121  1  0.919000  0.948000  0.212900  1.0  0.2744
  C  C122  1  0.877000  0.634700  0.968000  1.0  0.2615
  C  C123  1  0.841600  0.785400  0.959400  1.0  0.1568
  C  C124  1  0.643000  0.724200  0.850600  1.0  -0.0661
  C  C125  1  0.656000  0.670600  0.781860  1.0  -0.1091
  C  C126  1  0.579000  0.564500  0.750000  1.0  0.11
  C  C127  1  0.586900  0.516700  0.684600  1.0  -0.0627
  C  C128  1  0.674200  0.572800  0.652300  1.0  0.0848
  C  C129  1  0.755800  0.676700  0.686300  1.0  -0.0952
  C  C130  1  0.745700  0.726400  0.750100  1.0  0.0958
  C  C131  1  0.489000  0.502000  0.784800  1.0  -0.362
  C  C132  1  0.827600  0.841700  0.783800  1.0  -0.3662
  C  C133  1  0.678600  0.522300  0.580900  1.0  -0.3532
  C  C134  1  0.499400  0.403100  0.649100  1.0  -0.0536
  C  C135  1  0.590900  0.246800  0.593500  1.0  0.1678
  C  C136  1  0.763300  0.252100  0.673800  1.0  0.2688
  C  C137  1  0.860300  0.734400  0.654400  1.0  -0.0619
  C  C138  1  0.879300  0.899400  0.610600  1.0  0.1637
  C  C139  1  0.655600  0.893500  0.577100  1.0  0.2801
  C  C140  1  0.661500  0.159600  0.808300  1.0  0.6541
  C  C141  1  0.518400  0.157600  0.762400  1.0  -0.1658
  C  C142  1  0.430800  0.223800  0.784400  1.0  -0.0366
  C  C143  1  0.304100  0.228800  0.740900  1.0  -0.1191
  C  C144  1  0.262600  0.166400  0.674640  1.0  -0.0737
  C  C145  1  0.345600  0.094200  0.652860  1.0  -0.1368
  C  C146  1  0.474800  0.092900  0.696750  1.0  -0.0232
  C  C147  1  0.132300  0.180400  0.626600  1.0  0.6597
  C  C148  1  0.292200  0.018000  0.583850  1.0  0.6625
  C  C149  1  0.154100  0.377500  0.873000  1.0  0.2666
  C  C150  1  0.939700  0.390700  0.837900  1.0  0.1565
  C  C151  1  0.982900  0.550900  0.792200  1.0  -0.0629
  C  C152  1  0.105600  0.619300  0.775600  1.0  -0.0943
  C  C153  1  0.143700  0.583500  0.715800  1.0  0.0856
  C  C154  1  0.247300  0.653200  0.697600  1.0  -0.1225
  C  C155  1  0.308700  0.758200  0.738600  1.0  0.0945
  C  C156  1  0.271900  0.791200  0.799400  1.0  -0.1017
  C  C157  1  0.173500  0.720400  0.819100  1.0  0.0898
  C  C158  1  0.073600  0.471800  0.671200  1.0  -0.3505
  C  C159  1  0.143900  0.752900  0.887400  1.0  -0.358
  C  C160  1  0.411800  0.835200  0.716200  1.0  -0.3562
  C  C161  1  0.289500  0.615500  0.632900  1.0  -0.0556
  C  C162  1  0.264300  0.722000  0.546100  1.0  0.1574
  C  C163  1  0.038000  0.682500  0.511300  1.0  0.2864
  C  C164  1  0.330900  0.905100  0.843200  1.0  -0.0501
  C  C165  1  0.170400  0.026800  0.880700  1.0  0.1401
  C  C166  1  0.081000  0.052000  0.787100  1.0  0.2741
  C  C167  1  0.123000  0.365300  0.032000  1.0  0.2606
  C  C168  1  0.158400  0.214600  0.040600  1.0  0.1568
  C  C169  1  0.357000  0.275800  0.149400  1.0  -0.0636
  C  C170  1  0.344000  0.329400  0.218140  1.0  -0.1088
  C  C171  1  0.421000  0.435500  0.250000  1.0  0.1094
  C  C172  1  0.413100  0.483300  0.315400  1.0  -0.0635
  C  C173  1  0.325800  0.427200  0.347700  1.0  0.0858
  C  C174  1  0.244200  0.323300  0.313700  1.0  -0.0948
  C  C175  1  0.254300  0.273600  0.249900  1.0  0.096
  C  C176  1  0.511000  0.498000  0.215200  1.0  -0.3565
  C  C177  1  0.172400  0.158300  0.216200  1.0  -0.3661
  C  C178  1  0.321400  0.477700  0.419100  1.0  -0.3527
  C  C179  1  0.500600  0.596900  0.350900  1.0  -0.0555
  C  C180  1  0.409100  0.753200  0.406500  1.0  0.1673
  C  C181  1  0.236700  0.747900  0.326200  1.0  0.2699
  C  C182  1  0.139700  0.265600  0.345600  1.0  -0.0616
  C  C183  1  0.120700  0.100600  0.389400  1.0  0.1624
  C  C184  1  0.344400  0.106500  0.422900  1.0  0.282
  N  N185  1  0.984000  0.670200  0.133350  1.0  -0.4281
  N  N186  1  0.972800  0.531800  0.174570  1.0  0.1623
  N  N187  1  0.833600  0.537100  0.151400  1.0  -0.3788
  N  N188  1  0.787600  0.345000  0.421440  1.0  0.166
  N  N189  1  0.935700  0.372900  0.444000  1.0  -0.3773
  N  N190  1  0.841900  0.258200  0.497010  1.0  -0.4288
  N  N191  1  0.775700  0.028300  0.165660  1.0  0.1696
  N  N192  1  0.832500  0.013900  0.226800  1.0  -0.3669
  N  N193  1  0.922100  0.921000  0.147910  1.0  -0.4318
  N  N194  1  0.921100  0.740800  0.999970  1.0  -0.4255
  N  N195  1  0.755900  0.710600  0.905900  1.0  0.1607
  N  N196  1  0.777600  0.612000  0.910400  1.0  -0.3622
  N  N197  1  0.593700  0.326500  0.644210  1.0  0.1602
  N  N198  1  0.705100  0.330700  0.697960  1.0  -0.3716
  N  N199  1  0.695300  0.196000  0.608740  1.0  -0.4313
  N  N200  1  0.803400  0.814500  0.623580  1.0  0.155
  N  N201  1  0.658500  0.808400  0.601300  1.0  -0.4003
  N  N202  1  0.787800  0.951400  0.581350  1.0  -0.4025
  N  N203  1  0.016000  0.329800  0.866650  1.0  -0.4282
  N  N204  1  0.027200  0.468200  0.825430  1.0  0.1687
  N  N205  1  0.166400  0.462900  0.848600  1.0  -0.381
  N  N206  1  0.212400  0.655000  0.578560  1.0  0.1656
  N  N207  1  0.064300  0.627100  0.556000  1.0  -0.377
  N  N208  1  0.158100  0.741800  0.502990  1.0  -0.4265
  N  N209  1  0.224300  0.971700  0.834340  1.0  0.17
  N  N210  1  0.167500  0.986100  0.773200  1.0  -0.3657
  N  N211  1  0.077900  0.079000  0.852090  1.0  -0.432
  N  N212  1  0.078900  0.259200  0.000030  1.0  -0.4247
  N  N213  1  0.244100  0.289400  0.094100  1.0  0.159
  N  N214  1  0.222400  0.388000  0.089600  1.0  -0.3623
  N  N215  1  0.406300  0.673500  0.355790  1.0  0.1606
  N  N216  1  0.294900  0.669300  0.302040  1.0  -0.3703
  N  N217  1  0.304700  0.804000  0.391260  1.0  -0.4318
  N  N218  1  0.196600  0.185500  0.376420  1.0  0.1549
  N  N219  1  0.341500  0.191600  0.398700  1.0  -0.4008
  N  N220  1  0.212200  0.048600  0.418650  1.0  -0.4028
  Cl  Cl221  1  0.203250  0.966750  0.052100  1.0  -0.6246
  Cl  Cl222  1  0.796750  0.033250  0.947900  1.0  -0.6229
  O  O223  1  0.301300  0.777300  0.132500  1.0  -0.6231
  O  O224  1  0.256700  0.897200  0.212140  1.0  -0.5967
  O  O225  1  0.619600  0.011400  0.447390  1.0  -0.6011
  O  O226  1  0.844000  0.015000  0.440160  1.0  -0.5816
  O  O227  1  0.845100  0.780500  0.419900  1.0  -0.6149
  O  O228  1  0.987700  0.842800  0.360800  1.0  -0.6077
  O  O229  1  0.698700  0.222700  0.867500  1.0  -0.6233
  O  O230  1  0.743300  0.102800  0.787860  1.0  -0.5969
  O  O231  1  0.380400  0.988600  0.552610  1.0  -0.6001
  O  O232  1  0.156000  0.985000  0.559840  1.0  -0.5814
  O  O233  1  0.154900  0.219500  0.580100  1.0  -0.6156
  O  O234  1  0.012300  0.157200  0.639200  1.0  -0.6082
