# generated using pymatgen
data_CaH3C7NO4
_symmetry_space_group_name_H-M   'P 1'
_cell_length_a   6.44630000
_cell_length_b   10.97280000
_cell_length_c   16.09960000
_cell_angle_alpha   90.00000000
_cell_angle_beta   99.77500000
_cell_angle_gamma   90.00000000
_symmetry_Int_Tables_number   1
_chemical_formula_structural   CaH3C7NO4
_chemical_formula_sum   'Ca4 H12 C28 N4 O16'
_cell_volume   1122.25562433
_cell_formula_units_Z   4
loop_
 _symmetry_equiv_pos_site_id
 _symmetry_equiv_pos_as_xyz
  1  'x, y, z'
loop_
 _atom_site_type_symbol
 _atom_site_label
 _atom_site_symmetry_multiplicity
 _atom_site_fract_x
 _atom_site_fract_y
 _atom_site_fract_z
 _atom_site_occupancy
 _atom_site_charge
  Ca  Ca1  1  0.242970  0.928480  0.952230  1.0  1.5204
  Ca  Ca2  1  0.257030  0.428480  0.547770  1.0  1.5202
  Ca  Ca3  1  0.757030  0.071520  0.047770  1.0  1.5201
  Ca  Ca4  1  0.742970  0.571520  0.452230  1.0  1.5203
  H  H5  1  0.566900  0.717600  0.765300  1.0  0.1074
  H  H6  1  0.265400  0.772600  0.766200  1.0  0.0662
  H  H7  1  0.719900  0.624300  0.662400  1.0  0.1023
  H  H8  1  0.933100  0.217600  0.734700  1.0  0.1061
  H  H9  1  0.234600  0.272600  0.733800  1.0  0.066
  H  H10  1  0.780100  0.124300  0.837600  1.0  0.1018
  H  H11  1  0.433100  0.282400  0.234700  1.0  0.1062
  H  H12  1  0.734600  0.227400  0.233800  1.0  0.066
  H  H13  1  0.280100  0.375700  0.337600  1.0  0.1016
  H  H14  1  0.066900  0.782400  0.265300  1.0  0.1073
  H  H15  1  0.765400  0.727400  0.266200  1.0  0.0662
  H  H16  1  0.219900  0.875700  0.162400  1.0  0.1022
  C  C17  1  0.011900  0.689700  0.702600  1.0  -0.1818
  C  C18  1  0.828600  0.803000  0.823000  1.0  0.1168
  C  C19  1  0.709200  0.729200  0.763900  1.0  -0.1124
  C  C20  1  0.121700  0.762400  0.765000  1.0  0.2234
  C  C21  1  0.800100  0.673000  0.702900  1.0  0.0146
  C  C22  1  0.121400  0.624600  0.639300  1.0  0.7305
  C  C23  1  0.730700  0.867300  0.890300  1.0  0.7028
  C  C24  1  0.488100  0.189700  0.797400  1.0  -0.1785
  C  C25  1  0.671400  0.303000  0.677000  1.0  0.1187
  C  C26  1  0.790800  0.229200  0.736100  1.0  -0.1109
  C  C27  1  0.378300  0.262400  0.735000  1.0  0.2236
  C  C28  1  0.699900  0.173000  0.797100  1.0  0.0154
  C  C29  1  0.378600  0.124600  0.860700  1.0  0.7302
  C  C30  1  0.769300  0.367300  0.609700  1.0  0.7034
  C  C31  1  0.988100  0.310300  0.297400  1.0  -0.1801
  C  C32  1  0.171400  0.197000  0.177000  1.0  0.1188
  C  C33  1  0.290800  0.270800  0.236100  1.0  -0.1102
  C  C34  1  0.878300  0.237600  0.235000  1.0  0.2239
  C  C35  1  0.199900  0.327000  0.297100  1.0  0.0155
  C  C36  1  0.878600  0.375400  0.360700  1.0  0.7304
  C  C37  1  0.269300  0.132700  0.109700  1.0  0.7046
  C  C38  1  0.511900  0.810300  0.202600  1.0  -0.1831
  C  C39  1  0.328600  0.697000  0.323000  1.0  0.1179
  C  C40  1  0.209200  0.770800  0.263900  1.0  -0.112
  C  C41  1  0.621700  0.737600  0.265000  1.0  0.2232
  C  C42  1  0.300100  0.827000  0.202900  1.0  0.0153
  C  C43  1  0.621400  0.875400  0.139300  1.0  0.7303
  C  C44  1  0.230700  0.632700  0.390300  1.0  0.7026
  N  N45  1  0.033700  0.819100  0.824100  1.0  -0.4588
  N  N46  1  0.466300  0.319100  0.675900  1.0  -0.4582
  N  N47  1  0.966300  0.180900  0.175900  1.0  -0.458
  N  N48  1  0.533700  0.680900  0.324100  1.0  -0.4579
  O  O49  1  0.854000  0.931000  0.942630  1.0  -0.7405
  O  O50  1  0.538600  0.852000  0.887990  1.0  -0.6663
  O  O51  1  0.308200  0.594700  0.660760  1.0  -0.6509
  O  O52  1  0.016000  0.600500  0.568630  1.0  -0.7787
  O  O53  1  0.646000  0.431000  0.557370  1.0  -0.74
  O  O54  1  0.961400  0.352000  0.612010  1.0  -0.6635
  O  O55  1  0.191800  0.094700  0.839240  1.0  -0.6499
  O  O56  1  0.484000  0.100500  0.931370  1.0  -0.7795
  O  O57  1  0.146000  0.069000  0.057370  1.0  -0.7418
  O  O58  1  0.461400  0.148000  0.112010  1.0  -0.6634
  O  O59  1  0.691800  0.405300  0.339240  1.0  -0.6499
  O  O60  1  0.984000  0.399500  0.431370  1.0  -0.778
  O  O61  1  0.354000  0.569000  0.442630  1.0  -0.7436
  O  O62  1  0.038600  0.648000  0.387990  1.0  -0.6651
  O  O63  1  0.808200  0.905300  0.160760  1.0  -0.6507
  O  O64  1  0.516000  0.899500  0.068630  1.0  -0.7787
