# generated using pymatgen
data_CaH3C7NO4
_symmetry_space_group_name_H-M   'P 1'
_cell_length_a   6.42750000
_cell_length_b   10.97640000
_cell_length_c   16.38700000
_cell_angle_alpha   90.00000000
_cell_angle_beta   90.00000000
_cell_angle_gamma   99.18200000
_symmetry_Int_Tables_number   1
_chemical_formula_structural   CaH3C7NO4
_chemical_formula_sum   'Ca4 H12 C28 N4 O16'
_cell_volume   1141.30218155
_cell_formula_units_Z   4
loop_
 _symmetry_equiv_pos_site_id
 _symmetry_equiv_pos_as_xyz
  1  'x, y, z'
loop_
 _atom_site_type_symbol
 _atom_site_label
 _atom_site_symmetry_multiplicity
 _atom_site_fract_x
 _atom_site_fract_y
 _atom_site_fract_z
 _atom_site_occupancy
 _atom_site_charge
  Ca  Ca1  1  0.782210  0.580600  0.957850  1.0  1.5236
  Ca  Ca2  1  0.717790  0.919400  0.457850  1.0  1.5216
  Ca  Ca3  1  0.217790  0.419400  0.042150  1.0  1.5199
  Ca  Ca4  1  0.282210  0.080600  0.542150  1.0  1.5208
  H  H5  1  0.222300  0.755600  0.762100  1.0  0.1086
  H  H6  1  0.804100  0.863400  0.675400  1.0  0.1208
  H  H7  1  0.927500  0.768000  0.785200  1.0  0.0772
  H  H8  1  0.277700  0.744400  0.262100  1.0  0.1105
  H  H9  1  0.695900  0.636600  0.175400  1.0  0.1209
  H  H10  1  0.572500  0.732000  0.285200  1.0  0.0722
  H  H11  1  0.777700  0.244400  0.237900  1.0  0.1106
  H  H12  1  0.195900  0.136600  0.324600  1.0  0.1209
  H  H13  1  0.072500  0.232000  0.214800  1.0  0.0736
  H  H14  1  0.722300  0.255600  0.737900  1.0  0.109
  H  H15  1  0.304100  0.363400  0.824600  1.0  0.1207
  H  H16  1  0.427500  0.268000  0.714800  1.0  0.0785
  C  C17  1  0.451500  0.700000  0.829040  1.0  0.1209
  C  C18  1  0.398000  0.884800  0.638070  1.0  0.7032
  C  C19  1  0.367400  0.757900  0.765170  1.0  -0.0936
  C  C20  1  0.710800  0.822700  0.713620  1.0  -0.1615
  C  C21  1  0.496000  0.819300  0.705710  1.0  -0.0435
  C  C22  1  0.310100  0.635600  0.895710  1.0  0.7147
  C  C23  1  0.782600  0.764000  0.779790  1.0  0.1944
  C  C24  1  0.048500  0.800000  0.329040  1.0  0.1207
  C  C25  1  0.102000  0.615200  0.138070  1.0  0.7029
  C  C26  1  0.132600  0.742100  0.265170  1.0  -0.0938
  C  C27  1  0.789200  0.677300  0.213620  1.0  -0.1621
  C  C28  1  0.004000  0.680700  0.205710  1.0  -0.0432
  C  C29  1  0.189900  0.864400  0.395710  1.0  0.7144
  C  C30  1  0.717400  0.736000  0.279790  1.0  0.1932
  C  C31  1  0.548500  0.300000  0.170960  1.0  0.1225
  C  C32  1  0.602000  0.115200  0.361930  1.0  0.7041
  C  C33  1  0.632600  0.242100  0.234830  1.0  -0.0939
  C  C34  1  0.289200  0.177300  0.286380  1.0  -0.1624
  C  C35  1  0.504000  0.180700  0.294290  1.0  -0.0446
  C  C36  1  0.689900  0.364400  0.104290  1.0  0.7144
  C  C37  1  0.217400  0.236000  0.220210  1.0  0.193
  C  C38  1  0.951500  0.200000  0.670960  1.0  0.1222
  C  C39  1  0.898000  0.384800  0.861930  1.0  0.704
  C  C40  1  0.867400  0.257900  0.734830  1.0  -0.0938
  C  C41  1  0.210800  0.322700  0.786380  1.0  -0.1616
  C  C42  1  0.996000  0.319300  0.794290  1.0  -0.0454
  C  C43  1  0.810100  0.135600  0.604290  1.0  0.716
  C  C44  1  0.282600  0.264000  0.720210  1.0  0.1945
  N  N45  1  0.659600  0.701300  0.837100  1.0  -0.4524
  N  N46  1  0.840400  0.798700  0.337100  1.0  -0.4534
  N  N47  1  0.340400  0.298700  0.162900  1.0  -0.4515
  N  N48  1  0.159600  0.201300  0.662900  1.0  -0.4524
  O  O49  1  0.394700  0.571670  0.946340  1.0  -0.7453
  O  O50  1  0.490500  0.899320  0.570630  1.0  -0.7704
  O  O51  1  0.230800  0.924080  0.653170  1.0  -0.6296
  O  O52  1  0.123900  0.654040  0.894960  1.0  -0.6645
  O  O53  1  0.105300  0.928330  0.446340  1.0  -0.744
  O  O54  1  0.009500  0.600680  0.070630  1.0  -0.7694
  O  O55  1  0.269200  0.575920  0.153170  1.0  -0.6285
  O  O56  1  0.376100  0.845960  0.394960  1.0  -0.6654
  O  O57  1  0.605300  0.428330  0.053660  1.0  -0.7456
  O  O58  1  0.509500  0.100680  0.429370  1.0  -0.7708
  O  O59  1  0.769200  0.075920  0.346830  1.0  -0.628
  O  O60  1  0.876100  0.345960  0.105040  1.0  -0.6655
  O  O61  1  0.894700  0.071670  0.553660  1.0  -0.7457
  O  O62  1  0.990500  0.399320  0.929370  1.0  -0.77
  O  O63  1  0.730800  0.424080  0.846830  1.0  -0.6294
  O  O64  1  0.623900  0.154040  0.605040  1.0  -0.6633
