# generated using pymatgen
data_CaH3C7NO4
_symmetry_space_group_name_H-M   'P 1'
_cell_length_a   12.05010000
_cell_length_b   13.96380000
_cell_length_c   14.70730000
_cell_angle_alpha   98.25700000
_cell_angle_beta   111.86300000
_cell_angle_gamma   107.78500000
_symmetry_Int_Tables_number   1
_chemical_formula_structural   CaH3C7NO4
_chemical_formula_sum   'Ca6 H18 C42 N6 O24'
_cell_volume   2092.18210465
_cell_formula_units_Z   6
loop_
 _symmetry_equiv_pos_site_id
 _symmetry_equiv_pos_as_xyz
  1  'x, y, z'
loop_
 _atom_site_type_symbol
 _atom_site_label
 _atom_site_symmetry_multiplicity
 _atom_site_fract_x
 _atom_site_fract_y
 _atom_site_fract_z
 _atom_site_occupancy
 _atom_site_charge
  Ca  Ca1  1  0.700800  0.580440  0.577210  1.0  1.5463
  Ca  Ca2  1  0.461790  0.938290  0.137710  1.0  1.5509
  Ca  Ca3  1  0.299200  0.419560  0.422790  1.0  1.5462
  Ca  Ca4  1  0.538210  0.061710  0.862290  1.0  1.5523
  Ca  Ca5  1  0.000000  0.000000  0.500000  1.0  1.6739
  Ca  Ca6  1  0.000000  0.500000  0.000000  1.0  1.6848
  H  H7  1  0.963500  0.793600  0.620600  1.0  0.0702
  H  H8  1  0.509500  0.603400  0.366600  1.0  0.0946
  H  H9  1  0.933400  0.649500  0.823200  1.0  0.067
  H  H10  1  0.253900  0.904500  0.904300  1.0  0.1035
  H  H11  1  0.675400  0.866900  0.308600  1.0  0.0715
  H  H12  1  0.301500  0.706700  0.152300  1.0  0.07
  H  H13  1  0.572300  0.797700  0.791100  1.0  0.1112
  H  H14  1  0.311200  0.654900  0.883900  1.0  0.0647
  H  H15  1  0.338500  0.493800  0.661000  1.0  0.0666
  H  H16  1  0.036500  0.206400  0.379400  1.0  0.0707
  H  H17  1  0.490500  0.396600  0.633400  1.0  0.0945
  H  H18  1  0.066600  0.350500  0.176800  1.0  0.0666
  H  H19  1  0.746100  0.095500  0.095700  1.0  0.103
  H  H20  1  0.324600  0.133100  0.691400  1.0  0.0717
  H  H21  1  0.698500  0.293300  0.847700  1.0  0.0722
  H  H22  1  0.427700  0.202300  0.208900  1.0  0.1104
  H  H23  1  0.688800  0.345100  0.116100  1.0  0.0634
  H  H24  1  0.661500  0.506200  0.339000  1.0  0.0659
  C  C25  1  0.122230  0.861610  0.756030  1.0  -0.2466
  C  C26  1  0.101500  0.774800  0.881600  1.0  -0.2455
  C  C27  1  0.998700  0.788140  0.686710  1.0  0.2414
  C  C28  1  0.385300  0.640820  0.256060  1.0  -0.2539
  C  C29  1  0.504100  0.652530  0.330420  1.0  0.0655
  C  C30  1  0.614800  0.737600  0.350770  1.0  -0.2483
  C  C31  1  0.980700  0.704180  0.806180  1.0  0.2464
  C  C32  1  0.172900  0.855300  0.855590  1.0  0.0358
  C  C33  1  0.744600  0.755660  0.434240  1.0  0.8232
  C  C34  1  0.531300  0.633390  0.646680  1.0  0.7306
  C  C35  1  0.448200  0.742270  0.851350  1.0  -0.2597
  C  C36  1  0.465800  0.643480  0.714300  1.0  -0.234
  C  C37  1  0.601500  0.809230  0.295020  1.0  0.2595
  C  C38  1  0.381100  0.715120  0.203250  1.0  0.2631
  C  C39  1  0.196800  0.941640  0.719080  1.0  0.7691
  C  C40  1  0.492300  0.841980  0.933340  1.0  0.7949
  C  C41  1  0.262700  0.551820  0.235770  1.0  0.8202
  C  C42  1  0.150000  0.761300  0.988110  1.0  0.7915
  C  C43  1  0.506700  0.738010  0.786340  1.0  0.0444
  C  C44  1  0.350500  0.651700  0.840400  1.0  0.2223
  C  C45  1  0.366400  0.557100  0.709700  1.0  0.2283
  C  C46  1  0.877770  0.138390  0.243970  1.0  -0.2475
  C  C47  1  0.898500  0.225200  0.118400  1.0  -0.2455
  C  C48  1  0.001300  0.211860  0.313290  1.0  0.2421
  C  C49  1  0.614700  0.359180  0.743940  1.0  -0.2577
  C  C50  1  0.495900  0.347470  0.669580  1.0  0.0625
  C  C51  1  0.385200  0.262400  0.649230  1.0  -0.2496
  C  C52  1  0.019300  0.295820  0.193820  1.0  0.2464
  C  C53  1  0.827100  0.144700  0.144410  1.0  0.0351
  C  C54  1  0.255400  0.244340  0.565760  1.0  0.8246
  C  C55  1  0.468700  0.366610  0.353320  1.0  0.7316
  C  C56  1  0.551800  0.257730  0.148650  1.0  -0.2598
  C  C57  1  0.534200  0.356520  0.285700  1.0  -0.2329
  C  C58  1  0.398500  0.190770  0.704980  1.0  0.2604
  C  C59  1  0.618900  0.284880  0.796750  1.0  0.2652
  C  C60  1  0.803200  0.058360  0.280920  1.0  0.776
  C  C61  1  0.507700  0.158020  0.066660  1.0  0.7959
  C  C62  1  0.737300  0.448180  0.764230  1.0  0.819
  C  C63  1  0.850000  0.238700  0.011890  1.0  0.7929
  C  C64  1  0.493300  0.261990  0.213660  1.0  0.0456
  C  C65  1  0.649500  0.348300  0.159600  1.0  0.2158
  C  C66  1  0.633600  0.442900  0.290300  1.0  0.2266
  N  N67  1  0.928260  0.710130  0.710310  1.0  -0.4938
  N  N68  1  0.487090  0.798840  0.222570  1.0  -0.5032
  N  N69  1  0.308600  0.559690  0.771300  1.0  -0.456
  N  N70  1  0.071740  0.289870  0.289690  1.0  -0.4954
  N  N71  1  0.512910  0.201160  0.777430  1.0  -0.5005
  N  N72  1  0.691400  0.440310  0.228700  1.0  -0.4586
  O  O73  1  0.241800  0.838130  0.059080  1.0  -0.7313
  O  O74  1  0.747600  0.688420  0.481660  1.0  -0.7157
  O  O75  1  0.476150  0.553880  0.569630  1.0  -0.78
  O  O76  1  0.316400  0.986780  0.773560  1.0  -0.732
  O  O77  1  0.135780  0.956150  0.636200  1.0  -0.8084
  O  O78  1  0.159850  0.539430  0.163110  1.0  -0.7765
  O  O79  1  0.273150  0.496860  0.295430  1.0  -0.7168
  O  O80  1  0.840040  0.835040  0.450820  1.0  -0.7974
  O  O81  1  0.093830  0.674930  0.997740  1.0  -0.7587
  O  O82  1  0.558300  0.925910  0.925930  1.0  -0.7434
  O  O83  1  0.640400  0.701390  0.670920  1.0  -0.6337
  O  O84  1  0.459700  0.832000  0.003580  1.0  -0.7039
  O  O85  1  0.758200  0.161870  0.940920  1.0  -0.7314
  O  O86  1  0.252400  0.311580  0.518340  1.0  -0.7155
  O  O87  1  0.523850  0.446120  0.430370  1.0  -0.7777
  O  O88  1  0.683600  0.013220  0.226440  1.0  -0.7323
  O  O89  1  0.864220  0.043850  0.363800  1.0  -0.8066
  O  O90  1  0.840150  0.460570  0.836890  1.0  -0.771
  O  O91  1  0.726850  0.503140  0.704570  1.0  -0.7147
  O  O92  1  0.159960  0.164960  0.549180  1.0  -0.7965
  O  O93  1  0.906170  0.325070  0.002260  1.0  -0.7577
  O  O94  1  0.441700  0.074090  0.074070  1.0  -0.7447
  O  O95  1  0.359600  0.298610  0.329080  1.0  -0.6314
  O  O96  1  0.540300  0.168000  0.996420  1.0  -0.7026
