# generated using pymatgen
data_Co2H39C63N12ClO6
_symmetry_space_group_name_H-M   'P 1'
_cell_length_a   13.92200000
_cell_length_b   17.03100000
_cell_length_c   17.03100000
_cell_angle_alpha   120.00000000
_cell_angle_beta   90.00000000
_cell_angle_gamma   90.00000000
_symmetry_Int_Tables_number   1
_chemical_formula_structural   Co2H39C63N12ClO6
_chemical_formula_sum   'Co4 H78 C126 N24 Cl2 O12'
_cell_volume   3497.13629883
_cell_formula_units_Z   2
loop_
 _symmetry_equiv_pos_site_id
 _symmetry_equiv_pos_as_xyz
  1  'x, y, z'
loop_
 _atom_site_type_symbol
 _atom_site_label
 _atom_site_symmetry_multiplicity
 _atom_site_fract_x
 _atom_site_fract_y
 _atom_site_fract_z
 _atom_site_occupancy
 _atom_site_charge
  Co  Co1  1  0.897470  0.333333  0.666667  1.0  0.8794
  Co  Co2  1  0.602530  0.333333  0.666667  1.0  0.8787
  Co  Co3  1  0.102530  0.666667  0.333333  1.0  0.8787
  Co  Co4  1  0.397470  0.666667  0.333333  1.0  0.8794
  H  H5  1  0.614400  0.065100  0.574000  1.0  0.105
  H  H6  1  0.585600  0.786300  0.365200  1.0  0.0851
  H  H7  1  0.354500  0.774700  0.566000  1.0  0.1201
  H  H8  1  0.351700  0.885800  0.715600  1.0  0.1017
  H  H9  1  0.462200  0.002700  0.773800  1.0  0.1033
  H  H10  1  0.572900  0.018800  0.680300  1.0  0.1216
  H  H11  1  0.614400  0.508900  0.934900  1.0  0.1045
  H  H12  1  0.585600  0.578900  0.213700  1.0  0.0832
  H  H13  1  0.354500  0.791300  0.225300  1.0  0.12
  H  H14  1  0.351700  0.829800  0.114200  1.0  0.101
  H  H15  1  0.462200  0.771100  0.997300  1.0  0.1029
  H  H16  1  0.572900  0.661500  0.981200  1.0  0.1196
  H  H17  1  0.614400  0.426000  0.491100  1.0  0.1045
  H  H18  1  0.585600  0.634800  0.421100  1.0  0.0847
  H  H19  1  0.354500  0.434000  0.208700  1.0  0.1179
  H  H20  1  0.351700  0.284400  0.170200  1.0  0.1005
  H  H21  1  0.462200  0.226200  0.228900  1.0  0.103
  H  H22  1  0.572900  0.319700  0.338500  1.0  0.1198
  H  H23  1  0.885600  0.508900  0.574000  1.0  0.1046
  H  H24  1  0.914400  0.578900  0.365200  1.0  0.0836
  H  H25  1  0.145500  0.791300  0.566000  1.0  0.1203
  H  H26  1  0.148300  0.829800  0.715600  1.0  0.1009
  H  H27  1  0.037800  0.771100  0.773800  1.0  0.1019
  H  H28  1  0.927100  0.661500  0.680300  1.0  0.1201
  H  H29  1  0.885600  0.426000  0.934900  1.0  0.105
  H  H30  1  0.914400  0.634800  0.213700  1.0  0.085
  H  H31  1  0.145500  0.434000  0.225300  1.0  0.1188
  H  H32  1  0.148300  0.284400  0.114200  1.0  0.1009
  H  H33  1  0.037800  0.226200  0.997300  1.0  0.1028
  H  H34  1  0.927100  0.319700  0.981200  1.0  0.1199
  H  H35  1  0.885600  0.065100  0.491100  1.0  0.1044
  H  H36  1  0.914400  0.786300  0.421100  1.0  0.085
  H  H37  1  0.145500  0.774700  0.208700  1.0  0.1202
  H  H38  1  0.148300  0.885800  0.170200  1.0  0.1004
  H  H39  1  0.037800  0.002700  0.228900  1.0  0.1027
  H  H40  1  0.927100  0.018800  0.338500  1.0  0.1208
  H  H41  1  0.385600  0.934900  0.426000  1.0  0.1049
  H  H42  1  0.414400  0.213700  0.634800  1.0  0.0847
  H  H43  1  0.645500  0.225300  0.434000  1.0  0.1199
  H  H44  1  0.648300  0.114200  0.284400  1.0  0.1006
  H  H45  1  0.537800  0.997300  0.226200  1.0  0.1036
  H  H46  1  0.427100  0.981200  0.319700  1.0  0.1202
  H  H47  1  0.385600  0.491100  0.065100  1.0  0.1049
  H  H48  1  0.414400  0.421100  0.786300  1.0  0.0836
  H  H49  1  0.645500  0.208700  0.774700  1.0  0.1202
  H  H50  1  0.648300  0.170200  0.885800  1.0  0.1012
  H  H51  1  0.537800  0.228900  0.002700  1.0  0.1026
  H  H52  1  0.427100  0.338500  0.018800  1.0  0.1206
  H  H53  1  0.385600  0.574000  0.508900  1.0  0.1046
  H  H54  1  0.414400  0.365200  0.578900  1.0  0.0851
  H  H55  1  0.645500  0.566000  0.791300  1.0  0.1186
  H  H56  1  0.648300  0.715600  0.829800  1.0  0.1005
  H  H57  1  0.537800  0.773800  0.771100  1.0  0.1032
  H  H58  1  0.427100  0.680300  0.661500  1.0  0.1196
  H  H59  1  0.114400  0.491100  0.426000  1.0  0.1047
  H  H60  1  0.085600  0.421100  0.634800  1.0  0.0829
  H  H61  1  0.854500  0.208700  0.434000  1.0  0.1205
  H  H62  1  0.851700  0.170200  0.284400  1.0  0.1009
  H  H63  1  0.962200  0.228900  0.226200  1.0  0.1033
  H  H64  1  0.072900  0.338500  0.319700  1.0  0.1202
  H  H65  1  0.114400  0.574000  0.065100  1.0  0.1042
  H  H66  1  0.085600  0.365200  0.786300  1.0  0.0848
  H  H67  1  0.854500  0.566000  0.774700  1.0  0.1182
  H  H68  1  0.851700  0.715600  0.885800  1.0  0.1008
  H  H69  1  0.962200  0.773800  0.002700  1.0  0.1035
  H  H70  1  0.072900  0.680300  0.018800  1.0  0.1195
  H  H71  1  0.114400  0.934900  0.508900  1.0  0.1053
  H  H72  1  0.085600  0.213700  0.578900  1.0  0.0853
  H  H73  1  0.854500  0.225300  0.791300  1.0  0.1203
  H  H74  1  0.851700  0.114200  0.829800  1.0  0.1015
  H  H75  1  0.962200  0.997300  0.771100  1.0  0.1043
  H  H76  1  0.072900  0.981200  0.661500  1.0  0.1214
  H  H77  1  0.750000  0.831100  0.415550  1.0  0.1083
  H  H78  1  0.750000  0.584450  0.168900  1.0  0.1094
  H  H79  1  0.750000  0.584450  0.415550  1.0  0.1088
  H  H80  1  0.250000  0.168900  0.584450  1.0  0.1089
  H  H81  1  0.250000  0.415550  0.831100  1.0  0.1084
  H  H82  1  0.250000  0.415550  0.584450  1.0  0.1095
  C  C83  1  0.668800  0.033800  0.541900  1.0  -0.1324
  C  C84  1  0.669800  0.941200  0.496100  1.0  0.1524
  C  C85  1  0.557500  0.810700  0.422200  1.0  0.2155
  C  C86  1  0.465900  0.829900  0.531800  1.0  0.1079
  C  C87  1  0.397700  0.822700  0.588400  1.0  -0.1485
  C  C88  1  0.397200  0.888400  0.677000  1.0  -0.0848
  C  C89  1  0.463500  0.960400  0.712200  1.0  -0.0925
  C  C90  1  0.530500  0.970000  0.657500  1.0  -0.1197
  C  C91  1  0.531100  0.903700  0.568100  1.0  0.0644
  C  C92  1  0.668800  0.508100  0.966200  1.0  -0.1326
  C  C93  1  0.669800  0.554900  0.058800  1.0  0.1519
  C  C94  1  0.557500  0.611500  0.189300  1.0  0.2167
  C  C95  1  0.465900  0.701900  0.170100  1.0  0.1078
  C  C96  1  0.397700  0.765700  0.177300  1.0  -0.1457
  C  C97  1  0.397200  0.788600  0.111600  1.0  -0.0868
  C  C98  1  0.463500  0.751800  0.039600  1.0  -0.0919
  C  C99  1  0.530500  0.687500  0.030000  1.0  -0.1234
  C  C100  1  0.531100  0.664400  0.096300  1.0  0.0639
  C  C101  1  0.668800  0.458100  0.491900  1.0  -0.1319
  C  C102  1  0.669800  0.503900  0.445100  1.0  0.1521
  C  C103  1  0.557500  0.577800  0.388500  1.0  0.2154
  C  C104  1  0.465900  0.468200  0.298100  1.0  0.1066
  C  C105  1  0.397700  0.411600  0.234300  1.0  -0.1499
  C  C106  1  0.397200  0.323000  0.211400  1.0  -0.082
  C  C107  1  0.463500  0.287800  0.248200  1.0  -0.0928
  C  C108  1  0.530500  0.342500  0.312500  1.0  -0.1232
  C  C109  1  0.531100  0.431900  0.335600  1.0  0.0636
  C  C110  1  0.831200  0.508100  0.541900  1.0  -0.1323
  C  C111  1  0.830200  0.554900  0.496100  1.0  0.1514
  C  C112  1  0.942500  0.611500  0.422200  1.0  0.2174
  C  C113  1  0.034100  0.701900  0.531800  1.0  0.1074
  C  C114  1  0.102300  0.765700  0.588400  1.0  -0.1457
  C  C115  1  0.102800  0.788600  0.677000  1.0  -0.085
  C  C116  1  0.036500  0.751800  0.712200  1.0  -0.0913
  C  C117  1  0.969500  0.687500  0.657500  1.0  -0.1248
  C  C118  1  0.968900  0.664400  0.568100  1.0  0.065
  C  C119  1  0.831200  0.458100  0.966200  1.0  -0.1315
  C  C120  1  0.830200  0.503900  0.058800  1.0  0.1522
  C  C121  1  0.942500  0.577800  0.189300  1.0  0.2168
  C  C122  1  0.034100  0.468200  0.170100  1.0  0.1059
  C  C123  1  0.102300  0.411600  0.177300  1.0  -0.1494
  C  C124  1  0.102800  0.323000  0.111600  1.0  -0.0829
  C  C125  1  0.036500  0.287800  0.039600  1.0  -0.0925
  C  C126  1  0.969500  0.342500  0.030000  1.0  -0.1232
  C  C127  1  0.968900  0.431900  0.096300  1.0  0.0643
  C  C128  1  0.831200  0.033800  0.491900  1.0  -0.1331
  C  C129  1  0.830200  0.941200  0.445100  1.0  0.1516
  C  C130  1  0.942500  0.810700  0.388500  1.0  0.2173
  C  C131  1  0.034100  0.829900  0.298100  1.0  0.1078
  C  C132  1  0.102300  0.822700  0.234300  1.0  -0.1479
  C  C133  1  0.102800  0.888400  0.211400  1.0  -0.0807
  C  C134  1  0.036500  0.960400  0.248200  1.0  -0.0899
  C  C135  1  0.969500  0.970000  0.312500  1.0  -0.1211
  C  C136  1  0.968900  0.903700  0.335600  1.0  0.0648
  C  C137  1  0.331200  0.966200  0.458100  1.0  -0.1331
  C  C138  1  0.330200  0.058800  0.503900  1.0  0.1518
  C  C139  1  0.442500  0.189300  0.577800  1.0  0.2172
  C  C140  1  0.534100  0.170100  0.468200  1.0  0.1081
  C  C141  1  0.602300  0.177300  0.411600  1.0  -0.1478
  C  C142  1  0.602800  0.111600  0.323000  1.0  -0.0812
  C  C143  1  0.536500  0.039600  0.287800  1.0  -0.0891
  C  C144  1  0.469500  0.030000  0.342500  1.0  -0.1213
  C  C145  1  0.468900  0.096300  0.431900  1.0  0.0648
  C  C146  1  0.331200  0.491900  0.033800  1.0  -0.1325
  C  C147  1  0.330200  0.445100  0.941200  1.0  0.1515
  C  C148  1  0.442500  0.388500  0.810700  1.0  0.2176
  C  C149  1  0.534100  0.298100  0.829900  1.0  0.1068
  C  C150  1  0.602300  0.234300  0.822700  1.0  -0.1463
  C  C151  1  0.602800  0.211400  0.888400  1.0  -0.0846
  C  C152  1  0.536500  0.248200  0.960400  1.0  -0.0926
  C  C153  1  0.469500  0.312500  0.970000  1.0  -0.1244
  C  C154  1  0.468900  0.335600  0.903700  1.0  0.0649
  C  C155  1  0.331200  0.541900  0.508100  1.0  -0.132
  C  C156  1  0.330200  0.496100  0.554900  1.0  0.1523
  C  C157  1  0.442500  0.422200  0.611500  1.0  0.2169
  C  C158  1  0.534100  0.531800  0.701900  1.0  0.106
  C  C159  1  0.602300  0.588400  0.765700  1.0  -0.1506
  C  C160  1  0.602800  0.677000  0.788600  1.0  -0.0816
  C  C161  1  0.536500  0.712200  0.751800  1.0  -0.0896
  C  C162  1  0.469500  0.657500  0.687500  1.0  -0.123
  C  C163  1  0.468900  0.568100  0.664400  1.0  0.0641
  C  C164  1  0.168800  0.491900  0.458100  1.0  -0.1326
  C  C165  1  0.169800  0.445100  0.503900  1.0  0.1522
  C  C166  1  0.057500  0.388500  0.577800  1.0  0.2163
  C  C167  1  0.965900  0.298100  0.468200  1.0  0.107
  C  C168  1  0.897700  0.234300  0.411600  1.0  -0.1458
  C  C169  1  0.897200  0.211400  0.323000  1.0  -0.0873
  C  C170  1  0.963500  0.248200  0.287800  1.0  -0.0926
  C  C171  1  0.030500  0.312500  0.342500  1.0  -0.1234
  C  C172  1  0.031100  0.335600  0.431900  1.0  0.0635
  C  C173  1  0.168800  0.541900  0.033800  1.0  -0.1327
  C  C174  1  0.169800  0.496100  0.941200  1.0  0.1521
  C  C175  1  0.057500  0.422200  0.810700  1.0  0.2156
  C  C176  1  0.965900  0.531800  0.829900  1.0  0.1067
  C  C177  1  0.897700  0.588400  0.822700  1.0  -0.1505
  C  C178  1  0.897200  0.677000  0.888400  1.0  -0.0825
  C  C179  1  0.963500  0.712200  0.960400  1.0  -0.0901
  C  C180  1  0.030500  0.657500  0.970000  1.0  -0.1226
  C  C181  1  0.031100  0.568100  0.903700  1.0  0.0637
  C  C182  1  0.168800  0.966200  0.508100  1.0  -0.1329
  C  C183  1  0.169800  0.058800  0.554900  1.0  0.1523
  C  C184  1  0.057500  0.189300  0.611500  1.0  0.2157
  C  C185  1  0.965900  0.170100  0.701900  1.0  0.1084
  C  C186  1  0.897700  0.177300  0.765700  1.0  -0.1478
  C  C187  1  0.897200  0.111600  0.788600  1.0  -0.0837
  C  C188  1  0.963500  0.039600  0.751800  1.0  -0.0909
  C  C189  1  0.030500  0.030000  0.687500  1.0  -0.1206
  C  C190  1  0.031100  0.096300  0.664400  1.0  0.0647
  C  C191  1  0.750000  0.183300  0.591650  1.0  0.6657
  C  C192  1  0.750000  0.081400  0.540700  1.0  -0.157
  C  C193  1  0.750000  0.894100  0.447050  1.0  -0.2196
  C  C194  1  0.750000  0.408350  0.816700  1.0  0.6646
  C  C195  1  0.750000  0.459300  0.918600  1.0  -0.1575
  C  C196  1  0.750000  0.552950  0.105900  1.0  -0.2204
  C  C197  1  0.750000  0.408350  0.591650  1.0  0.665
  C  C198  1  0.750000  0.459300  0.540700  1.0  -0.1574
  C  C199  1  0.750000  0.552950  0.447050  1.0  -0.2187
  C  C200  1  0.250000  0.816700  0.408350  1.0  0.6644
  C  C201  1  0.250000  0.918600  0.459300  1.0  -0.157
  C  C202  1  0.250000  0.105900  0.552950  1.0  -0.2189
  C  C203  1  0.250000  0.591650  0.183300  1.0  0.6651
  C  C204  1  0.250000  0.540700  0.081400  1.0  -0.1575
  C  C205  1  0.250000  0.447050  0.894100  1.0  -0.2185
  C  C206  1  0.250000  0.591650  0.408350  1.0  0.6649
  C  C207  1  0.250000  0.540700  0.459300  1.0  -0.1577
  C  C208  1  0.250000  0.447050  0.552950  1.0  -0.2201
  N  N209  1  0.587700  0.890000  0.495500  1.0  -0.0311
  N  N210  1  0.485200  0.772000  0.439500  1.0  -0.4046
  N  N211  1  0.587700  0.605500  0.110000  1.0  -0.0308
  N  N212  1  0.485200  0.667500  0.228000  1.0  -0.4037
  N  N213  1  0.587700  0.504500  0.394500  1.0  -0.0308
  N  N214  1  0.485200  0.560500  0.332500  1.0  -0.4029
  N  N215  1  0.912300  0.605500  0.495500  1.0  -0.0319
  N  N216  1  0.014800  0.667500  0.439500  1.0  -0.4038
  N  N217  1  0.912300  0.504500  0.110000  1.0  -0.0322
  N  N218  1  0.014800  0.560500  0.228000  1.0  -0.4045
  N  N219  1  0.912300  0.890000  0.394500  1.0  -0.0324
  N  N220  1  0.014800  0.772000  0.332500  1.0  -0.4052
  N  N221  1  0.412300  0.110000  0.504500  1.0  -0.0324
  N  N222  1  0.514800  0.228000  0.560500  1.0  -0.407
  N  N223  1  0.412300  0.394500  0.890000  1.0  -0.032
  N  N224  1  0.514800  0.332500  0.772000  1.0  -0.4033
  N  N225  1  0.412300  0.495500  0.605500  1.0  -0.0321
  N  N226  1  0.514800  0.439500  0.667500  1.0  -0.4047
  N  N227  1  0.087700  0.394500  0.504500  1.0  -0.0308
  N  N228  1  0.985200  0.332500  0.560500  1.0  -0.4032
  N  N229  1  0.087700  0.495500  0.890000  1.0  -0.0309
  N  N230  1  0.985200  0.439500  0.772000  1.0  -0.4034
  N  N231  1  0.087700  0.110000  0.605500  1.0  -0.031
  N  N232  1  0.985200  0.228000  0.667500  1.0  -0.4058
  Cl  Cl233  1  0.750000  0.666667  0.333333  1.0  -0.3546
  Cl  Cl234  1  0.250000  0.333333  0.666667  1.0  -0.3546
  O  O235  1  0.819300  0.221500  0.575670  1.0  -0.5918
  O  O236  1  0.819300  0.354170  0.778500  1.0  -0.5912
  O  O237  1  0.819300  0.424330  0.645830  1.0  -0.5916
  O  O238  1  0.680700  0.354170  0.575670  1.0  -0.592
  O  O239  1  0.680700  0.424330  0.778500  1.0  -0.5918
  O  O240  1  0.680700  0.221500  0.645830  1.0  -0.5914
  O  O241  1  0.180700  0.778500  0.424330  1.0  -0.5916
  O  O242  1  0.180700  0.645830  0.221500  1.0  -0.5919
  O  O243  1  0.180700  0.575670  0.354170  1.0  -0.5923
  O  O244  1  0.319300  0.645830  0.424330  1.0  -0.5914
  O  O245  1  0.319300  0.575670  0.221500  1.0  -0.5918
  O  O246  1  0.319300  0.778500  0.354170  1.0  -0.5916
