# generated using pymatgen
data_TbAgH16C16(NO2)2
_symmetry_space_group_name_H-M   'P 1'
_cell_length_a   7.76300000
_cell_length_b   19.38920000
_cell_length_c   17.86340000
_cell_angle_alpha   90.00000000
_cell_angle_beta   100.46600000
_cell_angle_gamma   90.00000000
_symmetry_Int_Tables_number   1
_chemical_formula_structural   TbAgH16C16(NO2)2
_chemical_formula_sum   'Tb4 Ag4 H64 C64 N8 O16'
_cell_volume   2644.03626834
_cell_formula_units_Z   4
loop_
 _symmetry_equiv_pos_site_id
 _symmetry_equiv_pos_as_xyz
  1  'x, y, z'
loop_
 _atom_site_type_symbol
 _atom_site_label
 _atom_site_symmetry_multiplicity
 _atom_site_fract_x
 _atom_site_fract_y
 _atom_site_fract_z
 _atom_site_occupancy
 _atom_site_charge
  Tb  Tb1  1  0.254520  0.469260  0.014710  1.0  2.0836
  Tb  Tb2  1  0.745480  0.969260  0.485290  1.0  2.0819
  Tb  Tb3  1  0.745480  0.530740  0.985290  1.0  2.0809
  Tb  Tb4  1  0.254520  0.030740  0.514710  1.0  2.0822
  Ag  Ag5  1  0.302110  0.005920  0.024920  1.0  0.1829
  Ag  Ag6  1  0.697890  0.505920  0.475080  1.0  0.1828
  Ag  Ag7  1  0.697890  0.994080  0.975080  1.0  0.1826
  Ag  Ag8  1  0.302110  0.494080  0.524920  1.0  0.1829
  H  H9  1  0.535800  0.969300  0.178600  1.0  0.056
  H  H10  1  0.612500  0.876600  0.256500  1.0  0.0906
  H  H11  1  0.514600  0.767600  0.216600  1.0  0.0894
  H  H12  1  0.266300  0.850100  0.023200  1.0  0.0722
  H  H13  1  0.215300  0.734100  0.042500  1.0  0.062
  H  H14  1  0.254600  0.705900  0.126200  1.0  0.0675
  H  H15  1  0.496800  0.702900  0.025500  1.0  0.1036
  H  H16  1  0.542800  0.677600  0.110000  1.0  0.0921
  H  H17  1  0.729700  0.665200  0.493500  1.0  0.0532
  H  H18  1  0.849500  0.745700  0.581000  1.0  0.0906
  H  H19  1  0.017200  0.710300  0.695300  1.0  0.091
  H  H20  1  0.947600  0.516300  0.623700  1.0  0.062
  H  H21  1  0.200700  0.613000  0.764600  1.0  0.071
  H  H22  1  0.160700  0.537200  0.735600  1.0  0.0576
  H  H23  1  0.946100  0.615300  0.815600  1.0  0.0923
  H  H24  1  0.892400  0.542300  0.781700  1.0  0.0951
  H  H25  1  0.464200  0.469300  0.321400  1.0  0.0577
  H  H26  1  0.387500  0.376600  0.243500  1.0  0.0909
  H  H27  1  0.485400  0.267600  0.283400  1.0  0.0896
  H  H28  1  0.733700  0.350100  0.476800  1.0  0.071
  H  H29  1  0.784700  0.234100  0.457500  1.0  0.0623
  H  H30  1  0.745400  0.205900  0.373800  1.0  0.0671
  H  H31  1  0.503200  0.202900  0.474500  1.0  0.1037
  H  H32  1  0.457200  0.177600  0.390000  1.0  0.0935
  H  H33  1  0.270300  0.165200  0.006500  1.0  0.0517
  H  H34  1  0.150500  0.245700  0.919000  1.0  0.0904
  H  H35  1  0.982800  0.210300  0.804700  1.0  0.0921
  H  H36  1  0.052400  0.016300  0.876300  1.0  0.062
  H  H37  1  0.799300  0.113000  0.735400  1.0  0.0706
  H  H38  1  0.839300  0.037200  0.764400  1.0  0.0588
  H  H39  1  0.053900  0.115300  0.684400  1.0  0.0939
  H  H40  1  0.107600  0.042300  0.718300  1.0  0.0938
  H  H41  1  0.464200  0.030700  0.821400  1.0  0.0571
  H  H42  1  0.387500  0.123400  0.743500  1.0  0.0909
  H  H43  1  0.485400  0.232400  0.783400  1.0  0.0898
  H  H44  1  0.733700  0.149900  0.976800  1.0  0.0712
  H  H45  1  0.784700  0.265900  0.957500  1.0  0.0623
  H  H46  1  0.745400  0.294100  0.873800  1.0  0.0675
  H  H47  1  0.503200  0.297100  0.974500  1.0  0.1037
  H  H48  1  0.457200  0.322400  0.890000  1.0  0.0933
  H  H49  1  0.270300  0.334800  0.506500  1.0  0.0519
  H  H50  1  0.150500  0.254300  0.419000  1.0  0.091
  H  H51  1  0.982800  0.289700  0.304700  1.0  0.0908
  H  H52  1  0.052400  0.483700  0.376300  1.0  0.0597
  H  H53  1  0.799300  0.387000  0.235400  1.0  0.0706
  H  H54  1  0.839300  0.462800  0.264400  1.0  0.0585
  H  H55  1  0.053900  0.384700  0.184400  1.0  0.0938
  H  H56  1  0.107600  0.457700  0.218300  1.0  0.0939
  H  H57  1  0.535800  0.530700  0.678600  1.0  0.0568
  H  H58  1  0.612500  0.623400  0.756500  1.0  0.091
  H  H59  1  0.514600  0.732400  0.716600  1.0  0.0893
  H  H60  1  0.266300  0.649900  0.523200  1.0  0.0722
  H  H61  1  0.215300  0.765900  0.542500  1.0  0.0622
  H  H62  1  0.254600  0.794100  0.626200  1.0  0.067
  H  H63  1  0.496800  0.797100  0.525500  1.0  0.1036
  H  H64  1  0.542800  0.822400  0.610000  1.0  0.0914
  H  H65  1  0.729700  0.834800  0.993500  1.0  0.0528
  H  H66  1  0.849500  0.754300  0.081000  1.0  0.0909
  H  H67  1  0.017200  0.789700  0.195300  1.0  0.0906
  H  H68  1  0.947600  0.983700  0.123700  1.0  0.0594
  H  H69  1  0.200700  0.887000  0.264600  1.0  0.0718
  H  H70  1  0.160700  0.962800  0.235600  1.0  0.0574
  H  H71  1  0.946100  0.884700  0.315600  1.0  0.0933
  H  H72  1  0.892400  0.957700  0.281700  1.0  0.095
  C  C73  1  0.495500  0.925660  0.162240  1.0  0.1154
  C  C74  1  0.541900  0.870500  0.209030  1.0  -0.1606
  C  C75  1  0.483200  0.805590  0.185320  1.0  -0.0983
  C  C76  1  0.377600  0.797270  0.114800  1.0  0.0799
  C  C77  1  0.336700  0.855090  0.070910  1.0  0.0722
  C  C78  1  0.306600  0.727950  0.086900  1.0  -0.2261
  C  C79  1  0.448900  0.681450  0.066280  1.0  -0.4148
  C  C80  1  0.386600  0.610920  0.041860  1.0  0.7025
  C  C81  1  0.799400  0.650640  0.538610  1.0  0.1134
  C  C82  1  0.869700  0.699040  0.590930  1.0  -0.1532
  C  C83  1  0.970800  0.677990  0.658670  1.0  -0.0867
  C  C84  1  0.002800  0.608250  0.671820  1.0  0.0832
  C  C85  1  0.927500  0.563200  0.615540  1.0  0.1171
  C  C86  1  0.107500  0.580850  0.745170  1.0  -0.2614
  C  C87  1  0.991500  0.570690  0.803950  1.0  -0.4072
  C  C88  1  0.079100  0.538050  0.876710  1.0  0.7249
  C  C89  1  0.504500  0.425660  0.337760  1.0  0.1163
  C  C90  1  0.458100  0.370500  0.290970  1.0  -0.1617
  C  C91  1  0.516800  0.305590  0.314680  1.0  -0.0976
  C  C92  1  0.622400  0.297270  0.385200  1.0  0.0797
  C  C93  1  0.663300  0.355090  0.429090  1.0  0.07
  C  C94  1  0.693400  0.227950  0.413100  1.0  -0.2246
  C  C95  1  0.551100  0.181450  0.433720  1.0  -0.4134
  C  C96  1  0.613400  0.110920  0.458140  1.0  0.7019
  C  C97  1  0.200600  0.150640  0.961390  1.0  0.1116
  C  C98  1  0.130300  0.199040  0.909070  1.0  -0.1536
  C  C99  1  0.029200  0.177990  0.841330  1.0  -0.0881
  C  C100  1  0.997200  0.108250  0.828180  1.0  0.0816
  C  C101  1  0.072500  0.063200  0.884460  1.0  0.1169
  C  C102  1  0.892500  0.080850  0.754830  1.0  -0.2618
  C  C103  1  0.008500  0.070690  0.696050  1.0  -0.4041
  C  C104  1  0.920900  0.038050  0.623290  1.0  0.7263
  C  C105  1  0.504500  0.074340  0.837760  1.0  0.1166
  C  C106  1  0.458100  0.129500  0.790970  1.0  -0.1617
  C  C107  1  0.516800  0.194410  0.814680  1.0  -0.0967
  C  C108  1  0.622400  0.202730  0.885200  1.0  0.0793
  C  C109  1  0.663300  0.144910  0.929090  1.0  0.0706
  C  C110  1  0.693400  0.272050  0.913100  1.0  -0.2245
  C  C111  1  0.551100  0.318550  0.933720  1.0  -0.4153
  C  C112  1  0.613400  0.389080  0.958140  1.0  0.7016
  C  C113  1  0.200600  0.349360  0.461390  1.0  0.1111
  C  C114  1  0.130300  0.300960  0.409070  1.0  -0.1537
  C  C115  1  0.029200  0.322010  0.341330  1.0  -0.0874
  C  C116  1  0.997200  0.391750  0.328180  1.0  0.0816
  C  C117  1  0.072500  0.436800  0.384460  1.0  0.1181
  C  C118  1  0.892500  0.419150  0.254830  1.0  -0.2622
  C  C119  1  0.008500  0.429310  0.196050  1.0  -0.4036
  C  C120  1  0.920900  0.461950  0.123290  1.0  0.7269
  C  C121  1  0.495500  0.574340  0.662240  1.0  0.115
  C  C122  1  0.541900  0.629500  0.709030  1.0  -0.1607
  C  C123  1  0.483200  0.694410  0.685320  1.0  -0.0981
  C  C124  1  0.377600  0.702730  0.614800  1.0  0.0794
  C  C125  1  0.336700  0.644910  0.570910  1.0  0.0727
  C  C126  1  0.306600  0.772050  0.586900  1.0  -0.2258
  C  C127  1  0.448900  0.818550  0.566280  1.0  -0.4134
  C  C128  1  0.386600  0.889080  0.541860  1.0  0.7026
  C  C129  1  0.799400  0.849360  0.038610  1.0  0.114
  C  C130  1  0.869700  0.800960  0.090930  1.0  -0.1536
  C  C131  1  0.970800  0.822010  0.158670  1.0  -0.0865
  C  C132  1  0.002800  0.891750  0.171820  1.0  0.0833
  C  C133  1  0.927500  0.936800  0.115540  1.0  0.1169
  C  C134  1  0.107500  0.919150  0.245170  1.0  -0.2612
  C  C135  1  0.991500  0.929310  0.303950  1.0  -0.4087
  C  C136  1  0.079100  0.961950  0.376710  1.0  0.7252
  N  N137  1  0.393800  0.918970  0.093520  1.0  -0.3391
  N  N138  1  0.827400  0.582810  0.550020  1.0  -0.3355
  N  N139  1  0.606200  0.418970  0.406480  1.0  -0.3398
  N  N140  1  0.172600  0.082810  0.949980  1.0  -0.3352
  N  N141  1  0.606200  0.081030  0.906480  1.0  -0.3438
  N  N142  1  0.172600  0.417190  0.449980  1.0  -0.3349
  N  N143  1  0.393800  0.581030  0.593520  1.0  -0.3455
  N  N144  1  0.827400  0.917190  0.050020  1.0  -0.3333
  O  O145  1  0.489600  0.569100  0.018010  1.0  -0.849
  O  O146  1  0.235300  0.591000  0.046460  1.0  -0.6678
  O  O147  1  0.235200  0.518790  0.887240  1.0  -0.6636
  O  O148  1  0.990400  0.528400  0.929090  1.0  -0.8546
  O  O149  1  0.510400  0.069100  0.481990  1.0  -0.848
  O  O150  1  0.764700  0.091000  0.453540  1.0  -0.6679
  O  O151  1  0.764800  0.018790  0.612760  1.0  -0.6639
  O  O152  1  0.009600  0.028400  0.570910  1.0  -0.857
  O  O153  1  0.510400  0.430900  0.981990  1.0  -0.8454
  O  O154  1  0.764700  0.409000  0.953540  1.0  -0.6684
  O  O155  1  0.764800  0.481210  0.112760  1.0  -0.6654
  O  O156  1  0.009600  0.471600  0.070910  1.0  -0.8564
  O  O157  1  0.489600  0.930900  0.518010  1.0  -0.8446
  O  O158  1  0.235300  0.909000  0.546460  1.0  -0.6692
  O  O159  1  0.235200  0.981210  0.387240  1.0  -0.6645
  O  O160  1  0.990400  0.971600  0.429090  1.0  -0.8545
