# generated using pymatgen
data_Cd3C7N5
_symmetry_space_group_name_H-M   'P 1'
_cell_length_a   8.69400000
_cell_length_b   16.90800000
_cell_length_c   21.15700000
_cell_angle_alpha   90.00000000
_cell_angle_beta   90.00000000
_cell_angle_gamma   90.00000000
_symmetry_Int_Tables_number   1
_chemical_formula_structural   Cd3C7N5
_chemical_formula_sum   'Cd12 C28 N20'
_cell_volume   3110.03990186
_cell_formula_units_Z   4
loop_
 _symmetry_equiv_pos_site_id
 _symmetry_equiv_pos_as_xyz
  1  'x, y, z'
loop_
 _atom_site_type_symbol
 _atom_site_label
 _atom_site_symmetry_multiplicity
 _atom_site_fract_x
 _atom_site_fract_y
 _atom_site_fract_z
 _atom_site_occupancy
 _atom_site_charge
  Cd  Cd1  1  0.510490  0.124960  0.414980  1.0  0.5989
  Cd  Cd2  1  0.489510  0.875040  0.914980  1.0  0.6004
  Cd  Cd3  1  0.489510  0.624960  0.085020  1.0  0.5997
  Cd  Cd4  1  0.510490  0.375040  0.585020  1.0  0.5995
  Cd  Cd5  1  0.489510  0.875040  0.585020  1.0  0.6509
  Cd  Cd6  1  0.510490  0.124960  0.085020  1.0  0.6494
  Cd  Cd7  1  0.510490  0.375040  0.914980  1.0  0.6499
  Cd  Cd8  1  0.489510  0.624960  0.414980  1.0  0.6503
  Cd  Cd9  1  0.010460  0.123740  0.250000  1.0  1.0604
  Cd  Cd10  1  0.989540  0.876260  0.750000  1.0  1.0605
  Cd  Cd11  1  0.989540  0.623740  0.250000  1.0  1.0594
  Cd  Cd12  1  0.010460  0.376260  0.750000  1.0  1.0614
  C  C13  1  0.720200  0.118000  0.357500  1.0  -0.01
  C  C14  1  0.300500  0.132200  0.357600  1.0  -0.0235
  C  C15  1  0.521700  0.224800  0.481600  1.0  -0.0951
  C  C16  1  0.501400  0.024800  0.481700  1.0  -0.0128
  C  C17  1  0.279800  0.882000  0.857500  1.0  -0.01
  C  C18  1  0.699500  0.867800  0.857600  1.0  -0.0244
  C  C19  1  0.478300  0.775200  0.981600  1.0  -0.0957
  C  C20  1  0.498600  0.975200  0.981700  1.0  -0.0119
  C  C21  1  0.279800  0.618000  0.142500  1.0  -0.0082
  C  C22  1  0.699500  0.632200  0.142400  1.0  -0.0221
  C  C23  1  0.478300  0.724800  0.018400  1.0  -0.0949
  C  C24  1  0.498600  0.524800  0.018300  1.0  -0.0124
  C  C25  1  0.720200  0.382000  0.642500  1.0  -0.0079
  C  C26  1  0.300500  0.367800  0.642400  1.0  -0.0217
  C  C27  1  0.521700  0.275200  0.518400  1.0  -0.0954
  C  C28  1  0.501400  0.475200  0.518300  1.0  -0.0112
  C  C29  1  0.279800  0.882000  0.642500  1.0  -0.0067
  C  C30  1  0.699500  0.867800  0.642400  1.0  -0.0221
  C  C31  1  0.478300  0.775200  0.518400  1.0  -0.0957
  C  C32  1  0.720200  0.118000  0.142500  1.0  -0.006
  C  C33  1  0.300500  0.132200  0.142400  1.0  -0.0216
  C  C34  1  0.521700  0.224800  0.018400  1.0  -0.0948
  C  C35  1  0.720200  0.382000  0.857500  1.0  -0.0084
  C  C36  1  0.300500  0.367800  0.857600  1.0  -0.0236
  C  C37  1  0.521700  0.275200  0.981600  1.0  -0.0955
  C  C38  1  0.279800  0.618000  0.357500  1.0  -0.0084
  C  C39  1  0.699500  0.632200  0.357600  1.0  -0.0243
  C  C40  1  0.478300  0.724800  0.481600  1.0  -0.0953
  N  N41  1  0.824200  0.112800  0.326400  1.0  -0.41
  N  N42  1  0.196600  0.134400  0.325700  1.0  -0.4113
  N  N43  1  0.498600  0.975200  0.518300  1.0  -0.4002
  N  N44  1  0.175800  0.887200  0.826400  1.0  -0.4118
  N  N45  1  0.803400  0.865600  0.825700  1.0  -0.4114
  N  N46  1  0.501400  0.024800  0.018300  1.0  -0.4011
  N  N47  1  0.175800  0.612800  0.173600  1.0  -0.4116
  N  N48  1  0.803400  0.634400  0.174300  1.0  -0.4113
  N  N49  1  0.501400  0.475200  0.981700  1.0  -0.3998
  N  N50  1  0.824200  0.387200  0.673600  1.0  -0.4104
  N  N51  1  0.196600  0.365600  0.674300  1.0  -0.4117
  N  N52  1  0.498600  0.524800  0.481700  1.0  -0.4009
  N  N53  1  0.175800  0.887200  0.673600  1.0  -0.4119
  N  N54  1  0.803400  0.865600  0.674300  1.0  -0.4116
  N  N55  1  0.824200  0.112800  0.173600  1.0  -0.4101
  N  N56  1  0.196600  0.134400  0.174300  1.0  -0.4115
  N  N57  1  0.824200  0.387200  0.826400  1.0  -0.4103
  N  N58  1  0.196600  0.365600  0.825700  1.0  -0.4115
  N  N59  1  0.175800  0.612800  0.326400  1.0  -0.4116
  N  N60  1  0.803400  0.634400  0.325700  1.0  -0.4112
