# generated using pymatgen
data_Cd(CN)2
_symmetry_space_group_name_H-M   'P 1'
_cell_length_a   8.69500000
_cell_length_b   8.54800000
_cell_length_c   21.09200000
_cell_angle_alpha   90.00000000
_cell_angle_beta   90.00000000
_cell_angle_gamma   90.00000000
_symmetry_Int_Tables_number   1
_chemical_formula_structural   Cd(CN)2
_chemical_formula_sum   'Cd6 C12 N12'
_cell_volume   1567.65994712
_cell_formula_units_Z   6
loop_
 _symmetry_equiv_pos_site_id
 _symmetry_equiv_pos_as_xyz
  1  'x, y, z'
loop_
 _atom_site_type_symbol
 _atom_site_label
 _atom_site_symmetry_multiplicity
 _atom_site_fract_x
 _atom_site_fract_y
 _atom_site_fract_z
 _atom_site_occupancy
 _atom_site_charge
  Cd  Cd1  1  0.000000  0.000000  0.000000  1.0  0.9539
  Cd  Cd2  1  0.000000  0.500000  0.500000  1.0  0.9539
  Cd  Cd3  1  0.500000  0.000000  0.835200  1.0  0.66
  Cd  Cd4  1  0.500000  0.000000  0.167500  1.0  1.006
  Cd  Cd5  1  0.500000  0.500000  0.335200  1.0  0.66
  Cd  Cd6  1  0.500000  0.500000  0.667500  1.0  1.006
  C  C7  1  0.294200  0.000000  0.892600  1.0  0.0272
  C  C8  1  0.172900  0.000000  0.074200  1.0  -0.0443
  C  C9  1  0.294200  0.500000  0.392600  1.0  0.0272
  C  C10  1  0.172900  0.500000  0.574200  1.0  -0.0443
  C  C11  1  0.705800  0.000000  0.892600  1.0  0.0276
  C  C12  1  0.827100  0.000000  0.074200  1.0  -0.0442
  C  C13  1  0.705800  0.500000  0.392600  1.0  0.0276
  C  C14  1  0.827100  0.500000  0.574200  1.0  -0.0442
  C  C15  1  0.500000  0.794000  0.775100  1.0  -0.0172
  C  C16  1  0.500000  0.294000  0.275100  1.0  -0.0172
  C  C17  1  0.500000  0.206000  0.775100  1.0  -0.017
  C  C18  1  0.500000  0.706000  0.275100  1.0  -0.017
  N  N19  1  0.189500  0.000000  0.925200  1.0  -0.4166
  N  N20  1  0.274500  0.000000  0.108200  1.0  -0.4099
  N  N21  1  0.189500  0.500000  0.425200  1.0  -0.4166
  N  N22  1  0.274500  0.500000  0.608200  1.0  -0.4099
  N  N23  1  0.810500  0.000000  0.925200  1.0  -0.4202
  N  N24  1  0.725500  0.000000  0.108200  1.0  -0.409
  N  N25  1  0.810500  0.500000  0.425200  1.0  -0.4202
  N  N26  1  0.725500  0.500000  0.608200  1.0  -0.409
  N  N27  1  0.500000  0.696200  0.738200  1.0  -0.448
  N  N28  1  0.500000  0.196200  0.238200  1.0  -0.448
  N  N29  1  0.500000  0.303800  0.738200  1.0  -0.4484
  N  N30  1  0.500000  0.803800  0.238200  1.0  -0.4484
