# generated using pymatgen
data_Cd3C8(N2O)4
_symmetry_space_group_name_H-M   'P 1'
_cell_length_a   8.54800000
_cell_length_b   21.09200000
_cell_length_c   8.69500000
_cell_angle_alpha   90.00000000
_cell_angle_beta   90.00000000
_cell_angle_gamma   90.00000000
_symmetry_Int_Tables_number   1
_chemical_formula_structural   Cd3C8(N2O)4
_chemical_formula_sum   'Cd6 C16 N16 O8'
_cell_volume   1567.65994712
_cell_formula_units_Z   2
loop_
 _symmetry_equiv_pos_site_id
 _symmetry_equiv_pos_as_xyz
  1  'x, y, z'
loop_
 _atom_site_type_symbol
 _atom_site_label
 _atom_site_symmetry_multiplicity
 _atom_site_fract_x
 _atom_site_fract_y
 _atom_site_fract_z
 _atom_site_occupancy
 _atom_site_charge
  Cd  Cd1  1  0.000000  0.000000  0.000000  1.0  1.1546
  Cd  Cd2  1  0.500000  0.500000  0.000000  1.0  1.1546
  Cd  Cd3  1  0.000000  0.833970  0.500000  1.0  1.0449
  Cd  Cd4  1  0.500000  0.333970  0.500000  1.0  1.0449
  Cd  Cd5  1  0.000000  0.166030  0.500000  1.0  1.0458
  Cd  Cd6  1  0.500000  0.666030  0.500000  1.0  1.0458
  C  C7  1  0.000000  0.891600  0.289500  1.0  0.1545
  C  C8  1  0.500000  0.391600  0.289500  1.0  0.1545
  C  C9  1  0.000000  0.108400  0.289500  1.0  0.1543
  C  C10  1  0.500000  0.608400  0.289500  1.0  0.1543
  C  C11  1  0.000000  0.891600  0.710500  1.0  0.1549
  C  C12  1  0.500000  0.391600  0.710500  1.0  0.1549
  C  C13  1  0.000000  0.108400  0.710500  1.0  0.155
  C  C14  1  0.500000  0.608400  0.710500  1.0  0.155
  C  C15  1  0.822000  0.759800  0.500000  1.0  0.1395
  C  C16  1  0.322000  0.259800  0.500000  1.0  0.1395
  C  C17  1  0.178000  0.240200  0.500000  1.0  0.1413
  C  C18  1  0.678000  0.740200  0.500000  1.0  0.1413
  C  C19  1  0.178000  0.759800  0.500000  1.0  0.1433
  C  C20  1  0.678000  0.259800  0.500000  1.0  0.1433
  C  C21  1  0.822000  0.240200  0.500000  1.0  0.138
  C  C22  1  0.322000  0.740200  0.500000  1.0  0.138
  N  N23  1  0.000000  0.923900  0.187600  1.0  -0.2516
  N  N24  1  0.500000  0.423900  0.187600  1.0  -0.2516
  N  N25  1  0.000000  0.076100  0.187600  1.0  -0.2525
  N  N26  1  0.500000  0.576100  0.187600  1.0  -0.2525
  N  N27  1  0.000000  0.923900  0.812400  1.0  -0.2513
  N  N28  1  0.500000  0.423900  0.812400  1.0  -0.2513
  N  N29  1  0.000000  0.076100  0.812400  1.0  -0.2525
  N  N30  1  0.500000  0.576100  0.812400  1.0  -0.2525
  N  N31  1  0.785000  0.772500  0.500000  1.0  -0.337
  N  N32  1  0.285000  0.272500  0.500000  1.0  -0.337
  N  N33  1  0.215000  0.227500  0.500000  1.0  -0.331
  N  N34  1  0.715000  0.727500  0.500000  1.0  -0.331
  N  N35  1  0.215000  0.772500  0.500000  1.0  -0.3344
  N  N36  1  0.715000  0.272500  0.500000  1.0  -0.3344
  N  N37  1  0.785000  0.227500  0.500000  1.0  -0.3316
  N  N38  1  0.285000  0.727500  0.500000  1.0  -0.3316
  O  O39  1  0.272300  0.000000  0.963800  1.0  -0.5173
  O  O40  1  0.772300  0.500000  0.963800  1.0  -0.5173
  O  O41  1  0.727700  0.000000  0.963800  1.0  -0.5196
  O  O42  1  0.227700  0.500000  0.963800  1.0  -0.5196
  O  O43  1  0.727700  0.000000  0.036200  1.0  -0.5245
  O  O44  1  0.227700  0.500000  0.036200  1.0  -0.5245
  O  O45  1  0.272300  0.000000  0.036200  1.0  -0.5226
  O  O46  1  0.772300  0.500000  0.036200  1.0  -0.5226
