# generated using pymatgen
data_Cu(CO2)3
_symmetry_space_group_name_H-M   'P 1'
_cell_length_a   8.75950000
_cell_length_b   33.91810000
_cell_length_c   8.70690000
_cell_angle_alpha   90.00000000
_cell_angle_beta   107.79700000
_cell_angle_gamma   90.00000000
_symmetry_Int_Tables_number   1
_chemical_formula_structural   Cu(CO2)3
_chemical_formula_sum   'Cu8 C24 O48'
_cell_volume   2463.07514794
_cell_formula_units_Z   8
loop_
 _symmetry_equiv_pos_site_id
 _symmetry_equiv_pos_as_xyz
  1  'x, y, z'
loop_
 _atom_site_type_symbol
 _atom_site_label
 _atom_site_symmetry_multiplicity
 _atom_site_fract_x
 _atom_site_fract_y
 _atom_site_fract_z
 _atom_site_occupancy
 _atom_site_charge
  Cu  Cu1  1  0.750700  0.203650  0.486960  1.0  0.7285
  Cu  Cu2  1  0.740640  0.045780  0.499830  1.0  0.7259
  Cu  Cu3  1  0.249300  0.703650  0.013040  1.0  0.7284
  Cu  Cu4  1  0.259360  0.545780  0.000170  1.0  0.7262
  Cu  Cu5  1  0.249300  0.796350  0.513040  1.0  0.728
  Cu  Cu6  1  0.259360  0.954220  0.500170  1.0  0.7269
  Cu  Cu7  1  0.750700  0.296350  0.986960  1.0  0.7279
  Cu  Cu8  1  0.740640  0.454220  0.999830  1.0  0.7267
  C  C9  1  0.820100  0.123640  0.565900  1.0  0.6841
  C  C10  1  0.671600  0.126000  0.411900  1.0  0.6755
  C  C11  1  0.816400  0.258970  0.727000  1.0  0.6625
  C  C12  1  0.665700  0.236880  0.740700  1.0  0.6371
  C  C13  1  0.001600  0.010920  0.421400  1.0  0.668
  C  C14  1  0.486200  0.011780  0.571000  1.0  0.6416
  C  C15  1  0.179900  0.623640  0.934100  1.0  0.6839
  C  C16  1  0.328400  0.626000  0.088100  1.0  0.6781
  C  C17  1  0.183600  0.758970  0.773000  1.0  0.6609
  C  C18  1  0.334300  0.736880  0.759300  1.0  0.6366
  C  C19  1  0.998400  0.510920  0.078600  1.0  0.6678
  C  C20  1  0.513800  0.511780  0.929000  1.0  0.6409
  C  C21  1  0.179900  0.876360  0.434100  1.0  0.6839
  C  C22  1  0.328400  0.874000  0.588100  1.0  0.6781
  C  C23  1  0.183600  0.741030  0.273000  1.0  0.6611
  C  C24  1  0.334300  0.763120  0.259300  1.0  0.6363
  C  C25  1  0.998400  0.989080  0.578600  1.0  0.6677
  C  C26  1  0.513800  0.988220  0.429000  1.0  0.6435
  C  C27  1  0.820100  0.376360  0.065900  1.0  0.6841
  C  C28  1  0.671600  0.374000  0.911900  1.0  0.6755
  C  C29  1  0.816400  0.241030  0.227000  1.0  0.6628
  C  C30  1  0.665700  0.263120  0.240700  1.0  0.6369
  C  C31  1  0.001600  0.489080  0.921400  1.0  0.6676
  C  C32  1  0.486200  0.488220  0.071000  1.0  0.6459
  O  O33  1  0.893580  0.154580  0.615450  1.0  -0.4903
  O  O34  1  0.854800  0.090300  0.629150  1.0  -0.4268
  O  O35  1  0.621990  0.159870  0.364560  1.0  -0.4203
  O  O36  1  0.614430  0.094580  0.347340  1.0  -0.4805
  O  O37  1  0.624260  0.207030  0.650060  1.0  -0.4703
  O  O38  1  0.596400  0.249280  0.834100  1.0  -0.4492
  O  O39  1  0.877830  0.246070  0.624250  1.0  -0.4485
  O  O40  1  0.864670  0.287720  0.816990  1.0  -0.4292
  O  O41  1  0.909250  0.040290  0.381510  1.0  -0.4676
  O  O42  1  0.091000  0.998600  0.347730  1.0  -0.4463
  O  O43  1  0.572040  0.041370  0.617680  1.0  -0.4523
  O  O44  1  0.380730  0.999100  0.627380  1.0  -0.4384
  O  O45  1  0.106420  0.654580  0.884550  1.0  -0.4902
  O  O46  1  0.145200  0.590300  0.870850  1.0  -0.4255
  O  O47  1  0.378010  0.659870  0.135440  1.0  -0.4204
  O  O48  1  0.385570  0.594580  0.152660  1.0  -0.4807
  O  O49  1  0.375740  0.707030  0.849940  1.0  -0.4728
  O  O50  1  0.403600  0.749280  0.665900  1.0  -0.4519
  O  O51  1  0.122170  0.746070  0.875750  1.0  -0.4491
  O  O52  1  0.135330  0.787720  0.683010  1.0  -0.4299
  O  O53  1  0.090750  0.540290  0.118490  1.0  -0.4688
  O  O54  1  0.909000  0.498600  0.152270  1.0  -0.4476
  O  O55  1  0.427960  0.541370  0.882320  1.0  -0.4523
  O  O56  1  0.619270  0.499100  0.872620  1.0  -0.4394
  O  O57  1  0.106420  0.845420  0.384550  1.0  -0.4902
  O  O58  1  0.145200  0.909700  0.370850  1.0  -0.4266
  O  O59  1  0.378010  0.840130  0.635440  1.0  -0.4201
  O  O60  1  0.385570  0.905420  0.652660  1.0  -0.4799
  O  O61  1  0.375740  0.792970  0.349940  1.0  -0.47
  O  O62  1  0.403600  0.750720  0.165900  1.0  -0.4525
  O  O63  1  0.122170  0.753930  0.375750  1.0  -0.4494
  O  O64  1  0.135330  0.712280  0.183010  1.0  -0.429
  O  O65  1  0.090750  0.959710  0.618490  1.0  -0.4693
  O  O66  1  0.909000  0.001400  0.652270  1.0  -0.4468
  O  O67  1  0.427960  0.958630  0.382320  1.0  -0.452
  O  O68  1  0.619270  0.000900  0.372620  1.0  -0.4399
  O  O69  1  0.893580  0.345420  0.115450  1.0  -0.4903
  O  O70  1  0.854800  0.409700  0.129150  1.0  -0.4274
  O  O71  1  0.621990  0.340130  0.864560  1.0  -0.4204
  O  O72  1  0.614430  0.405420  0.847340  1.0  -0.4796
  O  O73  1  0.624260  0.292970  0.150060  1.0  -0.4706
  O  O74  1  0.596400  0.250720  0.334100  1.0  -0.4506
  O  O75  1  0.877830  0.253930  0.124250  1.0  -0.4488
  O  O76  1  0.864670  0.212280  0.316990  1.0  -0.4302
  O  O77  1  0.909250  0.459710  0.881510  1.0  -0.4681
  O  O78  1  0.091000  0.501400  0.847730  1.0  -0.4465
  O  O79  1  0.572040  0.458630  0.117680  1.0  -0.4536
  O  O80  1  0.380730  0.500900  0.127380  1.0  -0.4389
