# generated using pymatgen
data_Cu(CO2)3
_symmetry_space_group_name_H-M   'P 1'
_cell_length_a   8.68170000
_cell_length_b   34.18020000
_cell_length_c   8.58220000
_cell_angle_alpha   90.00000000
_cell_angle_beta   107.60000000
_cell_angle_gamma   90.00000000
_symmetry_Int_Tables_number   1
_chemical_formula_structural   Cu(CO2)3
_chemical_formula_sum   'Cu8 C24 O48'
_cell_volume   2427.49188633
_cell_formula_units_Z   8
loop_
 _symmetry_equiv_pos_site_id
 _symmetry_equiv_pos_as_xyz
  1  'x, y, z'
loop_
 _atom_site_type_symbol
 _atom_site_label
 _atom_site_symmetry_multiplicity
 _atom_site_fract_x
 _atom_site_fract_y
 _atom_site_fract_z
 _atom_site_occupancy
 _atom_site_charge
  Cu  Cu1  1  0.748340  0.203400  0.476830  1.0  0.7779
  Cu  Cu2  1  0.737520  0.045540  0.498200  1.0  0.9736
  Cu  Cu3  1  0.251660  0.703400  0.023170  1.0  0.7782
  Cu  Cu4  1  0.262480  0.545540  0.001800  1.0  0.9735
  Cu  Cu5  1  0.251660  0.796600  0.523170  1.0  0.7771
  Cu  Cu6  1  0.262480  0.954460  0.501800  1.0  0.9736
  Cu  Cu7  1  0.748340  0.296600  0.976830  1.0  0.7768
  Cu  Cu8  1  0.737520  0.454460  0.998200  1.0  0.9738
  C  C9  1  0.817700  0.123210  0.560900  1.0  0.6625
  C  C10  1  0.669500  0.125900  0.402800  1.0  0.6777
  C  C11  1  0.809700  0.258700  0.714800  1.0  0.6501
  C  C12  1  0.658600  0.236080  0.727500  1.0  0.5965
  C  C13  1  0.999800  0.011440  0.421100  1.0  0.656
  C  C14  1  0.484500  0.012370  0.569100  1.0  0.6243
  C  C15  1  0.182300  0.623210  0.939100  1.0  0.665
  C  C16  1  0.330500  0.625900  0.097200  1.0  0.6791
  C  C17  1  0.190300  0.758700  0.785200  1.0  0.6556
  C  C18  1  0.341400  0.736080  0.772500  1.0  0.5965
  C  C19  1  0.000200  0.511440  0.078900  1.0  0.6549
  C  C20  1  0.515500  0.512370  0.930900  1.0  0.6157
  C  C21  1  0.182300  0.876790  0.439100  1.0  0.665
  C  C22  1  0.330500  0.874100  0.597200  1.0  0.6773
  C  C23  1  0.190300  0.741300  0.285200  1.0  0.6497
  C  C24  1  0.341400  0.763920  0.272500  1.0  0.5971
  C  C25  1  0.000200  0.988560  0.578900  1.0  0.6545
  C  C26  1  0.515500  0.987630  0.430900  1.0  0.6148
  C  C27  1  0.817700  0.376790  0.060900  1.0  0.6624
  C  C28  1  0.669500  0.374100  0.902800  1.0  0.6734
  C  C29  1  0.809700  0.241300  0.214800  1.0  0.6515
  C  C30  1  0.658600  0.263920  0.227500  1.0  0.5968
  C  C31  1  0.999800  0.488560  0.921100  1.0  0.6548
  C  C32  1  0.484500  0.487630  0.069100  1.0  0.6248
  O  O33  1  0.896410  0.153470  0.608610  1.0  -0.4895
  O  O34  1  0.847180  0.090080  0.628510  1.0  -0.4293
  O  O35  1  0.620840  0.159970  0.355170  1.0  -0.4371
  O  O36  1  0.611380  0.095040  0.334910  1.0  -0.4875
  O  O37  1  0.622960  0.205710  0.637020  1.0  -0.4899
  O  O38  1  0.584580  0.248120  0.819100  1.0  -0.4653
  O  O39  1  0.873490  0.246380  0.610660  1.0  -0.4786
  O  O40  1  0.857080  0.287570  0.805740  1.0  -0.4547
  O  O41  1  0.905830  0.041000  0.385670  1.0  -0.4888
  O  O42  1  0.088190  0.000270  0.341730  1.0  -0.4787
  O  O43  1  0.568680  0.042480  0.611590  1.0  -0.4499
  O  O44  1  0.377600  0.000270  0.627680  1.0  -0.4616
  O  O45  1  0.103590  0.653470  0.891390  1.0  -0.4901
  O  O46  1  0.152820  0.590080  0.871490  1.0  -0.4276
  O  O47  1  0.379160  0.659970  0.144830  1.0  -0.4386
  O  O48  1  0.388620  0.595040  0.165090  1.0  -0.4888
  O  O49  1  0.377040  0.705710  0.862980  1.0  -0.4923
  O  O50  1  0.415420  0.748120  0.680900  1.0  -0.4654
  O  O51  1  0.126510  0.746380  0.889340  1.0  -0.4746
  O  O52  1  0.142920  0.787570  0.694260  1.0  -0.4569
  O  O53  1  0.094170  0.541000  0.114330  1.0  -0.4905
  O  O54  1  0.911810  0.500270  0.158270  1.0  -0.4785
  O  O55  1  0.431320  0.542480  0.888410  1.0  -0.452
  O  O56  1  0.622400  0.500270  0.872320  1.0  -0.4601
  O  O57  1  0.103590  0.846530  0.391390  1.0  -0.4877
  O  O58  1  0.152820  0.909920  0.371490  1.0  -0.4253
  O  O59  1  0.379160  0.840030  0.644830  1.0  -0.4428
  O  O60  1  0.388620  0.904960  0.665090  1.0  -0.4922
  O  O61  1  0.377040  0.794290  0.362980  1.0  -0.4899
  O  O62  1  0.415420  0.751880  0.180900  1.0  -0.464
  O  O63  1  0.126510  0.753620  0.389340  1.0  -0.4738
  O  O64  1  0.142920  0.712430  0.194260  1.0  -0.4607
  O  O65  1  0.094170  0.959000  0.614330  1.0  -0.4914
  O  O66  1  0.911810  0.999730  0.658270  1.0  -0.4781
  O  O67  1  0.431320  0.957520  0.388410  1.0  -0.453
  O  O68  1  0.622400  0.999730  0.372320  1.0  -0.46
  O  O69  1  0.896410  0.346530  0.108610  1.0  -0.4869
  O  O70  1  0.847180  0.409920  0.128510  1.0  -0.4275
  O  O71  1  0.620840  0.340030  0.855170  1.0  -0.4402
  O  O72  1  0.611380  0.404960  0.834910  1.0  -0.4915
  O  O73  1  0.622960  0.294290  0.137020  1.0  -0.4907
  O  O74  1  0.584580  0.251880  0.319100  1.0  -0.4635
  O  O75  1  0.873490  0.253620  0.110660  1.0  -0.4759
  O  O76  1  0.857080  0.212430  0.305740  1.0  -0.4559
  O  O77  1  0.905830  0.459000  0.885670  1.0  -0.4901
  O  O78  1  0.088190  0.499730  0.841730  1.0  -0.4801
  O  O79  1  0.568680  0.457520  0.111590  1.0  -0.4507
  O  O80  1  0.377600  0.499730  0.127680  1.0  -0.4627
