# generated using pymatgen
data_Cu(CO2)3
_symmetry_space_group_name_H-M   'P 1'
_cell_length_a   8.74070000
_cell_length_b   33.98860000
_cell_length_c   8.67710000
_cell_angle_alpha   90.00000000
_cell_angle_beta   107.72500000
_cell_angle_gamma   90.00000000
_symmetry_Int_Tables_number   1
_chemical_formula_structural   Cu(CO2)3
_chemical_formula_sum   'Cu8 C24 O48'
_cell_volume   2455.45611994
_cell_formula_units_Z   8
loop_
 _symmetry_equiv_pos_site_id
 _symmetry_equiv_pos_as_xyz
  1  'x, y, z'
loop_
 _atom_site_type_symbol
 _atom_site_label
 _atom_site_symmetry_multiplicity
 _atom_site_fract_x
 _atom_site_fract_y
 _atom_site_fract_z
 _atom_site_occupancy
 _atom_site_charge
  Cu  Cu1  1  0.750560  0.203580  0.485050  1.0  0.7518
  Cu  Cu2  1  0.739800  0.045730  0.499240  1.0  0.7623
  Cu  Cu3  1  0.249440  0.703580  0.014950  1.0  0.7518
  Cu  Cu4  1  0.260200  0.545730  0.000760  1.0  0.7626
  Cu  Cu5  1  0.249440  0.796420  0.514950  1.0  0.7511
  Cu  Cu6  1  0.260200  0.954270  0.500760  1.0  0.7634
  Cu  Cu7  1  0.750560  0.296420  0.985050  1.0  0.7509
  Cu  Cu8  1  0.739800  0.454270  0.999240  1.0  0.7633
  C  C9  1  0.819800  0.123490  0.564700  1.0  0.6813
  C  C10  1  0.671100  0.126010  0.409700  1.0  0.6931
  C  C11  1  0.814700  0.258860  0.724500  1.0  0.6332
  C  C12  1  0.664400  0.236580  0.738100  1.0  0.6157
  C  C13  1  0.000900  0.011050  0.421600  1.0  0.6587
  C  C14  1  0.485600  0.011850  0.570600  1.0  0.623
  C  C15  1  0.180200  0.623490  0.935300  1.0  0.6823
  C  C16  1  0.328900  0.626010  0.090300  1.0  0.6969
  C  C17  1  0.185300  0.758860  0.775500  1.0  0.6327
  C  C18  1  0.335600  0.736580  0.761900  1.0  0.6155
  C  C19  1  0.999100  0.511050  0.078400  1.0  0.6583
  C  C20  1  0.514400  0.511850  0.929400  1.0  0.6221
  C  C21  1  0.180200  0.876510  0.435300  1.0  0.6823
  C  C22  1  0.328900  0.873990  0.590300  1.0  0.6969
  C  C23  1  0.185300  0.741140  0.275500  1.0  0.6327
  C  C24  1  0.335600  0.763420  0.261900  1.0  0.6157
  C  C25  1  0.999100  0.988950  0.578400  1.0  0.6582
  C  C26  1  0.514400  0.988150  0.429400  1.0  0.6252
  C  C27  1  0.819800  0.376510  0.064700  1.0  0.6814
  C  C28  1  0.671100  0.373990  0.909700  1.0  0.6931
  C  C29  1  0.814700  0.241140  0.224500  1.0  0.6331
  C  C30  1  0.664400  0.263420  0.238100  1.0  0.6157
  C  C31  1  0.000900  0.488950  0.921600  1.0  0.6583
  C  C32  1  0.485600  0.488150  0.070600  1.0  0.6275
  O  O33  1  0.894730  0.154180  0.613850  1.0  -0.4906
  O  O34  1  0.852910  0.090150  0.628730  1.0  -0.4269
  O  O35  1  0.622140  0.159990  0.362750  1.0  -0.4217
  O  O36  1  0.613360  0.094830  0.344550  1.0  -0.4731
  O  O37  1  0.624550  0.206620  0.647690  1.0  -0.4733
  O  O38  1  0.593900  0.248870  0.831240  1.0  -0.4489
  O  O39  1  0.877010  0.246040  0.621470  1.0  -0.4461
  O  O40  1  0.863060  0.287600  0.814870  1.0  -0.4273
  O  O41  1  0.908240  0.040430  0.382390  1.0  -0.4637
  O  O42  1  0.090300  0.998980  0.346430  1.0  -0.4507
  O  O43  1  0.571190  0.041630  0.616230  1.0  -0.4458
  O  O44  1  0.380030  0.999310  0.627480  1.0  -0.4483
  O  O45  1  0.105270  0.654180  0.886150  1.0  -0.4916
  O  O46  1  0.147090  0.590150  0.871270  1.0  -0.4263
  O  O47  1  0.377860  0.659990  0.137250  1.0  -0.4223
  O  O48  1  0.386640  0.594830  0.155450  1.0  -0.4735
  O  O49  1  0.375450  0.706620  0.852310  1.0  -0.4751
  O  O50  1  0.406100  0.748870  0.668760  1.0  -0.4514
  O  O51  1  0.122990  0.746040  0.878530  1.0  -0.4461
  O  O52  1  0.136940  0.787600  0.685130  1.0  -0.4285
  O  O53  1  0.091760  0.540430  0.117610  1.0  -0.4668
  O  O54  1  0.909700  0.498980  0.153570  1.0  -0.451
  O  O55  1  0.428810  0.541630  0.883770  1.0  -0.4449
  O  O56  1  0.619970  0.499310  0.872520  1.0  -0.45
  O  O57  1  0.105270  0.845820  0.386150  1.0  -0.4918
  O  O58  1  0.147090  0.909850  0.371270  1.0  -0.4285
  O  O59  1  0.377860  0.840010  0.637250  1.0  -0.4224
  O  O60  1  0.386640  0.905170  0.655450  1.0  -0.4728
  O  O61  1  0.375450  0.793380  0.352310  1.0  -0.4729
  O  O62  1  0.406100  0.751130  0.168760  1.0  -0.4514
  O  O63  1  0.122990  0.753960  0.378530  1.0  -0.4464
  O  O64  1  0.136940  0.712400  0.185130  1.0  -0.4282
  O  O65  1  0.091760  0.959570  0.617610  1.0  -0.4673
  O  O66  1  0.909700  0.001020  0.653570  1.0  -0.4505
  O  O67  1  0.428810  0.958370  0.383770  1.0  -0.4429
  O  O68  1  0.619970  0.000690  0.372520  1.0  -0.45
  O  O69  1  0.894730  0.345820  0.113850  1.0  -0.4914
  O  O70  1  0.852910  0.409850  0.128730  1.0  -0.4285
  O  O71  1  0.622140  0.340010  0.862750  1.0  -0.4219
  O  O72  1  0.613360  0.405170  0.844550  1.0  -0.4728
  O  O73  1  0.624550  0.293380  0.147690  1.0  -0.4737
  O  O74  1  0.593900  0.251130  0.331240  1.0  -0.4495
  O  O75  1  0.877010  0.253960  0.121470  1.0  -0.4465
  O  O76  1  0.863060  0.212400  0.314870  1.0  -0.4281
  O  O77  1  0.908240  0.459570  0.882390  1.0  -0.4642
  O  O78  1  0.090300  0.501020  0.846430  1.0  -0.4506
  O  O79  1  0.571190  0.458370  0.116230  1.0  -0.4454
  O  O80  1  0.380030  0.500690  0.127480  1.0  -0.4487
