# generated using pymatgen
data_Cu(CO2)3
_symmetry_space_group_name_H-M   'P 1'
_cell_length_a   8.71560000
_cell_length_b   34.08130000
_cell_length_c   8.63600000
_cell_angle_alpha   90.00000000
_cell_angle_beta   107.63200000
_cell_angle_gamma   90.00000000
_symmetry_Int_Tables_number   1
_chemical_formula_structural   Cu(CO2)3
_chemical_formula_sum   'Cu8 C24 O48'
_cell_volume   2444.71839309
_cell_formula_units_Z   8
loop_
 _symmetry_equiv_pos_site_id
 _symmetry_equiv_pos_as_xyz
  1  'x, y, z'
loop_
 _atom_site_type_symbol
 _atom_site_label
 _atom_site_symmetry_multiplicity
 _atom_site_fract_x
 _atom_site_fract_y
 _atom_site_fract_z
 _atom_site_occupancy
 _atom_site_charge
  Cu  Cu1  1  0.749520  0.203510  0.482860  1.0  0.7761
  Cu  Cu2  1  0.738610  0.045600  0.498620  1.0  0.7832
  Cu  Cu3  1  0.250480  0.703510  0.017140  1.0  0.776
  Cu  Cu4  1  0.261390  0.545600  0.001380  1.0  0.7836
  Cu  Cu5  1  0.250480  0.796490  0.517140  1.0  0.7752
  Cu  Cu6  1  0.261390  0.954400  0.501380  1.0  0.7844
  Cu  Cu7  1  0.749520  0.296490  0.982860  1.0  0.7752
  Cu  Cu8  1  0.738610  0.454400  0.998620  1.0  0.7842
  C  C9  1  0.818700  0.123300  0.563500  1.0  0.6812
  C  C10  1  0.669900  0.125990  0.407200  1.0  0.6874
  C  C11  1  0.812200  0.258660  0.721800  1.0  0.67
  C  C12  1  0.662000  0.236340  0.734700  1.0  0.614
  C  C13  1  0.000600  0.011270  0.421300  1.0  0.6593
  C  C14  1  0.485100  0.012090  0.569900  1.0  0.6314
  C  C15  1  0.181300  0.623300  0.936500  1.0  0.6823
  C  C16  1  0.330100  0.625990  0.092800  1.0  0.6907
  C  C17  1  0.187800  0.758660  0.778200  1.0  0.6697
  C  C18  1  0.338000  0.736340  0.765300  1.0  0.6138
  C  C19  1  0.999400  0.511270  0.078700  1.0  0.6588
  C  C20  1  0.514900  0.512090  0.930100  1.0  0.6301
  C  C21  1  0.181300  0.876700  0.436500  1.0  0.6823
  C  C22  1  0.330100  0.874010  0.592800  1.0  0.6908
  C  C23  1  0.187800  0.741340  0.278200  1.0  0.6616
  C  C24  1  0.338000  0.763660  0.265300  1.0  0.6137
  C  C25  1  0.999400  0.988730  0.578700  1.0  0.659
  C  C26  1  0.514900  0.987910  0.430100  1.0  0.6349
  C  C27  1  0.818700  0.376700  0.063500  1.0  0.6812
  C  C28  1  0.669900  0.374010  0.907200  1.0  0.6874
  C  C29  1  0.812200  0.241340  0.221800  1.0  0.6621
  C  C30  1  0.662000  0.263660  0.234700  1.0  0.614
  C  C31  1  0.000600  0.488730  0.921300  1.0  0.6587
  C  C32  1  0.485100  0.487910  0.069900  1.0  0.6377
  O  O33  1  0.895280  0.153720  0.612200  1.0  -0.4906
  O  O34  1  0.850030  0.090020  0.628420  1.0  -0.4304
  O  O35  1  0.621650  0.160080  0.360710  1.0  -0.4315
  O  O36  1  0.612230  0.095110  0.340250  1.0  -0.4797
  O  O37  1  0.623900  0.206120  0.644420  1.0  -0.4719
  O  O38  1  0.589570  0.248320  0.827350  1.0  -0.4478
  O  O39  1  0.875400  0.246140  0.618140  1.0  -0.4616
  O  O40  1  0.860210  0.287500  0.812390  1.0  -0.4345
  O  O41  1  0.906530  0.040660  0.384040  1.0  -0.4709
  O  O42  1  0.089040  0.999780  0.344080  1.0  -0.4663
  O  O43  1  0.570370  0.041960  0.613980  1.0  -0.4496
  O  O44  1  0.379250  0.999760  0.627800  1.0  -0.4595
  O  O45  1  0.104720  0.653720  0.887800  1.0  -0.491
  O  O46  1  0.149970  0.590020  0.871580  1.0  -0.4304
  O  O47  1  0.378350  0.660080  0.139290  1.0  -0.4318
  O  O48  1  0.387770  0.595110  0.159750  1.0  -0.4812
  O  O49  1  0.376100  0.706120  0.855580  1.0  -0.4744
  O  O50  1  0.410430  0.748320  0.672650  1.0  -0.4505
  O  O51  1  0.124600  0.746140  0.881860  1.0  -0.4605
  O  O52  1  0.139790  0.787500  0.687610  1.0  -0.4362
  O  O53  1  0.093470  0.540660  0.115960  1.0  -0.4734
  O  O54  1  0.910960  0.499780  0.155920  1.0  -0.4659
  O  O55  1  0.429630  0.541960  0.886020  1.0  -0.45
  O  O56  1  0.620750  0.499760  0.872200  1.0  -0.4614
  O  O57  1  0.104720  0.846280  0.387800  1.0  -0.4935
  O  O58  1  0.149970  0.909980  0.371580  1.0  -0.4318
  O  O59  1  0.378350  0.839920  0.639290  1.0  -0.4318
  O  O60  1  0.387770  0.904890  0.659750  1.0  -0.4811
  O  O61  1  0.376100  0.793880  0.355580  1.0  -0.472
  O  O62  1  0.410430  0.751680  0.172650  1.0  -0.4506
  O  O63  1  0.124600  0.753860  0.381860  1.0  -0.4614
  O  O64  1  0.139790  0.712500  0.187610  1.0  -0.4364
  O  O65  1  0.093470  0.959340  0.615960  1.0  -0.4734
  O  O66  1  0.910960  0.000220  0.655920  1.0  -0.4652
  O  O67  1  0.429630  0.958040  0.386020  1.0  -0.4485
  O  O68  1  0.620750  0.000240  0.372200  1.0  -0.4612
  O  O69  1  0.895280  0.346280  0.112200  1.0  -0.4928
  O  O70  1  0.850030  0.409980  0.128420  1.0  -0.4313
  O  O71  1  0.621650  0.339920  0.860710  1.0  -0.4314
  O  O72  1  0.612230  0.404890  0.840250  1.0  -0.48
  O  O73  1  0.623900  0.293880  0.144420  1.0  -0.4727
  O  O74  1  0.589570  0.251680  0.327350  1.0  -0.449
  O  O75  1  0.875400  0.253860  0.118140  1.0  -0.4623
  O  O76  1  0.860210  0.212500  0.312390  1.0  -0.4361
  O  O77  1  0.906530  0.459340  0.884040  1.0  -0.4707
  O  O78  1  0.089040  0.500220  0.844080  1.0  -0.4666
  O  O79  1  0.570370  0.458040  0.113980  1.0  -0.4493
  O  O80  1  0.379250  0.500240  0.127800  1.0  -0.4597
