# generated using pymatgen
data_Cu(CO2)3
_symmetry_space_group_name_H-M   'P 1'
_cell_length_a   8.82940000
_cell_length_b   33.77190000
_cell_length_c   8.80520000
_cell_angle_alpha   90.00000000
_cell_angle_beta   107.90100000
_cell_angle_gamma   90.00000000
_symmetry_Int_Tables_number   1
_chemical_formula_structural   Cu(CO2)3
_chemical_formula_sum   'Cu8 C24 O48'
_cell_volume   2498.47692504
_cell_formula_units_Z   8
loop_
 _symmetry_equiv_pos_site_id
 _symmetry_equiv_pos_as_xyz
  1  'x, y, z'
loop_
 _atom_site_type_symbol
 _atom_site_label
 _atom_site_symmetry_multiplicity
 _atom_site_fract_x
 _atom_site_fract_y
 _atom_site_fract_z
 _atom_site_occupancy
 _atom_site_charge
  Cu  Cu1  1  0.746960  0.204060  0.497620  1.0  0.7389
  Cu  Cu2  1  0.742450  0.045690  0.502130  1.0  0.7341
  Cu  Cu3  1  0.253040  0.704060  0.002380  1.0  0.7389
  Cu  Cu4  1  0.257550  0.545690  0.997870  1.0  0.7349
  Cu  Cu5  1  0.253040  0.795940  0.502380  1.0  0.7384
  Cu  Cu6  1  0.257550  0.954310  0.497870  1.0  0.7356
  Cu  Cu7  1  0.746960  0.295940  0.997620  1.0  0.7382
  Cu  Cu8  1  0.742450  0.454310  0.002130  1.0  0.7349
  C  C9  1  0.818700  0.123920  0.572300  1.0  0.6733
  C  C10  1  0.669900  0.126010  0.420300  1.0  0.6716
  C  C11  1  0.814500  0.259190  0.738900  1.0  0.649
  C  C12  1  0.664700  0.237310  0.752000  1.0  0.647
  C  C13  1  0.002300  0.010860  0.422400  1.0  0.6771
  C  C14  1  0.488000  0.011400  0.571900  1.0  0.6434
  C  C15  1  0.181300  0.623920  0.927700  1.0  0.6723
  C  C16  1  0.330100  0.626010  0.079700  1.0  0.6743
  C  C17  1  0.185500  0.759190  0.761100  1.0  0.6482
  C  C18  1  0.335300  0.737310  0.748000  1.0  0.6465
  C  C19  1  0.997700  0.510860  0.077600  1.0  0.6763
  C  C20  1  0.512000  0.511400  0.928100  1.0  0.6421
  C  C21  1  0.181300  0.876080  0.427700  1.0  0.6724
  C  C22  1  0.330100  0.873990  0.579700  1.0  0.6742
  C  C23  1  0.185500  0.740810  0.261100  1.0  0.6478
  C  C24  1  0.335300  0.762690  0.248000  1.0  0.6455
  C  C25  1  0.997700  0.989140  0.577600  1.0  0.6763
  C  C26  1  0.512000  0.988600  0.428100  1.0  0.6422
  C  C27  1  0.818700  0.376080  0.072300  1.0  0.6734
  C  C28  1  0.669900  0.373990  0.920300  1.0  0.6716
  C  C29  1  0.814500  0.240810  0.238900  1.0  0.6487
  C  C30  1  0.664700  0.262690  0.252000  1.0  0.6458
  C  C31  1  0.002300  0.489140  0.922400  1.0  0.6768
  C  C32  1  0.488000  0.488600  0.071900  1.0  0.6442
  O  O33  1  0.886550  0.155320  0.623260  1.0  -0.4354
  O  O34  1  0.857200  0.090440  0.631370  1.0  -0.4408
  O  O35  1  0.618200  0.159750  0.375070  1.0  -0.425
  O  O36  1  0.615660  0.094300  0.356580  1.0  -0.4804
  O  O37  1  0.619710  0.208030  0.660860  1.0  -0.4799
  O  O38  1  0.598600  0.249700  0.847100  1.0  -0.451
  O  O39  1  0.874580  0.246210  0.638210  1.0  -0.4691
  O  O40  1  0.863570  0.287580  0.829790  1.0  -0.438
  O  O41  1  0.910690  0.040120  0.381130  1.0  -0.4628
  O  O42  1  0.092000  0.998240  0.350850  1.0  -0.4477
  O  O43  1  0.575500  0.040310  0.622380  1.0  -0.4571
  O  O44  1  0.382420  0.998510  0.626040  1.0  -0.4458
  O  O45  1  0.113450  0.655320  0.876740  1.0  -0.4345
  O  O46  1  0.142800  0.590440  0.868630  1.0  -0.4384
  O  O47  1  0.381800  0.659750  0.124930  1.0  -0.4261
  O  O48  1  0.384340  0.594300  0.143420  1.0  -0.4794
  O  O49  1  0.380290  0.708030  0.839140  1.0  -0.4788
  O  O50  1  0.401400  0.749700  0.652900  1.0  -0.4529
  O  O51  1  0.125420  0.746210  0.861790  1.0  -0.4686
  O  O52  1  0.136430  0.787580  0.670210  1.0  -0.4399
  O  O53  1  0.089310  0.540120  0.118870  1.0  -0.4659
  O  O54  1  0.908000  0.498240  0.149150  1.0  -0.4489
  O  O55  1  0.424500  0.540310  0.877620  1.0  -0.4583
  O  O56  1  0.617580  0.498510  0.873960  1.0  -0.4468
  O  O57  1  0.113450  0.844680  0.376740  1.0  -0.4349
  O  O58  1  0.142800  0.909560  0.368630  1.0  -0.4391
  O  O59  1  0.381800  0.840250  0.624930  1.0  -0.4255
  O  O60  1  0.384340  0.905700  0.643420  1.0  -0.4788
  O  O61  1  0.380290  0.791970  0.339140  1.0  -0.4756
  O  O62  1  0.401400  0.750300  0.152900  1.0  -0.4512
  O  O63  1  0.125420  0.753790  0.361790  1.0  -0.468
  O  O64  1  0.136430  0.712420  0.170210  1.0  -0.4385
  O  O65  1  0.089310  0.959880  0.618870  1.0  -0.4669
  O  O66  1  0.908000  0.001760  0.649150  1.0  -0.4484
  O  O67  1  0.424500  0.959690  0.377620  1.0  -0.458
  O  O68  1  0.617580  0.001490  0.373960  1.0  -0.4467
  O  O69  1  0.886550  0.344680  0.123260  1.0  -0.4356
  O  O70  1  0.857200  0.409560  0.131370  1.0  -0.4409
  O  O71  1  0.618200  0.340250  0.875070  1.0  -0.4248
  O  O72  1  0.615660  0.405700  0.856580  1.0  -0.4798
  O  O73  1  0.619710  0.291970  0.160860  1.0  -0.4781
  O  O74  1  0.598600  0.250300  0.347100  1.0  -0.4505
  O  O75  1  0.874580  0.253790  0.138210  1.0  -0.4682
  O  O76  1  0.863570  0.212420  0.329790  1.0  -0.438
  O  O77  1  0.910690  0.459880  0.881130  1.0  -0.4632
  O  O78  1  0.092000  0.501760  0.850850  1.0  -0.4481
  O  O79  1  0.575500  0.459690  0.122380  1.0  -0.4577
  O  O80  1  0.382420  0.501490  0.126040  1.0  -0.4459
