# generated using pymatgen
data_Cu(CO2)3
_symmetry_space_group_name_H-M   'P 1'
_cell_length_a   8.69870000
_cell_length_b   34.14080000
_cell_length_c   8.60810000
_cell_angle_alpha   90.00000000
_cell_angle_beta   107.57800000
_cell_angle_gamma   90.00000000
_symmetry_Int_Tables_number   1
_chemical_formula_structural   Cu(CO2)3
_chemical_formula_sum   'Cu8 C24 O48'
_cell_volume   2437.06995253
_cell_formula_units_Z   8
loop_
 _symmetry_equiv_pos_site_id
 _symmetry_equiv_pos_as_xyz
  1  'x, y, z'
loop_
 _atom_site_type_symbol
 _atom_site_label
 _atom_site_symmetry_multiplicity
 _atom_site_fract_x
 _atom_site_fract_y
 _atom_site_fract_z
 _atom_site_occupancy
 _atom_site_charge
  Cu  Cu1  1  0.748640  0.203470  0.480790  1.0  0.7754
  Cu  Cu2  1  0.737850  0.045530  0.498300  1.0  0.7777
  Cu  Cu3  1  0.251360  0.703470  0.019210  1.0  0.7757
  Cu  Cu4  1  0.262150  0.545530  0.001700  1.0  0.7779
  Cu  Cu5  1  0.251360  0.796530  0.519210  1.0  0.7746
  Cu  Cu6  1  0.262150  0.954470  0.501700  1.0  0.7785
  Cu  Cu7  1  0.748640  0.296530  0.980790  1.0  0.7743
  Cu  Cu8  1  0.737850  0.454470  0.998300  1.0  0.7784
  C  C9  1  0.817800  0.123230  0.562200  1.0  0.6743
  C  C10  1  0.669500  0.125950  0.405300  1.0  0.6745
  C  C11  1  0.810400  0.258630  0.719300  1.0  0.6728
  C  C12  1  0.660000  0.236160  0.732300  1.0  0.6114
  C  C13  1  0.999900  0.011360  0.421100  1.0  0.6665
  C  C14  1  0.484900  0.012260  0.569500  1.0  0.6345
  C  C15  1  0.182200  0.623230  0.937800  1.0  0.6762
  C  C16  1  0.330500  0.625950  0.094700  1.0  0.6763
  C  C17  1  0.189600  0.758630  0.780700  1.0  0.6723
  C  C18  1  0.340000  0.736160  0.767700  1.0  0.6114
  C  C19  1  0.000100  0.511360  0.078900  1.0  0.6655
  C  C20  1  0.515100  0.512260  0.930500  1.0  0.6339
  C  C21  1  0.182200  0.876770  0.437800  1.0  0.6762
  C  C22  1  0.330500  0.874050  0.594700  1.0  0.6763
  C  C23  1  0.189600  0.741370  0.280700  1.0  0.6636
  C  C24  1  0.340000  0.763840  0.267700  1.0  0.6112
  C  C25  1  0.000100  0.988640  0.578900  1.0  0.6657
  C  C26  1  0.515100  0.987740  0.430500  1.0  0.6402
  C  C27  1  0.817800  0.376770  0.062200  1.0  0.6743
  C  C28  1  0.669500  0.374050  0.905300  1.0  0.6746
  C  C29  1  0.810400  0.241370  0.219300  1.0  0.6642
  C  C30  1  0.660000  0.263840  0.232300  1.0  0.6112
  C  C31  1  0.999900  0.488640  0.921100  1.0  0.6661
  C  C32  1  0.484900  0.487740  0.069500  1.0  0.6424
  O  O33  1  0.895670  0.153500  0.610590  1.0  -0.4729
  O  O34  1  0.848180  0.089950  0.628290  1.0  -0.44
  O  O35  1  0.620750  0.160100  0.358840  1.0  -0.4368
  O  O36  1  0.611470  0.095160  0.337530  1.0  -0.4709
  O  O37  1  0.623590  0.205810  0.641850  1.0  -0.4775
  O  O38  1  0.586640  0.248100  0.824340  1.0  -0.4539
  O  O39  1  0.874100  0.246250  0.615300  1.0  -0.4627
  O  O40  1  0.857910  0.287520  0.809760  1.0  -0.4366
  O  O41  1  0.905890  0.040800  0.385070  1.0  -0.4779
  O  O42  1  0.088510  0.000160  0.342650  1.0  -0.4639
  O  O43  1  0.569710  0.042220  0.612690  1.0  -0.4375
  O  O44  1  0.378480  0.000030  0.627780  1.0  -0.4491
  O  O45  1  0.104330  0.653500  0.889410  1.0  -0.4733
  O  O46  1  0.151820  0.589950  0.871710  1.0  -0.4395
  O  O47  1  0.379250  0.660100  0.141160  1.0  -0.4374
  O  O48  1  0.388530  0.595160  0.162470  1.0  -0.4722
  O  O49  1  0.376410  0.705810  0.858150  1.0  -0.4799
  O  O50  1  0.413360  0.748100  0.675660  1.0  -0.4558
  O  O51  1  0.125900  0.746250  0.884700  1.0  -0.4617
  O  O52  1  0.142090  0.787520  0.690240  1.0  -0.4387
  O  O53  1  0.094110  0.540800  0.114930  1.0  -0.4799
  O  O54  1  0.911490  0.500160  0.157350  1.0  -0.4646
  O  O55  1  0.430290  0.542220  0.887310  1.0  -0.4378
  O  O56  1  0.621520  0.500030  0.872220  1.0  -0.4487
  O  O57  1  0.104330  0.846500  0.389410  1.0  -0.4742
  O  O58  1  0.151820  0.910050  0.371710  1.0  -0.4405
  O  O59  1  0.379250  0.839900  0.641160  1.0  -0.4372
  O  O60  1  0.388530  0.904840  0.662470  1.0  -0.4723
  O  O61  1  0.376410  0.794190  0.358150  1.0  -0.4776
  O  O62  1  0.413360  0.751900  0.175660  1.0  -0.456
  O  O63  1  0.125900  0.753750  0.384700  1.0  -0.4623
  O  O64  1  0.142090  0.712480  0.190240  1.0  -0.439
  O  O65  1  0.094110  0.959200  0.614930  1.0  -0.4796
  O  O66  1  0.911490  0.999840  0.657350  1.0  -0.4642
  O  O67  1  0.430290  0.957780  0.387310  1.0  -0.4391
  O  O68  1  0.621520  0.999970  0.372220  1.0  -0.4483
  O  O69  1  0.895670  0.346500  0.110590  1.0  -0.4735
  O  O70  1  0.848180  0.410050  0.128290  1.0  -0.4406
  O  O71  1  0.620750  0.339900  0.858840  1.0  -0.4367
  O  O72  1  0.611470  0.404840  0.837530  1.0  -0.4713
  O  O73  1  0.623590  0.294190  0.141850  1.0  -0.4789
  O  O74  1  0.586640  0.251900  0.324340  1.0  -0.455
  O  O75  1  0.874100  0.253750  0.115300  1.0  -0.4632
  O  O76  1  0.857910  0.212480  0.309760  1.0  -0.4381
  O  O77  1  0.905890  0.459200  0.885070  1.0  -0.4777
  O  O78  1  0.088510  0.499840  0.842650  1.0  -0.4643
  O  O79  1  0.569710  0.457780  0.112690  1.0  -0.4397
  O  O80  1  0.378480  0.499970  0.127780  1.0  -0.4497
