# generated using pymatgen
data_Cu(CO2)3
_symmetry_space_group_name_H-M   'P 1'
_cell_length_a   8.72590000
_cell_length_b   34.04410000
_cell_length_c   8.65270000
_cell_angle_alpha   90.00000000
_cell_angle_beta   107.66900000
_cell_angle_gamma   90.00000000
_symmetry_Int_Tables_number   1
_chemical_formula_structural   Cu(CO2)3
_chemical_formula_sum   'Cu8 C24 O48'
_cell_volume   2449.16058592
_cell_formula_units_Z   8
loop_
 _symmetry_equiv_pos_site_id
 _symmetry_equiv_pos_as_xyz
  1  'x, y, z'
loop_
 _atom_site_type_symbol
 _atom_site_label
 _atom_site_symmetry_multiplicity
 _atom_site_fract_x
 _atom_site_fract_y
 _atom_site_fract_z
 _atom_site_occupancy
 _atom_site_charge
  Cu  Cu1  1  0.749990  0.203530  0.483760  1.0  0.765
  Cu  Cu2  1  0.739040  0.045660  0.498840  1.0  0.7712
  Cu  Cu3  1  0.250010  0.703530  0.016240  1.0  0.7653
  Cu  Cu4  1  0.260960  0.545660  0.001160  1.0  0.7716
  Cu  Cu5  1  0.250010  0.796470  0.516240  1.0  0.7646
  Cu  Cu6  1  0.260960  0.954340  0.501160  1.0  0.7725
  Cu  Cu7  1  0.749990  0.296470  0.983760  1.0  0.7642
  Cu  Cu8  1  0.739040  0.454340  0.998840  1.0  0.7723
  C  C9  1  0.819300  0.123360  0.563900  1.0  0.6761
  C  C10  1  0.670600  0.125960  0.408200  1.0  0.6882
  C  C11  1  0.813300  0.258710  0.722900  1.0  0.6593
  C  C12  1  0.663000  0.236400  0.736100  1.0  0.6066
  C  C13  1  0.000600  0.011160  0.421400  1.0  0.6626
  C  C14  1  0.485400  0.011990  0.570000  1.0  0.6391
  C  C15  1  0.180700  0.623360  0.936100  1.0  0.6772
  C  C16  1  0.329400  0.625960  0.091800  1.0  0.6917
  C  C17  1  0.186700  0.758710  0.777100  1.0  0.6585
  C  C18  1  0.337000  0.736400  0.763900  1.0  0.6067
  C  C19  1  0.999400  0.511160  0.078600  1.0  0.662
  C  C20  1  0.514600  0.511990  0.930000  1.0  0.6382
  C  C21  1  0.180700  0.876640  0.436100  1.0  0.6772
  C  C22  1  0.329400  0.874040  0.591800  1.0  0.6917
  C  C23  1  0.186700  0.741290  0.277100  1.0  0.6585
  C  C24  1  0.337000  0.763600  0.263900  1.0  0.6067
  C  C25  1  0.999400  0.988840  0.578600  1.0  0.6618
  C  C26  1  0.514600  0.988010  0.430000  1.0  0.6439
  C  C27  1  0.819300  0.376640  0.063900  1.0  0.6761
  C  C28  1  0.670600  0.374040  0.908200  1.0  0.6882
  C  C29  1  0.813300  0.241290  0.222900  1.0  0.6595
  C  C30  1  0.663000  0.263600  0.236100  1.0  0.6065
  C  C31  1  0.000600  0.488840  0.921400  1.0  0.6621
  C  C32  1  0.485400  0.488010  0.070000  1.0  0.6465
  O  O33  1  0.895310  0.153950  0.612840  1.0  -0.4957
  O  O34  1  0.851090  0.090060  0.628510  1.0  -0.4314
  O  O35  1  0.621850  0.160060  0.361600  1.0  -0.4276
  O  O36  1  0.612780  0.094990  0.342070  1.0  -0.4676
  O  O37  1  0.624370  0.206270  0.645710  1.0  -0.4762
  O  O38  1  0.591170  0.248550  0.828880  1.0  -0.451
  O  O39  1  0.876050  0.246070  0.619350  1.0  -0.4497
  O  O40  1  0.861440  0.287530  0.813380  1.0  -0.4296
  O  O41  1  0.907310  0.040590  0.383390  1.0  -0.4748
  O  O42  1  0.089550  0.999480  0.344960  1.0  -0.45
  O  O43  1  0.570630  0.041840  0.614840  1.0  -0.452
  O  O44  1  0.379520  0.999580  0.627730  1.0  -0.4615
  O  O45  1  0.104690  0.653950  0.887160  1.0  -0.4963
  O  O46  1  0.148910  0.590060  0.871490  1.0  -0.4313
  O  O47  1  0.378150  0.660060  0.138400  1.0  -0.4284
  O  O48  1  0.387220  0.594990  0.157930  1.0  -0.4686
  O  O49  1  0.375630  0.706270  0.854290  1.0  -0.4783
  O  O50  1  0.408830  0.748550  0.671120  1.0  -0.4532
  O  O51  1  0.123950  0.746070  0.880650  1.0  -0.4496
  O  O52  1  0.138560  0.787530  0.686620  1.0  -0.431
  O  O53  1  0.092690  0.540590  0.116610  1.0  -0.4774
  O  O54  1  0.910450  0.499480  0.155040  1.0  -0.4502
  O  O55  1  0.429370  0.541840  0.885160  1.0  -0.452
  O  O56  1  0.620480  0.499580  0.872270  1.0  -0.4626
  O  O57  1  0.104690  0.846050  0.387160  1.0  -0.4965
  O  O58  1  0.148910  0.909940  0.371490  1.0  -0.432
  O  O59  1  0.378150  0.839940  0.638400  1.0  -0.4283
  O  O60  1  0.387220  0.905010  0.657930  1.0  -0.4683
  O  O61  1  0.375630  0.793730  0.354290  1.0  -0.4754
  O  O62  1  0.408830  0.751450  0.171120  1.0  -0.4531
  O  O63  1  0.123950  0.753930  0.380650  1.0  -0.45
  O  O64  1  0.138560  0.712470  0.186620  1.0  -0.4313
  O  O65  1  0.092690  0.959410  0.616610  1.0  -0.4781
  O  O66  1  0.910450  0.000520  0.655040  1.0  -0.4493
  O  O67  1  0.429370  0.958160  0.385160  1.0  -0.4503
  O  O68  1  0.620480  0.000420  0.372270  1.0  -0.4624
  O  O69  1  0.895310  0.346050  0.112840  1.0  -0.4965
  O  O70  1  0.851090  0.409940  0.128510  1.0  -0.4319
  O  O71  1  0.621850  0.339940  0.861600  1.0  -0.4273
  O  O72  1  0.612780  0.405010  0.842070  1.0  -0.4676
  O  O73  1  0.624370  0.293730  0.145710  1.0  -0.4763
  O  O74  1  0.591170  0.251450  0.328880  1.0  -0.4516
  O  O75  1  0.876050  0.253930  0.119350  1.0  -0.4502
  O  O76  1  0.861440  0.212470  0.313380  1.0  -0.4309
  O  O77  1  0.907310  0.459410  0.883390  1.0  -0.4752
  O  O78  1  0.089550  0.500520  0.844960  1.0  -0.4501
  O  O79  1  0.570630  0.458160  0.114840  1.0  -0.4514
  O  O80  1  0.379520  0.500420  0.127730  1.0  -0.4617
