# generated using pymatgen
data_Cu(CO2)3
_symmetry_space_group_name_H-M   'P 1'
_cell_length_a   8.74070000
_cell_length_b   33.98860000
_cell_length_c   8.67710000
_cell_angle_alpha   90.00000000
_cell_angle_beta   107.72500000
_cell_angle_gamma   90.00000000
_symmetry_Int_Tables_number   1
_chemical_formula_structural   Cu(CO2)3
_chemical_formula_sum   'Cu8 C24 O48'
_cell_volume   2455.45611994
_cell_formula_units_Z   8
loop_
 _symmetry_equiv_pos_site_id
 _symmetry_equiv_pos_as_xyz
  1  'x, y, z'
loop_
 _atom_site_type_symbol
 _atom_site_label
 _atom_site_symmetry_multiplicity
 _atom_site_fract_x
 _atom_site_fract_y
 _atom_site_fract_z
 _atom_site_occupancy
 _atom_site_charge
  Cu  Cu1  1  0.750560  0.203580  0.485050  1.0  0.7437
  Cu  Cu2  1  0.739790  0.045730  0.499240  1.0  0.7619
  Cu  Cu3  1  0.249440  0.703580  0.014950  1.0  0.7434
  Cu  Cu4  1  0.260210  0.545730  0.000760  1.0  0.7622
  Cu  Cu5  1  0.249440  0.796420  0.514950  1.0  0.7427
  Cu  Cu6  1  0.260210  0.954270  0.500760  1.0  0.7629
  Cu  Cu7  1  0.750560  0.296420  0.985050  1.0  0.7429
  Cu  Cu8  1  0.739790  0.454270  0.999240  1.0  0.7628
  C  C9  1  0.819600  0.123450  0.564700  1.0  0.6803
  C  C10  1  0.671300  0.125950  0.409800  1.0  0.6865
  C  C11  1  0.814600  0.258820  0.724600  1.0  0.6545
  C  C12  1  0.664400  0.236590  0.737900  1.0  0.615
  C  C13  1  0.000800  0.011010  0.421700  1.0  0.6523
  C  C14  1  0.485700  0.011860  0.570600  1.0  0.6221
  C  C15  1  0.180400  0.623450  0.935300  1.0  0.6808
  C  C16  1  0.328700  0.625950  0.090200  1.0  0.6904
  C  C17  1  0.185400  0.758820  0.775400  1.0  0.6541
  C  C18  1  0.335600  0.736590  0.762100  1.0  0.6146
  C  C19  1  0.999200  0.511010  0.078300  1.0  0.6509
  C  C20  1  0.514300  0.511860  0.929400  1.0  0.6214
  C  C21  1  0.180400  0.876550  0.435300  1.0  0.6808
  C  C22  1  0.328700  0.874050  0.590200  1.0  0.6904
  C  C23  1  0.185400  0.741180  0.275400  1.0  0.6541
  C  C24  1  0.335600  0.763410  0.262100  1.0  0.6146
  C  C25  1  0.999200  0.988990  0.578300  1.0  0.6507
  C  C26  1  0.514300  0.988140  0.429400  1.0  0.6251
  C  C27  1  0.819600  0.376550  0.064700  1.0  0.6803
  C  C28  1  0.671300  0.374050  0.909800  1.0  0.6865
  C  C29  1  0.814600  0.241180  0.224600  1.0  0.6547
  C  C30  1  0.664400  0.263410  0.237900  1.0  0.615
  C  C31  1  0.000800  0.488990  0.921700  1.0  0.6517
  C  C32  1  0.485700  0.488140  0.070600  1.0  0.6272
  O  O33  1  0.894750  0.154210  0.613920  1.0  -0.4823
  O  O34  1  0.852750  0.090160  0.628740  1.0  -0.4264
  O  O35  1  0.622000  0.159990  0.362810  1.0  -0.4202
  O  O36  1  0.613340  0.094810  0.344480  1.0  -0.4733
  O  O37  1  0.624510  0.206610  0.647670  1.0  -0.4726
  O  O38  1  0.593800  0.248850  0.831300  1.0  -0.4501
  O  O39  1  0.877090  0.246040  0.621520  1.0  -0.4465
  O  O40  1  0.863100  0.287590  0.815010  1.0  -0.4313
  O  O41  1  0.908270  0.040460  0.382430  1.0  -0.4643
  O  O42  1  0.090400  0.999000  0.346300  1.0  -0.4556
  O  O43  1  0.571270  0.041650  0.616100  1.0  -0.447
  O  O44  1  0.380000  0.999290  0.627640  1.0  -0.4433
  O  O45  1  0.105250  0.654210  0.886080  1.0  -0.483
  O  O46  1  0.147250  0.590160  0.871260  1.0  -0.4257
  O  O47  1  0.378000  0.659990  0.137190  1.0  -0.4209
  O  O48  1  0.386660  0.594810  0.155520  1.0  -0.4734
  O  O49  1  0.375490  0.706610  0.852330  1.0  -0.4744
  O  O50  1  0.406200  0.748850  0.668700  1.0  -0.4527
  O  O51  1  0.122910  0.746040  0.878480  1.0  -0.4466
  O  O52  1  0.136900  0.787590  0.684990  1.0  -0.4322
  O  O53  1  0.091730  0.540460  0.117570  1.0  -0.4667
  O  O54  1  0.909600  0.499000  0.153700  1.0  -0.4567
  O  O55  1  0.428730  0.541650  0.883900  1.0  -0.4467
  O  O56  1  0.620000  0.499290  0.872360  1.0  -0.4457
  O  O57  1  0.105250  0.845790  0.386080  1.0  -0.4832
  O  O58  1  0.147250  0.909840  0.371260  1.0  -0.4281
  O  O59  1  0.378000  0.840010  0.637190  1.0  -0.4209
  O  O60  1  0.386660  0.905190  0.655520  1.0  -0.4728
  O  O61  1  0.375490  0.793390  0.352330  1.0  -0.4722
  O  O62  1  0.406200  0.751150  0.168700  1.0  -0.4527
  O  O63  1  0.122910  0.753960  0.378480  1.0  -0.4469
  O  O64  1  0.136900  0.712410  0.184990  1.0  -0.4317
  O  O65  1  0.091730  0.959540  0.617570  1.0  -0.4676
  O  O66  1  0.909600  0.001000  0.653700  1.0  -0.4562
  O  O67  1  0.428730  0.958350  0.383900  1.0  -0.4441
  O  O68  1  0.620000  0.000710  0.372360  1.0  -0.4455
  O  O69  1  0.894750  0.345790  0.113920  1.0  -0.4832
  O  O70  1  0.852750  0.409840  0.128740  1.0  -0.4282
  O  O71  1  0.622000  0.340010  0.862810  1.0  -0.4204
  O  O72  1  0.613340  0.405190  0.844480  1.0  -0.4731
  O  O73  1  0.624510  0.293390  0.147670  1.0  -0.473
  O  O74  1  0.593800  0.251150  0.331300  1.0  -0.4507
  O  O75  1  0.877090  0.253960  0.121520  1.0  -0.4468
  O  O76  1  0.863100  0.212410  0.315010  1.0  -0.4319
  O  O77  1  0.908270  0.459540  0.882430  1.0  -0.4649
  O  O78  1  0.090400  0.501000  0.846300  1.0  -0.4555
  O  O79  1  0.571270  0.458350  0.116100  1.0  -0.4456
  O  O80  1  0.380000  0.500710  0.127640  1.0  -0.4435
