# generated using pymatgen
data_Cu(CO2)3
_symmetry_space_group_name_H-M   'P 1'
_cell_length_a   8.82940000
_cell_length_b   33.77190000
_cell_length_c   8.80520000
_cell_angle_alpha   90.00000000
_cell_angle_beta   107.90100000
_cell_angle_gamma   90.00000000
_symmetry_Int_Tables_number   1
_chemical_formula_structural   Cu(CO2)3
_chemical_formula_sum   'Cu8 C24 O48'
_cell_volume   2498.47692504
_cell_formula_units_Z   8
loop_
 _symmetry_equiv_pos_site_id
 _symmetry_equiv_pos_as_xyz
  1  'x, y, z'
loop_
 _atom_site_type_symbol
 _atom_site_label
 _atom_site_symmetry_multiplicity
 _atom_site_fract_x
 _atom_site_fract_y
 _atom_site_fract_z
 _atom_site_occupancy
 _atom_site_charge
  Cu  Cu1  1  0.746970  0.204060  0.497620  1.0  0.7409
  Cu  Cu2  1  0.742450  0.045690  0.502130  1.0  0.7351
  Cu  Cu3  1  0.253030  0.704060  0.002380  1.0  0.7409
  Cu  Cu4  1  0.257550  0.545690  0.997870  1.0  0.7358
  Cu  Cu5  1  0.253030  0.795940  0.502380  1.0  0.7404
  Cu  Cu6  1  0.257550  0.954310  0.497870  1.0  0.7364
  Cu  Cu7  1  0.746970  0.295940  0.997620  1.0  0.7402
  Cu  Cu8  1  0.742450  0.454310  0.002130  1.0  0.7359
  C  C9  1  0.818700  0.123930  0.572200  1.0  0.6754
  C  C10  1  0.669900  0.126040  0.420300  1.0  0.6609
  C  C11  1  0.814500  0.259190  0.738800  1.0  0.6728
  C  C12  1  0.664700  0.237290  0.752100  1.0  0.6467
  C  C13  1  0.002200  0.010860  0.422500  1.0  0.6612
  C  C14  1  0.488000  0.011390  0.571800  1.0  0.6434
  C  C15  1  0.181300  0.623930  0.927800  1.0  0.6743
  C  C16  1  0.330100  0.626040  0.079700  1.0  0.6637
  C  C17  1  0.185500  0.759190  0.761200  1.0  0.671
  C  C18  1  0.335300  0.737290  0.747900  1.0  0.646
  C  C19  1  0.997800  0.510860  0.077500  1.0  0.6604
  C  C20  1  0.512000  0.511390  0.928200  1.0  0.6422
  C  C21  1  0.181300  0.876070  0.427800  1.0  0.6744
  C  C22  1  0.330100  0.873960  0.579700  1.0  0.6638
  C  C23  1  0.185500  0.740810  0.261200  1.0  0.671
  C  C24  1  0.335300  0.762710  0.247900  1.0  0.6453
  C  C25  1  0.997800  0.989140  0.577500  1.0  0.6603
  C  C26  1  0.512000  0.988610  0.428200  1.0  0.6422
  C  C27  1  0.818700  0.376070  0.072200  1.0  0.6755
  C  C28  1  0.669900  0.373960  0.920300  1.0  0.661
  C  C29  1  0.814500  0.240810  0.238800  1.0  0.6729
  C  C30  1  0.664700  0.262710  0.252100  1.0  0.6457
  C  C31  1  0.002200  0.489140  0.922500  1.0  0.6608
  C  C32  1  0.488000  0.488610  0.071800  1.0  0.6442
  O  O33  1  0.886460  0.155330  0.623270  1.0  -0.4373
  O  O34  1  0.857210  0.090450  0.631350  1.0  -0.4394
  O  O35  1  0.618240  0.159760  0.375130  1.0  -0.4236
  O  O36  1  0.615620  0.094300  0.356510  1.0  -0.4794
  O  O37  1  0.619710  0.208020  0.660850  1.0  -0.4786
  O  O38  1  0.598500  0.249700  0.847000  1.0  -0.4503
  O  O39  1  0.874600  0.246180  0.638220  1.0  -0.4687
  O  O40  1  0.863650  0.287590  0.829740  1.0  -0.4383
  O  O41  1  0.910750  0.040120  0.381180  1.0  -0.4636
  O  O42  1  0.092000  0.998230  0.350780  1.0  -0.4547
  O  O43  1  0.575430  0.040320  0.622360  1.0  -0.4564
  O  O44  1  0.382410  0.998520  0.625980  1.0  -0.4451
  O  O45  1  0.113540  0.655330  0.876730  1.0  -0.4366
  O  O46  1  0.142790  0.590450  0.868650  1.0  -0.437
  O  O47  1  0.381760  0.659760  0.124870  1.0  -0.4247
  O  O48  1  0.384380  0.594300  0.143490  1.0  -0.4784
  O  O49  1  0.380290  0.708020  0.839150  1.0  -0.4776
  O  O50  1  0.401500  0.749700  0.653000  1.0  -0.4522
  O  O51  1  0.125400  0.746180  0.861780  1.0  -0.4686
  O  O52  1  0.136350  0.787590  0.670260  1.0  -0.4402
  O  O53  1  0.089250  0.540120  0.118820  1.0  -0.4665
  O  O54  1  0.908000  0.498230  0.149220  1.0  -0.4559
  O  O55  1  0.424570  0.540320  0.877640  1.0  -0.4576
  O  O56  1  0.617590  0.498520  0.874020  1.0  -0.4461
  O  O57  1  0.113540  0.844670  0.376730  1.0  -0.437
  O  O58  1  0.142790  0.909550  0.368650  1.0  -0.4377
  O  O59  1  0.381760  0.840240  0.624870  1.0  -0.4241
  O  O60  1  0.384380  0.905700  0.643490  1.0  -0.4782
  O  O61  1  0.380290  0.791980  0.339150  1.0  -0.4743
  O  O62  1  0.401500  0.750300  0.153000  1.0  -0.4505
  O  O63  1  0.125400  0.753820  0.361780  1.0  -0.4679
  O  O64  1  0.136350  0.712410  0.170260  1.0  -0.4389
  O  O65  1  0.089250  0.959880  0.618820  1.0  -0.4661
  O  O66  1  0.908000  0.001770  0.649220  1.0  -0.4555
  O  O67  1  0.424570  0.959680  0.377640  1.0  -0.4572
  O  O68  1  0.617590  0.001480  0.374020  1.0  -0.446
  O  O69  1  0.886460  0.344670  0.123270  1.0  -0.4374
  O  O70  1  0.857210  0.409550  0.131350  1.0  -0.4394
  O  O71  1  0.618240  0.340240  0.875130  1.0  -0.4234
  O  O72  1  0.615620  0.405700  0.856510  1.0  -0.479
  O  O73  1  0.619710  0.291980  0.160850  1.0  -0.4768
  O  O74  1  0.598500  0.250300  0.347000  1.0  -0.4497
  O  O75  1  0.874600  0.253820  0.138220  1.0  -0.4676
  O  O76  1  0.863650  0.212410  0.329740  1.0  -0.4383
  O  O77  1  0.910750  0.459880  0.881180  1.0  -0.4625
  O  O78  1  0.092000  0.501770  0.850780  1.0  -0.4549
  O  O79  1  0.575430  0.459680  0.122360  1.0  -0.4569
  O  O80  1  0.382410  0.501480  0.125980  1.0  -0.4451
