# generated using pymatgen
data_Cu(CO2)3
_symmetry_space_group_name_H-M   'P 1'
_cell_length_a   8.77340000
_cell_length_b   33.89440000
_cell_length_c   8.72810000
_cell_angle_alpha   90.00000000
_cell_angle_beta   107.79700000
_cell_angle_gamma   90.00000000
_symmetry_Int_Tables_number   1
_chemical_formula_structural   Cu(CO2)3
_chemical_formula_sum   'Cu8 C24 O48'
_cell_volume   2471.26242950
_cell_formula_units_Z   8
loop_
 _symmetry_equiv_pos_site_id
 _symmetry_equiv_pos_as_xyz
  1  'x, y, z'
loop_
 _atom_site_type_symbol
 _atom_site_label
 _atom_site_symmetry_multiplicity
 _atom_site_fract_x
 _atom_site_fract_y
 _atom_site_fract_z
 _atom_site_occupancy
 _atom_site_charge
  Cu  Cu1  1  0.750560  0.203720  0.488560  1.0  0.7195
  Cu  Cu2  1  0.741130  0.045790  0.500200  1.0  0.7441
  Cu  Cu3  1  0.249440  0.703720  0.011440  1.0  0.7196
  Cu  Cu4  1  0.258870  0.545790  0.999800  1.0  0.7442
  Cu  Cu5  1  0.249440  0.796280  0.511440  1.0  0.7188
  Cu  Cu6  1  0.258870  0.954210  0.499800  1.0  0.7448
  Cu  Cu7  1  0.750560  0.296280  0.988560  1.0  0.7186
  Cu  Cu8  1  0.741130  0.454210  0.000200  1.0  0.7448
  C  C9  1  0.820200  0.123740  0.566700  1.0  0.678
  C  C10  1  0.671400  0.125900  0.413100  1.0  0.6836
  C  C11  1  0.816300  0.258980  0.729000  1.0  0.6581
  C  C12  1  0.666200  0.236960  0.742400  1.0  0.6345
  C  C13  1  0.001900  0.010760  0.421700  1.0  0.6744
  C  C14  1  0.486600  0.011630  0.571300  1.0  0.6296
  C  C15  1  0.179800  0.623740  0.933300  1.0  0.6776
  C  C16  1  0.328600  0.625900  0.086900  1.0  0.6871
  C  C17  1  0.183700  0.758980  0.771000  1.0  0.6571
  C  C18  1  0.333800  0.736960  0.757600  1.0  0.6333
  C  C19  1  0.998100  0.510760  0.078300  1.0  0.6741
  C  C20  1  0.513400  0.511630  0.928700  1.0  0.6298
  C  C21  1  0.179800  0.876260  0.433300  1.0  0.6776
  C  C22  1  0.328600  0.874100  0.586900  1.0  0.6871
  C  C23  1  0.183700  0.741020  0.271000  1.0  0.6573
  C  C24  1  0.333800  0.763040  0.257600  1.0  0.6321
  C  C25  1  0.998100  0.989240  0.578300  1.0  0.6741
  C  C26  1  0.513400  0.988370  0.428700  1.0  0.6327
  C  C27  1  0.820200  0.376260  0.066700  1.0  0.678
  C  C28  1  0.671400  0.374100  0.913100  1.0  0.6837
  C  C29  1  0.816300  0.241020  0.229000  1.0  0.6583
  C  C30  1  0.666200  0.263040  0.242400  1.0  0.6334
  C  C31  1  0.001900  0.489240  0.921700  1.0  0.6741
  C  C32  1  0.486600  0.488370  0.071300  1.0  0.634
  O  O33  1  0.892440  0.154770  0.616210  1.0  -0.4896
  O  O34  1  0.855560  0.090360  0.629300  1.0  -0.4332
  O  O35  1  0.621540  0.159830  0.366320  1.0  -0.4221
  O  O36  1  0.614900  0.094540  0.349320  1.0  -0.4716
  O  O37  1  0.624030  0.207250  0.651750  1.0  -0.4735
  O  O38  1  0.597840  0.249390  0.836520  1.0  -0.4528
  O  O39  1  0.877770  0.246050  0.626410  1.0  -0.4523
  O  O40  1  0.865070  0.287620  0.819100  1.0  -0.4331
  O  O41  1  0.909920  0.040260  0.381020  1.0  -0.4651
  O  O42  1  0.091500  0.998410  0.348700  1.0  -0.4504
  O  O43  1  0.572510  0.041150  0.618710  1.0  -0.4427
  O  O44  1  0.381160  0.998890  0.627200  1.0  -0.4346
  O  O45  1  0.107560  0.654770  0.883790  1.0  -0.489
  O  O46  1  0.144440  0.590360  0.870700  1.0  -0.431
  O  O47  1  0.378460  0.659830  0.133680  1.0  -0.4224
  O  O48  1  0.385100  0.594540  0.150680  1.0  -0.4711
  O  O49  1  0.375970  0.707250  0.848250  1.0  -0.4758
  O  O50  1  0.402160  0.749390  0.663480  1.0  -0.4544
  O  O51  1  0.122230  0.746050  0.873590  1.0  -0.4514
  O  O52  1  0.134930  0.787620  0.680900  1.0  -0.4343
  O  O53  1  0.090080  0.540260  0.118980  1.0  -0.4672
  O  O54  1  0.908500  0.498410  0.151300  1.0  -0.4507
  O  O55  1  0.427490  0.541150  0.881290  1.0  -0.4431
  O  O56  1  0.618840  0.498890  0.872800  1.0  -0.4354
  O  O57  1  0.107560  0.845230  0.383790  1.0  -0.4893
  O  O58  1  0.144440  0.909640  0.370700  1.0  -0.4323
  O  O59  1  0.378460  0.840170  0.633680  1.0  -0.4224
  O  O60  1  0.385100  0.905460  0.650680  1.0  -0.4701
  O  O61  1  0.375970  0.792750  0.348250  1.0  -0.4739
  O  O62  1  0.402160  0.750610  0.163480  1.0  -0.4547
  O  O63  1  0.122230  0.753950  0.373590  1.0  -0.4517
  O  O64  1  0.134930  0.712380  0.180900  1.0  -0.433
  O  O65  1  0.090080  0.959740  0.618980  1.0  -0.4683
  O  O66  1  0.908500  0.001590  0.651300  1.0  -0.4502
  O  O67  1  0.427490  0.958850  0.381290  1.0  -0.4415
  O  O68  1  0.618840  0.001110  0.372800  1.0  -0.4354
  O  O69  1  0.892440  0.345230  0.116210  1.0  -0.4896
  O  O70  1  0.855560  0.409640  0.129300  1.0  -0.4338
  O  O71  1  0.621540  0.340170  0.866320  1.0  -0.4224
  O  O72  1  0.614900  0.405460  0.849320  1.0  -0.4713
  O  O73  1  0.624030  0.292750  0.151750  1.0  -0.4739
  O  O74  1  0.597840  0.250610  0.336520  1.0  -0.454
  O  O75  1  0.877770  0.253950  0.126410  1.0  -0.4525
  O  O76  1  0.865070  0.212380  0.319100  1.0  -0.4337
  O  O77  1  0.909920  0.459740  0.881020  1.0  -0.4659
  O  O78  1  0.091500  0.501590  0.848700  1.0  -0.4508
  O  O79  1  0.572510  0.458850  0.118710  1.0  -0.4418
  O  O80  1  0.381160  0.501110  0.127200  1.0  -0.4346
