# generated using pymatgen
data_Cu(CO2)3
_symmetry_space_group_name_H-M   'P 1'
_cell_length_a   8.85330000
_cell_length_b   33.71620000
_cell_length_c   8.83470000
_cell_angle_alpha   90.00000000
_cell_angle_beta   107.96300000
_cell_angle_gamma   90.00000000
_symmetry_Int_Tables_number   1
_chemical_formula_structural   Cu(CO2)3
_chemical_formula_sum   'Cu8 C24 O48'
_cell_volume   2508.60890608
_cell_formula_units_Z   8
loop_
 _symmetry_equiv_pos_site_id
 _symmetry_equiv_pos_as_xyz
  1  'x, y, z'
loop_
 _atom_site_type_symbol
 _atom_site_label
 _atom_site_symmetry_multiplicity
 _atom_site_fract_x
 _atom_site_fract_y
 _atom_site_fract_z
 _atom_site_occupancy
 _atom_site_charge
  Cu  Cu1  1  0.744690  0.204200  0.502800  1.0  0.7457
  Cu  Cu2  1  0.742870  0.045570  0.502940  1.0  0.7287
  Cu  Cu3  1  0.255310  0.704200  0.997200  1.0  0.7454
  Cu  Cu4  1  0.257130  0.545570  0.997060  1.0  0.7291
  Cu  Cu5  1  0.255310  0.795800  0.497200  1.0  0.7448
  Cu  Cu6  1  0.257130  0.954430  0.497060  1.0  0.7298
  Cu  Cu7  1  0.744690  0.295800  0.002800  1.0  0.745
  Cu  Cu8  1  0.742870  0.454430  0.002940  1.0  0.7296
  C  C9  1  0.817200  0.124010  0.575100  1.0  0.6826
  C  C10  1  0.668700  0.126050  0.423900  1.0  0.6598
  C  C11  1  0.812700  0.259250  0.744600  1.0  0.6483
  C  C12  1  0.663000  0.237430  0.757600  1.0  0.6627
  C  C13  1  0.002000  0.010810  0.423000  1.0  0.658
  C  C14  1  0.488400  0.011240  0.571900  1.0  0.6412
  C  C15  1  0.182800  0.624010  0.924900  1.0  0.6809
  C  C16  1  0.331300  0.626050  0.076100  1.0  0.6627
  C  C17  1  0.187300  0.759250  0.755400  1.0  0.6474
  C  C18  1  0.337000  0.737430  0.742400  1.0  0.6621
  C  C19  1  0.998000  0.510810  0.077000  1.0  0.6576
  C  C20  1  0.511600  0.511240  0.928100  1.0  0.6395
  C  C21  1  0.182800  0.875990  0.424900  1.0  0.6809
  C  C22  1  0.331300  0.873950  0.576100  1.0  0.6633
  C  C23  1  0.187300  0.740750  0.255400  1.0  0.6472
  C  C24  1  0.337000  0.762570  0.242400  1.0  0.6622
  C  C25  1  0.998000  0.989190  0.577000  1.0  0.6574
  C  C26  1  0.511600  0.988760  0.428100  1.0  0.6394
  C  C27  1  0.817200  0.375990  0.075100  1.0  0.6827
  C  C28  1  0.668700  0.373950  0.923900  1.0  0.6604
  C  C29  1  0.812700  0.240750  0.244600  1.0  0.648
  C  C30  1  0.663000  0.262570  0.257600  1.0  0.6622
  C  C31  1  0.002000  0.489190  0.923000  1.0  0.6573
  C  C32  1  0.488400  0.488760  0.071900  1.0  0.6422
  O  O33  1  0.883400  0.155440  0.626790  1.0  -0.4363
  O  O34  1  0.857710  0.090510  0.632240  1.0  -0.4434
  O  O35  1  0.615900  0.159770  0.380410  1.0  -0.4295
  O  O36  1  0.615880  0.094370  0.359080  1.0  -0.476
  O  O37  1  0.617220  0.208260  0.666170  1.0  -0.4758
  O  O38  1  0.597100  0.249610  0.852400  1.0  -0.4479
  O  O39  1  0.872510  0.246310  0.644110  1.0  -0.4642
  O  O40  1  0.862200  0.287450  0.836170  1.0  -0.4378
  O  O41  1  0.910100  0.040030  0.381540  1.0  -0.4571
  O  O42  1  0.091400  0.998390  0.351540  1.0  -0.4522
  O  O43  1  0.577260  0.039980  0.623520  1.0  -0.4574
  O  O44  1  0.382900  0.998490  0.625560  1.0  -0.4484
  O  O45  1  0.116600  0.655440  0.873210  1.0  -0.4358
  O  O46  1  0.142290  0.590510  0.867760  1.0  -0.4416
  O  O47  1  0.384100  0.659770  0.119590  1.0  -0.4312
  O  O48  1  0.384120  0.594370  0.140920  1.0  -0.4749
  O  O49  1  0.382780  0.708260  0.833830  1.0  -0.4746
  O  O50  1  0.402900  0.749610  0.647600  1.0  -0.4499
  O  O51  1  0.127490  0.746310  0.855890  1.0  -0.4638
  O  O52  1  0.137800  0.787450  0.663830  1.0  -0.4404
  O  O53  1  0.089900  0.540030  0.118460  1.0  -0.4594
  O  O54  1  0.908600  0.498390  0.148460  1.0  -0.4519
  O  O55  1  0.422740  0.539980  0.876480  1.0  -0.4585
  O  O56  1  0.617100  0.498490  0.874440  1.0  -0.4495
  O  O57  1  0.116600  0.844560  0.373210  1.0  -0.4355
  O  O58  1  0.142290  0.909490  0.367760  1.0  -0.4419
  O  O59  1  0.384100  0.840230  0.619590  1.0  -0.4303
  O  O60  1  0.384120  0.905630  0.640920  1.0  -0.4743
  O  O61  1  0.382780  0.791740  0.333830  1.0  -0.4726
  O  O62  1  0.402900  0.750390  0.147600  1.0  -0.4483
  O  O63  1  0.127490  0.753690  0.355890  1.0  -0.4631
  O  O64  1  0.137800  0.712550  0.163830  1.0  -0.4395
  O  O65  1  0.089900  0.959970  0.618460  1.0  -0.46
  O  O66  1  0.908600  0.001610  0.648460  1.0  -0.4516
  O  O67  1  0.422740  0.960020  0.376480  1.0  -0.4567
  O  O68  1  0.617100  0.001510  0.374440  1.0  -0.4497
  O  O69  1  0.883400  0.344560  0.126790  1.0  -0.4364
  O  O70  1  0.857710  0.409490  0.132240  1.0  -0.4435
  O  O71  1  0.615900  0.340230  0.880410  1.0  -0.4289
  O  O72  1  0.615880  0.405630  0.859080  1.0  -0.4755
  O  O73  1  0.617220  0.291740  0.166170  1.0  -0.4756
  O  O74  1  0.597100  0.250390  0.352400  1.0  -0.4473
  O  O75  1  0.872510  0.253690  0.144110  1.0  -0.4632
  O  O76  1  0.862200  0.212550  0.336170  1.0  -0.4381
  O  O77  1  0.910100  0.459970  0.881540  1.0  -0.457
  O  O78  1  0.091400  0.501610  0.851540  1.0  -0.4524
  O  O79  1  0.577260  0.460020  0.123520  1.0  -0.4566
  O  O80  1  0.382900  0.501510  0.125560  1.0  -0.4484
