# generated using pymatgen
data_Cu(CO2)3
_symmetry_space_group_name_H-M   'P 1'
_cell_length_a   8.73680000
_cell_length_b   33.99680000
_cell_length_c   8.67040000
_cell_angle_alpha   90.00000000
_cell_angle_beta   107.72600000
_cell_angle_gamma   90.00000000
_symmetry_Int_Tables_number   1
_chemical_formula_structural   Cu(CO2)3
_chemical_formula_sum   'Cu8 C24 O48'
_cell_volume   2453.04338627
_cell_formula_units_Z   8
loop_
 _symmetry_equiv_pos_site_id
 _symmetry_equiv_pos_as_xyz
  1  'x, y, z'
loop_
 _atom_site_type_symbol
 _atom_site_label
 _atom_site_symmetry_multiplicity
 _atom_site_fract_x
 _atom_site_fract_y
 _atom_site_fract_z
 _atom_site_occupancy
 _atom_site_charge
  Cu  Cu1  1  0.750340  0.203550  0.484600  1.0  0.7621
  Cu  Cu2  1  0.739600  0.045700  0.499140  1.0  0.7696
  Cu  Cu3  1  0.249660  0.703550  0.015400  1.0  0.7619
  Cu  Cu4  1  0.260400  0.545700  0.000860  1.0  0.7701
  Cu  Cu5  1  0.249660  0.796450  0.515400  1.0  0.7612
  Cu  Cu6  1  0.260400  0.954300  0.500860  1.0  0.7709
  Cu  Cu7  1  0.750340  0.296450  0.984600  1.0  0.7612
  Cu  Cu8  1  0.739600  0.454300  0.999140  1.0  0.7707
  C  C9  1  0.819500  0.123470  0.564300  1.0  0.6789
  C  C10  1  0.671000  0.125960  0.409200  1.0  0.6911
  C  C11  1  0.814400  0.258840  0.724100  1.0  0.6404
  C  C12  1  0.663800  0.236570  0.737500  1.0  0.6154
  C  C13  1  0.000700  0.011120  0.421500  1.0  0.6579
  C  C14  1  0.485700  0.011910  0.570200  1.0  0.6362
  C  C15  1  0.180500  0.623470  0.935700  1.0  0.6798
  C  C16  1  0.329000  0.625960  0.090800  1.0  0.6949
  C  C17  1  0.185600  0.758840  0.775900  1.0  0.6399
  C  C18  1  0.336200  0.736570  0.762500  1.0  0.6152
  C  C19  1  0.999300  0.511120  0.078500  1.0  0.6572
  C  C20  1  0.514300  0.511910  0.929800  1.0  0.6355
  C  C21  1  0.180500  0.876530  0.435700  1.0  0.6799
  C  C22  1  0.329000  0.874040  0.590800  1.0  0.6949
  C  C23  1  0.185600  0.741160  0.275900  1.0  0.64
  C  C24  1  0.336200  0.763430  0.262500  1.0  0.6153
  C  C25  1  0.999300  0.988880  0.578500  1.0  0.6573
  C  C26  1  0.514300  0.988090  0.429800  1.0  0.6396
  C  C27  1  0.819500  0.376530  0.064300  1.0  0.6789
  C  C28  1  0.671000  0.374040  0.909200  1.0  0.6911
  C  C29  1  0.814400  0.241160  0.224100  1.0  0.6405
  C  C30  1  0.663800  0.263430  0.237500  1.0  0.6154
  C  C31  1  0.000700  0.488880  0.921500  1.0  0.6574
  C  C32  1  0.485700  0.488090  0.070200  1.0  0.6419
  O  O33  1  0.894530  0.154210  0.613470  1.0  -0.4939
  O  O34  1  0.852360  0.090160  0.628570  1.0  -0.4275
  O  O35  1  0.622000  0.159970  0.362320  1.0  -0.4236
  O  O36  1  0.613290  0.094850  0.343590  1.0  -0.4774
  O  O37  1  0.624240  0.206590  0.647010  1.0  -0.4748
  O  O38  1  0.593070  0.248840  0.830290  1.0  -0.4504
  O  O39  1  0.876690  0.246070  0.620790  1.0  -0.4488
  O  O40  1  0.862650  0.287620  0.814390  1.0  -0.4321
  O  O41  1  0.907650  0.040520  0.382900  1.0  -0.4686
  O  O42  1  0.089790  0.999180  0.345680  1.0  -0.4511
  O  O43  1  0.571130  0.041730  0.615680  1.0  -0.4514
  O  O44  1  0.379840  0.999400  0.627750  1.0  -0.449
  O  O45  1  0.105470  0.654210  0.886530  1.0  -0.4945
  O  O46  1  0.147640  0.590160  0.871430  1.0  -0.427
  O  O47  1  0.378000  0.659970  0.137680  1.0  -0.4244
  O  O48  1  0.386710  0.594850  0.156410  1.0  -0.4779
  O  O49  1  0.375760  0.706590  0.852990  1.0  -0.4767
  O  O50  1  0.406930  0.748840  0.669710  1.0  -0.4522
  O  O51  1  0.123310  0.746070  0.879210  1.0  -0.4487
  O  O52  1  0.137350  0.787620  0.685610  1.0  -0.4331
  O  O53  1  0.092350  0.540520  0.117100  1.0  -0.4723
  O  O54  1  0.910210  0.499180  0.154320  1.0  -0.4523
  O  O55  1  0.428870  0.541730  0.884320  1.0  -0.4514
  O  O56  1  0.620160  0.499400  0.872250  1.0  -0.4507
  O  O57  1  0.105470  0.845790  0.386530  1.0  -0.4947
  O  O58  1  0.147640  0.909840  0.371430  1.0  -0.4292
  O  O59  1  0.378000  0.840030  0.637680  1.0  -0.4245
  O  O60  1  0.386710  0.905150  0.656410  1.0  -0.4778
  O  O61  1  0.375760  0.793410  0.352990  1.0  -0.4747
  O  O62  1  0.406930  0.751160  0.169710  1.0  -0.452
  O  O63  1  0.123310  0.753930  0.379210  1.0  -0.449
  O  O64  1  0.137350  0.712380  0.185610  1.0  -0.4326
  O  O65  1  0.092350  0.959480  0.617100  1.0  -0.4727
  O  O66  1  0.910210  0.000820  0.654320  1.0  -0.4516
  O  O67  1  0.428870  0.958270  0.384320  1.0  -0.4496
  O  O68  1  0.620160  0.000600  0.372250  1.0  -0.4509
  O  O69  1  0.894530  0.345790  0.113470  1.0  -0.4948
  O  O70  1  0.852360  0.409840  0.128570  1.0  -0.4291
  O  O71  1  0.622000  0.340030  0.862320  1.0  -0.4237
  O  O72  1  0.613290  0.405150  0.843590  1.0  -0.4774
  O  O73  1  0.624240  0.293410  0.147010  1.0  -0.4756
  O  O74  1  0.593070  0.251160  0.330290  1.0  -0.451
  O  O75  1  0.876690  0.253930  0.120790  1.0  -0.4491
  O  O76  1  0.862650  0.212380  0.314390  1.0  -0.4325
  O  O77  1  0.907650  0.459480  0.882900  1.0  -0.4687
  O  O78  1  0.089790  0.500820  0.845680  1.0  -0.4511
  O  O79  1  0.571130  0.458270  0.115680  1.0  -0.4507
  O  O80  1  0.379840  0.500600  0.127750  1.0  -0.4496
