# generated using pymatgen
data_Cu(CO2)3
_symmetry_space_group_name_H-M   'P 1'
_cell_length_a   8.71560000
_cell_length_b   34.08130000
_cell_length_c   8.63600000
_cell_angle_alpha   90.00000000
_cell_angle_beta   107.63200000
_cell_angle_gamma   90.00000000
_symmetry_Int_Tables_number   1
_chemical_formula_structural   Cu(CO2)3
_chemical_formula_sum   'Cu8 C24 O48'
_cell_volume   2444.71839309
_cell_formula_units_Z   8
loop_
 _symmetry_equiv_pos_site_id
 _symmetry_equiv_pos_as_xyz
  1  'x, y, z'
loop_
 _atom_site_type_symbol
 _atom_site_label
 _atom_site_symmetry_multiplicity
 _atom_site_fract_x
 _atom_site_fract_y
 _atom_site_fract_z
 _atom_site_occupancy
 _atom_site_charge
  Cu  Cu1  1  0.749520  0.203510  0.482850  1.0  0.7761
  Cu  Cu2  1  0.738600  0.045600  0.498610  1.0  0.7833
  Cu  Cu3  1  0.250480  0.703510  0.017150  1.0  0.7761
  Cu  Cu4  1  0.261400  0.545600  0.001390  1.0  0.7835
  Cu  Cu5  1  0.250480  0.796490  0.517150  1.0  0.7753
  Cu  Cu6  1  0.261400  0.954400  0.501390  1.0  0.7843
  Cu  Cu7  1  0.749520  0.296490  0.982850  1.0  0.7752
  Cu  Cu8  1  0.738600  0.454400  0.998610  1.0  0.7842
  C  C9  1  0.818700  0.123300  0.563400  1.0  0.6759
  C  C10  1  0.669900  0.125980  0.407400  1.0  0.6841
  C  C11  1  0.812300  0.258670  0.721700  1.0  0.6697
  C  C12  1  0.662000  0.236330  0.734700  1.0  0.6154
  C  C13  1  0.000500  0.011280  0.421300  1.0  0.6617
  C  C14  1  0.485100  0.012080  0.569900  1.0  0.6305
  C  C15  1  0.181300  0.623300  0.936600  1.0  0.6772
  C  C16  1  0.330100  0.625980  0.092600  1.0  0.6876
  C  C17  1  0.187700  0.758670  0.778300  1.0  0.6693
  C  C18  1  0.338000  0.736330  0.765300  1.0  0.6153
  C  C19  1  0.999500  0.511280  0.078700  1.0  0.6611
  C  C20  1  0.514900  0.512080  0.930100  1.0  0.6294
  C  C21  1  0.181300  0.876700  0.436600  1.0  0.6772
  C  C22  1  0.330100  0.874020  0.592600  1.0  0.6876
  C  C23  1  0.187700  0.741330  0.278300  1.0  0.6619
  C  C24  1  0.338000  0.763670  0.265300  1.0  0.6152
  C  C25  1  0.999500  0.988720  0.578700  1.0  0.6611
  C  C26  1  0.514900  0.987920  0.430100  1.0  0.6344
  C  C27  1  0.818700  0.376700  0.063400  1.0  0.6759
  C  C28  1  0.669900  0.374020  0.907400  1.0  0.6842
  C  C29  1  0.812300  0.241330  0.221700  1.0  0.6625
  C  C30  1  0.662000  0.263670  0.234700  1.0  0.6152
  C  C31  1  0.000500  0.488720  0.921300  1.0  0.6612
  C  C32  1  0.485100  0.487920  0.069900  1.0  0.6371
  O  O33  1  0.895300  0.153720  0.612270  1.0  -0.4897
  O  O34  1  0.850060  0.090010  0.628460  1.0  -0.4339
  O  O35  1  0.621650  0.160100  0.360670  1.0  -0.4336
  O  O36  1  0.612260  0.095100  0.340280  1.0  -0.4694
  O  O37  1  0.623910  0.206110  0.644380  1.0  -0.4715
  O  O38  1  0.589610  0.248300  0.827380  1.0  -0.448
  O  O39  1  0.875280  0.246140  0.618220  1.0  -0.462
  O  O40  1  0.860170  0.287510  0.812360  1.0  -0.435
  O  O41  1  0.906570  0.040660  0.384050  1.0  -0.4727
  O  O42  1  0.089050  0.999780  0.344100  1.0  -0.4658
  O  O43  1  0.570420  0.041950  0.614040  1.0  -0.4492
  O  O44  1  0.379250  0.999770  0.627720  1.0  -0.4593
  O  O45  1  0.104700  0.653720  0.887730  1.0  -0.4901
  O  O46  1  0.149940  0.590010  0.871540  1.0  -0.4333
  O  O47  1  0.378350  0.660100  0.139330  1.0  -0.4341
  O  O48  1  0.387740  0.595100  0.159720  1.0  -0.4701
  O  O49  1  0.376090  0.706110  0.855620  1.0  -0.4741
  O  O50  1  0.410390  0.748300  0.672620  1.0  -0.4506
  O  O51  1  0.124720  0.746140  0.881780  1.0  -0.4608
  O  O52  1  0.139830  0.787510  0.687640  1.0  -0.4363
  O  O53  1  0.093430  0.540660  0.115950  1.0  -0.4753
  O  O54  1  0.910950  0.499780  0.155900  1.0  -0.4651
  O  O55  1  0.429580  0.541950  0.885960  1.0  -0.4495
  O  O56  1  0.620750  0.499770  0.872280  1.0  -0.4616
  O  O57  1  0.104700  0.846280  0.387730  1.0  -0.4925
  O  O58  1  0.149940  0.909990  0.371540  1.0  -0.4352
  O  O59  1  0.378350  0.839900  0.639330  1.0  -0.4339
  O  O60  1  0.387740  0.904900  0.659720  1.0  -0.4696
  O  O61  1  0.376090  0.793890  0.355620  1.0  -0.4718
  O  O62  1  0.410390  0.751700  0.172620  1.0  -0.4507
  O  O63  1  0.124720  0.753860  0.381780  1.0  -0.4617
  O  O64  1  0.139830  0.712490  0.187640  1.0  -0.4365
  O  O65  1  0.093430  0.959340  0.615950  1.0  -0.4753
  O  O66  1  0.910950  0.000220  0.655900  1.0  -0.4644
  O  O67  1  0.429580  0.958050  0.385960  1.0  -0.448
  O  O68  1  0.620750  0.000230  0.372280  1.0  -0.4613
  O  O69  1  0.895300  0.346280  0.112270  1.0  -0.492
  O  O70  1  0.850060  0.409990  0.128460  1.0  -0.4353
  O  O71  1  0.621650  0.339900  0.860670  1.0  -0.4331
  O  O72  1  0.612260  0.404900  0.840280  1.0  -0.4693
  O  O73  1  0.623910  0.293890  0.144380  1.0  -0.4725
  O  O74  1  0.589610  0.251700  0.327380  1.0  -0.4491
  O  O75  1  0.875280  0.253860  0.118220  1.0  -0.4626
  O  O76  1  0.860170  0.212490  0.312360  1.0  -0.4365
  O  O77  1  0.906570  0.459340  0.884050  1.0  -0.4721
  O  O78  1  0.089050  0.500220  0.844100  1.0  -0.4662
  O  O79  1  0.570420  0.458050  0.114040  1.0  -0.4488
  O  O80  1  0.379250  0.500230  0.127720  1.0  -0.4597
