# generated using pymatgen
data_Cu(CO2)3
_symmetry_space_group_name_H-M   'P 1'
_cell_length_a   8.79790000
_cell_length_b   33.81870000
_cell_length_c   8.76220000
_cell_angle_alpha   90.00000000
_cell_angle_beta   107.85400000
_cell_angle_gamma   90.00000000
_symmetry_Int_Tables_number   1
_chemical_formula_structural   Cu(CO2)3
_chemical_formula_sum   'Cu8 C24 O48'
_cell_volume   2481.49517923
_cell_formula_units_Z   8
loop_
 _symmetry_equiv_pos_site_id
 _symmetry_equiv_pos_as_xyz
  1  'x, y, z'
loop_
 _atom_site_type_symbol
 _atom_site_label
 _atom_site_symmetry_multiplicity
 _atom_site_fract_x
 _atom_site_fract_y
 _atom_site_fract_z
 _atom_site_occupancy
 _atom_site_charge
  Cu  Cu1  1  0.749420  0.203870  0.492380  1.0  0.7418
  Cu  Cu2  1  0.741830  0.045770  0.501070  1.0  0.7327
  Cu  Cu3  1  0.250580  0.703870  0.007620  1.0  0.7419
  Cu  Cu4  1  0.258170  0.545770  0.998930  1.0  0.733
  Cu  Cu5  1  0.250580  0.796130  0.507620  1.0  0.7412
  Cu  Cu6  1  0.258170  0.954230  0.498930  1.0  0.7337
  Cu  Cu7  1  0.749420  0.296130  0.992380  1.0  0.741
  Cu  Cu8  1  0.741830  0.454230  0.001070  1.0  0.7335
  C  C9  1  0.819600  0.123830  0.569100  1.0  0.6708
  C  C10  1  0.671000  0.125970  0.416100  1.0  0.6756
  C  C11  1  0.815800  0.259120  0.733100  1.0  0.6535
  C  C12  1  0.666400  0.237200  0.746800  1.0  0.6381
  C  C13  1  0.002100  0.010770  0.422000  1.0  0.6824
  C  C14  1  0.487100  0.011500  0.571400  1.0  0.6236
  C  C15  1  0.180400  0.623830  0.930900  1.0  0.6696
  C  C16  1  0.329000  0.625970  0.083900  1.0  0.6785
  C  C17  1  0.184200  0.759120  0.766900  1.0  0.6531
  C  C18  1  0.333600  0.737200  0.753200  1.0  0.6378
  C  C19  1  0.997900  0.510770  0.078000  1.0  0.6819
  C  C20  1  0.512900  0.511500  0.928600  1.0  0.6233
  C  C21  1  0.180400  0.876170  0.430900  1.0  0.6697
  C  C22  1  0.329000  0.874030  0.583900  1.0  0.6785
  C  C23  1  0.184200  0.740880  0.266900  1.0  0.6528
  C  C24  1  0.333600  0.762800  0.253200  1.0  0.6365
  C  C25  1  0.997900  0.989230  0.578000  1.0  0.6819
  C  C26  1  0.512900  0.988500  0.428600  1.0  0.6247
  C  C27  1  0.819600  0.376170  0.069100  1.0  0.6708
  C  C28  1  0.671000  0.374030  0.916100  1.0  0.6755
  C  C29  1  0.815800  0.240880  0.233100  1.0  0.6534
  C  C30  1  0.666400  0.262800  0.246800  1.0  0.6366
  C  C31  1  0.002100  0.489230  0.922000  1.0  0.6822
  C  C32  1  0.487100  0.488500  0.071400  1.0  0.6266
  O  O33  1  0.889930  0.155100  0.619070  1.0  -0.4479
  O  O34  1  0.856680  0.090430  0.630200  1.0  -0.4362
  O  O35  1  0.620210  0.159710  0.369890  1.0  -0.4269
  O  O36  1  0.615510  0.094320  0.352880  1.0  -0.4774
  O  O37  1  0.622390  0.207620  0.655790  1.0  -0.4778
  O  O38  1  0.599000  0.249740  0.841100  1.0  -0.4514
  O  O39  1  0.877090  0.246100  0.631580  1.0  -0.4553
  O  O40  1  0.864800  0.287710  0.823340  1.0  -0.434
  O  O41  1  0.910230  0.040120  0.380880  1.0  -0.4673
  O  O42  1  0.091800  0.998260  0.349830  1.0  -0.4457
  O  O43  1  0.573970  0.040850  0.620430  1.0  -0.4494
  O  O44  1  0.381570  0.998740  0.626860  1.0  -0.4479
  O  O45  1  0.110070  0.655100  0.880930  1.0  -0.4472
  O  O46  1  0.143320  0.590430  0.869800  1.0  -0.4337
  O  O47  1  0.379790  0.659710  0.130110  1.0  -0.4286
  O  O48  1  0.384490  0.594320  0.147120  1.0  -0.4775
  O  O49  1  0.377610  0.707620  0.844210  1.0  -0.4785
  O  O50  1  0.401000  0.749740  0.658900  1.0  -0.4531
  O  O51  1  0.122910  0.746100  0.868420  1.0  -0.4554
  O  O52  1  0.135200  0.787710  0.676660  1.0  -0.4359
  O  O53  1  0.089770  0.540120  0.119120  1.0  -0.4701
  O  O54  1  0.908200  0.498260  0.150170  1.0  -0.4458
  O  O55  1  0.426030  0.540850  0.879570  1.0  -0.4499
  O  O56  1  0.618430  0.498740  0.873140  1.0  -0.4478
  O  O57  1  0.110070  0.844900  0.380930  1.0  -0.4476
  O  O58  1  0.143320  0.909570  0.369800  1.0  -0.4341
  O  O59  1  0.379790  0.840290  0.630110  1.0  -0.4287
  O  O60  1  0.384490  0.905680  0.647120  1.0  -0.4767
  O  O61  1  0.377610  0.792380  0.344210  1.0  -0.4766
  O  O62  1  0.401000  0.750260  0.158900  1.0  -0.4518
  O  O63  1  0.122910  0.753900  0.368420  1.0  -0.4547
  O  O64  1  0.135200  0.712290  0.176660  1.0  -0.4346
  O  O65  1  0.089770  0.959880  0.619120  1.0  -0.4718
  O  O66  1  0.908200  0.001740  0.650170  1.0  -0.445
  O  O67  1  0.426030  0.959150  0.379570  1.0  -0.4486
  O  O68  1  0.618430  0.001260  0.373140  1.0  -0.4481
  O  O69  1  0.889930  0.344900  0.119070  1.0  -0.448
  O  O70  1  0.856680  0.409570  0.130200  1.0  -0.4361
  O  O71  1  0.620210  0.340290  0.869890  1.0  -0.4273
  O  O72  1  0.615510  0.405680  0.852880  1.0  -0.477
  O  O73  1  0.622390  0.292380  0.155790  1.0  -0.4777
  O  O74  1  0.599000  0.250260  0.341100  1.0  -0.451
  O  O75  1  0.877090  0.253900  0.131580  1.0  -0.4546
  O  O76  1  0.864800  0.212290  0.323340  1.0  -0.434
  O  O77  1  0.910230  0.459880  0.880880  1.0  -0.4684
  O  O78  1  0.091800  0.501740  0.849830  1.0  -0.446
  O  O79  1  0.573970  0.459150  0.120430  1.0  -0.449
  O  O80  1  0.381570  0.501260  0.126860  1.0  -0.4482
