# generated using pymatgen
data_Cu(CO2)3
_symmetry_space_group_name_H-M   'P 1'
_cell_length_a   8.69260000
_cell_length_b   34.15640000
_cell_length_c   8.59560000
_cell_angle_alpha   90.00000000
_cell_angle_beta   107.60300000
_cell_angle_gamma   90.00000000
_symmetry_Int_Tables_number   1
_chemical_formula_structural   Cu(CO2)3
_chemical_formula_sum   'Cu8 C24 O48'
_cell_volume   2432.59915334
_cell_formula_units_Z   8
loop_
 _symmetry_equiv_pos_site_id
 _symmetry_equiv_pos_as_xyz
  1  'x, y, z'
loop_
 _atom_site_type_symbol
 _atom_site_label
 _atom_site_symmetry_multiplicity
 _atom_site_fract_x
 _atom_site_fract_y
 _atom_site_fract_z
 _atom_site_occupancy
 _atom_site_charge
  Cu  Cu1  1  0.748410  0.203440  0.478990  1.0  0.9562
  Cu  Cu2  1  0.737670  0.045530  0.498290  1.0  0.9607
  Cu  Cu3  1  0.251590  0.703440  0.021010  1.0  0.9566
  Cu  Cu4  1  0.262330  0.545530  0.001710  1.0  0.9606
  Cu  Cu5  1  0.251590  0.796560  0.521010  1.0  0.9564
  Cu  Cu6  1  0.262330  0.954470  0.501710  1.0  0.9612
  Cu  Cu7  1  0.748410  0.296560  0.978990  1.0  0.9559
  Cu  Cu8  1  0.737670  0.454470  0.998290  1.0  0.9614
  C  C9  1  0.817700  0.123170  0.561500  1.0  0.6547
  C  C10  1  0.669300  0.125920  0.404000  1.0  0.659
  C  C11  1  0.810200  0.258630  0.717200  1.0  0.6397
  C  C12  1  0.659100  0.236040  0.729900  1.0  0.5869
  C  C13  1  0.999800  0.011420  0.421300  1.0  0.6466
  C  C14  1  0.484700  0.012310  0.569000  1.0  0.6095
  C  C15  1  0.182300  0.623170  0.938500  1.0  0.6566
  C  C16  1  0.330700  0.625920  0.096000  1.0  0.6624
  C  C17  1  0.189800  0.758630  0.782800  1.0  0.6393
  C  C18  1  0.340900  0.736040  0.770100  1.0  0.5864
  C  C19  1  0.000200  0.511420  0.078700  1.0  0.6456
  C  C20  1  0.515300  0.512310  0.931000  1.0  0.6091
  C  C21  1  0.182300  0.876830  0.438500  1.0  0.6566
  C  C22  1  0.330700  0.874080  0.596000  1.0  0.6624
  C  C23  1  0.189800  0.741370  0.282800  1.0  0.6385
  C  C24  1  0.340900  0.763960  0.270100  1.0  0.5862
  C  C25  1  0.000200  0.988580  0.578700  1.0  0.6459
  C  C26  1  0.515300  0.987690  0.431000  1.0  0.6155
  C  C27  1  0.817700  0.376830  0.061500  1.0  0.6548
  C  C28  1  0.669300  0.374080  0.904000  1.0  0.6591
  C  C29  1  0.810200  0.241370  0.217200  1.0  0.639
  C  C30  1  0.659100  0.263960  0.229900  1.0  0.5864
  C  C31  1  0.999800  0.488580  0.921300  1.0  0.6463
  C  C32  1  0.484700  0.487690  0.069000  1.0  0.6177
  O  O33  1  0.895980  0.153530  0.609620  1.0  -0.5067
  O  O34  1  0.847430  0.090040  0.628370  1.0  -0.4365
  O  O35  1  0.620620  0.160020  0.357090  1.0  -0.4436
  O  O36  1  0.611340  0.095080  0.336190  1.0  -0.501
  O  O37  1  0.623250  0.205760  0.639850  1.0  -0.5015
  O  O38  1  0.585530  0.248130  0.821800  1.0  -0.4752
  O  O39  1  0.873580  0.246330  0.613160  1.0  -0.4782
  O  O40  1  0.857480  0.287560  0.807970  1.0  -0.4639
  O  O41  1  0.905510  0.040940  0.385510  1.0  -0.4992
  O  O42  1  0.088210  0.000210  0.342070  1.0  -0.4774
  O  O43  1  0.569450  0.042370  0.612340  1.0  -0.4586
  O  O44  1  0.377930  0.000190  0.627800  1.0  -0.4686
  O  O45  1  0.104020  0.653530  0.890380  1.0  -0.5071
  O  O46  1  0.152570  0.590040  0.871630  1.0  -0.4357
  O  O47  1  0.379380  0.660020  0.142910  1.0  -0.445
  O  O48  1  0.388660  0.595080  0.163810  1.0  -0.5024
  O  O49  1  0.376750  0.705760  0.860150  1.0  -0.5042
  O  O50  1  0.414470  0.748130  0.678200  1.0  -0.4762
  O  O51  1  0.126420  0.746330  0.886840  1.0  -0.477
  O  O52  1  0.142520  0.787560  0.692030  1.0  -0.4659
  O  O53  1  0.094490  0.540940  0.114490  1.0  -0.5012
  O  O54  1  0.911790  0.500210  0.157930  1.0  -0.478
  O  O55  1  0.430550  0.542370  0.887660  1.0  -0.4593
  O  O56  1  0.622070  0.500190  0.872200  1.0  -0.4687
  O  O57  1  0.104020  0.846470  0.390380  1.0  -0.5081
  O  O58  1  0.152570  0.909960  0.371630  1.0  -0.4364
  O  O59  1  0.379380  0.839980  0.642910  1.0  -0.4451
  O  O60  1  0.388660  0.904920  0.663810  1.0  -0.5025
  O  O61  1  0.376750  0.794240  0.360150  1.0  -0.5018
  O  O62  1  0.414470  0.751870  0.178200  1.0  -0.4767
  O  O63  1  0.126420  0.753670  0.386840  1.0  -0.4776
  O  O64  1  0.142520  0.712440  0.192030  1.0  -0.4655
  O  O65  1  0.094490  0.959060  0.614490  1.0  -0.5013
  O  O66  1  0.911790  0.999790  0.657930  1.0  -0.4776
  O  O67  1  0.430550  0.957630  0.387660  1.0  -0.4601
  O  O68  1  0.622070  0.999810  0.372200  1.0  -0.4686
  O  O69  1  0.895980  0.346470  0.109620  1.0  -0.5074
  O  O70  1  0.847430  0.409960  0.128370  1.0  -0.4371
  O  O71  1  0.620620  0.339980  0.857090  1.0  -0.4443
  O  O72  1  0.611340  0.404920  0.836190  1.0  -0.5014
  O  O73  1  0.623250  0.294240  0.139850  1.0  -0.5025
  O  O74  1  0.585530  0.251870  0.321800  1.0  -0.4766
  O  O75  1  0.873580  0.253670  0.113160  1.0  -0.4787
  O  O76  1  0.857480  0.212440  0.307970  1.0  -0.4651
  O  O77  1  0.905510  0.459060  0.885510  1.0  -0.4992
  O  O78  1  0.088210  0.499790  0.842070  1.0  -0.4777
  O  O79  1  0.569450  0.457630  0.112340  1.0  -0.4609
  O  O80  1  0.377930  0.499810  0.127800  1.0  -0.47
