# generated using pymatgen
data_Cu(CO2)3
_symmetry_space_group_name_H-M   'P 1'
_cell_length_a   8.88390000
_cell_length_b   33.65070000
_cell_length_c   8.87370000
_cell_angle_alpha   90.00000000
_cell_angle_beta   108.06100000
_cell_angle_gamma   90.00000000
_symmetry_Int_Tables_number   1
_chemical_formula_structural   Cu(CO2)3
_chemical_formula_sum   'Cu8 C24 O48'
_cell_volume   2522.07690854
_cell_formula_units_Z   8
loop_
 _symmetry_equiv_pos_site_id
 _symmetry_equiv_pos_as_xyz
  1  'x, y, z'
loop_
 _atom_site_type_symbol
 _atom_site_label
 _atom_site_symmetry_multiplicity
 _atom_site_fract_x
 _atom_site_fract_y
 _atom_site_fract_z
 _atom_site_occupancy
 _atom_site_charge
  Cu  Cu1  1  0.741300  0.204400  0.509620  1.0  0.746
  Cu  Cu2  1  0.743320  0.045430  0.504050  1.0  0.7286
  Cu  Cu3  1  0.258700  0.704400  0.990380  1.0  0.7461
  Cu  Cu4  1  0.256680  0.545430  0.995950  1.0  0.7289
  Cu  Cu5  1  0.258700  0.795600  0.490380  1.0  0.7455
  Cu  Cu6  1  0.256680  0.954570  0.495950  1.0  0.7296
  Cu  Cu7  1  0.741300  0.295600  0.009620  1.0  0.7453
  Cu  Cu8  1  0.743320  0.454570  0.004050  1.0  0.7294
  C  C9  1  0.815600  0.124050  0.578800  1.0  0.6833
  C  C10  1  0.667400  0.126120  0.428400  1.0  0.6714
  C  C11  1  0.810200  0.259130  0.752200  1.0  0.6312
  C  C12  1  0.660000  0.237360  0.763600  1.0  0.6432
  C  C13  1  0.001400  0.010910  0.423500  1.0  0.6576
  C  C14  1  0.489400  0.011160  0.572200  1.0  0.6363
  C  C15  1  0.184400  0.624050  0.921200  1.0  0.6814
  C  C16  1  0.332600  0.626120  0.071600  1.0  0.6748
  C  C17  1  0.189800  0.759130  0.747800  1.0  0.6298
  C  C18  1  0.340000  0.737360  0.736400  1.0  0.6422
  C  C19  1  0.998600  0.510910  0.076500  1.0  0.6576
  C  C20  1  0.510600  0.511160  0.927800  1.0  0.6357
  C  C21  1  0.184400  0.875950  0.421200  1.0  0.6814
  C  C22  1  0.332600  0.873880  0.571600  1.0  0.6752
  C  C23  1  0.189800  0.740870  0.247800  1.0  0.6297
  C  C24  1  0.340000  0.762640  0.236400  1.0  0.6424
  C  C25  1  0.998600  0.989090  0.576500  1.0  0.6574
  C  C26  1  0.510600  0.988840  0.427800  1.0  0.6357
  C  C27  1  0.815600  0.375950  0.078800  1.0  0.6834
  C  C28  1  0.667400  0.373880  0.928400  1.0  0.6718
  C  C29  1  0.810200  0.240870  0.252200  1.0  0.6313
  C  C30  1  0.660000  0.262640  0.263600  1.0  0.6428
  C  C31  1  0.001400  0.489090  0.923500  1.0  0.657
  C  C32  1  0.489400  0.488840  0.072200  1.0  0.6371
  O  O33  1  0.879630  0.155590  0.632190  1.0  -0.4353
  O  O34  1  0.858030  0.090380  0.634160  1.0  -0.4374
  O  O35  1  0.613300  0.159740  0.386920  1.0  -0.425
  O  O36  1  0.615900  0.094480  0.363000  1.0  -0.4783
  O  O37  1  0.613540  0.208480  0.671680  1.0  -0.47
  O  O38  1  0.595200  0.249360  0.859200  1.0  -0.4462
  O  O39  1  0.868500  0.246380  0.651900  1.0  -0.451
  O  O40  1  0.859600  0.287120  0.844600  1.0  -0.4353
  O  O41  1  0.909900  0.040020  0.382420  1.0  -0.4595
  O  O42  1  0.090800  0.998510  0.352600  1.0  -0.4476
  O  O43  1  0.578800  0.039510  0.625260  1.0  -0.4488
  O  O44  1  0.383800  0.998430  0.625200  1.0  -0.4612
  O  O45  1  0.120370  0.655590  0.867810  1.0  -0.4346
  O  O46  1  0.141970  0.590380  0.865840  1.0  -0.4363
  O  O47  1  0.386700  0.659740  0.113080  1.0  -0.4253
  O  O48  1  0.384100  0.594480  0.137000  1.0  -0.4772
  O  O49  1  0.386460  0.708480  0.828320  1.0  -0.4702
  O  O50  1  0.404800  0.749360  0.640800  1.0  -0.4475
  O  O51  1  0.131500  0.746380  0.848100  1.0  -0.4524
  O  O52  1  0.140400  0.787120  0.655400  1.0  -0.4391
  O  O53  1  0.090100  0.540020  0.117580  1.0  -0.461
  O  O54  1  0.909200  0.498510  0.147400  1.0  -0.4466
  O  O55  1  0.421200  0.539510  0.874740  1.0  -0.4493
  O  O56  1  0.616200  0.498430  0.874800  1.0  -0.4619
  O  O57  1  0.120370  0.844410  0.367810  1.0  -0.4342
  O  O58  1  0.141970  0.909620  0.365840  1.0  -0.4368
  O  O59  1  0.386700  0.840260  0.613080  1.0  -0.4248
  O  O60  1  0.384100  0.905520  0.637000  1.0  -0.4769
  O  O61  1  0.386460  0.791520  0.328320  1.0  -0.4676
  O  O62  1  0.404800  0.750640  0.140800  1.0  -0.4474
  O  O63  1  0.131500  0.753620  0.348100  1.0  -0.4518
  O  O64  1  0.140400  0.712880  0.155400  1.0  -0.438
  O  O65  1  0.090100  0.959980  0.617580  1.0  -0.461
  O  O66  1  0.909200  0.001490  0.647400  1.0  -0.4466
  O  O67  1  0.421200  0.960490  0.374740  1.0  -0.4488
  O  O68  1  0.616200  0.001570  0.374800  1.0  -0.4616
  O  O69  1  0.879630  0.344410  0.132190  1.0  -0.4357
  O  O70  1  0.858030  0.409620  0.134160  1.0  -0.4378
  O  O71  1  0.613300  0.340260  0.886920  1.0  -0.4243
  O  O72  1  0.615900  0.405520  0.863000  1.0  -0.4778
  O  O73  1  0.613540  0.291520  0.171680  1.0  -0.4706
  O  O74  1  0.595200  0.250640  0.359200  1.0  -0.4466
  O  O75  1  0.868500  0.253620  0.151900  1.0  -0.4503
  O  O76  1  0.859600  0.212880  0.344600  1.0  -0.4359
  O  O77  1  0.909900  0.459980  0.882420  1.0  -0.4593
  O  O78  1  0.090800  0.501490  0.852600  1.0  -0.4477
  O  O79  1  0.578800  0.460490  0.125260  1.0  -0.4495
  O  O80  1  0.383800  0.501570  0.125200  1.0  -0.461
