# generated using pymatgen
data_Cu(CO2)3
_symmetry_space_group_name_H-M   'P 1'
_cell_length_a   8.69870000
_cell_length_b   34.14080000
_cell_length_c   8.60810000
_cell_angle_alpha   90.00000000
_cell_angle_beta   107.57800000
_cell_angle_gamma   90.00000000
_symmetry_Int_Tables_number   1
_chemical_formula_structural   Cu(CO2)3
_chemical_formula_sum   'Cu8 C24 O48'
_cell_volume   2437.06995253
_cell_formula_units_Z   8
loop_
 _symmetry_equiv_pos_site_id
 _symmetry_equiv_pos_as_xyz
  1  'x, y, z'
loop_
 _atom_site_type_symbol
 _atom_site_label
 _atom_site_symmetry_multiplicity
 _atom_site_fract_x
 _atom_site_fract_y
 _atom_site_fract_z
 _atom_site_occupancy
 _atom_site_charge
  Cu  Cu1  1  0.748640  0.203470  0.480790  1.0  0.7757
  Cu  Cu2  1  0.737860  0.045530  0.498310  1.0  0.7778
  Cu  Cu3  1  0.251360  0.703470  0.019210  1.0  0.776
  Cu  Cu4  1  0.262140  0.545530  0.001690  1.0  0.778
  Cu  Cu5  1  0.251360  0.796530  0.519210  1.0  0.7749
  Cu  Cu6  1  0.262140  0.954470  0.501690  1.0  0.7786
  Cu  Cu7  1  0.748640  0.296530  0.980790  1.0  0.7745
  Cu  Cu8  1  0.737860  0.454470  0.998310  1.0  0.7785
  C  C9  1  0.817800  0.123230  0.562200  1.0  0.6746
  C  C10  1  0.669500  0.125950  0.405300  1.0  0.6736
  C  C11  1  0.810400  0.258630  0.719300  1.0  0.6665
  C  C12  1  0.659900  0.236150  0.732300  1.0  0.6116
  C  C13  1  0.999900  0.011360  0.421200  1.0  0.6683
  C  C14  1  0.485000  0.012260  0.569500  1.0  0.6343
  C  C15  1  0.182200  0.623230  0.937800  1.0  0.6765
  C  C16  1  0.330500  0.625950  0.094700  1.0  0.6755
  C  C17  1  0.189600  0.758630  0.780700  1.0  0.6662
  C  C18  1  0.340100  0.736150  0.767700  1.0  0.6119
  C  C19  1  0.000100  0.511360  0.078800  1.0  0.6673
  C  C20  1  0.515000  0.512260  0.930500  1.0  0.6346
  C  C21  1  0.182200  0.876770  0.437800  1.0  0.6764
  C  C22  1  0.330500  0.874050  0.594700  1.0  0.6755
  C  C23  1  0.189600  0.741370  0.280700  1.0  0.6584
  C  C24  1  0.340100  0.763850  0.267700  1.0  0.6116
  C  C25  1  0.000100  0.988640  0.578800  1.0  0.6674
  C  C26  1  0.515000  0.987740  0.430500  1.0  0.6402
  C  C27  1  0.817800  0.376770  0.062200  1.0  0.6746
  C  C28  1  0.669500  0.374050  0.905300  1.0  0.6736
  C  C29  1  0.810400  0.241370  0.219300  1.0  0.6588
  C  C30  1  0.659900  0.263850  0.232300  1.0  0.6112
  C  C31  1  0.999900  0.488640  0.921200  1.0  0.6679
  C  C32  1  0.485000  0.487740  0.069500  1.0  0.6415
  O  O33  1  0.895690  0.153500  0.610580  1.0  -0.4727
  O  O34  1  0.848190  0.089940  0.628240  1.0  -0.44
  O  O35  1  0.620750  0.160100  0.358840  1.0  -0.4365
  O  O36  1  0.611460  0.095150  0.337490  1.0  -0.4703
  O  O37  1  0.623590  0.205820  0.641870  1.0  -0.4781
  O  O38  1  0.586680  0.248110  0.824360  1.0  -0.4532
  O  O39  1  0.874110  0.246250  0.615250  1.0  -0.4629
  O  O40  1  0.857920  0.287520  0.809760  1.0  -0.4367
  O  O41  1  0.905860  0.040800  0.385040  1.0  -0.4771
  O  O42  1  0.088500  0.000160  0.342630  1.0  -0.4645
  O  O43  1  0.569700  0.042220  0.612700  1.0  -0.4344
  O  O44  1  0.378480  0.000030  0.627800  1.0  -0.4492
  O  O45  1  0.104310  0.653500  0.889420  1.0  -0.4731
  O  O46  1  0.151810  0.589940  0.871760  1.0  -0.4394
  O  O47  1  0.379250  0.660100  0.141160  1.0  -0.4372
  O  O48  1  0.388540  0.595150  0.162510  1.0  -0.4719
  O  O49  1  0.376410  0.705820  0.858130  1.0  -0.4806
  O  O50  1  0.413320  0.748110  0.675640  1.0  -0.4549
  O  O51  1  0.125890  0.746250  0.884750  1.0  -0.4618
  O  O52  1  0.142080  0.787520  0.690240  1.0  -0.4388
  O  O53  1  0.094140  0.540800  0.114960  1.0  -0.4791
  O  O54  1  0.911500  0.500160  0.157370  1.0  -0.465
  O  O55  1  0.430300  0.542220  0.887300  1.0  -0.435
  O  O56  1  0.621520  0.500030  0.872200  1.0  -0.4489
  O  O57  1  0.104310  0.846500  0.389420  1.0  -0.4739
  O  O58  1  0.151810  0.910060  0.371760  1.0  -0.4405
  O  O59  1  0.379250  0.839900  0.641160  1.0  -0.4369
  O  O60  1  0.388540  0.904850  0.662510  1.0  -0.4719
  O  O61  1  0.376410  0.794180  0.358130  1.0  -0.4782
  O  O62  1  0.413320  0.751890  0.175640  1.0  -0.455
  O  O63  1  0.125890  0.753750  0.384750  1.0  -0.4624
  O  O64  1  0.142080  0.712480  0.190240  1.0  -0.439
  O  O65  1  0.094140  0.959200  0.614960  1.0  -0.4788
  O  O66  1  0.911500  0.999840  0.657370  1.0  -0.4646
  O  O67  1  0.430300  0.957780  0.387300  1.0  -0.4363
  O  O68  1  0.621520  0.999970  0.372200  1.0  -0.4485
  O  O69  1  0.895690  0.346500  0.110580  1.0  -0.4733
  O  O70  1  0.848190  0.410060  0.128240  1.0  -0.4405
  O  O71  1  0.620750  0.339900  0.858840  1.0  -0.4365
  O  O72  1  0.611460  0.404850  0.837490  1.0  -0.4707
  O  O73  1  0.623590  0.294180  0.141870  1.0  -0.4795
  O  O74  1  0.586680  0.251890  0.324360  1.0  -0.4541
  O  O75  1  0.874110  0.253750  0.115250  1.0  -0.4634
  O  O76  1  0.857920  0.212480  0.309760  1.0  -0.4382
  O  O77  1  0.905860  0.459200  0.885040  1.0  -0.4769
  O  O78  1  0.088500  0.499840  0.842630  1.0  -0.4649
  O  O79  1  0.569700  0.457780  0.112700  1.0  -0.4367
  O  O80  1  0.378480  0.499970  0.127800  1.0  -0.4499
