# generated using pymatgen
data_AlAgH18C18(NO2)3
_symmetry_space_group_name_H-M   'P 1'
_cell_length_a   14.05630000
_cell_length_b   14.05630000
_cell_length_c   14.05630000
_cell_angle_alpha   90.00000000
_cell_angle_beta   90.00000000
_cell_angle_gamma   90.00000000
_symmetry_Int_Tables_number   1
_chemical_formula_structural   AlAgH18C18(NO2)3
_chemical_formula_sum   'Al4 Ag4 H72 C72 N12 O24'
_cell_volume   2777.23770543
_cell_formula_units_Z   4
loop_
 _symmetry_equiv_pos_site_id
 _symmetry_equiv_pos_as_xyz
  1  'x, y, z'
loop_
 _atom_site_type_symbol
 _atom_site_label
 _atom_site_symmetry_multiplicity
 _atom_site_fract_x
 _atom_site_fract_y
 _atom_site_fract_z
 _atom_site_occupancy
 _atom_site_charge
  Al  Al1  1  0.770640  0.270640  0.229360  1.0  1.8357
  Al  Al2  1  0.729360  0.729360  0.729360  1.0  1.8361
  Al  Al3  1  0.229360  0.770640  0.270640  1.0  1.8353
  Al  Al4  1  0.270640  0.229360  0.770640  1.0  1.8372
  Ag  Ag5  1  0.125900  0.374100  0.625900  1.0  0.372
  Ag  Ag6  1  0.374100  0.625900  0.125900  1.0  0.3711
  Ag  Ag7  1  0.874100  0.874100  0.874100  1.0  0.3735
  Ag  Ag8  1  0.625900  0.125900  0.374100  1.0  0.3722
  H  H9  1  0.837300  0.311900  0.562500  1.0  0.1334
  H  H10  1  0.808800  0.202200  0.552500  1.0  0.1349
  H  H11  1  0.731900  0.283200  0.530500  1.0  0.142
  H  H12  1  0.100100  0.268500  0.340400  1.0  0.1316
  H  H13  1  0.079600  0.323700  0.243000  1.0  0.1361
  H  H14  1  0.078000  0.209900  0.245300  1.0  0.1444
  H  H15  1  0.662700  0.688100  0.062500  1.0  0.1344
  H  H16  1  0.691200  0.797800  0.052500  1.0  0.1352
  H  H17  1  0.768100  0.716800  0.030500  1.0  0.1391
  H  H18  1  0.399900  0.731500  0.840400  1.0  0.1309
  H  H19  1  0.420400  0.676300  0.743000  1.0  0.1362
  H  H20  1  0.422000  0.790100  0.745300  1.0  0.1444
  H  H21  1  0.162700  0.811900  0.937500  1.0  0.1337
  H  H22  1  0.191200  0.702200  0.947500  1.0  0.1357
  H  H23  1  0.268100  0.783200  0.969500  1.0  0.1386
  H  H24  1  0.899900  0.768500  0.159600  1.0  0.1303
  H  H25  1  0.920400  0.823700  0.257000  1.0  0.1361
  H  H26  1  0.922000  0.709900  0.254700  1.0  0.1446
  H  H27  1  0.337300  0.188100  0.437500  1.0  0.1348
  H  H28  1  0.308800  0.297800  0.447500  1.0  0.1346
  H  H29  1  0.231900  0.216800  0.469500  1.0  0.1409
  H  H30  1  0.600100  0.231500  0.659600  1.0  0.1304
  H  H31  1  0.579600  0.176300  0.757000  1.0  0.1365
  H  H32  1  0.578000  0.290100  0.754700  1.0  0.1429
  H  H33  1  0.562500  0.837300  0.311900  1.0  0.1336
  H  H34  1  0.552500  0.808800  0.202200  1.0  0.1348
  H  H35  1  0.530500  0.731900  0.283200  1.0  0.1428
  H  H36  1  0.340400  0.100100  0.268500  1.0  0.1301
  H  H37  1  0.243000  0.079600  0.323700  1.0  0.1364
  H  H38  1  0.245300  0.078000  0.209900  1.0  0.1437
  H  H39  1  0.062500  0.662700  0.688100  1.0  0.1341
  H  H40  1  0.052500  0.691200  0.797800  1.0  0.1351
  H  H41  1  0.030500  0.768100  0.716800  1.0  0.1459
  H  H42  1  0.840400  0.399900  0.731500  1.0  0.1306
  H  H43  1  0.743000  0.420400  0.676300  1.0  0.1359
  H  H44  1  0.745300  0.422000  0.790100  1.0  0.1433
  H  H45  1  0.937500  0.162700  0.811900  1.0  0.1339
  H  H46  1  0.947500  0.191200  0.702200  1.0  0.1354
  H  H47  1  0.969500  0.268100  0.783200  1.0  0.1446
  H  H48  1  0.159600  0.899900  0.768500  1.0  0.1293
  H  H49  1  0.257000  0.920400  0.823700  1.0  0.1355
  H  H50  1  0.254700  0.922000  0.709900  1.0  0.1446
  H  H51  1  0.437500  0.337300  0.188100  1.0  0.1339
  H  H52  1  0.447500  0.308800  0.297800  1.0  0.1353
  H  H53  1  0.469500  0.231900  0.216800  1.0  0.1423
  H  H54  1  0.659600  0.600100  0.231500  1.0  0.129
  H  H55  1  0.757000  0.579600  0.176300  1.0  0.1362
  H  H56  1  0.754700  0.578000  0.290100  1.0  0.1436
  H  H57  1  0.311900  0.562500  0.837300  1.0  0.1312
  H  H58  1  0.202200  0.552500  0.808800  1.0  0.1332
  H  H59  1  0.283200  0.530500  0.731900  1.0  0.1448
  H  H60  1  0.268500  0.340400  0.100100  1.0  0.1283
  H  H61  1  0.323700  0.243000  0.079600  1.0  0.1377
  H  H62  1  0.209900  0.245300  0.078000  1.0  0.1425
  H  H63  1  0.688100  0.062500  0.662700  1.0  0.1323
  H  H64  1  0.797800  0.052500  0.691200  1.0  0.1341
  H  H65  1  0.716800  0.030500  0.768100  1.0  0.1454
  H  H66  1  0.731500  0.840400  0.399900  1.0  0.1292
  H  H67  1  0.676300  0.743000  0.420400  1.0  0.1381
  H  H68  1  0.790100  0.745300  0.422000  1.0  0.1425
  H  H69  1  0.811900  0.937500  0.162700  1.0  0.1323
  H  H70  1  0.702200  0.947500  0.191200  1.0  0.1335
  H  H71  1  0.783200  0.969500  0.268100  1.0  0.1453
  H  H72  1  0.768500  0.159600  0.899900  1.0  0.1285
  H  H73  1  0.823700  0.257000  0.920400  1.0  0.1375
  H  H74  1  0.709900  0.254700  0.922000  1.0  0.1427
  H  H75  1  0.188100  0.437500  0.337300  1.0  0.1323
  H  H76  1  0.297800  0.447500  0.308800  1.0  0.1337
  H  H77  1  0.216800  0.469500  0.231900  1.0  0.1448
  H  H78  1  0.231500  0.659600  0.600100  1.0  0.1293
  H  H79  1  0.176300  0.757000  0.579600  1.0  0.1381
  H  H80  1  0.290100  0.754700  0.578000  1.0  0.1424
  C  C81  1  0.799400  0.266100  0.526300  1.0  -0.4042
  C  C82  1  0.829900  0.267410  0.424360  1.0  0.3421
  C  C83  1  0.926900  0.263600  0.399310  1.0  -0.0442
  C  C84  1  0.959290  0.269730  0.304300  1.0  0.4016
  C  C85  1  0.063200  0.267800  0.281300  1.0  -0.461
  C  C86  1  0.994900  0.262600  0.474500  1.0  0.3458
  C  C87  1  0.700600  0.733900  0.026300  1.0  -0.4042
  C  C88  1  0.670100  0.732590  0.924360  1.0  0.343
  C  C89  1  0.573100  0.736400  0.899310  1.0  -0.0421
  C  C90  1  0.540710  0.730270  0.804300  1.0  0.4011
  C  C91  1  0.436800  0.732200  0.781300  1.0  -0.4626
  C  C92  1  0.505100  0.737400  0.974500  1.0  0.3451
  C  C93  1  0.200600  0.766100  0.973700  1.0  -0.402
  C  C94  1  0.170100  0.767410  0.075640  1.0  0.3421
  C  C95  1  0.073100  0.763600  0.100690  1.0  -0.0422
  C  C96  1  0.040710  0.769730  0.195700  1.0  0.3992
  C  C97  1  0.936800  0.767800  0.218700  1.0  -0.4631
  C  C98  1  0.005100  0.762600  0.025500  1.0  0.3446
  C  C99  1  0.299400  0.233900  0.473700  1.0  -0.4026
  C  C100  1  0.329900  0.232590  0.575640  1.0  0.3421
  C  C101  1  0.426900  0.236400  0.600690  1.0  -0.0441
  C  C102  1  0.459290  0.230270  0.695700  1.0  0.3997
  C  C103  1  0.563200  0.232200  0.718700  1.0  -0.4616
  C  C104  1  0.494900  0.237400  0.525500  1.0  0.3454
  C  C105  1  0.526300  0.799400  0.266100  1.0  -0.3995
  C  C106  1  0.424360  0.829900  0.267410  1.0  0.3431
  C  C107  1  0.399310  0.926900  0.263600  1.0  -0.0428
  C  C108  1  0.304300  0.959290  0.269730  1.0  0.3992
  C  C109  1  0.281300  0.063200  0.267800  1.0  -0.4623
  C  C110  1  0.474500  0.994900  0.262600  1.0  0.345
  C  C111  1  0.026300  0.700600  0.733900  1.0  -0.4
  C  C112  1  0.924360  0.670100  0.732590  1.0  0.3432
  C  C113  1  0.899310  0.573100  0.736400  1.0  -0.0431
  C  C114  1  0.804300  0.540710  0.730270  1.0  0.3995
  C  C115  1  0.781300  0.436800  0.732200  1.0  -0.4651
  C  C116  1  0.974500  0.505100  0.737400  1.0  0.3444
  C  C117  1  0.973700  0.200600  0.766100  1.0  -0.4
  C  C118  1  0.075640  0.170100  0.767410  1.0  0.3405
  C  C119  1  0.100690  0.073100  0.763600  1.0  -0.0429
  C  C120  1  0.195700  0.040710  0.769730  1.0  0.3992
  C  C121  1  0.218700  0.936800  0.767800  1.0  -0.4647
  C  C122  1  0.025500  0.005100  0.762600  1.0  0.3426
  C  C123  1  0.473700  0.299400  0.233900  1.0  -0.4007
  C  C124  1  0.575640  0.329900  0.232590  1.0  0.3402
  C  C125  1  0.600690  0.426900  0.236400  1.0  -0.0422
  C  C126  1  0.695700  0.459290  0.230270  1.0  0.3994
  C  C127  1  0.718700  0.563200  0.232200  1.0  -0.4628
  C  C128  1  0.525500  0.494900  0.237400  1.0  0.3438
  C  C129  1  0.266100  0.526300  0.799400  1.0  -0.4016
  C  C130  1  0.267410  0.424360  0.829900  1.0  0.3408
  C  C131  1  0.263600  0.399310  0.926900  1.0  -0.0424
  C  C132  1  0.269730  0.304300  0.959290  1.0  0.402
  C  C133  1  0.267800  0.281300  0.063200  1.0  -0.4613
  C  C134  1  0.262600  0.474500  0.994900  1.0  0.3449
  C  C135  1  0.733900  0.026300  0.700600  1.0  -0.4006
  C  C136  1  0.732590  0.924360  0.670100  1.0  0.3408
  C  C137  1  0.736400  0.899310  0.573100  1.0  -0.0425
  C  C138  1  0.730270  0.804300  0.540710  1.0  0.4016
  C  C139  1  0.732200  0.781300  0.436800  1.0  -0.4637
  C  C140  1  0.737400  0.974500  0.505100  1.0  0.3444
  C  C141  1  0.766100  0.973700  0.200600  1.0  -0.4023
  C  C142  1  0.767410  0.075640  0.170100  1.0  0.3409
  C  C143  1  0.763600  0.100690  0.073100  1.0  -0.0423
  C  C144  1  0.769730  0.195700  0.040710  1.0  0.4019
  C  C145  1  0.767800  0.218700  0.936800  1.0  -0.4633
  C  C146  1  0.762600  0.025500  0.005100  1.0  0.3446
  C  C147  1  0.233900  0.473700  0.299400  1.0  -0.4009
  C  C148  1  0.232590  0.575640  0.329900  1.0  0.3408
  C  C149  1  0.236400  0.600690  0.426900  1.0  -0.0433
  C  C150  1  0.230270  0.695700  0.459290  1.0  0.4022
  C  C151  1  0.232200  0.718700  0.563200  1.0  -0.4614
  C  C152  1  0.237400  0.525500  0.494900  1.0  0.345
  N  N153  1  0.047340  0.263400  0.536840  1.0  -0.5169
  N  N154  1  0.452660  0.736600  0.036840  1.0  -0.5172
  N  N155  1  0.952660  0.763400  0.963160  1.0  -0.5168
  N  N156  1  0.547340  0.236600  0.463160  1.0  -0.5159
  N  N157  1  0.536840  0.047340  0.263400  1.0  -0.5178
  N  N158  1  0.036840  0.452660  0.736600  1.0  -0.518
  N  N159  1  0.963160  0.952660  0.763400  1.0  -0.5178
  N  N160  1  0.463160  0.547340  0.236600  1.0  -0.5175
  N  N161  1  0.263400  0.536840  0.047340  1.0  -0.5206
  N  N162  1  0.736600  0.036840  0.452660  1.0  -0.519
  N  N163  1  0.763400  0.963160  0.952660  1.0  -0.5202
  N  N164  1  0.236600  0.463160  0.547340  1.0  -0.5203
  O  O165  1  0.764050  0.272060  0.362470  1.0  -0.6198
  O  O166  1  0.902840  0.277240  0.234520  1.0  -0.6008
  O  O167  1  0.735950  0.727940  0.862470  1.0  -0.6202
  O  O168  1  0.597160  0.722760  0.734520  1.0  -0.6001
  O  O169  1  0.235950  0.772060  0.137530  1.0  -0.6199
  O  O170  1  0.097160  0.777240  0.265480  1.0  -0.5985
  O  O171  1  0.264050  0.227940  0.637530  1.0  -0.6199
  O  O172  1  0.402840  0.222760  0.765480  1.0  -0.5987
  O  O173  1  0.362470  0.764050  0.272060  1.0  -0.622
  O  O174  1  0.234520  0.902840  0.277240  1.0  -0.5955
  O  O175  1  0.862470  0.735950  0.727940  1.0  -0.6212
  O  O176  1  0.734520  0.597160  0.722760  1.0  -0.5955
  O  O177  1  0.137530  0.235950  0.772060  1.0  -0.6232
  O  O178  1  0.265480  0.097160  0.777240  1.0  -0.596
  O  O179  1  0.637530  0.264050  0.227940  1.0  -0.6221
  O  O180  1  0.765480  0.402840  0.222760  1.0  -0.5966
  O  O181  1  0.272060  0.362470  0.764050  1.0  -0.6215
  O  O182  1  0.277240  0.234520  0.902840  1.0  -0.5975
  O  O183  1  0.727940  0.862470  0.735950  1.0  -0.6208
  O  O184  1  0.722760  0.734520  0.597160  1.0  -0.5972
  O  O185  1  0.772060  0.137530  0.235950  1.0  -0.6213
  O  O186  1  0.777240  0.265480  0.097160  1.0  -0.5968
  O  O187  1  0.227940  0.637530  0.264050  1.0  -0.6215
  O  O188  1  0.222760  0.765480  0.402840  1.0  -0.596
