# generated using pymatgen
data_Zn2H25C39NO7
_symmetry_space_group_name_H-M   'P 1'
_cell_length_a   11.98000000
_cell_length_b   17.98200000
_cell_length_c   18.62500000
_cell_angle_alpha   90.00000000
_cell_angle_beta   90.00000000
_cell_angle_gamma   90.00000000
_symmetry_Int_Tables_number   1
_chemical_formula_structural   Zn2H25C39NO7
_chemical_formula_sum   'Zn8 H100 C156 N4 O28'
_cell_volume   4012.27870500
_cell_formula_units_Z   4
loop_
 _symmetry_equiv_pos_site_id
 _symmetry_equiv_pos_as_xyz
  1  'x, y, z'
loop_
 _atom_site_type_symbol
 _atom_site_label
 _atom_site_symmetry_multiplicity
 _atom_site_fract_x
 _atom_site_fract_y
 _atom_site_fract_z
 _atom_site_occupancy
 _atom_site_charge
  Zn  Zn1  1  0.389900  0.802650  0.509130  1.0  1.0441
  Zn  Zn2  1  0.110100  0.802650  0.490870  1.0  1.044
  Zn  Zn3  1  0.610100  0.697350  0.509130  1.0  1.0441
  Zn  Zn4  1  0.889900  0.697350  0.490870  1.0  1.0438
  Zn  Zn5  1  0.610100  0.197350  0.490870  1.0  1.0439
  Zn  Zn6  1  0.889900  0.197350  0.509130  1.0  1.044
  Zn  Zn7  1  0.389900  0.302650  0.490870  1.0  1.0439
  Zn  Zn8  1  0.110100  0.302650  0.509130  1.0  1.0442
  H  H9  1  0.374500  0.743700  0.292800  1.0  0.1152
  H  H10  1  0.384300  0.829900  0.735800  1.0  0.0868
  H  H11  1  0.396900  0.065800  0.326200  1.0  0.0991
  H  H12  1  0.386900  0.831500  0.858800  1.0  0.1087
  H  H13  1  0.357400  0.806900  0.968200  1.0  0.1002
  H  H14  1  0.290900  0.837400  0.357300  1.0  0.0946
  H  H15  1  0.355300  0.805100  0.091000  1.0  0.1106
  H  H16  1  0.151200  0.919700  0.362800  1.0  0.1017
  H  H17  1  0.510900  0.894300  0.162200  1.0  0.1204
  H  H18  1  0.428300  0.988500  0.227700  1.0  0.1072
  H  H19  1  0.051300  0.010300  0.422600  1.0  0.098
  H  H20  1  0.297200  0.155800  0.386200  1.0  0.0913
  H  H21  1  0.125500  0.743700  0.707200  1.0  0.115
  H  H22  1  0.115700  0.829900  0.264200  1.0  0.0862
  H  H23  1  0.103100  0.065800  0.673800  1.0  0.0993
  H  H24  1  0.113100  0.831500  0.141200  1.0  0.1077
  H  H25  1  0.142600  0.806900  0.031800  1.0  0.0997
  H  H26  1  0.209100  0.837400  0.642700  1.0  0.0944
  H  H27  1  0.144700  0.805100  0.909000  1.0  0.111
  H  H28  1  0.348800  0.919700  0.637200  1.0  0.1018
  H  H29  1  0.989100  0.894300  0.837800  1.0  0.1201
  H  H30  1  0.071700  0.988500  0.772300  1.0  0.1072
  H  H31  1  0.448700  0.010300  0.577400  1.0  0.098
  H  H32  1  0.202800  0.155800  0.613800  1.0  0.0916
  H  H33  1  0.625500  0.756300  0.292800  1.0  0.1149
  H  H34  1  0.615700  0.670100  0.735800  1.0  0.0872
  H  H35  1  0.603100  0.434200  0.326200  1.0  0.0995
  H  H36  1  0.613100  0.668500  0.858800  1.0  0.1089
  H  H37  1  0.642600  0.693100  0.968200  1.0  0.0999
  H  H38  1  0.709100  0.662600  0.357300  1.0  0.095
  H  H39  1  0.644700  0.694900  0.091000  1.0  0.1109
  H  H40  1  0.848800  0.580300  0.362800  1.0  0.1021
  H  H41  1  0.489100  0.605700  0.162200  1.0  0.1202
  H  H42  1  0.571700  0.511500  0.227700  1.0  0.1065
  H  H43  1  0.948700  0.489700  0.422600  1.0  0.098
  H  H44  1  0.702800  0.344200  0.386200  1.0  0.0905
  H  H45  1  0.874500  0.756300  0.707200  1.0  0.115
  H  H46  1  0.884300  0.670100  0.264200  1.0  0.0864
  H  H47  1  0.896900  0.434200  0.673800  1.0  0.0995
  H  H48  1  0.886900  0.668500  0.141200  1.0  0.1077
  H  H49  1  0.857400  0.693100  0.031800  1.0  0.0998
  H  H50  1  0.790900  0.662600  0.642700  1.0  0.0948
  H  H51  1  0.855300  0.694900  0.909000  1.0  0.1108
  H  H52  1  0.651200  0.580300  0.637200  1.0  0.1026
  H  H53  1  0.010900  0.605700  0.837800  1.0  0.12
  H  H54  1  0.928300  0.511500  0.772300  1.0  0.1072
  H  H55  1  0.551300  0.489700  0.577400  1.0  0.0981
  H  H56  1  0.797200  0.344200  0.613800  1.0  0.0911
  H  H57  1  0.625500  0.256300  0.707200  1.0  0.115
  H  H58  1  0.615700  0.170100  0.264200  1.0  0.0865
  H  H59  1  0.603100  0.934200  0.673800  1.0  0.0997
  H  H60  1  0.613100  0.168500  0.141200  1.0  0.1087
  H  H61  1  0.642600  0.193100  0.031800  1.0  0.0999
  H  H62  1  0.709100  0.162600  0.642700  1.0  0.0946
  H  H63  1  0.644700  0.194900  0.909000  1.0  0.1111
  H  H64  1  0.848800  0.080300  0.637200  1.0  0.1023
  H  H65  1  0.489100  0.105700  0.837800  1.0  0.1203
  H  H66  1  0.571700  0.011500  0.772300  1.0  0.107
  H  H67  1  0.948700  0.989700  0.577400  1.0  0.098
  H  H68  1  0.702800  0.844200  0.613800  1.0  0.0909
  H  H69  1  0.874500  0.256300  0.292800  1.0  0.1148
  H  H70  1  0.884300  0.170100  0.735800  1.0  0.0871
  H  H71  1  0.896900  0.934200  0.326200  1.0  0.0993
  H  H72  1  0.886900  0.168500  0.858800  1.0  0.1077
  H  H73  1  0.857400  0.193100  0.968200  1.0  0.0998
  H  H74  1  0.790900  0.162600  0.357300  1.0  0.0948
  H  H75  1  0.855300  0.194900  0.091000  1.0  0.1108
  H  H76  1  0.651200  0.080300  0.362800  1.0  0.1024
  H  H77  1  0.010900  0.105700  0.162200  1.0  0.1201
  H  H78  1  0.928300  0.011500  0.227700  1.0  0.1067
  H  H79  1  0.551300  0.989700  0.422600  1.0  0.098
  H  H80  1  0.797200  0.844200  0.386200  1.0  0.0907
  H  H81  1  0.374500  0.243700  0.707200  1.0  0.115
  H  H82  1  0.384300  0.329900  0.264200  1.0  0.0862
  H  H83  1  0.396900  0.565800  0.673800  1.0  0.0991
  H  H84  1  0.386900  0.331500  0.141200  1.0  0.1089
  H  H85  1  0.357400  0.306900  0.031800  1.0  0.0999
  H  H86  1  0.290900  0.337400  0.642700  1.0  0.0945
  H  H87  1  0.355300  0.305100  0.909000  1.0  0.1107
  H  H88  1  0.151200  0.419700  0.637200  1.0  0.1019
  H  H89  1  0.510900  0.394300  0.837800  1.0  0.1202
  H  H90  1  0.428300  0.488500  0.772300  1.0  0.1074
  H  H91  1  0.051300  0.510300  0.577400  1.0  0.0979
  H  H92  1  0.297200  0.655800  0.613800  1.0  0.0917
  H  H93  1  0.125500  0.243700  0.292800  1.0  0.1151
  H  H94  1  0.115700  0.329900  0.735800  1.0  0.0868
  H  H95  1  0.103100  0.565800  0.326200  1.0  0.0995
  H  H96  1  0.113100  0.331500  0.858800  1.0  0.1078
  H  H97  1  0.142600  0.306900  0.968200  1.0  0.0999
  H  H98  1  0.209100  0.337400  0.357300  1.0  0.0948
  H  H99  1  0.144700  0.305100  0.091000  1.0  0.1108
  H  H100  1  0.348800  0.419700  0.362800  1.0  0.1016
  H  H101  1  0.989100  0.394300  0.162200  1.0  0.1203
  H  H102  1  0.071700  0.488500  0.227700  1.0  0.107
  H  H103  1  0.448700  0.510300  0.422600  1.0  0.0983
  H  H104  1  0.202800  0.655800  0.386200  1.0  0.0914
  H  H105  1  0.250000  0.404300  0.500000  1.0  0.4149
  H  H106  1  0.750000  0.095700  0.500000  1.0  0.4163
  H  H107  1  0.750000  0.595700  0.500000  1.0  0.4163
  H  H108  1  0.250000  0.904300  0.500000  1.0  0.4149
  C  C109  1  0.384500  0.792920  0.278800  1.0  -0.1664
  C  C110  1  0.431600  0.797690  0.760410  1.0  -0.0124
  C  C111  1  0.449100  0.808840  0.219820  1.0  0.1544
  C  C112  1  0.327400  0.054180  0.345400  1.0  -0.1326
  C  C113  1  0.432500  0.798170  0.834430  1.0  -0.1454
  C  C114  1  0.285400  0.982280  0.337760  1.0  0.0672
  C  C115  1  0.346900  0.923070  0.298360  1.0  0.0041
  C  C116  1  0.415300  0.783400  0.992530  1.0  -0.0828
  C  C117  1  0.334200  0.849320  0.317530  1.0  -0.065
  C  C118  1  0.414300  0.783000  0.066600  1.0  -0.1889
  C  C119  1  0.181100  0.967180  0.367220  1.0  -0.1562
  C  C120  1  0.465800  0.882560  0.201260  1.0  -0.1892
  C  C121  1  0.415600  0.939210  0.240500  1.0  -0.0973
  C  C122  1  0.163100  0.092750  0.409820  1.0  -0.18
  C  C123  1  0.120700  0.021730  0.403040  1.0  -0.0115
  C  C124  1  0.267400  0.108360  0.381200  1.0  -0.0089
  C  C125  1  0.098000  0.150690  0.447700  1.0  0.7068
  C  C126  1  0.115500  0.792920  0.721200  1.0  -0.1669
  C  C127  1  0.068400  0.797690  0.239590  1.0  -0.0133
  C  C128  1  0.050900  0.808840  0.780180  1.0  0.1541
  C  C129  1  0.172600  0.054180  0.654600  1.0  -0.1332
  C  C130  1  0.067500  0.798170  0.165570  1.0  -0.1447
  C  C131  1  0.214600  0.982280  0.662240  1.0  0.0672
  C  C132  1  0.153100  0.923070  0.701640  1.0  0.0042
  C  C133  1  0.084700  0.783400  0.007470  1.0  -0.0836
  C  C134  1  0.165800  0.849320  0.682470  1.0  -0.066
  C  C135  1  0.085700  0.783000  0.933400  1.0  -0.1887
  C  C136  1  0.318900  0.967180  0.632780  1.0  -0.1566
  C  C137  1  0.034200  0.882560  0.798740  1.0  -0.1914
  C  C138  1  0.084400  0.939210  0.759500  1.0  -0.0984
  C  C139  1  0.336900  0.092750  0.590180  1.0  -0.1796
  C  C140  1  0.379300  0.021730  0.596960  1.0  -0.0133
  C  C141  1  0.232600  0.108360  0.618800  1.0  -0.008
  C  C142  1  0.402000  0.150690  0.552300  1.0  0.7073
  C  C143  1  0.615500  0.707080  0.278800  1.0  -0.1675
  C  C144  1  0.568400  0.702310  0.760410  1.0  -0.0129
  C  C145  1  0.550900  0.691160  0.219820  1.0  0.154
  C  C146  1  0.672600  0.445820  0.345400  1.0  -0.13
  C  C147  1  0.567500  0.701830  0.834430  1.0  -0.1442
  C  C148  1  0.714600  0.517720  0.337760  1.0  0.0676
  C  C149  1  0.653100  0.576930  0.298360  1.0  0.0039
  C  C150  1  0.584700  0.716600  0.992530  1.0  -0.0838
  C  C151  1  0.665800  0.650680  0.317530  1.0  -0.0662
  C  C152  1  0.585700  0.717000  0.066600  1.0  -0.1871
  C  C153  1  0.818900  0.532820  0.367220  1.0  -0.1563
  C  C154  1  0.534200  0.617440  0.201260  1.0  -0.1893
  C  C155  1  0.584400  0.560790  0.240500  1.0  -0.0981
  C  C156  1  0.836900  0.407250  0.409820  1.0  -0.1796
  C  C157  1  0.879300  0.478270  0.403040  1.0  -0.013
  C  C158  1  0.732600  0.391640  0.381200  1.0  -0.0082
  C  C159  1  0.902000  0.349310  0.447700  1.0  0.7072
  C  C160  1  0.884500  0.707080  0.721200  1.0  -0.1662
  C  C161  1  0.931600  0.702310  0.239590  1.0  -0.0124
  C  C162  1  0.949100  0.691160  0.780180  1.0  0.1539
  C  C163  1  0.827400  0.445820  0.654600  1.0  -0.1335
  C  C164  1  0.932500  0.701830  0.165570  1.0  -0.1445
  C  C165  1  0.785400  0.517720  0.662240  1.0  0.0671
  C  C166  1  0.846900  0.576930  0.701640  1.0  0.0044
  C  C167  1  0.915300  0.716600  0.007470  1.0  -0.0826
  C  C168  1  0.834200  0.650680  0.682470  1.0  -0.0653
  C  C169  1  0.914300  0.717000  0.933400  1.0  -0.1874
  C  C170  1  0.681100  0.532820  0.632780  1.0  -0.1562
  C  C171  1  0.965800  0.617440  0.798740  1.0  -0.1877
  C  C172  1  0.915600  0.560790  0.759500  1.0  -0.0977
  C  C173  1  0.663100  0.407250  0.590180  1.0  -0.1792
  C  C174  1  0.620700  0.478270  0.596960  1.0  -0.0119
  C  C175  1  0.767400  0.391640  0.618800  1.0  -0.0081
  C  C176  1  0.598000  0.349310  0.552300  1.0  0.7071
  C  C177  1  0.615500  0.207080  0.721200  1.0  -0.1667
  C  C178  1  0.568400  0.202310  0.239590  1.0  -0.0128
  C  C179  1  0.550900  0.191160  0.780180  1.0  0.1537
  C  C180  1  0.672600  0.945820  0.654600  1.0  -0.1322
  C  C181  1  0.567500  0.201830  0.165570  1.0  -0.1442
  C  C182  1  0.714600  0.017720  0.662240  1.0  0.0673
  C  C183  1  0.653100  0.076930  0.701640  1.0  0.0043
  C  C184  1  0.584700  0.216600  0.007470  1.0  -0.0833
  C  C185  1  0.665800  0.150680  0.682470  1.0  -0.0662
  C  C186  1  0.585700  0.217000  0.933400  1.0  -0.1885
  C  C187  1  0.818900  0.032820  0.632780  1.0  -0.1565
  C  C188  1  0.534200  0.117440  0.798740  1.0  -0.188
  C  C189  1  0.584400  0.060790  0.759500  1.0  -0.0981
  C  C190  1  0.836900  0.907250  0.590180  1.0  -0.1792
  C  C191  1  0.879300  0.978270  0.596960  1.0  -0.0134
  C  C192  1  0.732600  0.891640  0.618800  1.0  -0.0079
  C  C193  1  0.902000  0.849310  0.552300  1.0  0.7073
  C  C194  1  0.884500  0.207080  0.278800  1.0  -0.167
  C  C195  1  0.931600  0.202310  0.760410  1.0  -0.0123
  C  C196  1  0.949100  0.191160  0.219820  1.0  0.1543
  C  C197  1  0.827400  0.945820  0.345400  1.0  -0.1315
  C  C198  1  0.932500  0.201830  0.834430  1.0  -0.1445
  C  C199  1  0.785400  0.017720  0.337760  1.0  0.0674
  C  C200  1  0.846900  0.076930  0.298360  1.0  0.0041
  C  C201  1  0.915300  0.216600  0.992530  1.0  -0.083
  C  C202  1  0.834200  0.150680  0.317530  1.0  -0.0654
  C  C203  1  0.914300  0.217000  0.066600  1.0  -0.1883
  C  C204  1  0.681100  0.032820  0.367220  1.0  -0.1562
  C  C205  1  0.965800  0.117440  0.201260  1.0  -0.1896
  C  C206  1  0.915600  0.060790  0.240500  1.0  -0.0986
  C  C207  1  0.663100  0.907250  0.409820  1.0  -0.1796
  C  C208  1  0.620700  0.978270  0.403040  1.0  -0.0116
  C  C209  1  0.767400  0.891640  0.381200  1.0  -0.0087
  C  C210  1  0.598000  0.849310  0.447700  1.0  0.707
  C  C211  1  0.384500  0.292920  0.721200  1.0  -0.1665
  C  C212  1  0.431600  0.297690  0.239590  1.0  -0.0128
  C  C213  1  0.449100  0.308840  0.780180  1.0  0.1543
  C  C214  1  0.327400  0.554180  0.654600  1.0  -0.1344
  C  C215  1  0.432500  0.298170  0.165570  1.0  -0.1448
  C  C216  1  0.285400  0.482280  0.662240  1.0  0.0671
  C  C217  1  0.346900  0.423070  0.701640  1.0  0.0044
  C  C218  1  0.415300  0.283400  0.007470  1.0  -0.0829
  C  C219  1  0.334200  0.349320  0.682470  1.0  -0.0653
  C  C220  1  0.414300  0.283000  0.933400  1.0  -0.1877
  C  C221  1  0.181100  0.467180  0.632780  1.0  -0.1566
  C  C222  1  0.465800  0.382560  0.798740  1.0  -0.19
  C  C223  1  0.415600  0.439210  0.759500  1.0  -0.0972
  C  C224  1  0.163100  0.592750  0.590180  1.0  -0.1797
  C  C225  1  0.120700  0.521730  0.596960  1.0  -0.0118
  C  C226  1  0.267400  0.608360  0.618800  1.0  -0.0083
  C  C227  1  0.098000  0.650690  0.552300  1.0  0.707
  C  C228  1  0.115500  0.292920  0.278800  1.0  -0.167
  C  C229  1  0.068400  0.297690  0.760410  1.0  -0.0131
  C  C230  1  0.050900  0.308840  0.219820  1.0  0.1541
  C  C231  1  0.172600  0.554180  0.345400  1.0  -0.1314
  C  C232  1  0.067500  0.298170  0.834430  1.0  -0.1453
  C  C233  1  0.214600  0.482280  0.337760  1.0  0.0672
  C  C234  1  0.153100  0.423070  0.298360  1.0  0.004
  C  C235  1  0.084700  0.283400  0.992530  1.0  -0.0837
  C  C236  1  0.165800  0.349320  0.317530  1.0  -0.0659
  C  C237  1  0.085700  0.283000  0.066600  1.0  -0.1873
  C  C238  1  0.318900  0.467180  0.367220  1.0  -0.1561
  C  C239  1  0.034200  0.382560  0.201260  1.0  -0.1896
  C  C240  1  0.084400  0.439210  0.240500  1.0  -0.0974
  C  C241  1  0.336900  0.592750  0.409820  1.0  -0.1799
  C  C242  1  0.379300  0.521730  0.403040  1.0  -0.0128
  C  C243  1  0.232600  0.608360  0.381200  1.0  -0.0084
  C  C244  1  0.402000  0.650690  0.447700  1.0  0.7071
  C  C245  1  0.500000  0.750000  0.105000  1.0  0.1704
  C  C246  1  0.500000  0.750000  0.873500  1.0  0.0637
  C  C247  1  0.500000  0.750000  0.641550  1.0  0.7015
  C  C248  1  0.500000  0.750000  0.722150  1.0  -0.1754
  C  C249  1  0.500000  0.750000  0.953100  1.0  -0.0147
  C  C250  1  0.000000  0.750000  0.895000  1.0  0.171
  C  C251  1  0.000000  0.750000  0.126500  1.0  0.0638
  C  C252  1  0.000000  0.750000  0.358450  1.0  0.7008
  C  C253  1  0.000000  0.750000  0.277850  1.0  -0.174
  C  C254  1  0.000000  0.750000  0.046900  1.0  -0.0136
  C  C255  1  0.500000  0.250000  0.895000  1.0  0.171
  C  C256  1  0.500000  0.250000  0.126500  1.0  0.0638
  C  C257  1  0.500000  0.250000  0.358450  1.0  0.7008
  C  C258  1  0.500000  0.250000  0.277850  1.0  -0.174
  C  C259  1  0.500000  0.250000  0.046900  1.0  -0.0136
  C  C260  1  0.000000  0.250000  0.105000  1.0  0.1704
  C  C261  1  0.000000  0.250000  0.873500  1.0  0.0637
  C  C262  1  0.000000  0.250000  0.641550  1.0  0.7015
  C  C263  1  0.000000  0.250000  0.722150  1.0  -0.1754
  C  C264  1  0.000000  0.250000  0.953100  1.0  -0.0147
  N  N265  1  0.500000  0.750000  0.180670  1.0  -0.1271
  N  N266  1  0.000000  0.750000  0.819330  1.0  -0.1269
  N  N267  1  0.500000  0.250000  0.819330  1.0  -0.1269
  N  N268  1  0.000000  0.250000  0.180670  1.0  -0.1271
  O  O269  1  0.423060  0.784390  0.610680  1.0  -0.6022
  O  O270  1  0.139600  0.214890  0.451500  1.0  -0.6177
  O  O271  1  0.005590  0.132340  0.473550  1.0  -0.6124
  O  O272  1  0.076940  0.784390  0.389320  1.0  -0.6029
  O  O273  1  0.360400  0.214890  0.548500  1.0  -0.6177
  O  O274  1  0.494410  0.132340  0.526450  1.0  -0.6127
  O  O275  1  0.576940  0.715610  0.610680  1.0  -0.6027
  O  O276  1  0.860400  0.285110  0.451500  1.0  -0.6181
  O  O277  1  0.994410  0.367660  0.473550  1.0  -0.6126
  O  O278  1  0.923060  0.715610  0.389320  1.0  -0.6024
  O  O279  1  0.639600  0.285110  0.548500  1.0  -0.6178
  O  O280  1  0.505590  0.367660  0.526450  1.0  -0.6123
  O  O281  1  0.576940  0.215610  0.389320  1.0  -0.6029
  O  O282  1  0.860400  0.785110  0.548500  1.0  -0.6181
  O  O283  1  0.994410  0.867660  0.526450  1.0  -0.6125
  O  O284  1  0.923060  0.215610  0.610680  1.0  -0.6023
  O  O285  1  0.639600  0.785110  0.451500  1.0  -0.6179
  O  O286  1  0.505590  0.867660  0.473550  1.0  -0.6123
  O  O287  1  0.423060  0.284390  0.389320  1.0  -0.6023
  O  O288  1  0.139600  0.714890  0.548500  1.0  -0.6176
  O  O289  1  0.005590  0.632340  0.526450  1.0  -0.6126
  O  O290  1  0.076940  0.284390  0.610680  1.0  -0.6027
  O  O291  1  0.360400  0.714890  0.451500  1.0  -0.6178
  O  O292  1  0.494410  0.632340  0.473550  1.0  -0.6127
  O  O293  1  0.250000  0.352540  0.500000  1.0  -0.9145
  O  O294  1  0.750000  0.147460  0.500000  1.0  -0.9149
  O  O295  1  0.750000  0.647460  0.500000  1.0  -0.9149
  O  O296  1  0.250000  0.852540  0.500000  1.0  -0.9145
