# generated using pymatgen
data_ZnH3C9O4
_symmetry_space_group_name_H-M   'P 1'
_cell_length_a   15.41280000
_cell_length_b   15.41280000
_cell_length_c   15.41280000
_cell_angle_alpha   76.34120000
_cell_angle_beta   76.34120000
_cell_angle_gamma   76.34120000
_symmetry_Int_Tables_number   1
_chemical_formula_structural   ZnH3C9O4
_chemical_formula_sum   'Zn6 H18 C54 O24'
_cell_volume   3393.54606853
_cell_formula_units_Z   6
loop_
 _symmetry_equiv_pos_site_id
 _symmetry_equiv_pos_as_xyz
  1  'x, y, z'
loop_
 _atom_site_type_symbol
 _atom_site_label
 _atom_site_symmetry_multiplicity
 _atom_site_fract_x
 _atom_site_fract_y
 _atom_site_fract_z
 _atom_site_occupancy
 _atom_site_charge
  Zn  Zn1  1  0.088210  0.513260  0.513260  1.0  1.1649
  Zn  Zn2  1  0.513260  0.088210  0.513260  1.0  1.1642
  Zn  Zn3  1  0.513260  0.513260  0.088210  1.0  1.1603
  Zn  Zn4  1  0.486740  0.911790  0.486740  1.0  1.1625
  Zn  Zn5  1  0.911790  0.486740  0.486740  1.0  1.1631
  Zn  Zn6  1  0.486740  0.486740  0.911790  1.0  1.1605
  H  H7  1  0.986800  0.196900  0.506400  1.0  0.1171
  H  H8  1  0.506400  0.986800  0.196900  1.0  0.1179
  H  H9  1  0.196900  0.506400  0.986800  1.0  0.118
  H  H10  1  0.803100  0.013200  0.493600  1.0  0.1164
  H  H11  1  0.013200  0.493600  0.803100  1.0  0.1174
  H  H12  1  0.493600  0.803100  0.013200  1.0  0.1171
  H  H13  1  0.013200  0.803100  0.493600  1.0  0.1166
  H  H14  1  0.493600  0.013200  0.803100  1.0  0.1176
  H  H15  1  0.803100  0.493600  0.013200  1.0  0.1171
  H  H16  1  0.196900  0.986800  0.506400  1.0  0.1179
  H  H17  1  0.986800  0.506400  0.196900  1.0  0.1168
  H  H18  1  0.506400  0.196900  0.986800  1.0  0.1176
  H  H19  1  0.232500  0.232500  0.523000  1.0  0.1102
  H  H20  1  0.523000  0.232500  0.232500  1.0  0.1104
  H  H21  1  0.232500  0.523000  0.232500  1.0  0.1101
  H  H22  1  0.767500  0.767500  0.477000  1.0  0.1093
  H  H23  1  0.767500  0.477000  0.767500  1.0  0.1098
  H  H24  1  0.477000  0.767500  0.767500  1.0  0.1099
  C  C25  1  0.065500  0.329240  0.514270  1.0  0.73
  C  C26  1  0.103830  0.230050  0.515340  1.0  -0.1653
  C  C27  1  0.047620  0.173420  0.509620  1.0  -0.0612
  C  C28  1  0.514270  0.065500  0.329240  1.0  0.7296
  C  C29  1  0.515340  0.103830  0.230050  1.0  -0.1661
  C  C30  1  0.509620  0.047620  0.173420  1.0  -0.0609
  C  C31  1  0.329240  0.514270  0.065500  1.0  0.7287
  C  C32  1  0.230050  0.515340  0.103830  1.0  -0.1652
  C  C33  1  0.173420  0.509620  0.047620  1.0  -0.0615
  C  C34  1  0.670760  0.934500  0.485730  1.0  0.7282
  C  C35  1  0.769950  0.896170  0.484660  1.0  -0.1653
  C  C36  1  0.826580  0.952380  0.490380  1.0  -0.0606
  C  C37  1  0.934500  0.485730  0.670760  1.0  0.7302
  C  C38  1  0.896170  0.484660  0.769950  1.0  -0.1658
  C  C39  1  0.952380  0.490380  0.826580  1.0  -0.0598
  C  C40  1  0.485730  0.670760  0.934500  1.0  0.7286
  C  C41  1  0.484660  0.769950  0.896170  1.0  -0.1657
  C  C42  1  0.490380  0.826580  0.952380  1.0  -0.0617
  C  C43  1  0.934500  0.670760  0.485730  1.0  0.7288
  C  C44  1  0.896170  0.769950  0.484660  1.0  -0.1656
  C  C45  1  0.952380  0.826580  0.490380  1.0  -0.0599
  C  C46  1  0.485730  0.934500  0.670760  1.0  0.7298
  C  C47  1  0.484660  0.896170  0.769950  1.0  -0.1657
  C  C48  1  0.490380  0.952380  0.826580  1.0  -0.0606
  C  C49  1  0.670760  0.485730  0.934500  1.0  0.7295
  C  C50  1  0.769950  0.484660  0.896170  1.0  -0.1655
  C  C51  1  0.826580  0.490380  0.952380  1.0  -0.062
  C  C52  1  0.329240  0.065500  0.514270  1.0  0.728
  C  C53  1  0.230050  0.103830  0.515340  1.0  -0.1652
  C  C54  1  0.173420  0.047620  0.509620  1.0  -0.0599
  C  C55  1  0.065500  0.514270  0.329240  1.0  0.7299
  C  C56  1  0.103830  0.515340  0.230050  1.0  -0.1663
  C  C57  1  0.047620  0.509620  0.173420  1.0  -0.0604
  C  C58  1  0.514270  0.329240  0.065500  1.0  0.73
  C  C59  1  0.515340  0.230050  0.103830  1.0  -0.1659
  C  C60  1  0.509620  0.173420  0.047620  1.0  -0.0614
  C  C61  1  0.082420  0.082420  0.508670  1.0  0.078
  C  C62  1  0.023170  0.023170  0.502370  1.0  -0.072
  C  C63  1  0.195010  0.195010  0.518660  1.0  0.0255
  C  C64  1  0.508670  0.082420  0.082420  1.0  0.0804
  C  C65  1  0.502370  0.023170  0.023170  1.0  -0.07
  C  C66  1  0.518660  0.195010  0.195010  1.0  0.0262
  C  C67  1  0.082420  0.508670  0.082420  1.0  0.0798
  C  C68  1  0.023170  0.502370  0.023170  1.0  -0.0719
  C  C69  1  0.195010  0.518660  0.195010  1.0  0.0257
  C  C70  1  0.917580  0.917580  0.491330  1.0  0.0795
  C  C71  1  0.976830  0.976830  0.497630  1.0  -0.0694
  C  C72  1  0.804990  0.804990  0.481340  1.0  0.0245
  C  C73  1  0.917580  0.491330  0.917580  1.0  0.0797
  C  C74  1  0.976830  0.497630  0.976830  1.0  -0.0694
  C  C75  1  0.804990  0.481340  0.804990  1.0  0.0254
  C  C76  1  0.491330  0.917580  0.917580  1.0  0.0791
  C  C77  1  0.497630  0.976830  0.976830  1.0  -0.0688
  C  C78  1  0.481340  0.804990  0.804990  1.0  0.0257
  O  O79  1  0.985790  0.357330  0.505590  1.0  -0.64
  O  O80  1  0.119250  0.375790  0.521490  1.0  -0.6339
  O  O81  1  0.505590  0.985790  0.357330  1.0  -0.6386
  O  O82  1  0.521490  0.119250  0.375790  1.0  -0.6343
  O  O83  1  0.357330  0.505590  0.985790  1.0  -0.6406
  O  O84  1  0.375790  0.521490  0.119250  1.0  -0.6332
  O  O85  1  0.642670  0.014210  0.494410  1.0  -0.6397
  O  O86  1  0.624210  0.880750  0.478510  1.0  -0.6335
  O  O87  1  0.014210  0.494410  0.642670  1.0  -0.6415
  O  O88  1  0.880750  0.478510  0.624210  1.0  -0.6347
  O  O89  1  0.494410  0.642670  0.014210  1.0  -0.6367
  O  O90  1  0.478510  0.624210  0.880750  1.0  -0.6355
  O  O91  1  0.014210  0.642670  0.494410  1.0  -0.6407
  O  O92  1  0.880750  0.624210  0.478510  1.0  -0.6343
  O  O93  1  0.494410  0.014210  0.642670  1.0  -0.6385
  O  O94  1  0.478510  0.880750  0.624210  1.0  -0.6347
  O  O95  1  0.642670  0.494410  0.014210  1.0  -0.6394
  O  O96  1  0.624210  0.478510  0.880750  1.0  -0.6336
  O  O97  1  0.357330  0.985790  0.505590  1.0  -0.6409
  O  O98  1  0.375790  0.119250  0.521490  1.0  -0.6338
  O  O99  1  0.985790  0.505590  0.357330  1.0  -0.6403
  O  O100  1  0.119250  0.521490  0.375790  1.0  -0.6346
  O  O101  1  0.505590  0.357330  0.985790  1.0  -0.6364
  O  O102  1  0.521490  0.375790  0.119250  1.0  -0.6351
