# generated using pymatgen
data_ZnH3C9O4
_symmetry_space_group_name_H-M   'P 1'
_cell_length_a   15.33010000
_cell_length_b   15.33010000
_cell_length_c   15.33010000
_cell_angle_alpha   102.03800000
_cell_angle_beta   102.03800000
_cell_angle_gamma   102.03800000
_symmetry_Int_Tables_number   1
_chemical_formula_structural   ZnH3C9O4
_chemical_formula_sum   'Zn6 H18 C54 O24'
_cell_volume   3324.24183824
_cell_formula_units_Z   6
loop_
 _symmetry_equiv_pos_site_id
 _symmetry_equiv_pos_as_xyz
  1  'x, y, z'
loop_
 _atom_site_type_symbol
 _atom_site_label
 _atom_site_symmetry_multiplicity
 _atom_site_fract_x
 _atom_site_fract_y
 _atom_site_fract_z
 _atom_site_occupancy
 _atom_site_charge
  Zn  Zn1  1  0.022980  0.022980  0.416530  1.0  1.1354
  Zn  Zn2  1  0.416530  0.022980  0.022980  1.0  1.1372
  Zn  Zn3  1  0.022980  0.416530  0.022980  1.0  1.1367
  Zn  Zn4  1  0.977020  0.977020  0.583470  1.0  1.1306
  Zn  Zn5  1  0.977020  0.583470  0.977020  1.0  1.1332
  Zn  Zn6  1  0.583470  0.977020  0.977020  1.0  1.1386
  H  H7  1  0.303700  0.014200  0.493800  1.0  0.1249
  H  H8  1  0.493800  0.303700  0.014200  1.0  0.1252
  H  H9  1  0.014200  0.493800  0.303700  1.0  0.1248
  H  H10  1  0.985800  0.696300  0.506200  1.0  0.1246
  H  H11  1  0.696300  0.506200  0.985800  1.0  0.1245
  H  H12  1  0.506200  0.985800  0.696300  1.0  0.1236
  H  H13  1  0.696300  0.985800  0.506200  1.0  0.1253
  H  H14  1  0.506200  0.696300  0.985800  1.0  0.1244
  H  H15  1  0.985800  0.506200  0.696300  1.0  0.1247
  H  H16  1  0.014200  0.303700  0.493800  1.0  0.1247
  H  H17  1  0.303700  0.493800  0.014200  1.0  0.1246
  H  H18  1  0.493800  0.014200  0.303700  1.0  0.1246
  H  H19  1  0.259250  0.000000  0.740750  1.0  0.1136
  H  H20  1  0.740750  0.259250  0.000000  1.0  0.1137
  H  H21  1  0.000000  0.740750  0.259250  1.0  0.1136
  H  H22  1  0.740750  0.000000  0.259250  1.0  0.1129
  H  H23  1  0.259250  0.740750  0.000000  1.0  0.1137
  H  H24  1  0.000000  0.259250  0.740750  1.0  0.1143
  C  C25  1  0.266860  0.006390  0.612370  1.0  -0.1511
  C  C26  1  0.323980  0.008060  0.553190  1.0  -0.0512
  C  C27  1  0.169140  0.012670  0.578200  1.0  0.7288
  C  C28  1  0.612370  0.266860  0.006390  1.0  -0.1483
  C  C29  1  0.553190  0.323980  0.008060  1.0  -0.0509
  C  C30  1  0.578200  0.169140  0.012670  1.0  0.7291
  C  C31  1  0.006390  0.612370  0.266860  1.0  -0.1552
  C  C32  1  0.008060  0.553190  0.323980  1.0  -0.0508
  C  C33  1  0.012670  0.578200  0.169140  1.0  0.7303
  C  C34  1  0.993610  0.733140  0.387630  1.0  -0.1489
  C  C35  1  0.991940  0.676020  0.446810  1.0  -0.0532
  C  C36  1  0.987330  0.830860  0.421800  1.0  0.73
  C  C37  1  0.733140  0.387630  0.993610  1.0  -0.1486
  C  C38  1  0.676020  0.446810  0.991940  1.0  -0.0513
  C  C39  1  0.830860  0.421800  0.987330  1.0  0.7295
  C  C40  1  0.387630  0.993610  0.733140  1.0  -0.1538
  C  C41  1  0.446810  0.991940  0.676020  1.0  -0.0501
  C  C42  1  0.421800  0.987330  0.830860  1.0  0.7303
  C  C43  1  0.733140  0.993610  0.387630  1.0  -0.1503
  C  C44  1  0.676020  0.991940  0.446810  1.0  -0.0522
  C  C45  1  0.830860  0.987330  0.421800  1.0  0.7286
  C  C46  1  0.387630  0.733140  0.993610  1.0  -0.1482
  C  C47  1  0.446810  0.676020  0.991940  1.0  -0.0511
  C  C48  1  0.421800  0.830860  0.987330  1.0  0.7305
  C  C49  1  0.993610  0.387630  0.733140  1.0  -0.1549
  C  C50  1  0.991940  0.446810  0.676020  1.0  -0.0524
  C  C51  1  0.987330  0.421800  0.830860  1.0  0.731
  C  C52  1  0.006390  0.266860  0.612370  1.0  -0.1493
  C  C53  1  0.008060  0.323980  0.553190  1.0  -0.052
  C  C54  1  0.012670  0.169140  0.578200  1.0  0.7297
  C  C55  1  0.266860  0.612370  0.006390  1.0  -0.1482
  C  C56  1  0.323980  0.553190  0.008060  1.0  -0.0495
  C  C57  1  0.169140  0.578200  0.012670  1.0  0.7286
  C  C58  1  0.612370  0.006390  0.266860  1.0  -0.1538
  C  C59  1  0.553190  0.008060  0.323980  1.0  -0.0524
  C  C60  1  0.578200  0.012670  0.169140  1.0  0.7306
  C  C61  1  0.413570  0.000000  0.586430  1.0  0.0603
  C  C62  1  0.298290  0.000000  0.701710  1.0  0.0156
  C  C63  1  0.475980  0.000000  0.524030  1.0  -0.0869
  C  C64  1  0.586430  0.413570  0.000000  1.0  0.06
  C  C65  1  0.701710  0.298290  0.000000  1.0  0.0173
  C  C66  1  0.524030  0.475970  0.000000  1.0  -0.091
  C  C67  1  0.000000  0.586430  0.413570  1.0  0.0579
  C  C68  1  0.000000  0.701710  0.298290  1.0  0.0156
  C  C69  1  0.000000  0.524020  0.475970  1.0  -0.0864
  C  C70  1  0.586430  0.000000  0.413570  1.0  0.0592
  C  C71  1  0.701710  0.000000  0.298290  1.0  0.015
  C  C72  1  0.524020  0.000000  0.475970  1.0  -0.0876
  C  C73  1  0.413570  0.586430  0.000000  1.0  0.0605
  C  C74  1  0.298290  0.701710  0.000000  1.0  0.0168
  C  C75  1  0.475970  0.524020  0.000000  1.0  -0.0862
  C  C76  1  0.000000  0.413570  0.586430  1.0  0.0602
  C  C77  1  0.000000  0.298290  0.701710  1.0  0.0163
  C  C78  1  0.000000  0.475980  0.524030  1.0  -0.0856
  O  O79  1  0.146510  0.026030  0.499720  1.0  -0.6606
  O  O80  1  0.116970  0.997540  0.628370  1.0  -0.6087
  O  O81  1  0.499720  0.146510  0.026030  1.0  -0.6595
  O  O82  1  0.628370  0.116970  0.997540  1.0  -0.6118
  O  O83  1  0.026030  0.499720  0.146510  1.0  -0.6606
  O  O84  1  0.997540  0.628370  0.116970  1.0  -0.6112
  O  O85  1  0.973970  0.853490  0.500280  1.0  -0.6588
  O  O86  1  0.002460  0.883030  0.371630  1.0  -0.61
  O  O87  1  0.853490  0.500280  0.973970  1.0  -0.6606
  O  O88  1  0.883030  0.371630  0.002460  1.0  -0.612
  O  O89  1  0.500280  0.973970  0.853490  1.0  -0.6595
  O  O90  1  0.371630  0.002460  0.883030  1.0  -0.6115
  O  O91  1  0.853490  0.973970  0.500280  1.0  -0.661
  O  O92  1  0.883030  0.002460  0.371630  1.0  -0.6088
  O  O93  1  0.500280  0.853490  0.973970  1.0  -0.6587
  O  O94  1  0.371630  0.883030  0.002460  1.0  -0.6122
  O  O95  1  0.973970  0.500280  0.853490  1.0  -0.6603
  O  O96  1  0.002460  0.371630  0.883030  1.0  -0.6123
  O  O97  1  0.026030  0.146510  0.499720  1.0  -0.659
  O  O98  1  0.997540  0.116970  0.628370  1.0  -0.6093
  O  O99  1  0.146510  0.499720  0.026030  1.0  -0.6599
  O  O100  1  0.116970  0.628370  0.997540  1.0  -0.6114
  O  O101  1  0.499720  0.026030  0.146510  1.0  -0.661
  O  O102  1  0.628370  0.997540  0.116970  1.0  -0.6111
