# generated using pymatgen
data_ZnH3C9O4
_symmetry_space_group_name_H-M   'P 1'
_cell_length_a   17.20890000
_cell_length_b   17.20890000
_cell_length_c   28.52300000
_cell_angle_alpha   90.00000000
_cell_angle_beta   90.00000000
_cell_angle_gamma   90.00000000
_symmetry_Int_Tables_number   1
_chemical_formula_structural   ZnH3C9O4
_chemical_formula_sum   'Zn16 H48 C144 O64'
_cell_volume   8446.97918099
_cell_formula_units_Z   16
loop_
 _symmetry_equiv_pos_site_id
 _symmetry_equiv_pos_as_xyz
  1  'x, y, z'
loop_
 _atom_site_type_symbol
 _atom_site_label
 _atom_site_symmetry_multiplicity
 _atom_site_fract_x
 _atom_site_fract_y
 _atom_site_fract_z
 _atom_site_occupancy
 _atom_site_charge
  Zn  Zn1  1  0.836310  0.750000  0.750000  1.0  1.1738
  Zn  Zn2  1  0.663690  0.750000  0.750000  1.0  1.1667
  Zn  Zn3  1  0.750000  0.836310  0.250000  1.0  1.1764
  Zn  Zn4  1  0.750000  0.663690  0.250000  1.0  1.1754
  Zn  Zn5  1  0.163690  0.250000  0.250000  1.0  1.1667
  Zn  Zn6  1  0.336310  0.250000  0.250000  1.0  1.1738
  Zn  Zn7  1  0.250000  0.163690  0.750000  1.0  1.1754
  Zn  Zn8  1  0.250000  0.336310  0.750000  1.0  1.1764
  Zn  Zn9  1  0.046610  0.953390  0.534000  1.0  1.1619
  Zn  Zn10  1  0.453390  0.546610  0.534000  1.0  1.1636
  Zn  Zn11  1  0.546610  0.046610  0.034000  1.0  1.1637
  Zn  Zn12  1  0.953390  0.453390  0.034000  1.0  1.1623
  Zn  Zn13  1  0.453390  0.953390  0.966000  1.0  1.1633
  Zn  Zn14  1  0.046610  0.546610  0.966000  1.0  1.1624
  Zn  Zn15  1  0.953390  0.046610  0.466000  1.0  1.1636
  Zn  Zn16  1  0.546610  0.453390  0.466000  1.0  1.1619
  H  H17  1  0.637700  0.953400  0.662300  1.0  0.1252
  H  H18  1  0.856700  0.886300  0.622200  1.0  0.1247
  H  H19  1  0.741900  0.054600  0.546400  1.0  0.1312
  H  H20  1  0.862300  0.546600  0.662300  1.0  0.1252
  H  H21  1  0.643300  0.613700  0.622200  1.0  0.1243
  H  H22  1  0.758100  0.445400  0.546400  1.0  0.1314
  H  H23  1  0.546600  0.637700  0.162300  1.0  0.125
  H  H24  1  0.613700  0.856700  0.122200  1.0  0.1249
  H  H25  1  0.445400  0.741900  0.046400  1.0  0.1307
  H  H26  1  0.953400  0.862300  0.162300  1.0  0.1251
  H  H27  1  0.886300  0.643300  0.122200  1.0  0.1247
  H  H28  1  0.054600  0.758100  0.046400  1.0  0.1309
  H  H29  1  0.862300  0.953400  0.837700  1.0  0.1251
  H  H30  1  0.643300  0.886300  0.877800  1.0  0.1244
  H  H31  1  0.758100  0.054600  0.953600  1.0  0.1312
  H  H32  1  0.637700  0.546600  0.837700  1.0  0.1251
  H  H33  1  0.856700  0.613700  0.877800  1.0  0.1244
  H  H34  1  0.741900  0.445400  0.953600  1.0  0.1314
  H  H35  1  0.953400  0.637700  0.337700  1.0  0.1249
  H  H36  1  0.886300  0.856700  0.377800  1.0  0.1247
  H  H37  1  0.054600  0.741900  0.453600  1.0  0.1305
  H  H38  1  0.546600  0.862300  0.337700  1.0  0.125
  H  H39  1  0.613700  0.643300  0.377800  1.0  0.1247
  H  H40  1  0.445400  0.758100  0.453600  1.0  0.1304
  H  H41  1  0.362300  0.046600  0.337700  1.0  0.1252
  H  H42  1  0.143300  0.113700  0.377800  1.0  0.124
  H  H43  1  0.258100  0.945400  0.453600  1.0  0.1311
  H  H44  1  0.137700  0.453400  0.337700  1.0  0.1249
  H  H45  1  0.356700  0.386300  0.377800  1.0  0.1244
  H  H46  1  0.241900  0.554600  0.453600  1.0  0.1314
  H  H47  1  0.453400  0.362300  0.837700  1.0  0.1249
  H  H48  1  0.386300  0.143300  0.877800  1.0  0.1243
  H  H49  1  0.554600  0.258100  0.953600  1.0  0.1305
  H  H50  1  0.046600  0.137700  0.837700  1.0  0.1249
  H  H51  1  0.113700  0.356700  0.877800  1.0  0.1248
  H  H52  1  0.945400  0.241900  0.953600  1.0  0.1305
  H  H53  1  0.137700  0.046600  0.162300  1.0  0.1253
  H  H54  1  0.356700  0.113700  0.122200  1.0  0.1245
  H  H55  1  0.241900  0.945400  0.046400  1.0  0.1313
  H  H56  1  0.362300  0.453400  0.162300  1.0  0.125
  H  H57  1  0.143300  0.386300  0.122200  1.0  0.1248
  H  H58  1  0.258100  0.554600  0.046400  1.0  0.1312
  H  H59  1  0.046600  0.362300  0.662300  1.0  0.1253
  H  H60  1  0.113700  0.143300  0.622200  1.0  0.1249
  H  H61  1  0.945400  0.258100  0.546400  1.0  0.1306
  H  H62  1  0.453400  0.137700  0.662300  1.0  0.1249
  H  H63  1  0.386300  0.356700  0.622200  1.0  0.1249
  H  H64  1  0.554600  0.241900  0.546400  1.0  0.131
  C  C65  1  0.678340  0.015010  0.604000  1.0  -0.0098
  C  C66  1  0.679780  0.958420  0.640930  1.0  -0.0928
  C  C67  1  0.744370  0.910750  0.646630  1.0  -0.1178
  C  C68  1  0.809970  0.917010  0.616750  1.0  -0.0496
  C  C69  1  0.807190  0.970830  0.580240  1.0  -0.1172
  C  C70  1  0.742610  0.019530  0.572900  1.0  -0.0569
  C  C71  1  0.745200  0.852800  0.685260  1.0  0.7103
  C  C72  1  0.876800  0.976420  0.548540  1.0  0.7059
  C  C73  1  0.616830  0.067640  0.600330  1.0  -0.0737
  C  C74  1  0.821660  0.484990  0.604000  1.0  -0.008
  C  C75  1  0.820220  0.541580  0.640930  1.0  -0.0927
  C  C76  1  0.755630  0.589250  0.646630  1.0  -0.1182
  C  C77  1  0.690030  0.582990  0.616750  1.0  -0.0493
  C  C78  1  0.692810  0.529170  0.580240  1.0  -0.1173
  C  C79  1  0.757390  0.480470  0.572900  1.0  -0.0565
  C  C80  1  0.754800  0.647200  0.685260  1.0  0.711
  C  C81  1  0.623200  0.523580  0.548540  1.0  0.7055
  C  C82  1  0.883170  0.432360  0.600330  1.0  -0.071
  C  C83  1  0.484990  0.678340  0.104000  1.0  -0.0092
  C  C84  1  0.541580  0.679780  0.140930  1.0  -0.0928
  C  C85  1  0.589250  0.744370  0.146630  1.0  -0.118
  C  C86  1  0.582990  0.809970  0.116750  1.0  -0.0503
  C  C87  1  0.529170  0.807190  0.080240  1.0  -0.1169
  C  C88  1  0.480470  0.742610  0.072900  1.0  -0.0564
  C  C89  1  0.647200  0.745200  0.185260  1.0  0.7098
  C  C90  1  0.523580  0.876800  0.048540  1.0  0.7056
  C  C91  1  0.432360  0.616830  0.100330  1.0  -0.075
  C  C92  1  0.015010  0.821660  0.104000  1.0  -0.0075
  C  C93  1  0.958420  0.820220  0.140930  1.0  -0.0928
  C  C94  1  0.910750  0.755630  0.146630  1.0  -0.1176
  C  C95  1  0.917010  0.690030  0.116750  1.0  -0.0503
  C  C96  1  0.970830  0.692810  0.080240  1.0  -0.1171
  C  C97  1  0.019530  0.757390  0.072900  1.0  -0.0555
  C  C98  1  0.852800  0.754800  0.185260  1.0  0.7107
  C  C99  1  0.976420  0.623200  0.048540  1.0  0.705
  C  C100  1  0.067640  0.883170  0.100330  1.0  -0.0733
  C  C101  1  0.821660  0.015010  0.896000  1.0  -0.0082
  C  C102  1  0.820220  0.958420  0.859070  1.0  -0.093
  C  C103  1  0.755630  0.910750  0.853370  1.0  -0.1181
  C  C104  1  0.690030  0.917010  0.883250  1.0  -0.0498
  C  C105  1  0.692810  0.970830  0.919760  1.0  -0.1173
  C  C106  1  0.757390  0.019530  0.927100  1.0  -0.0547
  C  C107  1  0.754800  0.852800  0.814740  1.0  0.7102
  C  C108  1  0.623200  0.976420  0.951460  1.0  0.7057
  C  C109  1  0.883170  0.067640  0.899670  1.0  -0.0713
  C  C110  1  0.678340  0.484990  0.896000  1.0  -0.0103
  C  C111  1  0.679780  0.541580  0.859070  1.0  -0.0935
  C  C112  1  0.744370  0.589250  0.853370  1.0  -0.1178
  C  C113  1  0.809970  0.582990  0.883250  1.0  -0.049
  C  C114  1  0.807190  0.529170  0.919760  1.0  -0.1171
  C  C115  1  0.742610  0.480470  0.927100  1.0  -0.0551
  C  C116  1  0.745200  0.647200  0.814740  1.0  0.7108
  C  C117  1  0.876800  0.523580  0.951460  1.0  0.7056
  C  C118  1  0.616830  0.432360  0.899670  1.0  -0.0735
  C  C119  1  0.015010  0.678340  0.396000  1.0  -0.0083
  C  C120  1  0.958420  0.679780  0.359070  1.0  -0.0929
  C  C121  1  0.910750  0.744370  0.353370  1.0  -0.1179
  C  C122  1  0.917010  0.809970  0.383250  1.0  -0.05
  C  C123  1  0.970830  0.807190  0.419760  1.0  -0.1168
  C  C124  1  0.019530  0.742610  0.427100  1.0  -0.0529
  C  C125  1  0.852800  0.745200  0.314740  1.0  0.7105
  C  C126  1  0.976420  0.876800  0.451460  1.0  0.7052
  C  C127  1  0.067640  0.616830  0.399670  1.0  -0.0729
  C  C128  1  0.484990  0.821660  0.396000  1.0  -0.0091
  C  C129  1  0.541580  0.820220  0.359070  1.0  -0.094
  C  C130  1  0.589250  0.755630  0.353370  1.0  -0.1177
  C  C131  1  0.582990  0.690030  0.383250  1.0  -0.0496
  C  C132  1  0.529170  0.692810  0.419760  1.0  -0.117
  C  C133  1  0.480470  0.757390  0.427100  1.0  -0.0556
  C  C134  1  0.647200  0.754800  0.314740  1.0  0.7097
  C  C135  1  0.523580  0.623200  0.451460  1.0  0.7056
  C  C136  1  0.432360  0.883170  0.399670  1.0  -0.0752
  C  C137  1  0.321660  0.984990  0.396000  1.0  -0.0082
  C  C138  1  0.320220  0.041580  0.359070  1.0  -0.0938
  C  C139  1  0.255630  0.089250  0.353370  1.0  -0.1182
  C  C140  1  0.190030  0.082990  0.383250  1.0  -0.0491
  C  C141  1  0.192810  0.029170  0.419760  1.0  -0.1172
  C  C142  1  0.257390  0.980470  0.427100  1.0  -0.0545
  C  C143  1  0.254800  0.147200  0.314740  1.0  0.7109
  C  C144  1  0.123200  0.023580  0.451460  1.0  0.7056
  C  C145  1  0.383170  0.932360  0.399670  1.0  -0.071
  C  C146  1  0.178340  0.515010  0.396000  1.0  -0.0099
  C  C147  1  0.179780  0.458420  0.359070  1.0  -0.0928
  C  C148  1  0.244370  0.410750  0.353370  1.0  -0.1178
  C  C149  1  0.309970  0.417010  0.383250  1.0  -0.0495
  C  C150  1  0.307190  0.470830  0.419760  1.0  -0.1171
  C  C151  1  0.242610  0.519530  0.427100  1.0  -0.0552
  C  C152  1  0.245200  0.352800  0.314740  1.0  0.7101
  C  C153  1  0.376800  0.476420  0.451460  1.0  0.7058
  C  C154  1  0.116830  0.567640  0.399670  1.0  -0.0736
  C  C155  1  0.515010  0.321660  0.896000  1.0  -0.0079
  C  C156  1  0.458420  0.320220  0.859070  1.0  -0.0938
  C  C157  1  0.410750  0.255630  0.853370  1.0  -0.1176
  C  C158  1  0.417010  0.190030  0.883250  1.0  -0.0501
  C  C159  1  0.470830  0.192810  0.919760  1.0  -0.1171
  C  C160  1  0.519530  0.257390  0.927100  1.0  -0.0532
  C  C161  1  0.352800  0.254800  0.814740  1.0  0.7105
  C  C162  1  0.476420  0.123200  0.951460  1.0  0.7051
  C  C163  1  0.567640  0.383170  0.899670  1.0  -0.0734
  C  C164  1  0.984990  0.178340  0.896000  1.0  -0.0095
  C  C165  1  0.041580  0.179780  0.859070  1.0  -0.0932
  C  C166  1  0.089250  0.244370  0.853370  1.0  -0.1179
  C  C167  1  0.082990  0.309970  0.883250  1.0  -0.0501
  C  C168  1  0.029170  0.307190  0.919760  1.0  -0.1167
  C  C169  1  0.980470  0.242610  0.927100  1.0  -0.055
  C  C170  1  0.147200  0.245200  0.814740  1.0  0.7096
  C  C171  1  0.023580  0.376800  0.951460  1.0  0.7056
  C  C172  1  0.932360  0.116830  0.899670  1.0  -0.0749
  C  C173  1  0.178340  0.984990  0.104000  1.0  -0.0102
  C  C174  1  0.179780  0.041580  0.140930  1.0  -0.0932
  C  C175  1  0.244370  0.089250  0.146630  1.0  -0.1178
  C  C176  1  0.309970  0.082990  0.116750  1.0  -0.0491
  C  C177  1  0.307190  0.029170  0.080240  1.0  -0.1171
  C  C178  1  0.242610  0.980470  0.072900  1.0  -0.0564
  C  C179  1  0.245200  0.147200  0.185260  1.0  0.7109
  C  C180  1  0.376800  0.023580  0.048540  1.0  0.7056
  C  C181  1  0.116830  0.932360  0.100330  1.0  -0.0736
  C  C182  1  0.321660  0.515010  0.104000  1.0  -0.0079
  C  C183  1  0.320220  0.458420  0.140930  1.0  -0.0922
  C  C184  1  0.255630  0.410750  0.146630  1.0  -0.1181
  C  C185  1  0.190030  0.417010  0.116750  1.0  -0.05
  C  C186  1  0.192810  0.470830  0.080240  1.0  -0.1174
  C  C187  1  0.257390  0.519530  0.072900  1.0  -0.0571
  C  C188  1  0.254800  0.352800  0.185260  1.0  0.7105
  C  C189  1  0.123200  0.476420  0.048540  1.0  0.7057
  C  C190  1  0.383170  0.567640  0.100330  1.0  -0.0712
  C  C191  1  0.984990  0.321660  0.604000  1.0  -0.0088
  C  C192  1  0.041580  0.320220  0.640930  1.0  -0.0932
  C  C193  1  0.089250  0.255630  0.646630  1.0  -0.1178
  C  C194  1  0.082990  0.190030  0.616750  1.0  -0.0498
  C  C195  1  0.029170  0.192810  0.580240  1.0  -0.1171
  C  C196  1  0.980470  0.257390  0.572900  1.0  -0.0566
  C  C197  1  0.147200  0.254800  0.685260  1.0  0.71
  C  C198  1  0.023580  0.123200  0.548540  1.0  0.7054
  C  C199  1  0.932360  0.383170  0.600330  1.0  -0.0752
  C  C200  1  0.515010  0.178340  0.604000  1.0  -0.0079
  C  C201  1  0.458420  0.179780  0.640930  1.0  -0.0927
  C  C202  1  0.410750  0.244370  0.646630  1.0  -0.1178
  C  C203  1  0.417010  0.309970  0.616750  1.0  -0.0501
  C  C204  1  0.470830  0.307190  0.580240  1.0  -0.1169
  C  C205  1  0.519530  0.242610  0.572900  1.0  -0.0555
  C  C206  1  0.352800  0.245200  0.685260  1.0  0.7107
  C  C207  1  0.476420  0.376800  0.548540  1.0  0.7053
  C  C208  1  0.567640  0.116830  0.600330  1.0  -0.0729
  O  O209  1  0.809160  0.819890  0.694500  1.0  -0.6191
  O  O210  1  0.682140  0.841460  0.707260  1.0  -0.5952
  O  O211  1  0.938840  0.945140  0.561730  1.0  -0.6265
  O  O212  1  0.867680  0.016230  0.511650  1.0  -0.6103
  O  O213  1  0.690840  0.680110  0.694500  1.0  -0.6183
  O  O214  1  0.817860  0.658540  0.707260  1.0  -0.5954
  O  O215  1  0.561160  0.554860  0.561730  1.0  -0.6263
  O  O216  1  0.632320  0.483770  0.511650  1.0  -0.6093
  O  O217  1  0.680110  0.809160  0.194500  1.0  -0.6185
  O  O218  1  0.658540  0.682140  0.207260  1.0  -0.5943
  O  O219  1  0.554860  0.938840  0.061730  1.0  -0.6274
  O  O220  1  0.483770  0.867680  0.011650  1.0  -0.6091
  O  O221  1  0.819890  0.690840  0.194500  1.0  -0.6186
  O  O222  1  0.841460  0.817860  0.207260  1.0  -0.5934
  O  O223  1  0.945140  0.561160  0.061730  1.0  -0.6259
  O  O224  1  0.016230  0.632320  0.011650  1.0  -0.6096
  O  O225  1  0.690840  0.819890  0.805500  1.0  -0.6183
  O  O226  1  0.817860  0.841460  0.792740  1.0  -0.5957
  O  O227  1  0.561160  0.945140  0.938270  1.0  -0.6252
  O  O228  1  0.632320  0.016230  0.988350  1.0  -0.6108
  O  O229  1  0.809160  0.680110  0.805500  1.0  -0.6192
  O  O230  1  0.682140  0.658540  0.792740  1.0  -0.5954
  O  O231  1  0.938840  0.554860  0.938270  1.0  -0.6258
  O  O232  1  0.867680  0.483770  0.988350  1.0  -0.6101
  O  O233  1  0.819890  0.809160  0.305500  1.0  -0.6194
  O  O234  1  0.841460  0.682140  0.292740  1.0  -0.5944
  O  O235  1  0.945140  0.938840  0.438270  1.0  -0.6255
  O  O236  1  0.016230  0.867680  0.488350  1.0  -0.6087
  O  O237  1  0.680110  0.690840  0.305500  1.0  -0.6176
  O  O238  1  0.658540  0.817860  0.292740  1.0  -0.5944
  O  O239  1  0.554860  0.561160  0.438270  1.0  -0.6259
  O  O240  1  0.483770  0.632320  0.488350  1.0  -0.6104
  O  O241  1  0.190840  0.180110  0.305500  1.0  -0.6186
  O  O242  1  0.317860  0.158540  0.292740  1.0  -0.5955
  O  O243  1  0.061160  0.054860  0.438270  1.0  -0.6252
  O  O244  1  0.132320  0.983770  0.488350  1.0  -0.6091
  O  O245  1  0.309160  0.319890  0.305500  1.0  -0.6191
  O  O246  1  0.182140  0.341460  0.292740  1.0  -0.5953
  O  O247  1  0.438840  0.445140  0.438270  1.0  -0.6256
  O  O248  1  0.367680  0.516230  0.488350  1.0  -0.6106
  O  O249  1  0.319890  0.190840  0.805500  1.0  -0.6188
  O  O250  1  0.341460  0.317860  0.792740  1.0  -0.5936
  O  O251  1  0.445140  0.061160  0.938270  1.0  -0.6254
  O  O252  1  0.516230  0.132320  0.988350  1.0  -0.6092
  O  O253  1  0.180110  0.309160  0.805500  1.0  -0.6186
  O  O254  1  0.158540  0.182140  0.792740  1.0  -0.5948
  O  O255  1  0.054860  0.438840  0.938270  1.0  -0.626
  O  O256  1  0.983770  0.367680  0.988350  1.0  -0.6092
  O  O257  1  0.309160  0.180110  0.194500  1.0  -0.6191
  O  O258  1  0.182140  0.158540  0.207260  1.0  -0.5954
  O  O259  1  0.438840  0.054860  0.061730  1.0  -0.6267
  O  O260  1  0.367680  0.983770  0.011650  1.0  -0.6104
  O  O261  1  0.190840  0.319890  0.194500  1.0  -0.6181
  O  O262  1  0.317860  0.341460  0.207260  1.0  -0.5956
  O  O263  1  0.061160  0.445140  0.061730  1.0  -0.626
  O  O264  1  0.132320  0.516230  0.011650  1.0  -0.6099
  O  O265  1  0.180110  0.190840  0.694500  1.0  -0.6175
  O  O266  1  0.158540  0.317860  0.707260  1.0  -0.5942
  O  O267  1  0.054860  0.061160  0.561730  1.0  -0.627
  O  O268  1  0.983770  0.132320  0.511650  1.0  -0.6106
  O  O269  1  0.319890  0.309160  0.694500  1.0  -0.6191
  O  O270  1  0.341460  0.182140  0.707260  1.0  -0.5941
  O  O271  1  0.445140  0.438840  0.561730  1.0  -0.6266
  O  O272  1  0.516230  0.367680  0.511650  1.0  -0.6085
