# generated using pymatgen
data_DyH4(CO2)4
_symmetry_space_group_name_H-M   'P 1'
_cell_length_a   6.68200000
_cell_length_b   18.44600000
_cell_length_c   8.47700000
_cell_angle_alpha   90.00000000
_cell_angle_beta   90.00000000
_cell_angle_gamma   90.00000000
_symmetry_Int_Tables_number   1
_chemical_formula_structural   DyH4(CO2)4
_chemical_formula_sum   'Dy4 H16 C16 O32'
_cell_volume   1044.84257004
_cell_formula_units_Z   4
loop_
 _symmetry_equiv_pos_site_id
 _symmetry_equiv_pos_as_xyz
  1  'x, y, z'
loop_
 _atom_site_type_symbol
 _atom_site_label
 _atom_site_symmetry_multiplicity
 _atom_site_fract_x
 _atom_site_fract_y
 _atom_site_fract_z
 _atom_site_occupancy
 _atom_site_charge
  Dy  Dy1  1  0.000000  0.857360  0.250000  1.0  2.2461
  Dy  Dy2  1  0.500000  0.357360  0.250000  1.0  2.2461
  Dy  Dy3  1  0.000000  0.142640  0.750000  1.0  2.2479
  Dy  Dy4  1  0.500000  0.642640  0.750000  1.0  2.2479
  H  H5  1  0.712600  0.782700  0.958200  1.0  0.024
  H  H6  1  0.212600  0.282700  0.958200  1.0  0.024
  H  H7  1  0.287400  0.217300  0.458200  1.0  0.0234
  H  H8  1  0.787400  0.717300  0.458200  1.0  0.0234
  H  H9  1  0.287400  0.782700  0.541800  1.0  0.0228
  H  H10  1  0.787400  0.282700  0.541800  1.0  0.0228
  H  H11  1  0.712600  0.217300  0.041800  1.0  0.0236
  H  H12  1  0.212600  0.717300  0.041800  1.0  0.0236
  H  H13  1  0.500000  0.824800  0.250000  1.0  0.0303
  H  H14  1  0.000000  0.324800  0.250000  1.0  0.0303
  H  H15  1  0.500000  0.175200  0.750000  1.0  0.0305
  H  H16  1  0.000000  0.675200  0.750000  1.0  0.0305
  H  H17  1  0.213100  0.000000  0.500000  1.0  0.0484
  H  H18  1  0.713100  0.500000  0.500000  1.0  0.0484
  H  H19  1  0.786900  0.000000  0.000000  1.0  0.0469
  H  H20  1  0.286900  0.500000  0.000000  1.0  0.0469
  C  C21  1  0.734000  0.744000  0.026400  1.0  0.6732
  C  C22  1  0.234000  0.244000  0.026400  1.0  0.6732
  C  C23  1  0.266000  0.256000  0.526400  1.0  0.6738
  C  C24  1  0.766000  0.756000  0.526400  1.0  0.6738
  C  C25  1  0.266000  0.744000  0.473600  1.0  0.6739
  C  C26  1  0.766000  0.244000  0.473600  1.0  0.6739
  C  C27  1  0.734000  0.256000  0.973600  1.0  0.6738
  C  C28  1  0.234000  0.756000  0.973600  1.0  0.6738
  C  C29  1  0.500000  0.875200  0.250000  1.0  0.6062
  C  C30  1  0.000000  0.375200  0.250000  1.0  0.6062
  C  C31  1  0.500000  0.124800  0.750000  1.0  0.6058
  C  C32  1  0.000000  0.624800  0.750000  1.0  0.6058
  C  C33  1  0.073900  0.000000  0.500000  1.0  0.7382
  C  C34  1  0.573900  0.500000  0.500000  1.0  0.7382
  C  C35  1  0.926100  0.000000  0.000000  1.0  0.7397
  C  C36  1  0.426100  0.500000  0.000000  1.0  0.7397
  O  O37  1  0.335800  0.905370  0.269000  1.0  -0.6128
  O  O38  1  0.986400  0.950200  0.431700  1.0  -0.6427
  O  O39  1  0.819300  0.757500  0.152600  1.0  -0.6471
  O  O40  1  0.674200  0.683140  0.982200  1.0  -0.6272
  O  O41  1  0.835800  0.405370  0.269000  1.0  -0.6128
  O  O42  1  0.486400  0.450200  0.431700  1.0  -0.6427
  O  O43  1  0.319300  0.257500  0.152600  1.0  -0.6471
  O  O44  1  0.174200  0.183140  0.982200  1.0  -0.6272
  O  O45  1  0.664200  0.094630  0.769000  1.0  -0.6136
  O  O46  1  0.013600  0.049800  0.931700  1.0  -0.6436
  O  O47  1  0.180700  0.242500  0.652600  1.0  -0.6485
  O  O48  1  0.325800  0.316860  0.482200  1.0  -0.6284
  O  O49  1  0.164200  0.594630  0.769000  1.0  -0.6136
  O  O50  1  0.513600  0.549800  0.931700  1.0  -0.6436
  O  O51  1  0.680700  0.742500  0.652600  1.0  -0.6485
  O  O52  1  0.825800  0.816860  0.482200  1.0  -0.6284
  O  O53  1  0.664200  0.905370  0.231000  1.0  -0.6139
  O  O54  1  0.013600  0.950200  0.068300  1.0  -0.6441
  O  O55  1  0.180700  0.757500  0.347400  1.0  -0.648
  O  O56  1  0.325800  0.683140  0.517800  1.0  -0.629
  O  O57  1  0.164200  0.405370  0.231000  1.0  -0.6139
  O  O58  1  0.513600  0.450200  0.068300  1.0  -0.6441
  O  O59  1  0.680700  0.257500  0.347400  1.0  -0.648
  O  O60  1  0.825800  0.183140  0.517800  1.0  -0.629
  O  O61  1  0.335800  0.094630  0.731000  1.0  -0.6138
  O  O62  1  0.986400  0.049800  0.568300  1.0  -0.6419
  O  O63  1  0.819300  0.242500  0.847400  1.0  -0.6468
  O  O64  1  0.674200  0.316860  0.017800  1.0  -0.6272
  O  O65  1  0.835800  0.594630  0.731000  1.0  -0.6138
  O  O66  1  0.486400  0.549800  0.568300  1.0  -0.6419
  O  O67  1  0.319300  0.742500  0.847400  1.0  -0.6468
  O  O68  1  0.174200  0.816860  0.017800  1.0  -0.6272
