# generated using pymatgen
data_DyH4(CO2)4
_symmetry_space_group_name_H-M   'P 1'
_cell_length_a   6.68370000
_cell_length_b   18.46840000
_cell_length_c   8.47590000
_cell_angle_alpha   90.00000000
_cell_angle_beta   90.00000000
_cell_angle_gamma   90.00000000
_symmetry_Int_Tables_number   1
_chemical_formula_structural   DyH4(CO2)4
_chemical_formula_sum   'Dy4 H16 C16 O32'
_cell_volume   1046.24174557
_cell_formula_units_Z   4
loop_
 _symmetry_equiv_pos_site_id
 _symmetry_equiv_pos_as_xyz
  1  'x, y, z'
loop_
 _atom_site_type_symbol
 _atom_site_label
 _atom_site_symmetry_multiplicity
 _atom_site_fract_x
 _atom_site_fract_y
 _atom_site_fract_z
 _atom_site_occupancy
 _atom_site_charge
  Dy  Dy1  1  0.500000  0.857360  0.250000  1.0  2.2584
  Dy  Dy2  1  0.000000  0.357360  0.250000  1.0  2.2584
  Dy  Dy3  1  0.500000  0.142640  0.750000  1.0  2.2606
  Dy  Dy4  1  0.000000  0.642640  0.750000  1.0  2.2606
  H  H5  1  0.716400  0.718900  0.044500  1.0  0.0206
  H  H6  1  0.216400  0.218900  0.044500  1.0  0.0206
  H  H7  1  0.283600  0.281100  0.544500  1.0  0.0207
  H  H8  1  0.783600  0.781100  0.544500  1.0  0.0207
  H  H9  1  0.283600  0.718900  0.455500  1.0  0.021
  H  H10  1  0.783600  0.218900  0.455500  1.0  0.021
  H  H11  1  0.716400  0.281100  0.955500  1.0  0.0208
  H  H12  1  0.216400  0.781100  0.955500  1.0  0.0208
  H  H13  1  0.286800  0.000000  0.000000  1.0  0.0455
  H  H14  1  0.786800  0.500000  0.000000  1.0  0.0455
  H  H15  1  0.713200  0.000000  0.500000  1.0  0.0462
  H  H16  1  0.213200  0.500000  0.500000  1.0  0.0462
  H  H17  1  0.000000  0.824900  0.250000  1.0  0.0302
  H  H18  1  0.500000  0.324900  0.250000  1.0  0.0302
  H  H19  1  0.000000  0.175100  0.750000  1.0  0.0306
  H  H20  1  0.500000  0.675100  0.750000  1.0  0.0306
  C  C21  1  0.735600  0.757200  0.974900  1.0  0.6793
  C  C22  1  0.235600  0.257200  0.974900  1.0  0.6793
  C  C23  1  0.264400  0.242800  0.474900  1.0  0.6789
  C  C24  1  0.764400  0.742800  0.474900  1.0  0.6789
  C  C25  1  0.264400  0.757200  0.525100  1.0  0.6791
  C  C26  1  0.764400  0.257200  0.525100  1.0  0.6791
  C  C27  1  0.735600  0.242800  0.025100  1.0  0.679
  C  C28  1  0.235600  0.742800  0.025100  1.0  0.679
  C  C29  1  0.426000  0.000000  0.000000  1.0  0.7477
  C  C30  1  0.926000  0.500000  0.000000  1.0  0.7477
  C  C31  1  0.574000  0.000000  0.500000  1.0  0.7463
  C  C32  1  0.074000  0.500000  0.500000  1.0  0.7463
  C  C33  1  0.000000  0.875300  0.250000  1.0  0.6041
  C  C34  1  0.500000  0.375300  0.250000  1.0  0.6041
  C  C35  1  0.000000  0.124700  0.750000  1.0  0.6035
  C  C36  1  0.500000  0.624700  0.750000  1.0  0.6035
  O  O37  1  0.512100  0.950020  0.069300  1.0  -0.6489
  O  O38  1  0.836300  0.905850  0.271600  1.0  -0.6226
  O  O39  1  0.820200  0.742630  0.847100  1.0  -0.6476
  O  O40  1  0.675100  0.816860  0.017800  1.0  -0.6233
  O  O41  1  0.012100  0.450020  0.069300  1.0  -0.6489
  O  O42  1  0.336300  0.405850  0.271600  1.0  -0.6226
  O  O43  1  0.320200  0.242630  0.847100  1.0  -0.6476
  O  O44  1  0.175100  0.316860  0.017800  1.0  -0.6233
  O  O45  1  0.487900  0.049980  0.569300  1.0  -0.6468
  O  O46  1  0.163700  0.094150  0.771600  1.0  -0.6238
  O  O47  1  0.179800  0.257370  0.347100  1.0  -0.6484
  O  O48  1  0.324900  0.183140  0.517800  1.0  -0.6229
  O  O49  1  0.987900  0.549980  0.569300  1.0  -0.6468
  O  O50  1  0.663700  0.594150  0.771600  1.0  -0.6238
  O  O51  1  0.679800  0.757370  0.347100  1.0  -0.6484
  O  O52  1  0.824900  0.683140  0.517800  1.0  -0.6229
  O  O53  1  0.487900  0.950020  0.430700  1.0  -0.6476
  O  O54  1  0.163700  0.905850  0.228400  1.0  -0.6245
  O  O55  1  0.179800  0.742630  0.652900  1.0  -0.6491
  O  O56  1  0.324900  0.816860  0.482200  1.0  -0.6236
  O  O57  1  0.987900  0.450020  0.430700  1.0  -0.6476
  O  O58  1  0.663700  0.405850  0.228400  1.0  -0.6245
  O  O59  1  0.679800  0.242630  0.652900  1.0  -0.6491
  O  O60  1  0.824900  0.316860  0.482200  1.0  -0.6236
  O  O61  1  0.512100  0.049980  0.930700  1.0  -0.6484
  O  O62  1  0.836300  0.094150  0.728400  1.0  -0.6233
  O  O63  1  0.820200  0.257370  0.152900  1.0  -0.6487
  O  O64  1  0.675100  0.183140  0.982200  1.0  -0.6229
  O  O65  1  0.012100  0.549980  0.930700  1.0  -0.6484
  O  O66  1  0.336300  0.594150  0.728400  1.0  -0.6233
  O  O67  1  0.320200  0.757370  0.152900  1.0  -0.6487
  O  O68  1  0.175100  0.683140  0.982200  1.0  -0.6229
