# generated using pymatgen
data_Co3H24C28(NO10)2
_symmetry_space_group_name_H-M   'P 1'
_cell_length_a   9.29150000
_cell_length_b   15.07340000
_cell_length_c   17.81790000
_cell_angle_alpha   90.00000000
_cell_angle_beta   97.32300000
_cell_angle_gamma   90.00000000
_symmetry_Int_Tables_number   1
_chemical_formula_structural   Co3H24C28(NO10)2
_chemical_formula_sum   'Co6 H48 C56 N4 O40'
_cell_volume   2475.12228769
_cell_formula_units_Z   2
loop_
 _symmetry_equiv_pos_site_id
 _symmetry_equiv_pos_as_xyz
  1  'x, y, z'
loop_
 _atom_site_type_symbol
 _atom_site_label
 _atom_site_symmetry_multiplicity
 _atom_site_fract_x
 _atom_site_fract_y
 _atom_site_fract_z
 _atom_site_occupancy
 _atom_site_charge
  Co  Co1  1  0.422870  0.112560  0.336360  1.0  1.0396
  Co  Co2  1  0.577130  0.612560  0.163640  1.0  1.0382
  Co  Co3  1  0.577130  0.887440  0.663640  1.0  1.0384
  Co  Co4  1  0.422870  0.387440  0.836360  1.0  1.0396
  Co  Co5  1  0.500000  0.000000  0.500000  1.0  1.0441
  Co  Co6  1  0.500000  0.500000  0.000000  1.0  1.0441
  H  H7  1  0.046000  0.859700  0.454300  1.0  0.1437
  H  H8  1  0.771800  0.880200  0.433500  1.0  0.1354
  H  H9  1  0.635800  0.506600  0.448100  1.0  0.127
  H  H10  1  0.610000  0.602500  0.562100  1.0  0.1176
  H  H11  1  0.954000  0.359700  0.045700  1.0  0.1438
  H  H12  1  0.228200  0.380200  0.066500  1.0  0.1359
  H  H13  1  0.364200  0.006600  0.051900  1.0  0.1274
  H  H14  1  0.390000  0.102500  0.937900  1.0  0.1181
  H  H15  1  0.954000  0.140300  0.545700  1.0  0.1448
  H  H16  1  0.228200  0.119800  0.566500  1.0  0.1363
  H  H17  1  0.364200  0.493400  0.551900  1.0  0.1275
  H  H18  1  0.390000  0.397500  0.437900  1.0  0.1182
  H  H19  1  0.046000  0.640300  0.954300  1.0  0.1442
  H  H20  1  0.771800  0.619800  0.933500  1.0  0.1356
  H  H21  1  0.635800  0.993400  0.948100  1.0  0.127
  H  H22  1  0.610000  0.897500  0.062100  1.0  0.1178
  H  H23  1  0.461400  0.720000  0.722600  1.0  0.1879
  H  H24  1  0.404000  0.636200  0.692900  1.0  0.2015
  H  H25  1  0.629800  0.616400  0.794700  1.0  0.1152
  H  H26  1  0.596200  0.570600  0.715400  1.0  0.1205
  H  H27  1  0.661100  0.666667  0.721500  1.0  0.1276
  H  H28  1  0.424600  0.647500  0.840800  1.0  0.1164
  H  H29  1  0.310800  0.710700  0.795700  1.0  0.1197
  H  H30  1  0.298200  0.607800  0.784100  1.0  0.123
  H  H31  1  0.538600  0.220000  0.777400  1.0  0.1867
  H  H32  1  0.596000  0.136200  0.807100  1.0  0.1993
  H  H33  1  0.370200  0.116400  0.705300  1.0  0.1153
  H  H34  1  0.403800  0.070600  0.784600  1.0  0.12
  H  H35  1  0.338900  0.166700  0.778500  1.0  0.1233
  H  H36  1  0.575400  0.147500  0.659200  1.0  0.1189
  H  H37  1  0.689200  0.210700  0.704300  1.0  0.1212
  H  H38  1  0.701800  0.107800  0.715900  1.0  0.1244
  H  H39  1  0.538600  0.280000  0.277400  1.0  0.1858
  H  H40  1  0.596000  0.363800  0.307100  1.0  0.1999
  H  H41  1  0.370200  0.383600  0.205300  1.0  0.1146
  H  H42  1  0.403800  0.429400  0.284600  1.0  0.123
  H  H43  1  0.338900  0.333333  0.278500  1.0  0.1239
  H  H44  1  0.575400  0.352500  0.159200  1.0  0.1185
  H  H45  1  0.689200  0.289300  0.204300  1.0  0.118
  H  H46  1  0.701800  0.392200  0.215900  1.0  0.1254
  H  H47  1  0.461400  0.780000  0.222600  1.0  0.1822
  H  H48  1  0.404000  0.863800  0.192900  1.0  0.2024
  H  H49  1  0.629800  0.883600  0.294700  1.0  0.1156
  H  H50  1  0.596200  0.929400  0.215400  1.0  0.1243
  H  H51  1  0.661100  0.833300  0.221500  1.0  0.1251
  H  H52  1  0.424600  0.852500  0.340800  1.0  0.1175
  H  H53  1  0.310800  0.789300  0.295700  1.0  0.1167
  H  H54  1  0.298200  0.892200  0.284100  1.0  0.1246
  C  C55  1  0.053000  0.981600  0.404000  1.0  0.0759
  C  C56  1  0.995500  0.908300  0.432100  1.0  -0.1481
  C  C57  1  0.841400  0.920100  0.421100  1.0  -0.16
  C  C58  1  0.817200  0.000600  0.389200  1.0  0.047
  C  C59  1  0.685100  0.052100  0.365600  1.0  0.659
  C  C60  1  0.205700  0.009600  0.401500  1.0  0.6646
  C  C61  1  0.586900  0.705500  0.487500  1.0  0.0586
  C  C62  1  0.613600  0.622800  0.389600  1.0  0.0606
  C  C63  1  0.622300  0.567700  0.448600  1.0  -0.1508
  C  C64  1  0.606900  0.621600  0.512300  1.0  -0.1451
  C  C65  1  0.563100  0.790100  0.527500  1.0  0.6798
  C  C66  1  0.615200  0.609000  0.307500  1.0  0.6982
  C  C67  1  0.947000  0.481600  0.096000  1.0  0.0736
  C  C68  1  0.004500  0.408300  0.067900  1.0  -0.148
  C  C69  1  0.158600  0.420100  0.078900  1.0  -0.1613
  C  C70  1  0.182800  0.500600  0.110800  1.0  0.0471
  C  C71  1  0.314900  0.552100  0.134400  1.0  0.6581
  C  C72  1  0.794300  0.509600  0.098500  1.0  0.6653
  C  C73  1  0.413100  0.205500  0.012500  1.0  0.0581
  C  C74  1  0.386400  0.122800  0.110400  1.0  0.0633
  C  C75  1  0.377700  0.067700  0.051400  1.0  -0.1496
  C  C76  1  0.393100  0.121600  0.987700  1.0  -0.1445
  C  C77  1  0.436900  0.290100  0.972500  1.0  0.6797
  C  C78  1  0.384800  0.109000  0.192500  1.0  0.6978
  C  C79  1  0.947000  0.018400  0.596000  1.0  0.0739
  C  C80  1  0.004500  0.091700  0.567900  1.0  -0.1489
  C  C81  1  0.158600  0.079900  0.578900  1.0  -0.1604
  C  C82  1  0.182800  0.999400  0.610800  1.0  0.0481
  C  C83  1  0.314900  0.947900  0.634400  1.0  0.6586
  C  C84  1  0.794300  0.990400  0.598500  1.0  0.6658
  C  C85  1  0.413100  0.294500  0.512500  1.0  0.0582
  C  C86  1  0.386400  0.377200  0.610400  1.0  0.0635
  C  C87  1  0.377700  0.432300  0.551400  1.0  -0.1494
  C  C88  1  0.393100  0.378400  0.487700  1.0  -0.1445
  C  C89  1  0.436900  0.209900  0.472500  1.0  0.6794
  C  C90  1  0.384800  0.391000  0.692500  1.0  0.6981
  C  C91  1  0.053000  0.518400  0.904000  1.0  0.0757
  C  C92  1  0.995500  0.591700  0.932100  1.0  -0.1471
  C  C93  1  0.841400  0.579900  0.921100  1.0  -0.1603
  C  C94  1  0.817200  0.499400  0.889200  1.0  0.0463
  C  C95  1  0.685100  0.447900  0.865600  1.0  0.6594
  C  C96  1  0.205700  0.490400  0.901500  1.0  0.6646
  C  C97  1  0.586900  0.794500  0.987500  1.0  0.0587
  C  C98  1  0.613600  0.877200  0.889600  1.0  0.0612
  C  C99  1  0.622300  0.932300  0.948600  1.0  -0.1506
  C  C100  1  0.606900  0.878400  0.012300  1.0  -0.1456
  C  C101  1  0.563100  0.709900  0.027500  1.0  0.6799
  C  C102  1  0.615200  0.891000  0.807500  1.0  0.6981
  C  C103  1  0.596900  0.626000  0.742000  1.0  -0.1863
  C  C104  1  0.364400  0.656600  0.793500  1.0  -0.1713
  C  C105  1  0.403100  0.126000  0.758000  1.0  -0.1844
  C  C106  1  0.635600  0.156600  0.706500  1.0  -0.1697
  C  C107  1  0.403100  0.374000  0.258000  1.0  -0.1883
  C  C108  1  0.635600  0.343400  0.206500  1.0  -0.1696
  C  C109  1  0.596900  0.874000  0.242000  1.0  -0.1835
  C  C110  1  0.364400  0.843400  0.293500  1.0  -0.1716
  N  N111  1  0.453600  0.662100  0.733800  1.0  -0.0742
  N  N112  1  0.546400  0.162100  0.766200  1.0  -0.0746
  N  N113  1  0.546400  0.337900  0.266200  1.0  -0.074
  N  N114  1  0.453600  0.837900  0.233800  1.0  -0.0732
  O  O115  1  0.947100  0.039500  0.376300  1.0  -0.1407
  O  O116  1  0.682700  0.119400  0.327900  1.0  -0.5692
  O  O117  1  0.565200  0.019000  0.386300  1.0  -0.6465
  O  O118  1  0.228100  0.071700  0.359700  1.0  -0.5669
  O  O119  1  0.297900  0.966300  0.445600  1.0  -0.5968
  O  O120  1  0.590200  0.708700  0.411500  1.0  -0.2172
  O  O121  1  0.554200  0.860300  0.491300  1.0  -0.6035
  O  O122  1  0.557800  0.780900  0.597700  1.0  -0.5985
  O  O123  1  0.604800  0.675900  0.264600  1.0  -0.5768
  O  O124  1  0.621800  0.533100  0.282000  1.0  -0.5885
  O  O125  1  0.052900  0.539500  0.123700  1.0  -0.1386
  O  O126  1  0.317300  0.619400  0.172100  1.0  -0.5706
  O  O127  1  0.434800  0.519000  0.113700  1.0  -0.6477
  O  O128  1  0.771900  0.571700  0.140300  1.0  -0.5688
  O  O129  1  0.702100  0.466300  0.054400  1.0  -0.5972
  O  O130  1  0.409800  0.208700  0.088500  1.0  -0.218
  O  O131  1  0.445800  0.360300  0.008700  1.0  -0.6034
  O  O132  1  0.442200  0.280900  0.902300  1.0  -0.5982
  O  O133  1  0.395200  0.175900  0.235400  1.0  -0.5781
  O  O134  1  0.378200  0.033100  0.218000  1.0  -0.5887
  O  O135  1  0.052900  0.960500  0.623700  1.0  -0.14
  O  O136  1  0.317300  0.880600  0.672100  1.0  -0.5689
  O  O137  1  0.434800  0.981000  0.613700  1.0  -0.6475
  O  O138  1  0.771900  0.928300  0.640300  1.0  -0.5689
  O  O139  1  0.702100  0.033700  0.554400  1.0  -0.5965
  O  O140  1  0.409800  0.291300  0.588500  1.0  -0.2176
  O  O141  1  0.445800  0.139700  0.508700  1.0  -0.6033
  O  O142  1  0.442200  0.219100  0.402300  1.0  -0.5985
  O  O143  1  0.395200  0.324100  0.735400  1.0  -0.5772
  O  O144  1  0.378200  0.466900  0.718000  1.0  -0.5891
  O  O145  1  0.947100  0.460500  0.876300  1.0  -0.1387
  O  O146  1  0.682700  0.380600  0.827900  1.0  -0.5722
  O  O147  1  0.565200  0.481000  0.886300  1.0  -0.6464
  O  O148  1  0.228100  0.428300  0.859700  1.0  -0.5671
  O  O149  1  0.297900  0.533700  0.945600  1.0  -0.5966
  O  O150  1  0.590200  0.791300  0.911500  1.0  -0.2162
  O  O151  1  0.554200  0.639700  0.991300  1.0  -0.6028
  O  O152  1  0.557800  0.719100  0.097700  1.0  -0.5986
  O  O153  1  0.604800  0.824100  0.764600  1.0  -0.576
  O  O154  1  0.621800  0.966900  0.782000  1.0  -0.5881
