# generated using pymatgen
data_Co3H8(C6O5)4
_symmetry_space_group_name_H-M   'P 1'
_cell_length_a   12.79490000
_cell_length_b   8.25820000
_cell_length_c   18.20060000
_cell_angle_alpha   90.00000000
_cell_angle_beta   107.77800000
_cell_angle_gamma   90.00000000
_symmetry_Int_Tables_number   1
_chemical_formula_structural   Co3H8(C6O5)4
_chemical_formula_sum   'Co6 H16 C48 O40'
_cell_volume   1831.29147831
_cell_formula_units_Z   2
loop_
 _symmetry_equiv_pos_site_id
 _symmetry_equiv_pos_as_xyz
  1  'x, y, z'
loop_
 _atom_site_type_symbol
 _atom_site_label
 _atom_site_symmetry_multiplicity
 _atom_site_fract_x
 _atom_site_fract_y
 _atom_site_fract_z
 _atom_site_occupancy
 _atom_site_charge
  Co  Co1  1  0.258560  0.809630  0.558340  1.0  1.0997
  Co  Co2  1  0.741440  0.309630  0.941660  1.0  1.1004
  Co  Co3  1  0.741440  0.190370  0.441660  1.0  1.0978
  Co  Co4  1  0.258560  0.690370  0.058340  1.0  1.0971
  Co  Co5  1  0.000000  0.000000  0.500000  1.0  1.2417
  Co  Co6  1  0.000000  0.500000  0.000000  1.0  1.2426
  H  H7  1  0.680100  0.453900  0.643300  1.0  0.1281
  H  H8  1  0.835100  0.575200  0.604400  1.0  0.1449
  H  H9  1  0.935700  0.636800  0.151900  1.0  0.1441
  H  H10  1  0.899600  0.719400  0.275300  1.0  0.1499
  H  H11  1  0.319900  0.953900  0.856700  1.0  0.1279
  H  H12  1  0.164900  0.075200  0.895600  1.0  0.1455
  H  H13  1  0.064300  0.136800  0.348100  1.0  0.1449
  H  H14  1  0.100400  0.219400  0.224700  1.0  0.1499
  H  H15  1  0.319900  0.546100  0.356700  1.0  0.1282
  H  H16  1  0.164900  0.424800  0.395600  1.0  0.1455
  H  H17  1  0.064300  0.363200  0.848100  1.0  0.1448
  H  H18  1  0.100400  0.280600  0.724700  1.0  0.1502
  H  H19  1  0.680100  0.046100  0.143300  1.0  0.128
  H  H20  1  0.835100  0.924800  0.104400  1.0  0.1449
  H  H21  1  0.935700  0.863200  0.651900  1.0  0.1443
  H  H22  1  0.899600  0.780600  0.775300  1.0  0.1501
  C  C23  1  0.473000  0.627800  0.584280  1.0  0.728
  C  C24  1  0.586300  0.632200  0.579050  1.0  0.0443
  C  C25  1  0.675900  0.543700  0.611700  1.0  -0.1264
  C  C26  1  0.762700  0.611100  0.589720  1.0  -0.1285
  C  C27  1  0.721200  0.737600  0.543310  1.0  0.0728
  C  C28  1  0.167100  0.645700  0.161980  1.0  0.7093
  C  C29  1  0.098100  0.663200  0.213120  1.0  0.0794
  C  C30  1  0.988000  0.662400  0.198490  1.0  -0.1397
  C  C31  1  0.967900  0.708100  0.267660  1.0  -0.1289
  C  C32  1  0.066700  0.732500  0.320720  1.0  0.0872
  C  C33  1  0.095700  0.787700  0.401730  1.0  0.6983
  C  C34  1  0.769100  0.858100  0.502700  1.0  0.7253
  C  C35  1  0.527000  0.127800  0.915720  1.0  0.7291
  C  C36  1  0.413700  0.132200  0.920950  1.0  0.0471
  C  C37  1  0.324100  0.043700  0.888300  1.0  -0.1285
  C  C38  1  0.237300  0.111100  0.910280  1.0  -0.129
  C  C39  1  0.278800  0.237600  0.956690  1.0  0.0733
  C  C40  1  0.832900  0.145700  0.338020  1.0  0.7102
  C  C41  1  0.901900  0.163200  0.286880  1.0  0.0794
  C  C42  1  0.012000  0.162400  0.301510  1.0  -0.1393
  C  C43  1  0.032100  0.208100  0.232340  1.0  -0.1291
  C  C44  1  0.933300  0.232500  0.179280  1.0  0.0868
  C  C45  1  0.904300  0.287700  0.098270  1.0  0.6963
  C  C46  1  0.230900  0.358100  0.997300  1.0  0.7255
  C  C47  1  0.527000  0.372200  0.415720  1.0  0.7294
  C  C48  1  0.413700  0.367800  0.420950  1.0  0.0467
  C  C49  1  0.324100  0.456300  0.388300  1.0  -0.1289
  C  C50  1  0.237300  0.388900  0.410280  1.0  -0.1292
  C  C51  1  0.278800  0.262400  0.456690  1.0  0.0738
  C  C52  1  0.832900  0.354300  0.838020  1.0  0.7099
  C  C53  1  0.901900  0.336800  0.786880  1.0  0.0796
  C  C54  1  0.012000  0.337600  0.801510  1.0  -0.1391
  C  C55  1  0.032100  0.291900  0.732340  1.0  -0.1289
  C  C56  1  0.933300  0.267500  0.679280  1.0  0.0866
  C  C57  1  0.904300  0.212300  0.598270  1.0  0.6966
  C  C58  1  0.230900  0.141900  0.497300  1.0  0.7261
  C  C59  1  0.473000  0.872200  0.084280  1.0  0.7282
  C  C60  1  0.586300  0.867800  0.079050  1.0  0.0439
  C  C61  1  0.675900  0.956300  0.111700  1.0  -0.1267
  C  C62  1  0.762700  0.888900  0.089720  1.0  -0.1286
  C  C63  1  0.721200  0.762400  0.043310  1.0  0.0723
  C  C64  1  0.167100  0.854300  0.661980  1.0  0.7092
  C  C65  1  0.098100  0.836800  0.713120  1.0  0.0798
  C  C66  1  0.988000  0.837600  0.698490  1.0  -0.1394
  C  C67  1  0.967900  0.791900  0.767660  1.0  -0.1291
  C  C68  1  0.066700  0.767500  0.820720  1.0  0.0872
  C  C69  1  0.095700  0.712300  0.901730  1.0  0.6983
  C  C70  1  0.769100  0.641900  0.002700  1.0  0.7262
  O  O71  1  0.416520  0.755400  0.564800  1.0  -0.5937
  O  O72  1  0.442770  0.499300  0.609030  1.0  -0.4669
  O  O73  1  0.610790  0.753800  0.535360  1.0  -0.0938
  O  O74  1  0.268890  0.661100  0.186590  1.0  -0.5908
  O  O75  1  0.118130  0.628700  0.089730  1.0  -0.6334
  O  O76  1  0.702040  0.950900  0.454670  1.0  -0.568
  O  O77  1  0.196150  0.788400  0.440800  1.0  -0.5637
  O  O78  1  0.148880  0.705200  0.288560  1.0  -0.2129
  O  O79  1  0.871510  0.858800  0.519620  1.0  -0.6035
  O  O80  1  0.015280  0.828400  0.423250  1.0  -0.5833
  O  O81  1  0.583480  0.255400  0.935200  1.0  -0.595
  O  O82  1  0.557230  0.999300  0.890970  1.0  -0.4677
  O  O83  1  0.389210  0.253800  0.964640  1.0  -0.0943
  O  O84  1  0.731110  0.161100  0.313410  1.0  -0.5909
  O  O85  1  0.881870  0.128700  0.410270  1.0  -0.635
  O  O86  1  0.297960  0.450900  0.045330  1.0  -0.5667
  O  O87  1  0.803850  0.288400  0.059200  1.0  -0.5643
  O  O88  1  0.851120  0.205200  0.211440  1.0  -0.211
  O  O89  1  0.128490  0.358800  0.980380  1.0  -0.6028
  O  O90  1  0.984720  0.328400  0.076750  1.0  -0.5821
  O  O91  1  0.583480  0.244600  0.435200  1.0  -0.5953
  O  O92  1  0.557230  0.500700  0.390970  1.0  -0.4682
  O  O93  1  0.389210  0.246200  0.464640  1.0  -0.0953
  O  O94  1  0.731110  0.338900  0.813410  1.0  -0.5914
  O  O95  1  0.881870  0.371300  0.910270  1.0  -0.6342
  O  O96  1  0.297960  0.049100  0.545330  1.0  -0.5676
  O  O97  1  0.803850  0.211600  0.559200  1.0  -0.5641
  O  O98  1  0.851120  0.294800  0.711440  1.0  -0.2103
  O  O99  1  0.128490  0.141200  0.480380  1.0  -0.602
  O  O100  1  0.984720  0.171600  0.576750  1.0  -0.5793
  O  O101  1  0.416520  0.744600  0.064800  1.0  -0.5957
  O  O102  1  0.442770  0.000700  0.109030  1.0  -0.4677
  O  O103  1  0.610790  0.746200  0.035360  1.0  -0.0941
  O  O104  1  0.268890  0.838900  0.686590  1.0  -0.5915
  O  O105  1  0.118130  0.871300  0.589730  1.0  -0.6334
  O  O106  1  0.702040  0.549100  0.954670  1.0  -0.5674
  O  O107  1  0.196150  0.711600  0.940800  1.0  -0.5638
  O  O108  1  0.148880  0.794800  0.788560  1.0  -0.2125
  O  O109  1  0.871510  0.641200  0.019620  1.0  -0.6022
  O  O110  1  0.015280  0.671600  0.923250  1.0  -0.581
