# generated using pymatgen
data_Gd2CoH8(C6O5)4
_symmetry_space_group_name_H-M   'P 1'
_cell_length_a   10.76080000
_cell_length_b   11.63510000
_cell_length_c   16.85380000
_cell_angle_alpha   84.96620000
_cell_angle_beta   79.06210000
_cell_angle_gamma   62.45610000
_symmetry_Int_Tables_number   1
_chemical_formula_structural   Gd2CoH8(C6O5)4
_chemical_formula_sum   'Gd4 Co2 H16 C48 O40'
_cell_volume   1836.98607560
_cell_formula_units_Z   2
loop_
 _symmetry_equiv_pos_site_id
 _symmetry_equiv_pos_as_xyz
  1  'x, y, z'
loop_
 _atom_site_type_symbol
 _atom_site_label
 _atom_site_symmetry_multiplicity
 _atom_site_fract_x
 _atom_site_fract_y
 _atom_site_fract_z
 _atom_site_occupancy
 _atom_site_charge
  Gd  Gd1  1  0.744090  0.170860  0.051430  1.0  2.164
  Gd  Gd2  1  0.085050  0.170860  0.448570  1.0  2.1638
  Gd  Gd3  1  0.255910  0.829140  0.948570  1.0  2.1626
  Gd  Gd4  1  0.914950  0.829140  0.551430  1.0  2.1636
  Co  Co5  1  0.500000  0.500000  0.000000  1.0  1.2254
  Co  Co6  1  0.000000  0.500000  0.500000  1.0  1.2254
  H  H7  1  0.681400  0.537000  0.826300  1.0  0.1371
  H  H8  1  0.585000  0.713000  0.191000  1.0  0.1463
  H  H9  1  0.973400  0.414200  0.069000  1.0  0.1286
  H  H10  1  0.168300  0.472000  0.078800  1.0  0.1295
  H  H11  1  0.781600  0.537000  0.673700  1.0  0.1346
  H  H12  1  0.702000  0.713000  0.309000  1.0  0.1472
  H  H13  1  0.612400  0.414200  0.431000  1.0  0.1285
  H  H14  1  0.359700  0.472000  0.421200  1.0  0.1294
  H  H15  1  0.318600  0.463000  0.173700  1.0  0.1362
  H  H16  1  0.415000  0.287000  0.809000  1.0  0.1474
  H  H17  1  0.026600  0.585800  0.931000  1.0  0.1291
  H  H18  1  0.831700  0.528000  0.921200  1.0  0.1293
  H  H19  1  0.218400  0.463000  0.326300  1.0  0.1357
  H  H20  1  0.298000  0.287000  0.691000  1.0  0.1469
  H  H21  1  0.387600  0.585800  0.569000  1.0  0.1289
  H  H22  1  0.640300  0.528000  0.578800  1.0  0.13
  C  C23  1  0.787700  0.339600  0.815000  1.0  0.0536
  C  C24  1  0.739000  0.465200  0.793300  1.0  -0.1516
  C  C25  1  0.770900  0.277400  0.892700  1.0  0.6879
  C  C26  1  0.645900  0.640800  0.217300  1.0  -0.157
  C  C27  1  0.687800  0.515600  0.201200  1.0  0.0233
  C  C28  1  0.652300  0.453400  0.140800  1.0  0.7126
  C  C29  1  0.452100  0.262000  0.027500  1.0  0.644
  C  C30  1  0.083200  0.148800  0.007700  1.0  0.8051
  C  C31  1  0.135100  0.240400  0.023400  1.0  0.0191
  C  C32  1  0.070700  0.362200  0.054200  1.0  -0.1332
  C  C33  1  0.179800  0.394800  0.059200  1.0  -0.1414
  C  C34  1  0.303100  0.293800  0.030600  1.0  0.0583
  C  C35  1  0.872700  0.339600  0.685000  1.0  0.0528
  C  C36  1  0.795800  0.465200  0.706700  1.0  -0.1506
  C  C37  1  0.951700  0.277400  0.607300  1.0  0.6884
  C  C38  1  0.713300  0.640800  0.282700  1.0  -0.1538
  C  C39  1  0.796600  0.515600  0.298800  1.0  0.0232
  C  C40  1  0.894300  0.453400  0.359200  1.0  0.7134
  C  C41  1  0.285900  0.262000  0.472500  1.0  0.644
  C  C42  1  0.768000  0.148800  0.492300  1.0  0.8045
  C  C43  1  0.624500  0.240400  0.476600  1.0  0.0197
  C  C44  1  0.567100  0.362200  0.445800  1.0  -0.1324
  C  C45  1  0.425400  0.394800  0.440800  1.0  -0.1422
  C  C46  1  0.403100  0.293800  0.469400  1.0  0.057
  C  C47  1  0.212300  0.660400  0.185000  1.0  0.054
  C  C48  1  0.261000  0.534800  0.206700  1.0  -0.1508
  C  C49  1  0.229100  0.722600  0.107300  1.0  0.6915
  C  C50  1  0.354100  0.359200  0.782700  1.0  -0.1583
  C  C51  1  0.312200  0.484400  0.798800  1.0  0.0241
  C  C52  1  0.347700  0.546600  0.859200  1.0  0.7127
  C  C53  1  0.547900  0.738000  0.972500  1.0  0.6459
  C  C54  1  0.916800  0.851200  0.992300  1.0  0.8039
  C  C55  1  0.864900  0.759600  0.976600  1.0  0.0192
  C  C56  1  0.929300  0.637800  0.945800  1.0  -0.1319
  C  C57  1  0.820200  0.605200  0.940800  1.0  -0.1421
  C  C58  1  0.696900  0.706200  0.969400  1.0  0.0577
  C  C59  1  0.127300  0.660400  0.315000  1.0  0.0546
  C  C60  1  0.204200  0.534800  0.293300  1.0  -0.1512
  C  C61  1  0.048300  0.722600  0.392700  1.0  0.6904
  C  C62  1  0.286700  0.359200  0.717300  1.0  -0.1542
  C  C63  1  0.203400  0.484400  0.701200  1.0  0.0242
  C  C64  1  0.105700  0.546600  0.640800  1.0  0.7122
  C  C65  1  0.714100  0.738000  0.527500  1.0  0.6451
  C  C66  1  0.232000  0.851200  0.507700  1.0  0.8041
  C  C67  1  0.375500  0.759600  0.523400  1.0  0.0189
  C  C68  1  0.432900  0.637800  0.554200  1.0  -0.133
  C  C69  1  0.574600  0.605200  0.559200  1.0  -0.1422
  C  C70  1  0.596900  0.706200  0.530600  1.0  0.0583
  O  O71  1  0.825000  0.157800  0.899400  1.0  -0.617
  O  O72  1  0.702400  0.351000  0.954000  1.0  -0.7242
  O  O73  1  0.169300  0.043200  0.979100  1.0  -0.7604
  O  O74  1  0.950800  0.191000  0.024100  1.0  -0.7461
  O  O75  1  0.278900  0.196000  0.008300  1.0  -0.09
  O  O76  1  0.478100  0.343800  0.059600  1.0  -0.7339
  O  O77  1  0.551300  0.160000  0.996400  1.0  -0.611
  O  O78  1  0.702700  0.332400  0.142200  1.0  -0.7403
  O  O79  1  0.573700  0.531200  0.094000  1.0  -0.6072
  O  O80  1  0.017200  0.157800  0.600600  1.0  -0.6169
  O  O81  1  0.946600  0.351000  0.546000  1.0  -0.7245
  O  O82  1  0.787500  0.043200  0.520900  1.0  -0.76
  O  O83  1  0.858200  0.191000  0.475900  1.0  -0.7467
  O  O84  1  0.525100  0.196000  0.491700  1.0  -0.0918
  O  O85  1  0.178100  0.343800  0.440400  1.0  -0.7318
  O  O86  1  0.288700  0.160000  0.503600  1.0  -0.6098
  O  O87  1  0.964900  0.332400  0.357800  1.0  -0.7401
  O  O88  1  0.895100  0.531200  0.406000  1.0  -0.6078
  O  O89  1  0.175000  0.842200  0.100600  1.0  -0.6146
  O  O90  1  0.297600  0.649000  0.046000  1.0  -0.7249
  O  O91  1  0.830700  0.956800  0.020900  1.0  -0.7608
  O  O92  1  0.049200  0.809000  0.975900  1.0  -0.7471
  O  O93  1  0.721100  0.804000  0.991700  1.0  -0.093
  O  O94  1  0.521900  0.656200  0.940400  1.0  -0.7333
  O  O95  1  0.448700  0.840000  0.003600  1.0  -0.6105
  O  O96  1  0.297300  0.667600  0.857800  1.0  -0.7403
  O  O97  1  0.426300  0.468800  0.906000  1.0  -0.608
  O  O98  1  0.982800  0.842200  0.399400  1.0  -0.6147
  O  O99  1  0.053400  0.649000  0.454000  1.0  -0.7247
  O  O100  1  0.212500  0.956800  0.479100  1.0  -0.7604
  O  O101  1  0.141800  0.809000  0.524100  1.0  -0.747
  O  O102  1  0.474900  0.804000  0.508300  1.0  -0.092
  O  O103  1  0.821900  0.656200  0.559600  1.0  -0.7355
  O  O104  1  0.711300  0.840000  0.496400  1.0  -0.611
  O  O105  1  0.035100  0.667600  0.642200  1.0  -0.7405
  O  O106  1  0.104900  0.468800  0.594000  1.0  -0.6074
  O  O107  1  0.870300  0.259400  0.750000  1.0  -0.1236
  O  O108  1  0.129700  0.740600  0.250000  1.0  -0.1231
  O  O109  1  0.781700  0.436600  0.250000  1.0  -0.098
  O  O110  1  0.218300  0.563400  0.750000  1.0  -0.0977
