# generated using pymatgen
data_AgH3(CO)4
_symmetry_space_group_name_H-M   'P 1'
_cell_length_a   6.36320000
_cell_length_b   9.49060000
_cell_length_c   15.10020000
_cell_angle_alpha   96.57500000
_cell_angle_beta   93.09400000
_cell_angle_gamma   100.22100000
_symmetry_Int_Tables_number   1
_chemical_formula_structural   AgH3(CO)4
_chemical_formula_sum   'Ag6 H18 C24 O24'
_cell_volume   888.95806497
_cell_formula_units_Z   6
loop_
 _symmetry_equiv_pos_site_id
 _symmetry_equiv_pos_as_xyz
  1  'x, y, z'
loop_
 _atom_site_type_symbol
 _atom_site_label
 _atom_site_symmetry_multiplicity
 _atom_site_fract_x
 _atom_site_fract_y
 _atom_site_fract_z
 _atom_site_occupancy
 _atom_site_charge
  Ag  Ag1  1  0.624770  0.139800  0.987490  1.0  0.5561
  Ag  Ag2  1  0.138080  0.586850  0.573970  1.0  0.5147
  Ag  Ag3  1  0.445100  0.590460  0.416130  1.0  0.564
  Ag  Ag4  1  0.375230  0.860200  0.012510  1.0  0.5544
  Ag  Ag5  1  0.861920  0.413150  0.426030  1.0  0.5149
  Ag  Ag6  1  0.554900  0.409540  0.583870  1.0  0.5651
  H  H7  1  0.178000  0.601000  0.201000  1.0  0.429
  H  H8  1  0.549000  0.110000  0.423000  1.0  0.4005
  H  H9  1  0.114000  0.115000  0.100000  1.0  0.4253
  H  H10  1  0.769800  0.003200  0.265300  1.0  0.1309
  H  H11  1  0.777600  0.769400  0.257800  1.0  0.1238
  H  H12  1  0.867400  0.905800  0.390100  1.0  0.1213
  H  H13  1  0.185800  0.006600  0.456500  1.0  0.1239
  H  H14  1  0.000500  0.136700  0.380900  1.0  0.1139
  H  H15  1  0.014300  0.189700  0.242100  1.0  0.1246
  H  H16  1  0.822000  0.399000  0.799000  1.0  0.4324
  H  H17  1  0.451000  0.890000  0.577000  1.0  0.4008
  H  H18  1  0.886000  0.885000  0.900000  1.0  0.4228
  H  H19  1  0.230200  0.996800  0.734700  1.0  0.131
  H  H20  1  0.222400  0.230600  0.742200  1.0  0.1298
  H  H21  1  0.132600  0.094200  0.609900  1.0  0.1227
  H  H22  1  0.814200  0.993400  0.543500  1.0  0.1252
  H  H23  1  0.999500  0.863300  0.619100  1.0  0.1139
  H  H24  1  0.985700  0.810300  0.757900  1.0  0.1242
  C  C25  1  0.883400  0.974600  0.229800  1.0  -0.1483
  C  C26  1  0.918000  0.833300  0.264000  1.0  -0.1635
  C  C27  1  0.985600  0.864800  0.365100  1.0  -0.139
  C  C28  1  0.181000  0.985400  0.391300  1.0  -0.179
  C  C29  1  0.134100  0.122800  0.354700  1.0  -0.1493
  C  C30  1  0.072200  0.103900  0.253400  1.0  -0.1781
  C  C31  1  0.783800  0.952700  0.134500  1.0  0.6851
  C  C32  1  0.061700  0.757100  0.207000  1.0  0.6799
  C  C33  1  0.986100  0.731200  0.411900  1.0  0.6764
  C  C34  1  0.393500  0.936800  0.371600  1.0  0.6282
  C  C35  1  0.287700  0.263200  0.388900  1.0  0.6788
  C  C36  1  0.268800  0.107700  0.200400  1.0  0.6623
  C  C37  1  0.116600  0.025400  0.770200  1.0  -0.1473
  C  C38  1  0.082000  0.166700  0.736000  1.0  -0.1629
  C  C39  1  0.014400  0.135200  0.634900  1.0  -0.1368
  C  C40  1  0.819000  0.014600  0.608700  1.0  -0.1783
  C  C41  1  0.865900  0.877200  0.645300  1.0  -0.1442
  C  C42  1  0.927800  0.896100  0.746600  1.0  -0.1794
  C  C43  1  0.216200  0.047300  0.865500  1.0  0.6835
  C  C44  1  0.938300  0.242900  0.793000  1.0  0.6785
  C  C45  1  0.013900  0.268800  0.588100  1.0  0.6775
  C  C46  1  0.606500  0.063200  0.628400  1.0  0.6485
  C  C47  1  0.712300  0.736800  0.611100  1.0  0.6781
  C  C48  1  0.731200  0.892300  0.799600  1.0  0.6667
  O  O49  1  0.833900  0.052200  0.086000  1.0  -0.6156
  O  O50  1  0.646500  0.840200  0.110000  1.0  -0.5612
  O  O51  1  0.150500  0.809300  0.146800  1.0  -0.5386
  O  O52  1  0.069500  0.624600  0.225000  1.0  -0.5184
  O  O53  1  0.121500  0.739300  0.476400  1.0  -0.5725
  O  O54  1  0.839300  0.625000  0.386600  1.0  -0.583
  O  O55  1  0.405800  0.820700  0.332700  1.0  -0.5257
  O  O56  1  0.569800  0.025600  0.407300  1.0  -0.5073
  O  O57  1  0.434800  0.262100  0.447900  1.0  -0.6202
  O  O58  1  0.249300  0.376300  0.360100  1.0  -0.5952
  O  O59  1  0.445200  0.115100  0.236200  1.0  -0.508
  O  O60  1  0.245400  0.118200  0.114400  1.0  -0.5344
  O  O61  1  0.166100  0.947800  0.914000  1.0  -0.6172
  O  O62  1  0.353500  0.159800  0.890000  1.0  -0.5612
  O  O63  1  0.849500  0.190700  0.853200  1.0  -0.5577
  O  O64  1  0.930500  0.375400  0.775000  1.0  -0.5178
  O  O65  1  0.878500  0.260700  0.523600  1.0  -0.5735
  O  O66  1  0.160700  0.375000  0.613400  1.0  -0.5826
  O  O67  1  0.594200  0.179300  0.667300  1.0  -0.5494
  O  O68  1  0.430200  0.974400  0.592700  1.0  -0.5072
  O  O69  1  0.565200  0.737900  0.552100  1.0  -0.6204
  O  O70  1  0.750700  0.623700  0.639900  1.0  -0.5956
  O  O71  1  0.554800  0.884900  0.763800  1.0  -0.5075
  O  O72  1  0.754600  0.881800  0.885600  1.0  -0.5323
