# generated using pymatgen
data_ZnCu(CN)4
_symmetry_space_group_name_H-M   'P 1'
_cell_length_a   11.67100000
_cell_length_b   11.67100000
_cell_length_c   11.67100000
_cell_angle_alpha   90.00000000
_cell_angle_beta   90.00000000
_cell_angle_gamma   90.00000000
_symmetry_Int_Tables_number   1
_chemical_formula_structural   ZnCu(CN)4
_chemical_formula_sum   'Zn4 Cu4 C16 N16'
_cell_volume   1589.73306471
_cell_formula_units_Z   4
loop_
 _symmetry_equiv_pos_site_id
 _symmetry_equiv_pos_as_xyz
  1  'x, y, z'
loop_
 _atom_site_type_symbol
 _atom_site_label
 _atom_site_symmetry_multiplicity
 _atom_site_fract_x
 _atom_site_fract_y
 _atom_site_fract_z
 _atom_site_occupancy
 _atom_site_charge
  Zn  Zn1  1  0.250000  0.250000  0.250000  1.0  0.8066
  Zn  Zn2  1  0.750000  0.750000  0.250000  1.0  0.8066
  Zn  Zn3  1  0.750000  0.250000  0.750000  1.0  0.8066
  Zn  Zn4  1  0.250000  0.750000  0.750000  1.0  0.8066
  Cu  Cu5  1  0.000000  0.000000  0.000000  1.0  0.6186
  Cu  Cu6  1  0.000000  0.500000  0.500000  1.0  0.6186
  Cu  Cu7  1  0.500000  0.000000  0.500000  1.0  0.6186
  Cu  Cu8  1  0.500000  0.500000  0.000000  1.0  0.6186
  C  C9  1  0.096000  0.096000  0.096000  1.0  0.0886
  C  C10  1  0.096000  0.596000  0.596000  1.0  0.0886
  C  C11  1  0.596000  0.096000  0.596000  1.0  0.0886
  C  C12  1  0.596000  0.596000  0.096000  1.0  0.0886
  C  C13  1  0.904000  0.904000  0.096000  1.0  0.0875
  C  C14  1  0.904000  0.404000  0.596000  1.0  0.0875
  C  C15  1  0.404000  0.904000  0.596000  1.0  0.0875
  C  C16  1  0.404000  0.404000  0.096000  1.0  0.0875
  C  C17  1  0.904000  0.096000  0.904000  1.0  0.0877
  C  C18  1  0.904000  0.596000  0.404000  1.0  0.0877
  C  C19  1  0.404000  0.096000  0.404000  1.0  0.0877
  C  C20  1  0.404000  0.596000  0.904000  1.0  0.0877
  C  C21  1  0.096000  0.904000  0.904000  1.0  0.09
  C  C22  1  0.096000  0.404000  0.404000  1.0  0.09
  C  C23  1  0.596000  0.904000  0.404000  1.0  0.09
  C  C24  1  0.596000  0.404000  0.904000  1.0  0.09
  N  N25  1  0.150000  0.150000  0.150000  1.0  -0.4455
  N  N26  1  0.150000  0.650000  0.650000  1.0  -0.4455
  N  N27  1  0.650000  0.150000  0.650000  1.0  -0.4455
  N  N28  1  0.650000  0.650000  0.150000  1.0  -0.4455
  N  N29  1  0.850000  0.850000  0.150000  1.0  -0.444
  N  N30  1  0.850000  0.350000  0.650000  1.0  -0.444
  N  N31  1  0.350000  0.850000  0.650000  1.0  -0.444
  N  N32  1  0.350000  0.350000  0.150000  1.0  -0.444
  N  N33  1  0.850000  0.150000  0.850000  1.0  -0.4446
  N  N34  1  0.850000  0.650000  0.350000  1.0  -0.4446
  N  N35  1  0.350000  0.150000  0.350000  1.0  -0.4446
  N  N36  1  0.350000  0.650000  0.850000  1.0  -0.4446
  N  N37  1  0.150000  0.850000  0.850000  1.0  -0.4449
  N  N38  1  0.150000  0.350000  0.350000  1.0  -0.4449
  N  N39  1  0.650000  0.850000  0.350000  1.0  -0.4449
  N  N40  1  0.650000  0.350000  0.850000  1.0  -0.4449
