# generated using pymatgen
data_ZnCu(CN)4
_symmetry_space_group_name_H-M   'P 1'
_cell_length_a   11.60120000
_cell_length_b   11.60120000
_cell_length_c   11.60120000
_cell_angle_alpha   90.00000000
_cell_angle_beta   90.00000000
_cell_angle_gamma   90.00000000
_symmetry_Int_Tables_number   1
_chemical_formula_structural   ZnCu(CN)4
_chemical_formula_sum   'Zn4 Cu4 C16 N16'
_cell_volume   1561.38046611
_cell_formula_units_Z   4
loop_
 _symmetry_equiv_pos_site_id
 _symmetry_equiv_pos_as_xyz
  1  'x, y, z'
loop_
 _atom_site_type_symbol
 _atom_site_label
 _atom_site_symmetry_multiplicity
 _atom_site_fract_x
 _atom_site_fract_y
 _atom_site_fract_z
 _atom_site_occupancy
 _atom_site_charge
  Zn  Zn1  1  0.261130  0.738870  0.238870  1.0  0.9064
  Zn  Zn2  1  0.238870  0.261130  0.738870  1.0  0.9043
  Zn  Zn3  1  0.738870  0.238870  0.261130  1.0  0.904
  Zn  Zn4  1  0.761130  0.761130  0.761130  1.0  0.9073
  Cu  Cu5  1  0.513100  0.486900  0.986900  1.0  0.5898
  Cu  Cu6  1  0.986900  0.513100  0.486900  1.0  0.5887
  Cu  Cu7  1  0.486900  0.986900  0.513100  1.0  0.5886
  Cu  Cu8  1  0.013100  0.013100  0.013100  1.0  0.5901
  C  C9  1  0.086900  0.595000  0.378800  1.0  0.035
  C  C10  1  0.413100  0.405000  0.878800  1.0  0.0346
  C  C11  1  0.913100  0.095000  0.121200  1.0  0.0345
  C  C12  1  0.586900  0.905000  0.621200  1.0  0.0351
  C  C13  1  0.378800  0.086900  0.595000  1.0  0.0339
  C  C14  1  0.878800  0.413100  0.405000  1.0  0.0321
  C  C15  1  0.121200  0.913100  0.095000  1.0  0.0345
  C  C16  1  0.621200  0.586900  0.905000  1.0  0.0346
  C  C17  1  0.595000  0.378800  0.086900  1.0  0.0347
  C  C18  1  0.405000  0.878800  0.413100  1.0  0.0329
  C  C19  1  0.095000  0.121200  0.913100  1.0  0.0334
  C  C20  1  0.905000  0.621200  0.586900  1.0  0.0327
  C  C21  1  0.416200  0.583800  0.083800  1.0  0.0339
  C  C22  1  0.083800  0.416200  0.583800  1.0  0.0356
  C  C23  1  0.583800  0.083800  0.416200  1.0  0.0346
  C  C24  1  0.916200  0.916200  0.916200  1.0  0.0337
  N  N25  1  0.149700  0.643100  0.321400  1.0  -0.4104
  N  N26  1  0.350300  0.356900  0.821400  1.0  -0.4096
  N  N27  1  0.850300  0.143100  0.178600  1.0  -0.4098
  N  N28  1  0.649700  0.856900  0.678600  1.0  -0.4108
  N  N29  1  0.321400  0.149700  0.643100  1.0  -0.41
  N  N30  1  0.821400  0.350300  0.356900  1.0  -0.4101
  N  N31  1  0.178600  0.850300  0.143100  1.0  -0.4098
  N  N32  1  0.678600  0.649700  0.856900  1.0  -0.4108
  N  N33  1  0.643100  0.321400  0.149700  1.0  -0.4112
  N  N34  1  0.356900  0.821400  0.350300  1.0  -0.4104
  N  N35  1  0.143100  0.178600  0.850300  1.0  -0.4132
  N  N36  1  0.856900  0.678600  0.649700  1.0  -0.4118
  N  N37  1  0.358700  0.641300  0.141300  1.0  -0.3979
  N  N38  1  0.141300  0.358700  0.641300  1.0  -0.4005
  N  N39  1  0.641300  0.141300  0.358700  1.0  -0.4002
  N  N40  1  0.858700  0.858700  0.858700  1.0  -0.3985
