# generated using pymatgen
data_ZnCu(CN)4
_symmetry_space_group_name_H-M   'P 1'
_cell_length_a   11.60900000
_cell_length_b   11.60900000
_cell_length_c   11.60900000
_cell_angle_alpha   90.00000000
_cell_angle_beta   90.00000000
_cell_angle_gamma   90.00000000
_symmetry_Int_Tables_number   1
_chemical_formula_structural   ZnCu(CN)4
_chemical_formula_sum   'Zn4 Cu4 C16 N16'
_cell_volume   1564.53193953
_cell_formula_units_Z   4
loop_
 _symmetry_equiv_pos_site_id
 _symmetry_equiv_pos_as_xyz
  1  'x, y, z'
loop_
 _atom_site_type_symbol
 _atom_site_label
 _atom_site_symmetry_multiplicity
 _atom_site_fract_x
 _atom_site_fract_y
 _atom_site_fract_z
 _atom_site_occupancy
 _atom_site_charge
  Zn  Zn1  1  0.250000  0.250000  0.250000  1.0  0.7438
  Zn  Zn2  1  0.750000  0.750000  0.250000  1.0  0.7438
  Zn  Zn3  1  0.750000  0.250000  0.750000  1.0  0.7438
  Zn  Zn4  1  0.250000  0.750000  0.750000  1.0  0.7438
  Cu  Cu5  1  0.000000  0.000000  0.000000  1.0  0.5176
  Cu  Cu6  1  0.000000  0.500000  0.500000  1.0  0.5176
  Cu  Cu7  1  0.500000  0.000000  0.500000  1.0  0.5176
  Cu  Cu8  1  0.500000  0.500000  0.000000  1.0  0.5176
  C  C9  1  0.093300  0.093300  0.093300  1.0  0.1284
  C  C10  1  0.093300  0.593300  0.593300  1.0  0.1284
  C  C11  1  0.593300  0.093300  0.593300  1.0  0.1284
  C  C12  1  0.593300  0.593300  0.093300  1.0  0.1284
  C  C13  1  0.906700  0.906700  0.093300  1.0  0.1261
  C  C14  1  0.906700  0.406700  0.593300  1.0  0.1261
  C  C15  1  0.406700  0.906700  0.593300  1.0  0.1261
  C  C16  1  0.406700  0.406700  0.093300  1.0  0.1261
  C  C17  1  0.906700  0.093300  0.906700  1.0  0.1268
  C  C18  1  0.906700  0.593300  0.406700  1.0  0.1268
  C  C19  1  0.406700  0.093300  0.406700  1.0  0.1268
  C  C20  1  0.406700  0.593300  0.906700  1.0  0.1268
  C  C21  1  0.093300  0.906700  0.906700  1.0  0.1309
  C  C22  1  0.093300  0.406700  0.406700  1.0  0.1309
  C  C23  1  0.593300  0.906700  0.406700  1.0  0.1309
  C  C24  1  0.593300  0.406700  0.906700  1.0  0.1309
  N  N25  1  0.147100  0.147100  0.147100  1.0  -0.4437
  N  N26  1  0.147100  0.647100  0.647100  1.0  -0.4437
  N  N27  1  0.647100  0.147100  0.647100  1.0  -0.4437
  N  N28  1  0.647100  0.647100  0.147100  1.0  -0.4437
  N  N29  1  0.852900  0.852900  0.147100  1.0  -0.4438
  N  N30  1  0.852900  0.352900  0.647100  1.0  -0.4438
  N  N31  1  0.352900  0.852900  0.647100  1.0  -0.4438
  N  N32  1  0.352900  0.352900  0.147100  1.0  -0.4438
  N  N33  1  0.852900  0.147100  0.852900  1.0  -0.4428
  N  N34  1  0.852900  0.647100  0.352900  1.0  -0.4428
  N  N35  1  0.352900  0.147100  0.352900  1.0  -0.4428
  N  N36  1  0.352900  0.647100  0.852900  1.0  -0.4428
  N  N37  1  0.147100  0.852900  0.852900  1.0  -0.4433
  N  N38  1  0.147100  0.352900  0.352900  1.0  -0.4433
  N  N39  1  0.647100  0.852900  0.352900  1.0  -0.4433
  N  N40  1  0.647100  0.352900  0.852900  1.0  -0.4433
