# generated using pymatgen
data_ZnCu(CN)4
_symmetry_space_group_name_H-M   'P 1'
_cell_length_a   11.62690000
_cell_length_b   11.62690000
_cell_length_c   11.62690000
_cell_angle_alpha   90.00000000
_cell_angle_beta   90.00000000
_cell_angle_gamma   90.00000000
_symmetry_Int_Tables_number   1
_chemical_formula_structural   ZnCu(CN)4
_chemical_formula_sum   'Zn4 Cu4 C16 N16'
_cell_volume   1571.78019309
_cell_formula_units_Z   4
loop_
 _symmetry_equiv_pos_site_id
 _symmetry_equiv_pos_as_xyz
  1  'x, y, z'
loop_
 _atom_site_type_symbol
 _atom_site_label
 _atom_site_symmetry_multiplicity
 _atom_site_fract_x
 _atom_site_fract_y
 _atom_site_fract_z
 _atom_site_occupancy
 _atom_site_charge
  Zn  Zn1  1  0.000000  0.000000  0.000000  1.0  0.9499
  Zn  Zn2  1  0.000000  0.500000  0.500000  1.0  0.9499
  Zn  Zn3  1  0.500000  0.000000  0.500000  1.0  0.9499
  Zn  Zn4  1  0.500000  0.500000  0.000000  1.0  0.9499
  Cu  Cu5  1  0.750000  0.750000  0.750000  1.0  0.4624
  Cu  Cu6  1  0.250000  0.250000  0.750000  1.0  0.4624
  Cu  Cu7  1  0.250000  0.750000  0.250000  1.0  0.4624
  Cu  Cu8  1  0.750000  0.250000  0.250000  1.0  0.4624
  C  C9  1  0.847900  0.847900  0.847900  1.0  0.0455
  C  C10  1  0.847900  0.347900  0.347900  1.0  0.0455
  C  C11  1  0.347900  0.847900  0.347900  1.0  0.0455
  C  C12  1  0.347900  0.347900  0.847900  1.0  0.0455
  C  C13  1  0.152100  0.152100  0.847900  1.0  0.0442
  C  C14  1  0.152100  0.652100  0.347900  1.0  0.0442
  C  C15  1  0.652100  0.152100  0.347900  1.0  0.0442
  C  C16  1  0.652100  0.652100  0.847900  1.0  0.0442
  C  C17  1  0.152100  0.847900  0.152100  1.0  0.044
  C  C18  1  0.152100  0.347900  0.652100  1.0  0.044
  C  C19  1  0.652100  0.847900  0.652100  1.0  0.044
  C  C20  1  0.652100  0.347900  0.152100  1.0  0.044
  C  C21  1  0.847900  0.152100  0.152100  1.0  0.0461
  C  C22  1  0.847900  0.652100  0.652100  1.0  0.0461
  C  C23  1  0.347900  0.152100  0.652100  1.0  0.0461
  C  C24  1  0.347900  0.652100  0.152100  1.0  0.0461
  N  N25  1  0.903600  0.903600  0.903600  1.0  -0.3984
  N  N26  1  0.903600  0.403600  0.403600  1.0  -0.3984
  N  N27  1  0.403600  0.903600  0.403600  1.0  -0.3984
  N  N28  1  0.403600  0.403600  0.903600  1.0  -0.3984
  N  N29  1  0.096400  0.096400  0.903600  1.0  -0.3973
  N  N30  1  0.096400  0.596400  0.403600  1.0  -0.3973
  N  N31  1  0.596400  0.096400  0.403600  1.0  -0.3973
  N  N32  1  0.596400  0.596400  0.903600  1.0  -0.3973
  N  N33  1  0.096400  0.903600  0.096400  1.0  -0.3965
  N  N34  1  0.096400  0.403600  0.596400  1.0  -0.3965
  N  N35  1  0.596400  0.903600  0.596400  1.0  -0.3965
  N  N36  1  0.596400  0.403600  0.096400  1.0  -0.3965
  N  N37  1  0.903600  0.096400  0.096400  1.0  -0.4
  N  N38  1  0.903600  0.596400  0.596400  1.0  -0.4
  N  N39  1  0.403600  0.096400  0.596400  1.0  -0.4
  N  N40  1  0.403600  0.596400  0.096400  1.0  -0.4
