# generated using pymatgen
data_AgH18(C7N3)2
_symmetry_space_group_name_H-M   'P 1'
_cell_length_a   6.51920000
_cell_length_b   15.48180000
_cell_length_c   16.99130000
_cell_angle_alpha   89.23000000
_cell_angle_beta   84.60700000
_cell_angle_gamma   85.57400000
_symmetry_Int_Tables_number   1
_chemical_formula_structural   AgH18(C7N3)2
_chemical_formula_sum   'Ag4 H72 C56 N24'
_cell_volume   1702.19836321
_cell_formula_units_Z   4
loop_
 _symmetry_equiv_pos_site_id
 _symmetry_equiv_pos_as_xyz
  1  'x, y, z'
loop_
 _atom_site_type_symbol
 _atom_site_label
 _atom_site_symmetry_multiplicity
 _atom_site_fract_x
 _atom_site_fract_y
 _atom_site_fract_z
 _atom_site_occupancy
 _atom_site_charge
  Ag  Ag1  1  0.728800  0.020350  0.057610  1.0  0.3394
  Ag  Ag2  1  0.747210  0.530130  0.436910  1.0  0.4688
  Ag  Ag3  1  0.271200  0.979650  0.942390  1.0  0.3398
  Ag  Ag4  1  0.252790  0.469870  0.563090  1.0  0.4673
  H  H5  1  0.462700  0.179900  0.164500  1.0  0.0906
  H  H6  1  0.079400  0.202000  0.998400  1.0  0.0819
  H  H7  1  0.462000  0.530000  0.271000  1.0  0.0867
  H  H8  1  0.163800  0.349400  0.388400  1.0  0.0849
  H  H9  1  0.235300  0.280900  0.240900  1.0  0.0738
  H  H10  1  0.405700  0.327200  0.186000  1.0  0.0739
  H  H11  1  0.350300  0.486900  0.154600  1.0  0.0545
  H  H12  1  0.149000  0.541600  0.191700  1.0  0.0742
  H  H13  1  0.108500  0.510300  0.057500  1.0  0.0517
  H  H14  1  0.120900  0.363100  0.016200  1.0  0.0715
  H  H15  1  0.333333  0.379100  0.050500  1.0  0.0795
  H  H16  1  0.896800  0.255600  0.191300  1.0  0.0887
  H  H17  1  0.846800  0.285200  0.104700  1.0  0.0753
  H  H18  1  0.678200  0.388400  0.198400  1.0  0.0669
  H  H19  1  0.883000  0.466500  0.279400  1.0  0.0705
  H  H20  1  0.919000  0.365800  0.297500  1.0  0.0797
  H  H21  1  0.801600  0.515000  0.142000  1.0  0.064
  H  H22  1  0.792800  0.445700  0.074700  1.0  0.0559
  H  H23  1  0.655000  0.310900  0.482800  1.0  0.0824
  H  H24  1  0.988300  0.316400  0.664300  1.0  0.092
  H  H25  1  0.605600  0.147100  0.879900  1.0  0.0897
  H  H26  1  0.028200  0.982000  0.773700  1.0  0.0953
  H  H27  1  0.929500  0.177000  0.692700  1.0  0.0774
  H  H28  1  0.723600  0.225000  0.733800  1.0  0.0723
  H  H29  1  0.935600  0.017000  0.658800  1.0  0.0523
  H  H30  1  0.735800  0.965900  0.681100  1.0  0.0745
  H  H31  1  0.761800  0.999300  0.543700  1.0  0.0602
  H  H32  1  0.941500  0.127800  0.550500  1.0  0.0832
  H  H33  1  0.746000  0.147300  0.502100  1.0  0.0851
  H  H34  1  0.418800  0.226700  0.569700  1.0  0.0745
  H  H35  1  0.415600  0.255900  0.659100  1.0  0.0774
  H  H36  1  0.238800  0.126600  0.653200  1.0  0.0623
  H  H37  1  0.412500  0.141200  0.768900  1.0  0.0814
  H  H38  1  0.418700  0.041600  0.746700  1.0  0.0701
  H  H39  1  0.423000  0.997300  0.604800  1.0  0.0677
  H  H40  1  0.428300  0.068400  0.536700  1.0  0.0615
  H  H41  1  0.537300  0.820100  0.835500  1.0  0.0903
  H  H42  1  0.920600  0.798000  0.001600  1.0  0.0827
  H  H43  1  0.538000  0.470000  0.729000  1.0  0.0866
  H  H44  1  0.836200  0.650600  0.611600  1.0  0.0842
  H  H45  1  0.764700  0.719100  0.759100  1.0  0.0715
  H  H46  1  0.594300  0.672800  0.814000  1.0  0.0732
  H  H47  1  0.649700  0.513100  0.845400  1.0  0.0526
  H  H48  1  0.851000  0.458400  0.808300  1.0  0.0745
  H  H49  1  0.891500  0.489700  0.942500  1.0  0.0528
  H  H50  1  0.879100  0.636900  0.983800  1.0  0.0715
  H  H51  1  0.666667  0.620900  0.949500  1.0  0.083
  H  H52  1  0.103200  0.744400  0.808700  1.0  0.0883
  H  H53  1  0.153200  0.714800  0.895300  1.0  0.0738
  H  H54  1  0.321800  0.611600  0.801600  1.0  0.0679
  H  H55  1  0.117000  0.533500  0.720600  1.0  0.0693
  H  H56  1  0.081000  0.634200  0.702500  1.0  0.0754
  H  H57  1  0.198400  0.485000  0.858000  1.0  0.0652
  H  H58  1  0.207200  0.554300  0.925300  1.0  0.0552
  H  H59  1  0.345000  0.689100  0.517200  1.0  0.0828
  H  H60  1  0.011700  0.683600  0.335700  1.0  0.0935
  H  H61  1  0.394400  0.852900  0.120100  1.0  0.0894
  H  H62  1  0.971800  0.018000  0.226300  1.0  0.0968
  H  H63  1  0.070500  0.823000  0.307300  1.0  0.074
  H  H64  1  0.276400  0.775000  0.266200  1.0  0.0733
  H  H65  1  0.064400  0.983000  0.341200  1.0  0.0519
  H  H66  1  0.264200  0.034100  0.318900  1.0  0.0736
  H  H67  1  0.238200  0.000700  0.456300  1.0  0.0599
  H  H68  1  0.058500  0.872200  0.449500  1.0  0.0816
  H  H69  1  0.254000  0.852700  0.497900  1.0  0.0859
  H  H70  1  0.581200  0.773300  0.430300  1.0  0.0733
  H  H71  1  0.584400  0.744100  0.340900  1.0  0.0771
  H  H72  1  0.761200  0.873400  0.346800  1.0  0.0659
  H  H73  1  0.587500  0.858800  0.231100  1.0  0.0795
  H  H74  1  0.581300  0.958400  0.253300  1.0  0.0699
  H  H75  1  0.577000  0.002700  0.395200  1.0  0.0665
  H  H76  1  0.571700  0.931600  0.463300  1.0  0.06
  C  C77  1  0.394700  0.169600  0.119500  1.0  0.1174
  C  C78  1  0.185700  0.181300  0.029100  1.0  0.1397
  C  C79  1  0.417000  0.491500  0.311000  1.0  0.11
  C  C80  1  0.253800  0.393100  0.375600  1.0  0.1271
  C  C81  1  0.145700  0.306200  0.126900  1.0  0.2136
  C  C82  1  0.256800  0.326000  0.200500  1.0  -0.2829
  C  C83  1  0.167300  0.414400  0.232900  1.0  0.2191
  C  C84  1  0.202200  0.484900  0.170200  1.0  -0.2854
  C  C85  1  0.089100  0.464400  0.098100  1.0  0.0422
  C  C86  1  0.184500  0.376400  0.064200  1.0  -0.257
  C  C87  1  0.917100  0.300300  0.150600  1.0  -0.219
  C  C88  1  0.828100  0.390100  0.183000  1.0  0.0637
  C  C89  1  0.940200  0.410800  0.257000  1.0  -0.2385
  C  C90  1  0.862100  0.458900  0.121300  1.0  -0.2006
  C  C91  1  0.747700  0.328100  0.517600  1.0  0.145
  C  C92  1  0.930000  0.330600  0.616800  1.0  0.1172
  C  C93  1  0.721200  0.107200  0.870500  1.0  0.1305
  C  C94  1  0.951900  0.017300  0.812300  1.0  0.1154
  C  C95  1  0.705300  0.203100  0.613800  1.0  0.2502
  C  C96  1  0.778300  0.180200  0.695600  1.0  -0.2565
  C  C97  1  0.700300  0.092600  0.722000  1.0  0.2033
  C  C98  1  0.784300  0.021800  0.662900  1.0  -0.2846
  C  C99  1  0.708800  0.044900  0.582300  1.0  0.0674
  C  C100  1  0.790100  0.132400  0.554500  1.0  -0.2633
  C  C101  1  0.468600  0.210800  0.621000  1.0  -0.2672
  C  C102  1  0.391700  0.122700  0.648800  1.0  0.0332
  C  C103  1  0.467400  0.097700  0.729500  1.0  -0.2537
  C  C104  1  0.475700  0.053000  0.588400  1.0  -0.218
  C  C105  1  0.605300  0.830400  0.880500  1.0  0.1164
  C  C106  1  0.814300  0.818700  0.970900  1.0  0.14
  C  C107  1  0.583000  0.508500  0.689000  1.0  0.1109
  C  C108  1  0.746200  0.606900  0.624400  1.0  0.127
  C  C109  1  0.854300  0.693800  0.873100  1.0  0.2169
  C  C110  1  0.743200  0.674000  0.799500  1.0  -0.2843
  C  C111  1  0.832700  0.585600  0.767100  1.0  0.2188
  C  C112  1  0.797800  0.515100  0.829800  1.0  -0.2824
  C  C113  1  0.910900  0.535600  0.901900  1.0  0.0431
  C  C114  1  0.815500  0.623600  0.935800  1.0  -0.2543
  C  C115  1  0.082900  0.699700  0.849400  1.0  -0.2206
  C  C116  1  0.171900  0.609900  0.817000  1.0  0.0635
  C  C117  1  0.059800  0.589200  0.743000  1.0  -0.2386
  C  C118  1  0.137900  0.541100  0.878700  1.0  -0.1991
  C  C119  1  0.252300  0.671900  0.482400  1.0  0.1462
  C  C120  1  0.070000  0.669400  0.383200  1.0  0.1177
  C  C121  1  0.278800  0.892800  0.129500  1.0  0.1323
  C  C122  1  0.048100  0.982700  0.187700  1.0  0.114
  C  C123  1  0.294700  0.796900  0.386200  1.0  0.2509
  C  C124  1  0.221700  0.819800  0.304400  1.0  -0.2562
  C  C125  1  0.299700  0.907400  0.278000  1.0  0.2014
  C  C126  1  0.215700  0.978200  0.337100  1.0  -0.2873
  C  C127  1  0.291200  0.955100  0.417700  1.0  0.067
  C  C128  1  0.209900  0.867600  0.445500  1.0  -0.2624
  C  C129  1  0.531400  0.789200  0.379000  1.0  -0.2646
  C  C130  1  0.608300  0.877300  0.351200  1.0  0.035
  C  C131  1  0.532600  0.902300  0.270500  1.0  -0.2541
  C  C132  1  0.524300  0.947000  0.411600  1.0  -0.2178
  N  N133  1  0.439900  0.103400  0.072800  1.0  -0.2562
  N  N134  1  0.304700  0.109700  0.014600  1.0  -0.294
  N  N135  1  0.237100  0.221300  0.094600  1.0  -0.0911
  N  N136  1  0.483700  0.486400  0.382100  1.0  -0.3001
  N  N137  1  0.373600  0.422800  0.423400  1.0  -0.2682
  N  N138  1  0.275500  0.434000  0.303900  1.0  -0.1159
  N  N139  1  0.855100  0.395000  0.506600  1.0  -0.2924
  N  N140  1  0.976400  0.396700  0.570900  1.0  -0.2933
  N  N141  1  0.786500  0.286200  0.586000  1.0  -0.0553
  N  N142  1  0.842000  0.079700  0.924200  1.0  -0.2856
  N  N143  1  0.992500  0.022100  0.886100  1.0  -0.254
  N  N144  1  0.784200  0.070700  0.799800  1.0  -0.0532
  N  N145  1  0.560100  0.896600  0.927200  1.0  -0.2569
  N  N146  1  0.695300  0.890300  0.985400  1.0  -0.2932
  N  N147  1  0.762900  0.778700  0.905400  1.0  -0.0914
  N  N148  1  0.516300  0.513600  0.617900  1.0  -0.2992
  N  N149  1  0.626400  0.577200  0.576600  1.0  -0.2695
  N  N150  1  0.724500  0.566000  0.696100  1.0  -0.1167
  N  N151  1  0.144900  0.605000  0.493400  1.0  -0.2904
  N  N152  1  0.023600  0.603300  0.429100  1.0  -0.2907
  N  N153  1  0.213500  0.713800  0.414000  1.0  -0.0544
  N  N154  1  0.158000  0.920300  0.075800  1.0  -0.2883
  N  N155  1  0.007500  0.977900  0.113900  1.0  -0.2538
  N  N156  1  0.215800  0.929300  0.200200  1.0  -0.0555
