# generated using pymatgen
data_CuH18(C3N2)5
_symmetry_space_group_name_H-M   'P 1'
_cell_length_a   21.85670000
_cell_length_b   11.55250000
_cell_length_c   21.46040000
_cell_angle_alpha   90.00000000
_cell_angle_beta   117.61100000
_cell_angle_gamma   90.00000000
_symmetry_Int_Tables_number   1
_chemical_formula_structural   CuH18(C3N2)5
_chemical_formula_sum   'Cu8 H144 C120 N80'
_cell_volume   4801.62546448
_cell_formula_units_Z   8
loop_
 _symmetry_equiv_pos_site_id
 _symmetry_equiv_pos_as_xyz
  1  'x, y, z'
loop_
 _atom_site_type_symbol
 _atom_site_label
 _atom_site_symmetry_multiplicity
 _atom_site_fract_x
 _atom_site_fract_y
 _atom_site_fract_z
 _atom_site_occupancy
 _atom_site_charge
  Cu  Cu1  1  0.744930  0.326300  0.419400  1.0  0.6062
  Cu  Cu2  1  0.756770  0.301250  0.602470  1.0  0.6935
  Cu  Cu3  1  0.255070  0.826300  0.080600  1.0  0.6053
  Cu  Cu4  1  0.243230  0.801250  0.897530  1.0  0.6955
  Cu  Cu5  1  0.255070  0.673700  0.580600  1.0  0.6068
  Cu  Cu6  1  0.243230  0.698750  0.397530  1.0  0.6944
  Cu  Cu7  1  0.744930  0.173700  0.919400  1.0  0.607
  Cu  Cu8  1  0.756770  0.198750  0.102470  1.0  0.6918
  H  H9  1  0.836900  0.554900  0.443900  1.0  0.0776
  H  H10  1  0.828200  0.588800  0.623000  1.0  0.0802
  H  H11  1  0.810600  0.825900  0.492900  1.0  0.0718
  H  H12  1  0.822300  0.823600  0.571800  1.0  0.0711
  H  H13  1  0.923400  0.932600  0.666900  1.0  0.0604
  H  H14  1  0.975000  0.002900  0.647700  1.0  0.0709
  H  H15  1  0.975800  0.644300  0.645000  1.0  0.0697
  H  H16  1  0.924100  0.711300  0.665500  1.0  0.0593
  H  H17  1  0.959300  0.653800  0.520300  1.0  0.0642
  H  H18  1  0.896300  0.723700  0.461800  1.0  0.0478
  H  H19  1  0.894300  0.930300  0.463100  1.0  0.0624
  H  H20  1  0.956800  0.001500  0.521300  1.0  0.0532
  H  H21  1  0.055100  0.896700  0.613100  1.0  0.058
  H  H22  1  0.056200  0.759300  0.612100  1.0  0.0606
  H  H23  1  0.823800  0.050300  0.624400  1.0  0.0795
  H  H24  1  0.845100  0.107300  0.453800  1.0  0.0742
  H  H25  1  0.137900  0.805800  0.727200  1.0  0.0768
  H  H26  1  0.988700  0.833800  0.780600  1.0  0.0762
  H  H27  1  0.579200  0.261900  0.357300  1.0  0.078
  H  H28  1  0.586800  0.271000  0.545100  1.0  0.0748
  H  H29  1  0.470600  0.208500  0.304700  1.0  0.0514
  H  H30  1  0.488100  0.091300  0.348400  1.0  0.0619
  H  H31  1  0.291400  0.227600  0.262800  1.0  0.0709
  H  H32  1  0.349800  0.291300  0.251200  1.0  0.0586
  H  H33  1  0.451700  0.391100  0.430900  1.0  0.066
  H  H34  1  0.449400  0.393000  0.355700  1.0  0.0702
  H  H35  1  0.489600  0.087200  0.467500  1.0  0.0687
  H  H36  1  0.475400  0.202400  0.499000  1.0  0.0549
  H  H37  1  0.319200  0.045000  0.335000  1.0  0.0518
  H  H38  1  0.394500  0.991000  0.367800  1.0  0.0612
  H  H39  1  0.359300  0.284200  0.447700  1.0  0.0681
  H  H40  1  0.298100  0.221600  0.383000  1.0  0.0612
  H  H41  1  0.286300  0.959000  0.228500  1.0  0.073
  H  H42  1  0.427700  0.127200  0.200200  1.0  0.0763
  H  H43  1  0.342600  0.486700  0.432900  1.0  0.0793
  H  H44  1  0.267800  0.438000  0.228700  1.0  0.0745
  H  H45  1  0.163100  0.054900  0.056100  1.0  0.0787
  H  H46  1  0.171800  0.088800  0.877000  1.0  0.0802
  H  H47  1  0.189400  0.325900  0.007100  1.0  0.0718
  H  H48  1  0.177700  0.323600  0.928200  1.0  0.0704
  H  H49  1  0.076600  0.432600  0.833100  1.0  0.0603
  H  H50  1  0.025000  0.502900  0.852300  1.0  0.0733
  H  H51  1  0.024200  0.144300  0.855000  1.0  0.0707
  H  H52  1  0.075900  0.211300  0.834500  1.0  0.0597
  H  H53  1  0.040700  0.153800  0.979700  1.0  0.0645
  H  H54  1  0.103700  0.223700  0.038200  1.0  0.0486
  H  H55  1  0.105700  0.430300  0.036900  1.0  0.0623
  H  H56  1  0.043200  0.501500  0.978700  1.0  0.0536
  H  H57  1  0.944900  0.396700  0.886900  1.0  0.0598
  H  H58  1  0.943800  0.259300  0.887900  1.0  0.0623
  H  H59  1  0.176200  0.550300  0.875600  1.0  0.078
  H  H60  1  0.154900  0.607300  0.046200  1.0  0.0731
  H  H61  1  0.862100  0.305800  0.772800  1.0  0.0774
  H  H62  1  0.011300  0.333800  0.719400  1.0  0.0765
  H  H63  1  0.420800  0.761900  0.142700  1.0  0.0779
  H  H64  1  0.413200  0.771000  0.954900  1.0  0.0742
  H  H65  1  0.529400  0.708500  0.195300  1.0  0.0516
  H  H66  1  0.511900  0.591300  0.151600  1.0  0.0626
  H  H67  1  0.708600  0.727600  0.237200  1.0  0.0701
  H  H68  1  0.650200  0.791300  0.248800  1.0  0.0585
  H  H69  1  0.548300  0.891100  0.069100  1.0  0.0671
  H  H70  1  0.550600  0.893000  0.144300  1.0  0.0689
  H  H71  1  0.510400  0.587200  0.032500  1.0  0.0692
  H  H72  1  0.524600  0.702400  0.001000  1.0  0.0536
  H  H73  1  0.680800  0.545000  0.165000  1.0  0.0516
  H  H74  1  0.605500  0.491000  0.132200  1.0  0.0615
  H  H75  1  0.640700  0.784200  0.052300  1.0  0.0664
  H  H76  1  0.701900  0.721600  0.117000  1.0  0.0598
  H  H77  1  0.713700  0.459000  0.271500  1.0  0.0722
  H  H78  1  0.572300  0.627200  0.299800  1.0  0.0774
  H  H79  1  0.657400  0.986700  0.067100  1.0  0.0795
  H  H80  1  0.732200  0.938000  0.271300  1.0  0.0738
  H  H81  1  0.163100  0.445100  0.556100  1.0  0.0783
  H  H82  1  0.171800  0.411200  0.377000  1.0  0.0803
  H  H83  1  0.189400  0.174100  0.507100  1.0  0.0716
  H  H84  1  0.177700  0.176400  0.428200  1.0  0.0706
  H  H85  1  0.076600  0.067400  0.333100  1.0  0.0604
  H  H86  1  0.025000  0.997100  0.352300  1.0  0.0716
  H  H87  1  0.024200  0.355700  0.355000  1.0  0.0722
  H  H88  1  0.075900  0.288700  0.334500  1.0  0.0599
  H  H89  1  0.040700  0.346200  0.479700  1.0  0.0642
  H  H90  1  0.103700  0.276300  0.538200  1.0  0.0483
  H  H91  1  0.105700  0.069700  0.536900  1.0  0.0621
  H  H92  1  0.043200  0.998500  0.478700  1.0  0.0549
  H  H93  1  0.944900  0.103300  0.386900  1.0  0.06
  H  H94  1  0.943800  0.240700  0.387900  1.0  0.0626
  H  H95  1  0.176200  0.949700  0.375600  1.0  0.078
  H  H96  1  0.154900  0.892700  0.546200  1.0  0.0734
  H  H97  1  0.862100  0.194200  0.272800  1.0  0.0769
  H  H98  1  0.011300  0.166200  0.219400  1.0  0.0766
  H  H99  1  0.420800  0.738100  0.642700  1.0  0.0776
  H  H100  1  0.413200  0.729000  0.454900  1.0  0.0743
  H  H101  1  0.529400  0.791500  0.695300  1.0  0.052
  H  H102  1  0.511900  0.908700  0.651600  1.0  0.0633
  H  H103  1  0.708600  0.772400  0.737200  1.0  0.07
  H  H104  1  0.650200  0.708700  0.748800  1.0  0.0602
  H  H105  1  0.548300  0.608900  0.569100  1.0  0.066
  H  H106  1  0.550600  0.607000  0.644300  1.0  0.0705
  H  H107  1  0.510400  0.912800  0.532500  1.0  0.071
  H  H108  1  0.524600  0.797600  0.501000  1.0  0.0535
  H  H109  1  0.680800  0.955000  0.665000  1.0  0.052
  H  H110  1  0.605500  0.009000  0.632200  1.0  0.0645
  H  H111  1  0.640700  0.715800  0.552300  1.0  0.0663
  H  H112  1  0.701900  0.778400  0.617000  1.0  0.0605
  H  H113  1  0.713700  0.041000  0.771500  1.0  0.0723
  H  H114  1  0.572300  0.872800  0.799800  1.0  0.0773
  H  H115  1  0.657400  0.513300  0.567100  1.0  0.0796
  H  H116  1  0.732200  0.562000  0.771300  1.0  0.0744
  H  H117  1  0.836900  0.945100  0.943900  1.0  0.078
  H  H118  1  0.828200  0.911200  0.123000  1.0  0.0802
  H  H119  1  0.810600  0.674100  0.992900  1.0  0.0718
  H  H120  1  0.822300  0.676400  0.071800  1.0  0.0713
  H  H121  1  0.923400  0.567400  0.166900  1.0  0.0614
  H  H122  1  0.975000  0.497100  0.147700  1.0  0.0706
  H  H123  1  0.975800  0.855700  0.145000  1.0  0.0716
  H  H124  1  0.924100  0.788700  0.165500  1.0  0.0586
  H  H125  1  0.959300  0.846200  0.020300  1.0  0.0645
  H  H126  1  0.896300  0.776300  0.961800  1.0  0.0486
  H  H127  1  0.894300  0.569700  0.963100  1.0  0.0624
  H  H128  1  0.956800  0.498500  0.021300  1.0  0.0531
  H  H129  1  0.055100  0.603300  0.113100  1.0  0.0575
  H  H130  1  0.056200  0.740700  0.112100  1.0  0.061
  H  H131  1  0.823800  0.449700  0.124400  1.0  0.0791
  H  H132  1  0.845100  0.392700  0.953800  1.0  0.0746
  H  H133  1  0.137900  0.694200  0.227200  1.0  0.0769
  H  H134  1  0.988700  0.666200  0.280600  1.0  0.0766
  H  H135  1  0.579200  0.238100  0.857300  1.0  0.078
  H  H136  1  0.586800  0.229000  0.045100  1.0  0.0749
  H  H137  1  0.470600  0.291500  0.804700  1.0  0.0506
  H  H138  1  0.488100  0.408700  0.848400  1.0  0.0629
  H  H139  1  0.291400  0.272400  0.762800  1.0  0.0709
  H  H140  1  0.349800  0.208700  0.751200  1.0  0.059
  H  H141  1  0.451700  0.108900  0.930900  1.0  0.0662
  H  H142  1  0.449400  0.107000  0.855700  1.0  0.069
  H  H143  1  0.489600  0.412800  0.967500  1.0  0.0688
  H  H144  1  0.475400  0.297600  0.999000  1.0  0.0551
  H  H145  1  0.319200  0.455000  0.835000  1.0  0.0507
  H  H146  1  0.394500  0.509000  0.867800  1.0  0.0638
  H  H147  1  0.359300  0.215800  0.947700  1.0  0.0679
  H  H148  1  0.298100  0.278400  0.883000  1.0  0.0605
  H  H149  1  0.286300  0.541000  0.728500  1.0  0.0729
  H  H150  1  0.427700  0.372800  0.700200  1.0  0.076
  H  H151  1  0.342600  0.013300  0.932900  1.0  0.0797
  H  H152  1  0.267800  0.062000  0.728700  1.0  0.0748
  C  C153  1  0.827330  0.542200  0.481720  1.0  0.0932
  C  C154  1  0.822250  0.560600  0.579480  1.0  0.1287
  C  C155  1  0.892450  0.716900  0.557340  1.0  0.2437
  C  C156  1  0.845710  0.824800  0.542380  1.0  -0.2504
  C  C157  1  0.892460  0.932600  0.559350  1.0  0.2319
  C  C158  1  0.946370  0.933100  0.637020  1.0  -0.2449
  C  C159  1  0.991900  0.823800  0.651300  1.0  0.2291
  C  C160  1  0.946930  0.713600  0.635560  1.0  -0.2526
  C  C161  1  0.930250  0.722600  0.511700  1.0  -0.0624
  C  C162  1  0.928800  0.931400  0.512790  1.0  -0.0624
  C  C163  1  0.026360  0.827100  0.603040  1.0  -0.034
  C  C164  1  0.820890  0.083800  0.583210  1.0  0.1049
  C  C165  1  0.832440  0.115300  0.489870  1.0  0.1083
  C  C166  1  0.113680  0.811500  0.753690  1.0  0.0902
  C  C167  1  0.032660  0.826700  0.783140  1.0  0.1196
  C  C168  1  0.595540  0.268800  0.406060  1.0  0.1158
  C  C169  1  0.599440  0.273400  0.508770  1.0  0.1061
  C  C170  1  0.480390  0.232100  0.405440  1.0  0.2261
  C  C171  1  0.460910  0.162700  0.337550  1.0  -0.2527
  C  C172  1  0.383780  0.134000  0.304500  1.0  0.2296
  C  C173  1  0.340730  0.246000  0.284640  1.0  -0.254
  C  C174  1  0.362000  0.315200  0.353070  1.0  0.2176
  C  C175  1  0.439160  0.346300  0.387850  1.0  -0.2293
  C  C176  1  0.462860  0.159200  0.455440  1.0  -0.053
  C  C177  1  0.368520  0.063700  0.356410  1.0  -0.0662
  C  C178  1  0.347380  0.240500  0.404440  1.0  -0.0577
  C  C179  1  0.314950  0.984900  0.209560  1.0  0.0727
  C  C180  1  0.391800  0.076200  0.193900  1.0  0.098
  C  C181  1  0.317150  0.495100  0.383860  1.0  0.0889
  C  C182  1  0.276170  0.469600  0.272350  1.0  0.1217
  C  C183  1  0.172670  0.042200  0.018280  1.0  0.0931
  C  C184  1  0.177750  0.060600  0.920520  1.0  0.1282
  C  C185  1  0.107550  0.216900  0.942660  1.0  0.2427
  C  C186  1  0.154290  0.324800  0.957620  1.0  -0.2415
  C  C187  1  0.107540  0.432600  0.940650  1.0  0.232
  C  C188  1  0.053630  0.433100  0.862980  1.0  -0.2444
  C  C189  1  0.008100  0.323800  0.848700  1.0  0.2289
  C  C190  1  0.053070  0.213600  0.864440  1.0  -0.2519
  C  C191  1  0.069750  0.222600  0.988300  1.0  -0.0593
  C  C192  1  0.071200  0.431400  0.987210  1.0  -0.0619
  C  C193  1  0.973640  0.327100  0.896960  1.0  -0.0328
  C  C194  1  0.179110  0.583800  0.916790  1.0  0.1067
  C  C195  1  0.167560  0.615300  0.010130  1.0  0.1062
  C  C196  1  0.886320  0.311500  0.746310  1.0  0.089
  C  C197  1  0.967340  0.326700  0.716860  1.0  0.1171
  C  C198  1  0.404460  0.768800  0.093940  1.0  0.1156
  C  C199  1  0.400560  0.773400  0.991230  1.0  0.1066
  C  C200  1  0.519610  0.732100  0.094560  1.0  0.227
  C  C201  1  0.539090  0.662700  0.162450  1.0  -0.2542
  C  C202  1  0.616220  0.634000  0.195500  1.0  0.23
  C  C203  1  0.659270  0.746000  0.215360  1.0  -0.2536
  C  C204  1  0.638000  0.815200  0.146930  1.0  0.2172
  C  C205  1  0.560840  0.846300  0.112150  1.0  -0.2297
  C  C206  1  0.537140  0.659200  0.044560  1.0  -0.0531
  C  C207  1  0.631480  0.563700  0.143590  1.0  -0.0672
  C  C208  1  0.652620  0.740500  0.095560  1.0  -0.0606
  C  C209  1  0.685050  0.484900  0.290440  1.0  0.0723
  C  C210  1  0.608200  0.576200  0.306100  1.0  0.0977
  C  C211  1  0.682850  0.995100  0.116140  1.0  0.0893
  C  C212  1  0.723830  0.969600  0.227650  1.0  0.1228
  C  C213  1  0.172670  0.457800  0.518280  1.0  0.0937
  C  C214  1  0.177750  0.439400  0.420520  1.0  0.1286
  C  C215  1  0.107550  0.283100  0.442660  1.0  0.2436
  C  C216  1  0.154290  0.175200  0.457620  1.0  -0.2413
  C  C217  1  0.107540  0.067400  0.440650  1.0  0.2315
  C  C218  1  0.053630  0.066900  0.362980  1.0  -0.2441
  C  C219  1  0.008100  0.176200  0.348700  1.0  0.229
  C  C220  1  0.053070  0.286400  0.364440  1.0  -0.2528
  C  C221  1  0.069750  0.277400  0.488300  1.0  -0.0608
  C  C222  1  0.071200  0.068600  0.487210  1.0  -0.0616
  C  C223  1  0.973640  0.172900  0.396960  1.0  -0.0332
  C  C224  1  0.179110  0.916200  0.416790  1.0  0.1069
  C  C225  1  0.167560  0.884700  0.510130  1.0  0.106
  C  C226  1  0.886320  0.188500  0.246310  1.0  0.089
  C  C227  1  0.967340  0.173300  0.216860  1.0  0.117
  C  C228  1  0.404460  0.731200  0.593940  1.0  0.1155
  C  C229  1  0.400560  0.726600  0.491230  1.0  0.1064
  C  C230  1  0.519610  0.767900  0.594560  1.0  0.2266
  C  C231  1  0.539090  0.837300  0.662450  1.0  -0.2552
  C  C232  1  0.616220  0.866000  0.695500  1.0  0.2309
  C  C233  1  0.659270  0.754000  0.715360  1.0  -0.2544
  C  C234  1  0.638000  0.684800  0.646930  1.0  0.2163
  C  C235  1  0.560840  0.653700  0.612150  1.0  -0.2265
  C  C236  1  0.537140  0.840800  0.544560  1.0  -0.0517
  C  C237  1  0.631480  0.936300  0.643590  1.0  -0.0697
  C  C238  1  0.652620  0.759500  0.595560  1.0  -0.0603
  C  C239  1  0.685050  0.015100  0.790440  1.0  0.0714
  C  C240  1  0.608200  0.923800  0.806100  1.0  0.0985
  C  C241  1  0.682850  0.504900  0.616140  1.0  0.0897
  C  C242  1  0.723830  0.530400  0.727650  1.0  0.1226
  C  C243  1  0.827330  0.957800  0.981720  1.0  0.0955
  C  C244  1  0.822250  0.939400  0.079480  1.0  0.1285
  C  C245  1  0.892450  0.783100  0.057340  1.0  0.2443
  C  C246  1  0.845710  0.675200  0.042380  1.0  -0.2501
  C  C247  1  0.892460  0.567400  0.059350  1.0  0.2314
  C  C248  1  0.946370  0.566900  0.137020  1.0  -0.2433
  C  C249  1  0.991900  0.676200  0.151300  1.0  0.2292
  C  C250  1  0.946930  0.786400  0.135560  1.0  -0.2538
  C  C251  1  0.930250  0.777400  0.011700  1.0  -0.0632
  C  C252  1  0.928800  0.568600  0.012790  1.0  -0.0622
  C  C253  1  0.026360  0.672900  0.103040  1.0  -0.0337
  C  C254  1  0.820890  0.416200  0.083210  1.0  0.1053
  C  C255  1  0.832440  0.384700  0.989870  1.0  0.1071
  C  C256  1  0.113680  0.688500  0.253690  1.0  0.0898
  C  C257  1  0.032660  0.673300  0.283140  1.0  0.1194
  C  C258  1  0.595540  0.231200  0.906060  1.0  0.1156
  C  C259  1  0.599440  0.226600  0.008770  1.0  0.1059
  C  C260  1  0.480390  0.267900  0.905440  1.0  0.2259
  C  C261  1  0.460910  0.337300  0.837550  1.0  -0.2507
  C  C262  1  0.383780  0.366000  0.804500  1.0  0.2308
  C  C263  1  0.340730  0.254000  0.784640  1.0  -0.2539
  C  C264  1  0.362000  0.184800  0.853070  1.0  0.217
  C  C265  1  0.439160  0.153700  0.887850  1.0  -0.2263
  C  C266  1  0.462860  0.340800  0.955440  1.0  -0.0517
  C  C267  1  0.368520  0.436300  0.856410  1.0  -0.0688
  C  C268  1  0.347380  0.259500  0.904440  1.0  -0.058
  C  C269  1  0.314950  0.515100  0.709560  1.0  0.0719
  C  C270  1  0.391800  0.423800  0.693900  1.0  0.0985
  C  C271  1  0.317150  0.004900  0.883860  1.0  0.0896
  C  C272  1  0.276170  0.030400  0.772350  1.0  0.1207
  N  N273  1  0.791120  0.456100  0.486750  1.0  -0.239
  N  N274  1  0.786990  0.467060  0.548030  1.0  -0.3003
  N  N275  1  0.849070  0.610790  0.539730  1.0  -0.0895
  N  N276  1  0.796260  0.200530  0.495290  1.0  -0.3263
  N  N277  1  0.788720  0.180710  0.554900  1.0  -0.282
  N  N278  1  0.849420  0.039110  0.543940  1.0  -0.0909
  N  N279  1  0.142590  0.810290  0.822630  1.0  -0.2419
  N  N280  1  0.090190  0.819900  0.841770  1.0  -0.3062
  N  N281  1  0.044400  0.822140  0.725920  1.0  -0.1025
  N  N282  1  0.973550  0.827780  0.529020  1.0  -0.3683
  N  N283  1  0.659480  0.291430  0.451520  1.0  -0.2894
  N  N284  1  0.662160  0.293700  0.517530  1.0  -0.2541
  N  N285  1  0.555650  0.256480  0.439520  1.0  -0.096
  N  N286  1  0.312380  0.947190  0.151100  1.0  -0.1885
  N  N287  1  0.361670  0.005600  0.140510  1.0  -0.3036
  N  N288  1  0.364620  0.066250  0.239050  1.0  -0.067
  N  N289  1  0.273280  0.578050  0.351490  1.0  -0.1825
  N  N290  1  0.246770  0.563600  0.279620  1.0  -0.3341
  N  N291  1  0.320190  0.423110  0.335580  1.0  -0.099
  N  N292  1  0.388530  0.132220  0.421480  1.0  -0.3728
  N  N293  1  0.208880  0.956100  0.013250  1.0  -0.2378
  N  N294  1  0.213010  0.967060  0.951970  1.0  -0.3004
  N  N295  1  0.150930  0.110790  0.960270  1.0  -0.0894
  N  N296  1  0.203740  0.700530  0.004710  1.0  -0.3253
  N  N297  1  0.211280  0.680710  0.945100  1.0  -0.282
  N  N298  1  0.150580  0.539110  0.956060  1.0  -0.0899
  N  N299  1  0.857410  0.310290  0.677370  1.0  -0.2422
  N  N300  1  0.909810  0.319900  0.658230  1.0  -0.3043
  N  N301  1  0.955600  0.322140  0.774080  1.0  -0.102
  N  N302  1  0.026450  0.327780  0.970980  1.0  -0.3664
  N  N303  1  0.340520  0.791430  0.048480  1.0  -0.2896
  N  N304  1  0.337840  0.793700  0.982470  1.0  -0.2551
  N  N305  1  0.444350  0.756480  0.060480  1.0  -0.0956
  N  N306  1  0.687620  0.447190  0.348900  1.0  -0.1877
  N  N307  1  0.638330  0.505600  0.359490  1.0  -0.3046
  N  N308  1  0.635380  0.566250  0.260950  1.0  -0.0638
  N  N309  1  0.726720  0.078050  0.148510  1.0  -0.1814
  N  N310  1  0.753230  0.063600  0.220380  1.0  -0.3346
  N  N311  1  0.679810  0.923110  0.164420  1.0  -0.1005
  N  N312  1  0.611470  0.632220  0.078520  1.0  -0.3743
  N  N313  1  0.208880  0.543900  0.513250  1.0  -0.2394
  N  N314  1  0.213010  0.532940  0.451970  1.0  -0.3003
  N  N315  1  0.150930  0.389210  0.460270  1.0  -0.0894
  N  N316  1  0.203740  0.799470  0.504710  1.0  -0.3255
  N  N317  1  0.211280  0.819290  0.445100  1.0  -0.2821
  N  N318  1  0.150580  0.960890  0.456060  1.0  -0.0901
  N  N319  1  0.857410  0.189710  0.177370  1.0  -0.2414
  N  N320  1  0.909810  0.180100  0.158230  1.0  -0.3043
  N  N321  1  0.955600  0.177860  0.274080  1.0  -0.102
  N  N322  1  0.026450  0.172220  0.470980  1.0  -0.3667
  N  N323  1  0.340520  0.708570  0.548480  1.0  -0.2892
  N  N324  1  0.337840  0.706300  0.482470  1.0  -0.2551
  N  N325  1  0.444350  0.743520  0.560480  1.0  -0.0957
  N  N326  1  0.687620  0.052810  0.848900  1.0  -0.1878
  N  N327  1  0.638330  0.994400  0.859490  1.0  -0.3051
  N  N328  1  0.635380  0.933750  0.760950  1.0  -0.0635
  N  N329  1  0.726720  0.421950  0.648510  1.0  -0.1814
  N  N330  1  0.753230  0.436400  0.720380  1.0  -0.3335
  N  N331  1  0.679810  0.576890  0.664420  1.0  -0.1016
  N  N332  1  0.611470  0.867780  0.578520  1.0  -0.3737
  N  N333  1  0.791120  0.043900  0.986750  1.0  -0.2384
  N  N334  1  0.786990  0.032940  0.048030  1.0  -0.2997
  N  N335  1  0.849070  0.889210  0.039730  1.0  -0.0897
  N  N336  1  0.796260  0.299470  0.995290  1.0  -0.3267
  N  N337  1  0.788720  0.319290  0.054900  1.0  -0.2816
  N  N338  1  0.849420  0.460890  0.043940  1.0  -0.0913
  N  N339  1  0.142590  0.689710  0.322630  1.0  -0.2417
  N  N340  1  0.090190  0.680100  0.341770  1.0  -0.3061
  N  N341  1  0.044400  0.677860  0.225920  1.0  -0.1025
  N  N342  1  0.973550  0.672220  0.029020  1.0  -0.3675
  N  N343  1  0.659480  0.208570  0.951520  1.0  -0.2894
  N  N344  1  0.662160  0.206300  0.017530  1.0  -0.2542
  N  N345  1  0.555650  0.243520  0.939520  1.0  -0.096
  N  N346  1  0.312380  0.552810  0.651100  1.0  -0.1877
  N  N347  1  0.361670  0.494400  0.640510  1.0  -0.3038
  N  N348  1  0.364620  0.433750  0.739050  1.0  -0.0662
  N  N349  1  0.273280  0.921950  0.851490  1.0  -0.1828
  N  N350  1  0.246770  0.936400  0.779620  1.0  -0.3326
  N  N351  1  0.320190  0.076890  0.835580  1.0  -0.0995
  N  N352  1  0.388530  0.367780  0.921480  1.0  -0.3742
