# generated using pymatgen
data_AgH20(C3N2)6
_symmetry_space_group_name_H-M   'P 1'
_cell_length_a   11.93080000
_cell_length_b   18.92390000
_cell_length_c   22.41890000
_cell_angle_alpha   90.00000000
_cell_angle_beta   90.00000000
_cell_angle_gamma   90.00000000
_symmetry_Int_Tables_number   1
_chemical_formula_structural   AgH20(C3N2)6
_chemical_formula_sum   'Ag8 H160 C144 N96'
_cell_volume   5061.67795142
_cell_formula_units_Z   8
loop_
 _symmetry_equiv_pos_site_id
 _symmetry_equiv_pos_as_xyz
  1  'x, y, z'
loop_
 _atom_site_type_symbol
 _atom_site_label
 _atom_site_symmetry_multiplicity
 _atom_site_fract_x
 _atom_site_fract_y
 _atom_site_fract_z
 _atom_site_occupancy
 _atom_site_charge
  Ag  Ag1  1  0.279780  0.197570  0.698250  1.0  0.3429
  Ag  Ag2  1  0.779780  0.302430  0.301750  1.0  0.3445
  Ag  Ag3  1  0.779780  0.697570  0.801750  1.0  0.3442
  Ag  Ag4  1  0.279780  0.802430  0.198250  1.0  0.3432
  Ag  Ag5  1  0.220220  0.302430  0.198250  1.0  0.3432
  Ag  Ag6  1  0.720220  0.197570  0.801750  1.0  0.3441
  Ag  Ag7  1  0.720220  0.802430  0.301750  1.0  0.3445
  Ag  Ag8  1  0.220220  0.697570  0.698250  1.0  0.3429
  H  H9  1  0.535800  0.244100  0.657400  1.0  0.0808
  H  H10  1  0.465300  0.442100  0.669100  1.0  0.0727
  H  H11  1  0.859900  0.186500  0.639500  1.0  0.0767
  H  H12  1  0.078800  0.329800  0.680100  1.0  0.0769
  H  H13  1  0.967800  0.567200  0.627500  1.0  0.0735
  H  H14  1  0.714100  0.548700  0.732900  1.0  0.0792
  H  H15  1  0.753200  0.304300  0.452800  1.0  0.0853
  H  H16  1  0.835500  0.503500  0.464900  1.0  0.0838
  H  H17  1  0.735500  0.308900  0.699500  1.0  0.067
  H  H18  1  0.719300  0.267400  0.639300  1.0  0.0595
  H  H19  1  0.886400  0.402100  0.708500  1.0  0.0737
  H  H20  1  0.964000  0.418700  0.653600  1.0  0.0586
  H  H21  1  0.634900  0.477200  0.649700  1.0  0.0612
  H  H22  1  0.682100  0.437800  0.706100  1.0  0.0574
  H  H23  1  0.642700  0.330900  0.548300  1.0  0.0853
  H  H24  1  0.609600  0.411200  0.552600  1.0  0.0762
  H  H25  1  0.938500  0.351700  0.556100  1.0  0.0843
  H  H26  1  0.843000  0.294800  0.550200  1.0  0.0754
  H  H27  1  0.760300  0.503600  0.562900  1.0  0.0688
  H  H28  1  0.887200  0.481200  0.564300  1.0  0.0605
  H  H29  1  0.035800  0.255900  0.342600  1.0  0.081
  H  H30  1  0.965300  0.057900  0.330900  1.0  0.0748
  H  H31  1  0.359900  0.313500  0.360500  1.0  0.0766
  H  H32  1  0.578800  0.170200  0.319900  1.0  0.077
  H  H33  1  0.467800  0.932800  0.372500  1.0  0.0733
  H  H34  1  0.214100  0.951300  0.267100  1.0  0.0794
  H  H35  1  0.253200  0.195700  0.547200  1.0  0.0856
  H  H36  1  0.335500  0.996500  0.535100  1.0  0.0837
  H  H37  1  0.235500  0.191100  0.300500  1.0  0.0698
  H  H38  1  0.219300  0.232600  0.360700  1.0  0.0596
  H  H39  1  0.386400  0.097900  0.291500  1.0  0.0747
  H  H40  1  0.464000  0.081300  0.346400  1.0  0.0579
  H  H41  1  0.134900  0.022800  0.350300  1.0  0.0619
  H  H42  1  0.182100  0.062200  0.293900  1.0  0.0592
  H  H43  1  0.142700  0.169100  0.451700  1.0  0.0842
  H  H44  1  0.109600  0.088800  0.447400  1.0  0.0769
  H  H45  1  0.438500  0.148300  0.443900  1.0  0.0844
  H  H46  1  0.343000  0.205200  0.449800  1.0  0.0737
  H  H47  1  0.260300  0.996400  0.437100  1.0  0.0709
  H  H48  1  0.387200  0.018800  0.435700  1.0  0.0595
  H  H49  1  0.035800  0.744100  0.842600  1.0  0.0811
  H  H50  1  0.965300  0.942100  0.830900  1.0  0.0727
  H  H51  1  0.359900  0.686500  0.860500  1.0  0.0767
  H  H52  1  0.578800  0.829800  0.819900  1.0  0.0766
  H  H53  1  0.467800  0.067200  0.872500  1.0  0.0731
  H  H54  1  0.214100  0.048700  0.767100  1.0  0.0795
  H  H55  1  0.253200  0.804300  0.047200  1.0  0.0853
  H  H56  1  0.335500  0.003500  0.035100  1.0  0.0833
  H  H57  1  0.235500  0.808900  0.800500  1.0  0.0692
  H  H58  1  0.219300  0.767400  0.860700  1.0  0.0595
  H  H59  1  0.386400  0.902100  0.791500  1.0  0.0746
  H  H60  1  0.464000  0.918700  0.846400  1.0  0.0584
  H  H61  1  0.134900  0.977200  0.850300  1.0  0.0613
  H  H62  1  0.182100  0.937800  0.793900  1.0  0.0595
  H  H63  1  0.142700  0.830900  0.951700  1.0  0.0863
  H  H64  1  0.109600  0.911200  0.947400  1.0  0.0764
  H  H65  1  0.438500  0.851700  0.943900  1.0  0.0839
  H  H66  1  0.343000  0.794800  0.949800  1.0  0.077
  H  H67  1  0.260300  0.003600  0.937100  1.0  0.0687
  H  H68  1  0.387200  0.981200  0.935700  1.0  0.06
  H  H69  1  0.535800  0.755900  0.157400  1.0  0.0813
  H  H70  1  0.465300  0.557900  0.169100  1.0  0.0745
  H  H71  1  0.859900  0.813500  0.139500  1.0  0.0768
  H  H72  1  0.078800  0.670200  0.180100  1.0  0.077
  H  H73  1  0.967800  0.432800  0.127500  1.0  0.0733
  H  H74  1  0.714100  0.451300  0.232900  1.0  0.0794
  H  H75  1  0.753200  0.695700  0.952800  1.0  0.0861
  H  H76  1  0.835500  0.496500  0.964900  1.0  0.0837
  H  H77  1  0.735500  0.691100  0.199500  1.0  0.0669
  H  H78  1  0.719300  0.732600  0.139300  1.0  0.0602
  H  H79  1  0.886400  0.597900  0.208500  1.0  0.0745
  H  H80  1  0.964000  0.581300  0.153600  1.0  0.0586
  H  H81  1  0.634900  0.522800  0.149700  1.0  0.0613
  H  H82  1  0.682100  0.562200  0.206100  1.0  0.0578
  H  H83  1  0.642700  0.669100  0.048300  1.0  0.0855
  H  H84  1  0.609600  0.588800  0.052600  1.0  0.0764
  H  H85  1  0.938500  0.648300  0.056100  1.0  0.085
  H  H86  1  0.843000  0.705200  0.050200  1.0  0.0748
  H  H87  1  0.760300  0.496400  0.062900  1.0  0.0691
  H  H88  1  0.887200  0.518800  0.064300  1.0  0.059
  H  H89  1  0.964200  0.255900  0.157400  1.0  0.0815
  H  H90  1  0.034700  0.057900  0.169100  1.0  0.0733
  H  H91  1  0.640100  0.313500  0.139500  1.0  0.0766
  H  H92  1  0.421200  0.170200  0.180100  1.0  0.0762
  H  H93  1  0.532200  0.932800  0.127500  1.0  0.0732
  H  H94  1  0.785900  0.951300  0.232900  1.0  0.0793
  H  H95  1  0.746800  0.195700  0.952800  1.0  0.0858
  H  H96  1  0.664500  0.996500  0.964900  1.0  0.0837
  H  H97  1  0.764500  0.191100  0.199500  1.0  0.0671
  H  H98  1  0.780700  0.232600  0.139300  1.0  0.0595
  H  H99  1  0.613600  0.097900  0.208500  1.0  0.0747
  H  H100  1  0.536000  0.081300  0.153600  1.0  0.0574
  H  H101  1  0.865100  0.022800  0.149700  1.0  0.0608
  H  H102  1  0.817900  0.062200  0.206100  1.0  0.0583
  H  H103  1  0.857300  0.169100  0.048300  1.0  0.0849
  H  H104  1  0.890400  0.088800  0.052600  1.0  0.0757
  H  H105  1  0.561500  0.148300  0.056100  1.0  0.0824
  H  H106  1  0.657000  0.205200  0.050200  1.0  0.0747
  H  H107  1  0.739700  0.996400  0.062900  1.0  0.0692
  H  H108  1  0.612800  0.018800  0.064300  1.0  0.0577
  H  H109  1  0.464200  0.244100  0.842600  1.0  0.0811
  H  H110  1  0.534700  0.442100  0.830900  1.0  0.0715
  H  H111  1  0.140100  0.186500  0.860500  1.0  0.0769
  H  H112  1  0.921200  0.329800  0.819900  1.0  0.0768
  H  H113  1  0.032200  0.567200  0.872500  1.0  0.073
  H  H114  1  0.285900  0.548700  0.767100  1.0  0.0792
  H  H115  1  0.246800  0.304300  0.047200  1.0  0.0855
  H  H116  1  0.164500  0.503500  0.035100  1.0  0.0837
  H  H117  1  0.264500  0.308900  0.800500  1.0  0.0686
  H  H118  1  0.280700  0.267400  0.860700  1.0  0.0596
  H  H119  1  0.113600  0.402100  0.791500  1.0  0.0748
  H  H120  1  0.036000  0.418700  0.846400  1.0  0.057
  H  H121  1  0.365100  0.477200  0.850300  1.0  0.0595
  H  H122  1  0.317900  0.437800  0.793900  1.0  0.059
  H  H123  1  0.357300  0.330900  0.951700  1.0  0.0863
  H  H124  1  0.390400  0.411200  0.947400  1.0  0.0763
  H  H125  1  0.061500  0.351700  0.943900  1.0  0.0844
  H  H126  1  0.157000  0.294800  0.949800  1.0  0.0754
  H  H127  1  0.239700  0.503600  0.937100  1.0  0.0683
  H  H128  1  0.112800  0.481200  0.935700  1.0  0.0587
  H  H129  1  0.464200  0.755900  0.342600  1.0  0.081
  H  H130  1  0.534700  0.557900  0.330900  1.0  0.073
  H  H131  1  0.140100  0.813500  0.360500  1.0  0.0766
  H  H132  1  0.921200  0.670200  0.319900  1.0  0.0768
  H  H133  1  0.032200  0.432800  0.372500  1.0  0.0732
  H  H134  1  0.285900  0.451300  0.267100  1.0  0.0791
  H  H135  1  0.246800  0.695700  0.547200  1.0  0.0853
  H  H136  1  0.164500  0.496500  0.535100  1.0  0.0838
  H  H137  1  0.264500  0.691100  0.300500  1.0  0.0693
  H  H138  1  0.280700  0.732600  0.360700  1.0  0.0595
  H  H139  1  0.113600  0.597900  0.291500  1.0  0.0748
  H  H140  1  0.036000  0.581300  0.346400  1.0  0.0569
  H  H141  1  0.365100  0.522800  0.350300  1.0  0.0618
  H  H142  1  0.317900  0.562200  0.293900  1.0  0.0595
  H  H143  1  0.357300  0.669100  0.451700  1.0  0.0839
  H  H144  1  0.390400  0.588800  0.447400  1.0  0.0765
  H  H145  1  0.061500  0.648300  0.443900  1.0  0.0848
  H  H146  1  0.157000  0.705200  0.449800  1.0  0.0741
  H  H147  1  0.239700  0.496400  0.437100  1.0  0.0707
  H  H148  1  0.112800  0.518800  0.435700  1.0  0.0592
  H  H149  1  0.964200  0.744100  0.657400  1.0  0.081
  H  H150  1  0.034700  0.942100  0.669100  1.0  0.0722
  H  H151  1  0.640100  0.686500  0.639500  1.0  0.0765
  H  H152  1  0.421200  0.829800  0.680100  1.0  0.0764
  H  H153  1  0.532200  0.067200  0.627500  1.0  0.0736
  H  H154  1  0.785900  0.048700  0.732900  1.0  0.0789
  H  H155  1  0.746800  0.804300  0.452800  1.0  0.0856
  H  H156  1  0.664500  0.003500  0.464900  1.0  0.084
  H  H157  1  0.764500  0.808900  0.699500  1.0  0.0671
  H  H158  1  0.780700  0.767400  0.639300  1.0  0.0595
  H  H159  1  0.613600  0.902100  0.708500  1.0  0.0741
  H  H160  1  0.536000  0.918700  0.653600  1.0  0.0572
  H  H161  1  0.865100  0.977200  0.649700  1.0  0.0592
  H  H162  1  0.817900  0.937800  0.706100  1.0  0.0574
  H  H163  1  0.857300  0.830900  0.548300  1.0  0.0854
  H  H164  1  0.890400  0.911200  0.552600  1.0  0.0764
  H  H165  1  0.561500  0.851700  0.556100  1.0  0.0821
  H  H166  1  0.657000  0.794800  0.550200  1.0  0.074
  H  H167  1  0.739700  0.003600  0.562900  1.0  0.0682
  H  H168  1  0.612800  0.981200  0.564300  1.0  0.0578
  C  C169  1  0.497500  0.286500  0.662400  1.0  0.1275
  C  C170  1  0.459400  0.393100  0.668900  1.0  0.1404
  C  C171  1  0.925300  0.208500  0.652300  1.0  0.1596
  C  C172  1  0.043800  0.286400  0.674400  1.0  0.1419
  C  C173  1  0.913700  0.576000  0.656400  1.0  0.1579
  C  C174  1  0.777300  0.565800  0.713400  1.0  0.1186
  C  C175  1  0.773100  0.350400  0.443000  1.0  0.1219
  C  C176  1  0.817900  0.459200  0.449500  1.0  0.1223
  C  C177  1  0.657200  0.369800  0.634600  1.0  0.2534
  C  C178  1  0.739000  0.312800  0.656400  1.0  -0.253
  C  C179  1  0.856400  0.333900  0.637100  1.0  0.2286
  C  C180  1  0.888500  0.405700  0.665400  1.0  -0.2292
  C  C181  1  0.806600  0.460900  0.644500  1.0  0.2376
  C  C182  1  0.687000  0.441200  0.663000  1.0  -0.2565
  C  C183  1  0.662300  0.375800  0.566400  1.0  -0.2718
  C  C184  1  0.781700  0.396700  0.548700  1.0  0.2437
  C  C185  1  0.862900  0.339600  0.568300  1.0  -0.2496
  C  C186  1  0.812200  0.467500  0.576400  1.0  -0.267
  C  C187  1  0.997500  0.213500  0.337600  1.0  0.1298
  C  C188  1  0.959400  0.106900  0.331100  1.0  0.1417
  C  C189  1  0.425300  0.291500  0.347700  1.0  0.1614
  C  C190  1  0.543800  0.213600  0.325600  1.0  0.1416
  C  C191  1  0.413700  0.924000  0.343600  1.0  0.1574
  C  C192  1  0.277300  0.934200  0.286600  1.0  0.1202
  C  C193  1  0.273100  0.149600  0.557000  1.0  0.121
  C  C194  1  0.317900  0.040800  0.550500  1.0  0.1229
  C  C195  1  0.157200  0.130200  0.365400  1.0  0.2534
  C  C196  1  0.239000  0.187200  0.343600  1.0  -0.2538
  C  C197  1  0.356400  0.166100  0.362900  1.0  0.2294
  C  C198  1  0.388500  0.094300  0.334600  1.0  -0.2296
  C  C199  1  0.306600  0.039100  0.355500  1.0  0.236
  C  C200  1  0.187000  0.058800  0.337000  1.0  -0.2574
  C  C201  1  0.162300  0.124200  0.433600  1.0  -0.2716
  C  C202  1  0.281700  0.103300  0.451300  1.0  0.2483
  C  C203  1  0.362900  0.160400  0.431700  1.0  -0.2499
  C  C204  1  0.312200  0.032500  0.423600  1.0  -0.2647
  C  C205  1  0.997500  0.786500  0.837600  1.0  0.128
  C  C206  1  0.959400  0.893100  0.831100  1.0  0.1417
  C  C207  1  0.425300  0.708500  0.847700  1.0  0.1601
  C  C208  1  0.543800  0.786400  0.825600  1.0  0.1418
  C  C209  1  0.413700  0.076000  0.843600  1.0  0.1582
  C  C210  1  0.277300  0.065800  0.786600  1.0  0.1202
  C  C211  1  0.273100  0.850400  0.057000  1.0  0.1227
  C  C212  1  0.317900  0.959200  0.050500  1.0  0.1221
  C  C213  1  0.157200  0.869800  0.865400  1.0  0.2534
  C  C214  1  0.239000  0.812800  0.843600  1.0  -0.253
  C  C215  1  0.356400  0.833900  0.862900  1.0  0.2281
  C  C216  1  0.388500  0.905700  0.834600  1.0  -0.229
  C  C217  1  0.306600  0.960900  0.855500  1.0  0.2369
  C  C218  1  0.187000  0.941200  0.837000  1.0  -0.2564
  C  C219  1  0.162300  0.875800  0.933600  1.0  -0.2712
  C  C220  1  0.281700  0.896700  0.951300  1.0  0.2489
  C  C221  1  0.362900  0.839600  0.931700  1.0  -0.2494
  C  C222  1  0.312200  0.967500  0.923600  1.0  -0.2683
  C  C223  1  0.497500  0.713500  0.162400  1.0  0.1291
  C  C224  1  0.459400  0.606900  0.168900  1.0  0.1411
  C  C225  1  0.925300  0.791500  0.152300  1.0  0.1616
  C  C226  1  0.043800  0.713600  0.174400  1.0  0.142
  C  C227  1  0.913700  0.424000  0.156400  1.0  0.1573
  C  C228  1  0.777300  0.434200  0.213400  1.0  0.1192
  C  C229  1  0.773100  0.649600  0.943000  1.0  0.121
  C  C230  1  0.817900  0.540800  0.949500  1.0  0.1222
  C  C231  1  0.657200  0.630200  0.134600  1.0  0.2532
  C  C232  1  0.739000  0.687200  0.156400  1.0  -0.254
  C  C233  1  0.856400  0.666100  0.137100  1.0  0.2299
  C  C234  1  0.888500  0.594300  0.165400  1.0  -0.2295
  C  C235  1  0.806600  0.539100  0.144500  1.0  0.2369
  C  C236  1  0.687000  0.558800  0.163000  1.0  -0.2568
  C  C237  1  0.662300  0.624200  0.066400  1.0  -0.2722
  C  C238  1  0.781700  0.603300  0.048700  1.0  0.2434
  C  C239  1  0.862900  0.660400  0.068300  1.0  -0.2478
  C  C240  1  0.812200  0.532500  0.076400  1.0  -0.2644
  C  C241  1  0.002500  0.213500  0.162400  1.0  0.1284
  C  C242  1  0.040600  0.106900  0.168900  1.0  0.1427
  C  C243  1  0.574700  0.291500  0.152300  1.0  0.1626
  C  C244  1  0.456200  0.213600  0.174400  1.0  0.1419
  C  C245  1  0.586300  0.924000  0.156400  1.0  0.1583
  C  C246  1  0.722700  0.934200  0.213400  1.0  0.1196
  C  C247  1  0.726900  0.149600  0.943000  1.0  0.1216
  C  C248  1  0.682100  0.040800  0.949500  1.0  0.122
  C  C249  1  0.842800  0.130200  0.134600  1.0  0.2517
  C  C250  1  0.761000  0.187200  0.156400  1.0  -0.2529
  C  C251  1  0.643600  0.166100  0.137100  1.0  0.2303
  C  C252  1  0.611500  0.094300  0.165400  1.0  -0.2307
  C  C253  1  0.693400  0.039100  0.144500  1.0  0.2378
  C  C254  1  0.813000  0.058800  0.163000  1.0  -0.2571
  C  C255  1  0.837700  0.124200  0.066400  1.0  -0.2687
  C  C256  1  0.718300  0.103300  0.048700  1.0  0.2427
  C  C257  1  0.637100  0.160400  0.068300  1.0  -0.2503
  C  C258  1  0.687800  0.032500  0.076400  1.0  -0.2642
  C  C259  1  0.502500  0.286500  0.837600  1.0  0.1291
  C  C260  1  0.540600  0.393100  0.831100  1.0  0.1425
  C  C261  1  0.074700  0.208500  0.847700  1.0  0.1595
  C  C262  1  0.956200  0.286400  0.825600  1.0  0.1417
  C  C263  1  0.086300  0.576000  0.843600  1.0  0.1584
  C  C264  1  0.222700  0.565800  0.786600  1.0  0.1199
  C  C265  1  0.226900  0.350400  0.057000  1.0  0.1235
  C  C266  1  0.182100  0.459200  0.050500  1.0  0.1219
  C  C267  1  0.342800  0.369800  0.865400  1.0  0.2518
  C  C268  1  0.261000  0.312800  0.843600  1.0  -0.2531
  C  C269  1  0.143600  0.333900  0.862900  1.0  0.2285
  C  C270  1  0.111500  0.405700  0.834600  1.0  -0.2305
  C  C271  1  0.193400  0.460900  0.855500  1.0  0.2376
  C  C272  1  0.313000  0.441200  0.837000  1.0  -0.2555
  C  C273  1  0.337700  0.375800  0.933600  1.0  -0.269
  C  C274  1  0.218300  0.396700  0.951300  1.0  0.2486
  C  C275  1  0.137100  0.339600  0.931700  1.0  -0.2506
  C  C276  1  0.187800  0.467500  0.923600  1.0  -0.27
  C  C277  1  0.502500  0.713500  0.337600  1.0  0.1291
  C  C278  1  0.540600  0.606900  0.331100  1.0  0.1433
  C  C279  1  0.074700  0.791500  0.347700  1.0  0.1622
  C  C280  1  0.956200  0.713600  0.325600  1.0  0.1423
  C  C281  1  0.086300  0.424000  0.343600  1.0  0.1586
  C  C282  1  0.222700  0.434200  0.286600  1.0  0.1196
  C  C283  1  0.226900  0.649600  0.557000  1.0  0.1225
  C  C284  1  0.182100  0.540800  0.550500  1.0  0.1225
  C  C285  1  0.342800  0.630200  0.365400  1.0  0.2518
  C  C286  1  0.261000  0.687200  0.343600  1.0  -0.2531
  C  C287  1  0.143600  0.666100  0.362900  1.0  0.2295
  C  C288  1  0.111500  0.594300  0.334600  1.0  -0.2305
  C  C289  1  0.193400  0.539100  0.355500  1.0  0.2369
  C  C290  1  0.313000  0.558800  0.337000  1.0  -0.2575
  C  C291  1  0.337700  0.624200  0.433600  1.0  -0.2686
  C  C292  1  0.218300  0.603300  0.451300  1.0  0.2479
  C  C293  1  0.137100  0.660400  0.431700  1.0  -0.2517
  C  C294  1  0.187800  0.532500  0.423600  1.0  -0.2654
  C  C295  1  0.002500  0.786500  0.662400  1.0  0.1282
  C  C296  1  0.040600  0.893100  0.668900  1.0  0.1421
  C  C297  1  0.574700  0.708500  0.652300  1.0  0.1592
  C  C298  1  0.456200  0.786400  0.674400  1.0  0.1415
  C  C299  1  0.586300  0.076000  0.656400  1.0  0.1581
  C  C300  1  0.722700  0.065800  0.713400  1.0  0.1194
  C  C301  1  0.726900  0.850400  0.443000  1.0  0.1222
  C  C302  1  0.682100  0.959200  0.449500  1.0  0.1222
  C  C303  1  0.842800  0.869800  0.634600  1.0  0.2519
  C  C304  1  0.761000  0.812800  0.656400  1.0  -0.2525
  C  C305  1  0.643600  0.833900  0.637100  1.0  0.2292
  C  C306  1  0.611500  0.905700  0.665400  1.0  -0.231
  C  C307  1  0.693400  0.960900  0.644500  1.0  0.2384
  C  C308  1  0.813000  0.941200  0.663000  1.0  -0.2556
  C  C309  1  0.837700  0.875800  0.566400  1.0  -0.269
  C  C310  1  0.718300  0.896700  0.548700  1.0  0.2431
  C  C311  1  0.637100  0.839600  0.568300  1.0  -0.2506
  C  C312  1  0.687800  0.967500  0.576400  1.0  -0.2674
  N  N313  1  0.393400  0.291400  0.678400  1.0  -0.2383
  N  N314  1  0.369400  0.360100  0.683400  1.0  -0.2842
  N  N315  1  0.542900  0.350700  0.653780  1.0  -0.0739
  N  N316  1  0.014800  0.174600  0.668100  1.0  -0.3026
  N  N317  1  0.091700  0.226700  0.683000  1.0  -0.2266
  N  N318  1  0.937400  0.279100  0.656300  1.0  -0.0713
  N  N319  1  0.908800  0.633500  0.687100  1.0  -0.2744
  N  N320  1  0.822400  0.626400  0.724300  1.0  -0.2405
  N  N321  1  0.832500  0.530500  0.670670  1.0  -0.0349
  N  N322  1  0.789500  0.373000  0.388700  1.0  -0.2393
  N  N323  1  0.818000  0.443300  0.392600  1.0  -0.2881
  N  N324  1  0.788700  0.402500  0.482740  1.0  -0.0595
  N  N325  1  0.893400  0.208600  0.321600  1.0  -0.2364
  N  N326  1  0.869400  0.139900  0.316600  1.0  -0.2843
  N  N327  1  0.042900  0.149300  0.346220  1.0  -0.0729
  N  N328  1  0.514800  0.325400  0.331900  1.0  -0.3031
  N  N329  1  0.591700  0.273300  0.317000  1.0  -0.2255
  N  N330  1  0.437400  0.220900  0.343700  1.0  -0.071
  N  N331  1  0.408800  0.866500  0.312900  1.0  -0.2741
  N  N332  1  0.322400  0.873600  0.275700  1.0  -0.2425
  N  N333  1  0.332500  0.969500  0.329330  1.0  -0.034
  N  N334  1  0.289500  0.127000  0.611300  1.0  -0.2383
  N  N335  1  0.318000  0.056700  0.607400  1.0  -0.2872
  N  N336  1  0.288700  0.097500  0.517260  1.0  -0.0593
  N  N337  1  0.893400  0.791400  0.821600  1.0  -0.2383
  N  N338  1  0.869400  0.860100  0.816600  1.0  -0.2841
  N  N339  1  0.042900  0.850700  0.846220  1.0  -0.0734
  N  N340  1  0.514800  0.674600  0.831900  1.0  -0.3023
  N  N341  1  0.591700  0.726700  0.817000  1.0  -0.2249
  N  N342  1  0.437400  0.779100  0.843700  1.0  -0.0709
  N  N343  1  0.408800  0.133500  0.812900  1.0  -0.2747
  N  N344  1  0.322400  0.126400  0.775700  1.0  -0.2412
  N  N345  1  0.332500  0.030500  0.829330  1.0  -0.0342
  N  N346  1  0.289500  0.873000  0.111300  1.0  -0.2372
  N  N347  1  0.318000  0.943300  0.107400  1.0  -0.2879
  N  N348  1  0.288700  0.902500  0.017260  1.0  -0.0594
  N  N349  1  0.393400  0.708600  0.178400  1.0  -0.2365
  N  N350  1  0.369400  0.639900  0.183400  1.0  -0.2852
  N  N351  1  0.542900  0.649300  0.153780  1.0  -0.0735
  N  N352  1  0.014800  0.825400  0.168100  1.0  -0.3033
  N  N353  1  0.091700  0.773300  0.183000  1.0  -0.2268
  N  N354  1  0.937400  0.720900  0.156300  1.0  -0.0713
  N  N355  1  0.908800  0.366500  0.187100  1.0  -0.2737
  N  N356  1  0.822400  0.373600  0.224300  1.0  -0.2417
  N  N357  1  0.832500  0.469500  0.170670  1.0  -0.0343
  N  N358  1  0.789500  0.627000  0.888700  1.0  -0.2385
  N  N359  1  0.818000  0.556700  0.892600  1.0  -0.2871
  N  N360  1  0.788700  0.597500  0.982740  1.0  -0.0595
  N  N361  1  0.106600  0.208600  0.178400  1.0  -0.2401
  N  N362  1  0.130600  0.139900  0.183400  1.0  -0.2857
  N  N363  1  0.957100  0.149300  0.153780  1.0  -0.0716
  N  N364  1  0.485200  0.325400  0.168100  1.0  -0.3048
  N  N365  1  0.408300  0.273300  0.183000  1.0  -0.2267
  N  N366  1  0.562600  0.220900  0.156300  1.0  -0.0717
  N  N367  1  0.591200  0.866500  0.187100  1.0  -0.2744
  N  N368  1  0.677600  0.873600  0.224300  1.0  -0.2422
  N  N369  1  0.667500  0.969500  0.170670  1.0  -0.0345
  N  N370  1  0.710500  0.127000  0.888700  1.0  -0.2431
  N  N371  1  0.682000  0.056700  0.892600  1.0  -0.2886
  N  N372  1  0.711300  0.097500  0.982740  1.0  -0.0603
  N  N373  1  0.606600  0.291400  0.821600  1.0  -0.2387
  N  N374  1  0.630600  0.360100  0.816600  1.0  -0.2839
  N  N375  1  0.457100  0.350700  0.846220  1.0  -0.0714
  N  N376  1  0.985200  0.174600  0.831900  1.0  -0.3037
  N  N377  1  0.908300  0.226700  0.817000  1.0  -0.2259
  N  N378  1  0.062600  0.279100  0.843700  1.0  -0.0718
  N  N379  1  0.091200  0.633500  0.812900  1.0  -0.2741
  N  N380  1  0.177600  0.626400  0.775700  1.0  -0.2416
  N  N381  1  0.167500  0.530500  0.829330  1.0  -0.034
  N  N382  1  0.210500  0.373000  0.111300  1.0  -0.2408
  N  N383  1  0.182000  0.443300  0.107400  1.0  -0.2876
  N  N384  1  0.211300  0.402500  0.017260  1.0  -0.0588
  N  N385  1  0.606600  0.708600  0.321600  1.0  -0.2405
  N  N386  1  0.630600  0.639900  0.316600  1.0  -0.2836
  N  N387  1  0.457100  0.649300  0.346220  1.0  -0.0706
  N  N388  1  0.985200  0.825400  0.331900  1.0  -0.3046
  N  N389  1  0.908300  0.773300  0.317000  1.0  -0.2247
  N  N390  1  0.062600  0.720900  0.343700  1.0  -0.0717
  N  N391  1  0.091200  0.366500  0.312900  1.0  -0.2744
  N  N392  1  0.177600  0.373600  0.275700  1.0  -0.2425
  N  N393  1  0.167500  0.469500  0.329330  1.0  -0.0343
  N  N394  1  0.210500  0.627000  0.611300  1.0  -0.2417
  N  N395  1  0.182000  0.556700  0.607400  1.0  -0.2871
  N  N396  1  0.211300  0.597500  0.517260  1.0  -0.0588
  N  N397  1  0.106600  0.791400  0.678400  1.0  -0.2385
  N  N398  1  0.130600  0.860100  0.683400  1.0  -0.2848
  N  N399  1  0.957100  0.850700  0.653780  1.0  -0.0723
  N  N400  1  0.485200  0.674600  0.668100  1.0  -0.3039
  N  N401  1  0.408300  0.726700  0.683000  1.0  -0.2282
  N  N402  1  0.562600  0.779100  0.656300  1.0  -0.0719
  N  N403  1  0.591200  0.133500  0.687100  1.0  -0.2742
  N  N404  1  0.677600  0.126400  0.724300  1.0  -0.2413
  N  N405  1  0.667500  0.030500  0.670670  1.0  -0.0347
  N  N406  1  0.710500  0.873000  0.388700  1.0  -0.244
  N  N407  1  0.682000  0.943300  0.392600  1.0  -0.2894
  N  N408  1  0.711300  0.902500  0.482740  1.0  -0.0605
