# generated using pymatgen
data_Cd3H40C36(N4Cl)6
_symmetry_space_group_name_H-M   'P 1'
_cell_length_a   8.78090000
_cell_length_b   28.23330000
_cell_length_c   11.38330000
_cell_angle_alpha   90.00000000
_cell_angle_beta   90.00000000
_cell_angle_gamma   90.00000000
_symmetry_Int_Tables_number   1
_chemical_formula_structural   Cd3H40C36(N4Cl)6
_chemical_formula_sum   'Cd6 H80 C72 N48 Cl12'
_cell_volume   2822.07697707
_cell_formula_units_Z   2
loop_
 _symmetry_equiv_pos_site_id
 _symmetry_equiv_pos_as_xyz
  1  'x, y, z'
loop_
 _atom_site_type_symbol
 _atom_site_label
 _atom_site_symmetry_multiplicity
 _atom_site_fract_x
 _atom_site_fract_y
 _atom_site_fract_z
 _atom_site_occupancy
 _atom_site_charge
  Cd  Cd1  1  0.683360  0.383280  0.500280  1.0  0.8837
  Cd  Cd2  1  0.316560  0.616730  0.499580  1.0  0.8861
  Cd  Cd3  1  0.183450  0.116750  0.999370  1.0  0.8842
  Cd  Cd4  1  0.816640  0.883280  0.999370  1.0  0.8829
  Cd  Cd5  1  0.500040  0.500000  0.499950  1.0  0.6977
  Cd  Cd6  1  0.000390  0.000040  0.999330  1.0  0.7003
  H  H7  1  0.518610  0.344380  0.253900  1.0  0.1261
  H  H8  1  0.290210  0.475130  0.257940  1.0  0.1267
  H  H9  1  0.833930  0.439740  0.184310  1.0  0.1222
  H  H10  1  0.181220  0.325450  0.192240  1.0  0.1372
  H  H11  1  0.352730  0.314080  0.111930  1.0  0.1153
  H  H12  1  0.149940  0.455680  0.107610  1.0  0.1149
  H  H13  1  0.067470  0.408660  0.191200  1.0  0.1341
  H  H14  1  0.932260  0.342460  0.079520  1.0  0.1175
  H  H15  1  0.482130  0.655590  0.253920  1.0  0.1268
  H  H16  1  0.711780  0.525050  0.258780  1.0  0.1263
  H  H17  1  0.166400  0.560240  0.183470  1.0  0.1216
  H  H18  1  0.819740  0.674640  0.191890  1.0  0.1361
  H  H19  1  0.647820  0.685940  0.112050  1.0  0.1139
  H  H20  1  0.850500  0.544350  0.107350  1.0  0.115
  H  H21  1  0.933450  0.591370  0.190670  1.0  0.1294
  H  H22  1  0.068010  0.657550  0.078560  1.0  0.1189
  H  H23  1  0.018750  0.155500  0.245780  1.0  0.1272
  H  H24  1  0.789630  0.024870  0.241170  1.0  0.1266
  H  H25  1  0.333710  0.060140  0.315710  1.0  0.1224
  H  H26  1  0.681010  0.174480  0.307140  1.0  0.1374
  H  H27  1  0.852640  0.185880  0.387270  1.0  0.1145
  H  H28  1  0.649910  0.044280  0.392120  1.0  0.1141
  H  H29  1  0.567260  0.091230  0.308470  1.0  0.1353
  H  H30  1  0.432260  0.157530  0.420080  1.0  0.1186
  H  H31  1  0.980970  0.844570  0.245880  1.0  0.1259
  H  H32  1  0.210730  0.975090  0.240950  1.0  0.1261
  H  H33  1  0.666230  0.939880  0.315720  1.0  0.1217
  H  H34  1  0.318890  0.825580  0.306970  1.0  0.1356
  H  H35  1  0.147300  0.814140  0.387120  1.0  0.1167
  H  H36  1  0.349960  0.955750  0.392210  1.0  0.1122
  H  H37  1  0.432630  0.908820  0.308450  1.0  0.1355
  H  H38  1  0.567700  0.842500  0.419920  1.0  0.1166
  H  H39  1  0.481310  0.655590  0.746080  1.0  0.1269
  H  H40  1  0.709720  0.524840  0.742000  1.0  0.1263
  H  H41  1  0.166120  0.560270  0.815680  1.0  0.1214
  H  H42  1  0.818670  0.674480  0.807570  1.0  0.1368
  H  H43  1  0.647190  0.685880  0.887900  1.0  0.1151
  H  H44  1  0.850030  0.544290  0.892400  1.0  0.1135
  H  H45  1  0.932470  0.591290  0.808740  1.0  0.132
  H  H46  1  0.067710  0.657520  0.920320  1.0  0.1173
  H  H47  1  0.517870  0.344430  0.746050  1.0  0.1265
  H  H48  1  0.288290  0.474980  0.741190  1.0  0.1256
  H  H49  1  0.833530  0.439760  0.816520  1.0  0.1223
  H  H50  1  0.180280  0.325420  0.807910  1.0  0.1346
  H  H51  1  0.352150  0.314090  0.887790  1.0  0.1145
  H  H52  1  0.149520  0.455680  0.892670  1.0  0.1136
  H  H53  1  0.066570  0.408680  0.809270  1.0  0.1344
  H  H54  1  0.931920  0.342480  0.921290  1.0  0.1178
  H  H55  1  0.982430  0.844220  0.753850  1.0  0.1257
  H  H56  1  0.210930  0.974960  0.757780  1.0  0.1262
  H  H57  1  0.666000  0.939640  0.683500  1.0  0.1218
  H  H58  1  0.319340  0.825270  0.691290  1.0  0.1352
  H  H59  1  0.147530  0.814010  0.611250  1.0  0.1148
  H  H60  1  0.350350  0.955580  0.607100  1.0  0.1169
  H  H61  1  0.433100  0.908500  0.690360  1.0  0.1296
  H  H62  1  0.567850  0.842410  0.578160  1.0  0.1165
  H  H63  1  0.017430  0.155770  0.753860  1.0  0.1265
  H  H64  1  0.789480  0.024940  0.757610  1.0  0.1268
  H  H65  1  0.333880  0.060360  0.683500  1.0  0.122
  H  H66  1  0.680690  0.174660  0.691460  1.0  0.1371
  H  H67  1  0.852450  0.185950  0.611400  1.0  0.1143
  H  H68  1  0.649590  0.044390  0.607090  1.0  0.1174
  H  H69  1  0.566890  0.091460  0.690410  1.0  0.1333
  H  H70  1  0.432100  0.157570  0.578320  1.0  0.1181
  H  H71  1  0.326370  0.232150  0.999770  1.0  0.1319
  H  H72  1  0.863700  0.269050  0.999990  1.0  0.122
  H  H73  1  0.484130  0.381830  0.999540  1.0  0.1241
  H  H74  1  0.400790  0.439910  0.999650  1.0  0.135
  H  H75  1  0.673500  0.767850  0.999350  1.0  0.1309
  H  H76  1  0.136180  0.730960  0.999670  1.0  0.1201
  H  H77  1  0.515840  0.618150  0.000450  1.0  0.1226
  H  H78  1  0.599190  0.560090  0.000410  1.0  0.1377
  H  H79  1  0.826570  0.267850  0.499520  1.0  0.1292
  H  H80  1  0.363870  0.230970  0.499760  1.0  0.1222
  H  H81  1  0.984180  0.118160  0.499680  1.0  0.1221
  H  H82  1  0.900850  0.060090  0.499780  1.0  0.1398
  H  H83  1  0.173450  0.732130  0.499010  1.0  0.1329
  H  H84  1  0.636120  0.769040  0.499200  1.0  0.1201
  H  H85  1  0.015750  0.881820  0.499690  1.0  0.1234
  H  H86  1  0.099070  0.939900  0.499870  1.0  0.1372
  C  C87  1  0.480780  0.379780  0.275430  1.0  0.0687
  C  C88  1  0.364490  0.445790  0.277730  1.0  0.087
  C  C89  1  0.804490  0.444960  0.093250  1.0  0.0673
  C  C90  1  0.245510  0.335000  0.111440  1.0  -0.3609
  C  C91  1  0.282790  0.389480  0.112080  1.0  0.3431
  C  C92  1  0.130010  0.416960  0.109470  1.0  -0.3718
  C  C93  1  0.520470  0.620280  0.275780  1.0  0.0711
  C  C94  1  0.637380  0.554380  0.278510  1.0  0.0911
  C  C95  1  0.195660  0.555030  0.092360  1.0  0.0738
  C  C96  1  0.755070  0.665040  0.111310  1.0  -0.3629
  C  C97  1  0.717900  0.610570  0.112230  1.0  0.3436
  C  C98  1  0.870530  0.583070  0.109130  1.0  -0.3573
  C  C99  1  0.980710  0.120130  0.224080  1.0  0.0732
  C  C100  1  0.864080  0.054190  0.221490  1.0  0.0922
  C  C101  1  0.304400  0.054990  0.406820  1.0  0.0726
  C  C102  1  0.745410  0.164960  0.387910  1.0  -0.3644
  C  C103  1  0.782670  0.110480  0.387340  1.0  0.3359
  C  C104  1  0.629920  0.082990  0.390170  1.0  -0.3671
  C  C105  1  0.019190  0.879910  0.224110  1.0  0.0718
  C  C106  1  0.136160  0.945790  0.221340  1.0  0.0868
  C  C107  1  0.695540  0.945020  0.406830  1.0  0.0675
  C  C108  1  0.254530  0.835060  0.387780  1.0  -0.3629
  C  C109  1  0.217260  0.889530  0.387330  1.0  0.3285
  C  C110  1  0.369990  0.917040  0.390180  1.0  -0.3547
  C  C111  1  0.519140  0.620190  0.724540  1.0  0.0704
  C  C112  1  0.635420  0.554180  0.722220  1.0  0.0912
  C  C113  1  0.195530  0.555050  0.906750  1.0  0.0734
  C  C114  1  0.754410  0.664960  0.888410  1.0  -0.3685
  C  C115  1  0.717150  0.610490  0.887870  1.0  0.3396
  C  C116  1  0.869940  0.583010  0.890490  1.0  -0.3697
  C  C117  1  0.479540  0.379740  0.724180  1.0  0.071
  C  C118  1  0.362670  0.445650  0.721450  1.0  0.087
  C  C119  1  0.804290  0.444970  0.907630  1.0  0.0686
  C  C120  1  0.244900  0.334990  0.888530  1.0  -0.3593
  C  C121  1  0.282110  0.389460  0.887720  1.0  0.3416
  C  C122  1  0.129470  0.416960  0.890830  1.0  -0.3604
  C  C123  1  0.020460  0.879600  0.775460  1.0  0.0698
  C  C124  1  0.136840  0.945590  0.777740  1.0  0.0901
  C  C125  1  0.695410  0.944910  0.592440  1.0  0.0666
  C  C126  1  0.254800  0.834910  0.610680  1.0  -0.3585
  C  C127  1  0.217640  0.889370  0.611680  1.0  0.3396
  C  C128  1  0.370310  0.916860  0.608790  1.0  -0.3633
  C  C129  1  0.979630  0.120370  0.775380  1.0  0.0704
  C  C130  1  0.863560  0.054320  0.777550  1.0  0.0891
  C  C131  1  0.304500  0.055090  0.592430  1.0  0.071
  C  C132  1  0.745190  0.165050  0.610810  1.0  -0.3606
  C  C133  1  0.782350  0.110580  0.611690  1.0  0.3311
  C  C134  1  0.629660  0.083110  0.608820  1.0  -0.3562
  C  C135  1  0.203220  0.230870  0.999960  1.0  0.0768
  C  C136  1  0.970070  0.249820  0.000020  1.0  0.0964
  C  C137  1  0.150470  0.321240  0.000110  1.0  0.3032
  C  C138  1  0.034320  0.404420  0.000270  1.0  0.3335
  C  C139  1  0.001210  0.351130  0.000320  1.0  -0.3591
  C  C140  1  0.374310  0.401550  0.999720  1.0  -0.3863
  C  C141  1  0.796650  0.769140  0.999520  1.0  0.0786
  C  C142  1  0.029800  0.750190  0.999630  1.0  0.1032
  C  C143  1  0.849460  0.678760  0.999680  1.0  0.3027
  C  C144  1  0.965660  0.595580  0.999660  1.0  0.3333
  C  C145  1  0.998740  0.648880  0.999520  1.0  -0.3577
  C  C146  1  0.625660  0.598440  0.000270  1.0  -0.3931
  C  C147  1  0.703420  0.269140  0.499450  1.0  0.0805
  C  C148  1  0.470250  0.250200  0.499610  1.0  0.0966
  C  C149  1  0.650590  0.178760  0.499300  1.0  0.2978
  C  C150  1  0.534370  0.095590  0.499420  1.0  0.3331
  C  C151  1  0.501300  0.148890  0.499260  1.0  -0.3594
  C  C152  1  0.874370  0.098440  0.499630  1.0  -0.3712
  C  C153  1  0.296600  0.730850  0.499220  1.0  0.0746
  C  C154  1  0.529750  0.749810  0.499230  1.0  0.103
  C  C155  1  0.349380  0.821230  0.499110  1.0  0.2956
  C  C156  1  0.465570  0.904400  0.499380  1.0  0.3285
  C  C157  1  0.498660  0.851110  0.499110  1.0  -0.3585
  C  C158  1  0.125560  0.901540  0.499660  1.0  -0.3785
  N  N159  1  0.534250  0.405020  0.367000  1.0  -0.1631
  N  N160  1  0.461990  0.446280  0.368780  1.0  -0.1541
  N  N161  1  0.371420  0.404100  0.217560  1.0  0.008
  N  N162  1  0.676430  0.466920  0.058620  1.0  -0.2531
  N  N163  1  0.467090  0.595060  0.367370  1.0  -0.1635
  N  N164  1  0.539670  0.553860  0.369430  1.0  -0.1566
  N  N165  1  0.630050  0.596010  0.218110  1.0  0.0053
  N  N166  1  0.323640  0.533070  0.057600  1.0  -0.2512
  N  N167  1  0.034120  0.094930  0.132450  1.0  -0.1621
  N  N168  1  0.961720  0.053700  0.130510  1.0  -0.1482
  N  N169  1  0.871170  0.095840  0.281800  1.0  0.0052
  N  N170  1  0.176430  0.033030  0.441650  1.0  -0.2589
  N  N171  1  0.965970  0.905090  0.132370  1.0  -0.1628
  N  N172  1  0.038590  0.946280  0.130320  1.0  -0.1499
  N  N173  1  0.128780  0.904180  0.281800  1.0  0.0054
  N  N174  1  0.823520  0.966970  0.441680  1.0  -0.2575
  N  N175  1  0.465710  0.594970  0.632920  1.0  -0.1644
  N  N176  1  0.537970  0.553710  0.631140  1.0  -0.155
  N  N177  1  0.628460  0.595860  0.782420  1.0  0.0032
  N  N178  1  0.323570  0.533080  0.941390  1.0  -0.2587
  N  N179  1  0.532880  0.404950  0.632550  1.0  -0.1623
  N  N180  1  0.460350  0.446150  0.630500  1.0  -0.1544
  N  N181  1  0.370000  0.404030  0.781870  1.0  0.0042
  N  N182  1  0.676320  0.466930  0.942420  1.0  -0.2553
  N  N183  1  0.967070  0.904850  0.867010  1.0  -0.1619
  N  N184  1  0.039430  0.946090  0.868830  1.0  -0.1462
  N  N185  1  0.129700  0.903920  0.717530  1.0  0.0067
  N  N186  1  0.823430  0.966890  0.557890  1.0  -0.253
  N  N187  1  0.033230  0.095110  0.866840  1.0  -0.161
  N  N188  1  0.961110  0.053830  0.868570  1.0  -0.1625
  N  N189  1  0.870430  0.096020  0.717450  1.0  0.0067
  N  N190  1  0.176490  0.033100  0.557860  1.0  -0.26
  N  N191  1  0.120590  0.190160  0.999910  1.0  -0.1359
  N  N192  1  0.975440  0.202280  0.999900  1.0  -0.2874
  N  N193  1  0.111090  0.269570  0.000100  1.0  -0.0153
  N  N194  1  0.889100  0.431070  0.000390  1.0  -0.0021
  N  N195  1  0.879280  0.809850  0.999660  1.0  -0.1366
  N  N196  1  0.024430  0.797720  0.999690  1.0  -0.2835
  N  N197  1  0.888800  0.730430  0.999550  1.0  -0.0133
  N  N198  1  0.110890  0.568940  0.999590  1.0  -0.0034
  N  N199  1  0.620800  0.309850  0.499710  1.0  -0.136
  N  N200  1  0.475650  0.297730  0.499870  1.0  -0.2924
  N  N201  1  0.611250  0.230440  0.499300  1.0  -0.0234
  N  N202  1  0.389140  0.068950  0.499540  1.0  -0.0015
  N  N203  1  0.379250  0.690140  0.499670  1.0  -0.1397
  N  N204  1  0.524390  0.702270  0.499620  1.0  -0.2907
  N  N205  1  0.388740  0.769560  0.499000  1.0  -0.0241
  N  N206  1  0.610780  0.931050  0.499530  1.0  -0.0032
  Cl  Cl207  1  0.889040  0.371310  0.365990  1.0  -0.691
  Cl  Cl208  1  0.245010  0.532500  0.499010  1.0  -0.5278
  Cl  Cl209  1  0.112560  0.629120  0.364080  1.0  -0.6874
  Cl  Cl210  1  0.388190  0.128760  0.134420  1.0  -0.6905
  Cl  Cl211  1  0.612040  0.871340  0.134580  1.0  -0.6905
  Cl  Cl212  1  0.111130  0.628780  0.634050  1.0  -0.6888
  Cl  Cl213  1  0.755130  0.467490  0.500970  1.0  -0.5254
  Cl  Cl214  1  0.887160  0.370790  0.635970  1.0  -0.6855
  Cl  Cl215  1  0.745360  0.967540  0.998290  1.0  -0.5274
  Cl  Cl216  1  0.611850  0.870910  0.864520  1.0  -0.6888
  Cl  Cl217  1  0.255380  0.032560  0.998540  1.0  -0.5248
  Cl  Cl218  1  0.388080  0.129280  0.864410  1.0  -0.687
