# generated using pymatgen
data_CuH20(C3N2)6
_symmetry_space_group_name_H-M   'P 1'
_cell_length_a   17.16230000
_cell_length_b   13.15600000
_cell_length_c   12.86310000
_cell_angle_alpha   90.00000000
_cell_angle_beta   90.00000000
_cell_angle_gamma   90.00000000
_symmetry_Int_Tables_number   1
_chemical_formula_structural   CuH20(C3N2)6
_chemical_formula_sum   'Cu4 H80 C72 N48'
_cell_volume   2904.32357415
_cell_formula_units_Z   4
loop_
 _symmetry_equiv_pos_site_id
 _symmetry_equiv_pos_as_xyz
  1  'x, y, z'
loop_
 _atom_site_type_symbol
 _atom_site_label
 _atom_site_symmetry_multiplicity
 _atom_site_fract_x
 _atom_site_fract_y
 _atom_site_fract_z
 _atom_site_occupancy
 _atom_site_charge
  Cu  Cu1  1  0.066160  0.750000  0.836150  1.0  0.6416
  Cu  Cu2  1  0.433840  0.250000  0.336150  1.0  0.6407
  Cu  Cu3  1  0.933840  0.250000  0.163850  1.0  0.6406
  Cu  Cu4  1  0.566160  0.750000  0.663850  1.0  0.6413
  H  H5  1  0.110000  0.554100  0.689800  1.0  0.0817
  H  H6  1  0.044200  0.390100  0.927500  1.0  0.0786
  H  H7  1  0.987600  0.345800  0.656400  1.0  0.0792
  H  H8  1  0.049300  0.406900  0.588700  1.0  0.0801
  H  H9  1  0.149100  0.310400  0.481700  1.0  0.0644
  H  H10  1  0.192600  0.406900  0.641200  1.0  0.0753
  H  H11  1  0.219800  0.347500  0.742500  1.0  0.0746
  H  H12  1  0.390000  0.445900  0.189800  1.0  0.0818
  H  H13  1  0.455800  0.609900  0.427500  1.0  0.0777
  H  H14  1  0.512400  0.654200  0.156400  1.0  0.0769
  H  H15  1  0.450700  0.593100  0.088700  1.0  0.0779
  H  H16  1  0.350900  0.689600  0.981700  1.0  0.0638
  H  H17  1  0.307400  0.593100  0.141200  1.0  0.0735
  H  H18  1  0.280200  0.652500  0.242500  1.0  0.0755
  H  H19  1  0.890000  0.054100  0.310200  1.0  0.0812
  H  H20  1  0.955800  0.890100  0.072500  1.0  0.079
  H  H21  1  0.012400  0.845800  0.343600  1.0  0.0762
  H  H22  1  0.950700  0.906900  0.411300  1.0  0.0779
  H  H23  1  0.850900  0.810400  0.518300  1.0  0.0651
  H  H24  1  0.807400  0.906900  0.358800  1.0  0.075
  H  H25  1  0.780200  0.847500  0.257500  1.0  0.0757
  H  H26  1  0.610000  0.945900  0.810200  1.0  0.0812
  H  H27  1  0.544200  0.109900  0.572500  1.0  0.0778
  H  H28  1  0.487600  0.154200  0.843600  1.0  0.0794
  H  H29  1  0.549300  0.093100  0.911300  1.0  0.0798
  H  H30  1  0.649100  0.189600  0.018300  1.0  0.0672
  H  H31  1  0.692600  0.093100  0.858800  1.0  0.0743
  H  H32  1  0.719800  0.152500  0.757500  1.0  0.0755
  H  H33  1  0.890000  0.445900  0.310200  1.0  0.0817
  H  H34  1  0.955800  0.609900  0.072500  1.0  0.0779
  H  H35  1  0.012400  0.654200  0.343600  1.0  0.0766
  H  H36  1  0.950700  0.593100  0.411300  1.0  0.0795
  H  H37  1  0.850900  0.689600  0.518300  1.0  0.0677
  H  H38  1  0.807400  0.593100  0.358800  1.0  0.0746
  H  H39  1  0.780200  0.652500  0.257500  1.0  0.0763
  H  H40  1  0.610000  0.554100  0.810200  1.0  0.0807
  H  H41  1  0.544200  0.390100  0.572500  1.0  0.0787
  H  H42  1  0.487600  0.345800  0.843600  1.0  0.0793
  H  H43  1  0.549300  0.406900  0.911300  1.0  0.0784
  H  H44  1  0.649100  0.310400  0.018300  1.0  0.0641
  H  H45  1  0.692600  0.406900  0.858800  1.0  0.0742
  H  H46  1  0.719800  0.347500  0.757500  1.0  0.0752
  H  H47  1  0.110000  0.945900  0.689800  1.0  0.0816
  H  H48  1  0.044200  0.109900  0.927500  1.0  0.0777
  H  H49  1  0.987600  0.154200  0.656400  1.0  0.0796
  H  H50  1  0.049300  0.093100  0.588700  1.0  0.0786
  H  H51  1  0.149100  0.189600  0.481700  1.0  0.0637
  H  H52  1  0.192600  0.093100  0.641200  1.0  0.074
  H  H53  1  0.219800  0.152500  0.742500  1.0  0.0757
  H  H54  1  0.390000  0.054100  0.189800  1.0  0.0819
  H  H55  1  0.455800  0.890100  0.427500  1.0  0.0787
  H  H56  1  0.512400  0.845800  0.156400  1.0  0.0764
  H  H57  1  0.450700  0.906900  0.088700  1.0  0.0788
  H  H58  1  0.350900  0.810400  0.981700  1.0  0.0641
  H  H59  1  0.307400  0.906900  0.141200  1.0  0.0759
  H  H60  1  0.280200  0.847500  0.242500  1.0  0.074
  H  H61  1  0.072500  0.250000  0.344700  1.0  0.089
  H  H62  1  0.892900  0.250000  0.535200  1.0  0.0665
  H  H63  1  0.267900  0.250000  0.419700  1.0  0.0793
  H  H64  1  0.345800  0.250000  0.705800  1.0  0.082
  H  H65  1  0.122000  0.250000  0.848700  1.0  0.0652
  H  H66  1  0.032500  0.250000  0.817300  1.0  0.0739
  H  H67  1  0.427500  0.750000  0.844700  1.0  0.0889
  H  H68  1  0.607100  0.750000  0.035200  1.0  0.0653
  H  H69  1  0.232100  0.750000  0.919700  1.0  0.0789
  H  H70  1  0.154200  0.750000  0.205800  1.0  0.0831
  H  H71  1  0.378000  0.750000  0.348700  1.0  0.0664
  H  H72  1  0.467500  0.750000  0.317300  1.0  0.0774
  H  H73  1  0.927500  0.750000  0.655300  1.0  0.0887
  H  H74  1  0.107100  0.750000  0.464800  1.0  0.065
  H  H75  1  0.732100  0.750000  0.580300  1.0  0.0776
  H  H76  1  0.654200  0.750000  0.294200  1.0  0.083
  H  H77  1  0.878000  0.750000  0.151300  1.0  0.0658
  H  H78  1  0.967500  0.750000  0.182700  1.0  0.076
  H  H79  1  0.572500  0.250000  0.155300  1.0  0.0877
  H  H80  1  0.392900  0.250000  0.964800  1.0  0.0662
  H  H81  1  0.767900  0.250000  0.080300  1.0  0.0776
  H  H82  1  0.845800  0.250000  0.794200  1.0  0.082
  H  H83  1  0.622000  0.250000  0.651300  1.0  0.0649
  H  H84  1  0.532500  0.250000  0.682700  1.0  0.0733
  C  C85  1  0.093200  0.534400  0.756300  1.0  0.1182
  C  C86  1  0.057200  0.445800  0.885000  1.0  0.1049
  C  C87  1  0.098900  0.345000  0.723500  1.0  0.2283
  C  C88  1  0.041400  0.345800  0.631000  1.0  -0.2731
  C  C89  1  0.183500  0.346200  0.683700  1.0  -0.2676
  C  C90  1  0.406800  0.465600  0.256300  1.0  0.1181
  C  C91  1  0.442800  0.554200  0.385000  1.0  0.1062
  C  C92  1  0.401100  0.655000  0.223500  1.0  0.2283
  C  C93  1  0.458600  0.654200  0.131000  1.0  -0.27
  C  C94  1  0.316500  0.653800  0.183700  1.0  -0.2686
  C  C95  1  0.906800  0.034400  0.243700  1.0  0.1184
  C  C96  1  0.942800  0.945800  0.115000  1.0  0.1079
  C  C97  1  0.901100  0.845000  0.276500  1.0  0.227
  C  C98  1  0.958600  0.845800  0.369000  1.0  -0.2707
  C  C99  1  0.816500  0.846200  0.316300  1.0  -0.2701
  C  C100  1  0.593200  0.965600  0.743700  1.0  0.1179
  C  C101  1  0.557200  0.054200  0.615000  1.0  0.1082
  C  C102  1  0.598900  0.155000  0.776500  1.0  0.2267
  C  C103  1  0.541400  0.154200  0.869000  1.0  -0.2715
  C  C104  1  0.683500  0.153800  0.816300  1.0  -0.2669
  C  C105  1  0.906800  0.465600  0.243700  1.0  0.1188
  C  C106  1  0.942800  0.554200  0.115000  1.0  0.1082
  C  C107  1  0.901100  0.655000  0.276500  1.0  0.2272
  C  C108  1  0.958600  0.654200  0.369000  1.0  -0.2697
  C  C109  1  0.816500  0.653800  0.316300  1.0  -0.2684
  C  C110  1  0.593200  0.534400  0.743700  1.0  0.1181
  C  C111  1  0.557200  0.445800  0.615000  1.0  0.108
  C  C112  1  0.598900  0.345000  0.776500  1.0  0.2268
  C  C113  1  0.541400  0.345800  0.869000  1.0  -0.2727
  C  C114  1  0.683500  0.346200  0.816300  1.0  -0.2675
  C  C115  1  0.093200  0.965600  0.756300  1.0  0.1174
  C  C116  1  0.057200  0.054200  0.885000  1.0  0.1057
  C  C117  1  0.098900  0.155000  0.723500  1.0  0.2277
  C  C118  1  0.041400  0.154200  0.631000  1.0  -0.2721
  C  C119  1  0.183500  0.153800  0.683700  1.0  -0.267
  C  C120  1  0.406800  0.034400  0.256300  1.0  0.1184
  C  C121  1  0.442800  0.945800  0.385000  1.0  0.1054
  C  C122  1  0.401100  0.845000  0.223500  1.0  0.2284
  C  C123  1  0.458600  0.845800  0.131000  1.0  -0.2706
  C  C124  1  0.316500  0.846200  0.183700  1.0  -0.2702
  C  C125  1  0.021600  0.250000  0.371800  1.0  0.082
  C  C126  1  0.923200  0.250000  0.474300  1.0  0.1524
  C  C127  1  0.301400  0.250000  0.477500  1.0  0.0896
  C  C128  1  0.343900  0.250000  0.632800  1.0  0.1529
  C  C129  1  0.057000  0.250000  0.565800  1.0  0.2173
  C  C130  1  0.140200  0.250000  0.524600  1.0  -0.2428
  C  C131  1  0.196800  0.250000  0.618200  1.0  0.2293
  C  C132  1  0.085800  0.250000  0.789800  1.0  -0.2274
  C  C133  1  0.478400  0.750000  0.871800  1.0  0.0836
  C  C134  1  0.576800  0.750000  0.974300  1.0  0.1522
  C  C135  1  0.198600  0.750000  0.977500  1.0  0.0896
  C  C136  1  0.156100  0.750000  0.132800  1.0  0.1523
  C  C137  1  0.443000  0.750000  0.065800  1.0  0.2178
  C  C138  1  0.359800  0.750000  0.024600  1.0  -0.2419
  C  C139  1  0.303200  0.750000  0.118200  1.0  0.2296
  C  C140  1  0.414200  0.750000  0.289800  1.0  -0.225
  C  C141  1  0.978400  0.750000  0.628200  1.0  0.0832
  C  C142  1  0.076800  0.750000  0.525700  1.0  0.1521
  C  C143  1  0.698600  0.750000  0.522500  1.0  0.0893
  C  C144  1  0.656100  0.750000  0.367200  1.0  0.1517
  C  C145  1  0.943000  0.750000  0.434200  1.0  0.2219
  C  C146  1  0.859800  0.750000  0.475400  1.0  -0.2419
  C  C147  1  0.803200  0.750000  0.381800  1.0  0.2298
  C  C148  1  0.914200  0.750000  0.210200  1.0  -0.2275
  C  C149  1  0.521600  0.250000  0.128200  1.0  0.0837
  C  C150  1  0.423200  0.250000  0.025700  1.0  0.1526
  C  C151  1  0.801400  0.250000  0.022500  1.0  0.0898
  C  C152  1  0.843900  0.250000  0.867200  1.0  0.1528
  C  C153  1  0.557000  0.250000  0.934200  1.0  0.2218
  C  C154  1  0.640200  0.250000  0.975400  1.0  -0.2406
  C  C155  1  0.696800  0.250000  0.881800  1.0  0.229
  C  C156  1  0.585800  0.250000  0.710200  1.0  -0.2288
  N  N157  1  0.075200  0.597500  0.831000  1.0  -0.2536
  N  N158  1  0.051300  0.541500  0.912900  1.0  -0.2809
  N  N159  1  0.084500  0.438500  0.787000  1.0  -0.0802
  N  N160  1  0.424800  0.402500  0.331000  1.0  -0.2542
  N  N161  1  0.448700  0.458500  0.412900  1.0  -0.2796
  N  N162  1  0.415500  0.561500  0.287000  1.0  -0.0794
  N  N163  1  0.924800  0.097500  0.169000  1.0  -0.2532
  N  N164  1  0.948700  0.041500  0.087100  1.0  -0.28
  N  N165  1  0.915500  0.938500  0.213000  1.0  -0.0822
  N  N166  1  0.575200  0.902500  0.669000  1.0  -0.2549
  N  N167  1  0.551300  0.958500  0.587100  1.0  -0.2799
  N  N168  1  0.584500  0.061500  0.713000  1.0  -0.0818
  N  N169  1  0.924800  0.402500  0.169000  1.0  -0.255
  N  N170  1  0.948700  0.458500  0.087100  1.0  -0.2801
  N  N171  1  0.915500  0.561500  0.213000  1.0  -0.081
  N  N172  1  0.575200  0.597500  0.669000  1.0  -0.2532
  N  N173  1  0.551300  0.541500  0.587100  1.0  -0.2795
  N  N174  1  0.584500  0.438500  0.713000  1.0  -0.0827
  N  N175  1  0.075200  0.902500  0.831000  1.0  -0.2541
  N  N176  1  0.051300  0.958500  0.912900  1.0  -0.2796
  N  N177  1  0.084500  0.061500  0.787000  1.0  -0.08
  N  N178  1  0.424800  0.097500  0.331000  1.0  -0.2536
  N  N179  1  0.448700  0.041500  0.412900  1.0  -0.2807
  N  N180  1  0.415500  0.938500  0.287000  1.0  -0.0798
  N  N181  1  0.956200  0.250000  0.316200  1.0  -0.1896
  N  N182  1  0.894100  0.250000  0.383500  1.0  -0.2936
  N  N183  1  0.002400  0.250000  0.474600  1.0  -0.1212
  N  N184  1  0.377400  0.250000  0.471900  1.0  -0.212
  N  N185  1  0.406100  0.250000  0.572200  1.0  -0.3435
  N  N186  1  0.277500  0.250000  0.577400  1.0  -0.0526
  N  N187  1  0.543800  0.750000  0.816200  1.0  -0.1893
  N  N188  1  0.605900  0.750000  0.883500  1.0  -0.2965
  N  N189  1  0.497600  0.750000  0.974600  1.0  -0.1225
  N  N190  1  0.122600  0.750000  0.971900  1.0  -0.2119
  N  N191  1  0.093900  0.750000  0.072200  1.0  -0.3411
  N  N192  1  0.222500  0.750000  0.077400  1.0  -0.0537
  N  N193  1  0.043800  0.750000  0.683800  1.0  -0.1888
  N  N194  1  0.105900  0.750000  0.616500  1.0  -0.2969
  N  N195  1  0.997600  0.750000  0.525400  1.0  -0.1211
  N  N196  1  0.622600  0.750000  0.528100  1.0  -0.2122
  N  N197  1  0.593900  0.750000  0.427800  1.0  -0.3415
  N  N198  1  0.722500  0.750000  0.422600  1.0  -0.0539
  N  N199  1  0.456200  0.250000  0.183800  1.0  -0.189
  N  N200  1  0.394100  0.250000  0.116500  1.0  -0.2945
  N  N201  1  0.502400  0.250000  0.025400  1.0  -0.1212
  N  N202  1  0.877400  0.250000  0.028100  1.0  -0.2114
  N  N203  1  0.906100  0.250000  0.927800  1.0  -0.344
  N  N204  1  0.777500  0.250000  0.922600  1.0  -0.0524
