# generated using pymatgen
data_Cd2H54C45N30Cl
_symmetry_space_group_name_H-M   'P 1'
_cell_length_a   14.39670000
_cell_length_b   18.56330000
_cell_length_c   18.56330000
_cell_angle_alpha   120.00000000
_cell_angle_beta   90.00000000
_cell_angle_gamma   90.00000000
_symmetry_Int_Tables_number   1
_chemical_formula_structural   Cd2H54C45N30Cl
_chemical_formula_sum   'Cd4 H108 C90 N60 Cl2'
_cell_volume   4296.39253397
_cell_formula_units_Z   2
loop_
 _symmetry_equiv_pos_site_id
 _symmetry_equiv_pos_as_xyz
  1  'x, y, z'
loop_
 _atom_site_type_symbol
 _atom_site_label
 _atom_site_symmetry_multiplicity
 _atom_site_fract_x
 _atom_site_fract_y
 _atom_site_fract_z
 _atom_site_occupancy
 _atom_site_charge
  Cd  Cd1  1  0.396460  0.333333  0.666667  1.0  0.8527
  Cd  Cd2  1  0.896460  0.666667  0.333333  1.0  0.8527
  Cd  Cd3  1  0.603540  0.666667  0.333333  1.0  0.8529
  Cd  Cd4  1  0.103540  0.333333  0.666667  1.0  0.8529
  H  H5  1  0.618700  0.429000  0.678900  1.0  0.0863
  H  H6  1  0.473800  0.619800  0.700200  1.0  0.0747
  H  H7  1  0.615100  0.647500  0.506500  1.0  0.0845
  H  H8  1  0.607400  0.617000  0.605900  1.0  0.0536
  H  H9  1  0.663800  0.531000  0.559200  1.0  0.0897
  H  H10  1  0.610200  0.701700  0.764500  1.0  0.0693
  H  H11  1  0.666800  0.666000  0.814500  1.0  0.0586
  H  H12  1  0.805800  0.752000  0.683800  1.0  0.0764
  H  H13  1  0.618700  0.249900  0.571000  1.0  0.0862
  H  H14  1  0.473800  0.080400  0.380200  1.0  0.0723
  H  H15  1  0.615100  0.859000  0.352500  1.0  0.0846
  H  H16  1  0.607400  0.988900  0.383000  1.0  0.0536
  H  H17  1  0.663800  0.028200  0.469000  1.0  0.0911
  H  H18  1  0.610200  0.062800  0.298300  1.0  0.069
  H  H19  1  0.666800  0.148500  0.334000  1.0  0.0552
  H  H20  1  0.805800  0.931800  0.248000  1.0  0.0739
  H  H21  1  0.618700  0.321100  0.750100  1.0  0.0862
  H  H22  1  0.473800  0.299800  0.919600  1.0  0.0747
  H  H23  1  0.615100  0.493500  0.141000  1.0  0.0847
  H  H24  1  0.607400  0.394100  0.011100  1.0  0.0531
  H  H25  1  0.663800  0.440800  0.971800  1.0  0.0912
  H  H26  1  0.610200  0.235500  0.937200  1.0  0.069
  H  H27  1  0.666800  0.185500  0.851500  1.0  0.0537
  H  H28  1  0.805800  0.316200  0.068200  1.0  0.074
  H  H29  1  0.118700  0.571000  0.321100  1.0  0.0864
  H  H30  1  0.973800  0.380200  0.299800  1.0  0.0748
  H  H31  1  0.115100  0.352500  0.493500  1.0  0.0848
  H  H32  1  0.107400  0.383000  0.394100  1.0  0.054
  H  H33  1  0.163800  0.469000  0.440800  1.0  0.0892
  H  H34  1  0.110200  0.298300  0.235500  1.0  0.0669
  H  H35  1  0.166800  0.334000  0.185500  1.0  0.0568
  H  H36  1  0.305800  0.248000  0.316200  1.0  0.0751
  H  H37  1  0.118700  0.750100  0.429000  1.0  0.0863
  H  H38  1  0.973800  0.919600  0.619800  1.0  0.0738
  H  H39  1  0.115100  0.141000  0.647500  1.0  0.0847
  H  H40  1  0.107400  0.011100  0.617000  1.0  0.0533
  H  H41  1  0.163800  0.971800  0.531000  1.0  0.0907
  H  H42  1  0.110200  0.937200  0.701700  1.0  0.0687
  H  H43  1  0.166800  0.851500  0.666000  1.0  0.0573
  H  H44  1  0.305800  0.068200  0.752000  1.0  0.0746
  H  H45  1  0.118700  0.678900  0.249900  1.0  0.0867
  H  H46  1  0.973800  0.700200  0.080400  1.0  0.0732
  H  H47  1  0.115100  0.506500  0.859000  1.0  0.0843
  H  H48  1  0.107400  0.605900  0.988900  1.0  0.0539
  H  H49  1  0.163800  0.559200  0.028200  1.0  0.0919
  H  H50  1  0.110200  0.764500  0.062800  1.0  0.0702
  H  H51  1  0.166800  0.814500  0.148500  1.0  0.0572
  H  H52  1  0.305800  0.683800  0.931800  1.0  0.0742
  H  H53  1  0.381300  0.571000  0.321100  1.0  0.086
  H  H54  1  0.526200  0.380200  0.299800  1.0  0.0749
  H  H55  1  0.384900  0.352500  0.493500  1.0  0.0827
  H  H56  1  0.392600  0.383000  0.394100  1.0  0.0551
  H  H57  1  0.336200  0.469000  0.440800  1.0  0.0886
  H  H58  1  0.389800  0.298300  0.235500  1.0  0.0679
  H  H59  1  0.333200  0.334000  0.185500  1.0  0.0574
  H  H60  1  0.194200  0.248000  0.316200  1.0  0.0761
  H  H61  1  0.381300  0.750100  0.429000  1.0  0.0855
  H  H62  1  0.526200  0.919600  0.619800  1.0  0.0734
  H  H63  1  0.384900  0.141000  0.647500  1.0  0.0826
  H  H64  1  0.392600  0.011100  0.617000  1.0  0.0545
  H  H65  1  0.336200  0.971800  0.531000  1.0  0.0911
  H  H66  1  0.389800  0.937200  0.701700  1.0  0.0682
  H  H67  1  0.333200  0.851500  0.666000  1.0  0.0574
  H  H68  1  0.194200  0.068200  0.752000  1.0  0.0754
  H  H69  1  0.381300  0.678900  0.249900  1.0  0.0858
  H  H70  1  0.526200  0.700200  0.080400  1.0  0.0736
  H  H71  1  0.384900  0.506500  0.859000  1.0  0.0823
  H  H72  1  0.392600  0.605900  0.988900  1.0  0.0544
  H  H73  1  0.336200  0.559200  0.028200  1.0  0.0927
  H  H74  1  0.389800  0.764500  0.062800  1.0  0.0699
  H  H75  1  0.333200  0.814500  0.148500  1.0  0.0571
  H  H76  1  0.194200  0.683800  0.931800  1.0  0.0744
  H  H77  1  0.881300  0.429000  0.678900  1.0  0.0856
  H  H78  1  0.026200  0.619800  0.700200  1.0  0.0747
  H  H79  1  0.884900  0.647500  0.506500  1.0  0.0824
  H  H80  1  0.892600  0.617000  0.605900  1.0  0.0543
  H  H81  1  0.836200  0.531000  0.559200  1.0  0.0907
  H  H82  1  0.889800  0.701700  0.764500  1.0  0.0681
  H  H83  1  0.833200  0.666000  0.814500  1.0  0.0581
  H  H84  1  0.694200  0.752000  0.683800  1.0  0.0769
  H  H85  1  0.881300  0.249900  0.571000  1.0  0.0858
  H  H86  1  0.026200  0.080400  0.380200  1.0  0.0729
  H  H87  1  0.884900  0.859000  0.352500  1.0  0.0825
  H  H88  1  0.892600  0.988900  0.383000  1.0  0.0543
  H  H89  1  0.836200  0.028200  0.469000  1.0  0.0909
  H  H90  1  0.889800  0.062800  0.298300  1.0  0.069
  H  H91  1  0.833200  0.148500  0.334000  1.0  0.0557
  H  H92  1  0.694200  0.931800  0.248000  1.0  0.0739
  H  H93  1  0.881300  0.321100  0.750100  1.0  0.0855
  H  H94  1  0.026200  0.299800  0.919600  1.0  0.0738
  H  H95  1  0.884900  0.493500  0.141000  1.0  0.0826
  H  H96  1  0.892600  0.394100  0.011100  1.0  0.0546
  H  H97  1  0.836200  0.440800  0.971800  1.0  0.0905
  H  H98  1  0.889800  0.235500  0.937200  1.0  0.0687
  H  H99  1  0.833200  0.185500  0.851500  1.0  0.0538
  H  H100  1  0.694200  0.316200  0.068200  1.0  0.0746
  H  H101  1  0.750000  0.529500  0.742000  1.0  0.0666
  H  H102  1  0.750000  0.474600  0.641800  1.0  0.0631
  H  H103  1  0.750000  0.212500  0.470500  1.0  0.0669
  H  H104  1  0.750000  0.167200  0.525400  1.0  0.0653
  H  H105  1  0.750000  0.258000  0.787500  1.0  0.0685
  H  H106  1  0.750000  0.358200  0.832800  1.0  0.0658
  H  H107  1  0.250000  0.470500  0.258000  1.0  0.0672
  H  H108  1  0.250000  0.525400  0.358200  1.0  0.0629
  H  H109  1  0.250000  0.787500  0.529500  1.0  0.0671
  H  H110  1  0.250000  0.832800  0.474600  1.0  0.0651
  H  H111  1  0.250000  0.742000  0.212500  1.0  0.0674
  H  H112  1  0.250000  0.641800  0.167200  1.0  0.0669
  C  C113  1  0.568800  0.464000  0.682200  1.0  0.1329
  C  C114  1  0.490200  0.567400  0.694000  1.0  0.1513
  C  C115  1  0.677900  0.648100  0.491000  1.0  0.1305
  C  C116  1  0.663800  0.583100  0.686600  1.0  0.2157
  C  C117  1  0.663800  0.587700  0.608200  1.0  -0.2417
  C  C118  1  0.666200  0.670100  0.763300  1.0  -0.0401
  C  C119  1  0.568800  0.218200  0.536000  1.0  0.134
  C  C120  1  0.490200  0.126600  0.432600  1.0  0.1528
  C  C121  1  0.677900  0.842900  0.351900  1.0  0.1304
  C  C122  1  0.663800  0.103500  0.416900  1.0  0.2157
  C  C123  1  0.663800  0.020500  0.412300  1.0  -0.2415
  C  C124  1  0.666200  0.093200  0.329900  1.0  -0.0378
  C  C125  1  0.568800  0.317800  0.781800  1.0  0.1328
  C  C126  1  0.490200  0.306000  0.873400  1.0  0.1537
  C  C127  1  0.677900  0.509000  0.157100  1.0  0.1301
  C  C128  1  0.663800  0.313400  0.896500  1.0  0.2141
  C  C129  1  0.663800  0.391800  0.979500  1.0  -0.2409
  C  C130  1  0.666200  0.236700  0.906800  1.0  -0.0384
  C  C131  1  0.068800  0.536000  0.317800  1.0  0.1325
  C  C132  1  0.990200  0.432600  0.306000  1.0  0.1526
  C  C133  1  0.177900  0.351900  0.509000  1.0  0.1314
  C  C134  1  0.163800  0.416900  0.313400  1.0  0.2141
  C  C135  1  0.163800  0.412300  0.391800  1.0  -0.2424
  C  C136  1  0.166200  0.329900  0.236700  1.0  -0.0382
  C  C137  1  0.068800  0.781800  0.464000  1.0  0.1332
  C  C138  1  0.990200  0.873400  0.567400  1.0  0.1514
  C  C139  1  0.177900  0.157100  0.648100  1.0  0.13
  C  C140  1  0.163800  0.896500  0.583100  1.0  0.2141
  C  C141  1  0.163800  0.979500  0.587700  1.0  -0.2409
  C  C142  1  0.166200  0.906800  0.670100  1.0  -0.0369
  C  C143  1  0.068800  0.682200  0.218200  1.0  0.133
  C  C144  1  0.990200  0.694000  0.126600  1.0  0.1534
  C  C145  1  0.177900  0.491000  0.842900  1.0  0.1286
  C  C146  1  0.163800  0.686600  0.103500  1.0  0.2148
  C  C147  1  0.163800  0.608200  0.020500  1.0  -0.2398
  C  C148  1  0.166200  0.763300  0.093200  1.0  -0.0391
  C  C149  1  0.431200  0.536000  0.317800  1.0  0.133
  C  C150  1  0.509800  0.432600  0.306000  1.0  0.1527
  C  C151  1  0.322100  0.351900  0.509000  1.0  0.1317
  C  C152  1  0.336200  0.416900  0.313400  1.0  0.2143
  C  C153  1  0.336200  0.412300  0.391800  1.0  -0.2406
  C  C154  1  0.333800  0.329900  0.236700  1.0  -0.0381
  C  C155  1  0.431200  0.781800  0.464000  1.0  0.1341
  C  C156  1  0.509800  0.873400  0.567400  1.0  0.153
  C  C157  1  0.322100  0.157100  0.648100  1.0  0.1302
  C  C158  1  0.336200  0.896500  0.583100  1.0  0.2138
  C  C159  1  0.336200  0.979500  0.587700  1.0  -0.2393
  C  C160  1  0.333800  0.906800  0.670100  1.0  -0.0368
  C  C161  1  0.431200  0.682200  0.218200  1.0  0.1337
  C  C162  1  0.509800  0.694000  0.126600  1.0  0.1547
  C  C163  1  0.322100  0.491000  0.842900  1.0  0.1281
  C  C164  1  0.336200  0.686600  0.103500  1.0  0.2147
  C  C165  1  0.336200  0.608200  0.020500  1.0  -0.2396
  C  C166  1  0.333800  0.763300  0.093200  1.0  -0.0409
  C  C167  1  0.931200  0.464000  0.682200  1.0  0.1336
  C  C168  1  0.009800  0.567400  0.694000  1.0  0.153
  C  C169  1  0.822100  0.648100  0.491000  1.0  0.1304
  C  C170  1  0.836200  0.583100  0.686600  1.0  0.2157
  C  C171  1  0.836200  0.587700  0.608200  1.0  -0.2416
  C  C172  1  0.833800  0.670100  0.763300  1.0  -0.0404
  C  C173  1  0.931200  0.218200  0.536000  1.0  0.1345
  C  C174  1  0.009800  0.126600  0.432600  1.0  0.153
  C  C175  1  0.822100  0.842900  0.351900  1.0  0.1302
  C  C176  1  0.836200  0.103500  0.416900  1.0  0.2149
  C  C177  1  0.836200  0.020500  0.412300  1.0  -0.2411
  C  C178  1  0.833800  0.093200  0.329900  1.0  -0.0363
  C  C179  1  0.931200  0.317800  0.781800  1.0  0.1337
  C  C180  1  0.009800  0.306000  0.873400  1.0  0.154
  C  C181  1  0.822100  0.509000  0.157100  1.0  0.1303
  C  C182  1  0.836200  0.313400  0.896500  1.0  0.2147
  C  C183  1  0.836200  0.391800  0.979500  1.0  -0.2393
  C  C184  1  0.833800  0.236700  0.906800  1.0  -0.0386
  C  C185  1  0.750000  0.634400  0.607600  1.0  0.1965
  C  C186  1  0.750000  0.532000  0.689900  1.0  -0.2322
  C  C187  1  0.750000  0.721000  0.684200  1.0  -0.0253
  C  C188  1  0.750000  0.973200  0.365600  1.0  0.1945
  C  C189  1  0.750000  0.157900  0.468000  1.0  -0.2335
  C  C190  1  0.750000  0.963200  0.279000  1.0  -0.027
  C  C191  1  0.750000  0.392400  0.026800  1.0  0.1941
  C  C192  1  0.750000  0.310100  0.842100  1.0  -0.2282
  C  C193  1  0.750000  0.315800  0.036800  1.0  -0.0244
  C  C194  1  0.250000  0.365600  0.392400  1.0  0.1956
  C  C195  1  0.250000  0.468000  0.310100  1.0  -0.2325
  C  C196  1  0.250000  0.279000  0.315800  1.0  -0.0241
  C  C197  1  0.250000  0.026800  0.634400  1.0  0.194
  C  C198  1  0.250000  0.842100  0.532000  1.0  -0.2328
  C  C199  1  0.250000  0.036800  0.721000  1.0  -0.0284
  C  C200  1  0.250000  0.607600  0.973200  1.0  0.1945
  C  C201  1  0.250000  0.689900  0.157900  1.0  -0.2304
  C  C202  1  0.250000  0.684200  0.963200  1.0  -0.0249
  N  N203  1  0.481200  0.445400  0.680700  1.0  -0.2705
  N  N204  1  0.429500  0.513800  0.689400  1.0  -0.3139
  N  N205  1  0.579600  0.541900  0.689200  1.0  -0.1071
  N  N206  1  0.702600  0.656000  0.428500  1.0  -0.2567
  N  N207  1  0.481200  0.235300  0.554600  1.0  -0.2704
  N  N208  1  0.429500  0.175600  0.486200  1.0  -0.3124
  N  N209  1  0.579600  0.147300  0.458100  1.0  -0.1071
  N  N210  1  0.702600  0.772500  0.344000  1.0  -0.2632
  N  N211  1  0.481200  0.319300  0.764700  1.0  -0.27
  N  N212  1  0.429500  0.310600  0.824400  1.0  -0.3111
  N  N213  1  0.579600  0.310800  0.852700  1.0  -0.1066
  N  N214  1  0.702600  0.571500  0.227500  1.0  -0.2593
  N  N215  1  0.981200  0.554600  0.319300  1.0  -0.2689
  N  N216  1  0.929500  0.486200  0.310600  1.0  -0.3136
  N  N217  1  0.079600  0.458100  0.310800  1.0  -0.107
  N  N218  1  0.202600  0.344000  0.571500  1.0  -0.2591
  N  N219  1  0.981200  0.764700  0.445400  1.0  -0.2705
  N  N220  1  0.929500  0.824400  0.513800  1.0  -0.3126
  N  N221  1  0.079600  0.852700  0.541900  1.0  -0.1063
  N  N222  1  0.202600  0.227500  0.656000  1.0  -0.262
  N  N223  1  0.981200  0.680700  0.235300  1.0  -0.2705
  N  N224  1  0.929500  0.689400  0.175600  1.0  -0.3115
  N  N225  1  0.079600  0.689200  0.147300  1.0  -0.1077
  N  N226  1  0.202600  0.428500  0.772500  1.0  -0.2594
  N  N227  1  0.518800  0.554600  0.319300  1.0  -0.2688
  N  N228  1  0.570500  0.486200  0.310600  1.0  -0.3144
  N  N229  1  0.420400  0.458100  0.310800  1.0  -0.1075
  N  N230  1  0.297400  0.344000  0.571500  1.0  -0.2582
  N  N231  1  0.518800  0.764700  0.445400  1.0  -0.2696
  N  N232  1  0.570500  0.824400  0.513800  1.0  -0.3134
  N  N233  1  0.420400  0.852700  0.541900  1.0  -0.1069
  N  N234  1  0.297400  0.227500  0.656000  1.0  -0.2619
  N  N235  1  0.518800  0.680700  0.235300  1.0  -0.27
  N  N236  1  0.570500  0.689400  0.175600  1.0  -0.3118
  N  N237  1  0.420400  0.689200  0.147300  1.0  -0.108
  N  N238  1  0.297400  0.428500  0.772500  1.0  -0.259
  N  N239  1  0.018800  0.445400  0.680700  1.0  -0.2693
  N  N240  1  0.070500  0.513800  0.689400  1.0  -0.3144
  N  N241  1  0.920400  0.541900  0.689200  1.0  -0.1076
  N  N242  1  0.797400  0.656000  0.428500  1.0  -0.2567
  N  N243  1  0.018800  0.235300  0.554600  1.0  -0.2702
  N  N244  1  0.070500  0.175600  0.486200  1.0  -0.3132
  N  N245  1  0.920400  0.147300  0.458100  1.0  -0.1074
  N  N246  1  0.797400  0.772500  0.344000  1.0  -0.2626
  N  N247  1  0.018800  0.319300  0.764700  1.0  -0.2703
  N  N248  1  0.070500  0.310600  0.824400  1.0  -0.3125
  N  N249  1  0.920400  0.310800  0.852700  1.0  -0.1069
  N  N250  1  0.797400  0.571500  0.227500  1.0  -0.259
  N  N251  1  0.750000  0.641000  0.530800  1.0  -0.034
  N  N252  1  0.750000  0.713100  0.759700  1.0  -0.3861
  N  N253  1  0.750000  0.889800  0.359000  1.0  -0.0304
  N  N254  1  0.750000  0.046600  0.286900  1.0  -0.385
  N  N255  1  0.750000  0.469200  0.110200  1.0  -0.0325
  N  N256  1  0.750000  0.240300  0.953400  1.0  -0.3891
  N  N257  1  0.250000  0.359000  0.469200  1.0  -0.033
  N  N258  1  0.250000  0.286900  0.240300  1.0  -0.3893
  N  N259  1  0.250000  0.110200  0.641000  1.0  -0.032
  N  N260  1  0.250000  0.953400  0.713100  1.0  -0.3885
  N  N261  1  0.250000  0.530800  0.889800  1.0  -0.0313
  N  N262  1  0.250000  0.759700  0.046600  1.0  -0.3888
  Cl  Cl263  1  0.750000  0.333333  0.666667  1.0  -0.5988
  Cl  Cl264  1  0.250000  0.666667  0.333333  1.0  -0.5988
