# generated using pymatgen
data_V2PO6
_symmetry_space_group_name_H-M   'P 1'
_cell_length_a   8.31760000
_cell_length_b   9.15390000
_cell_length_c   12.63020000
_cell_angle_alpha   90.00000000
_cell_angle_beta   90.00000000
_cell_angle_gamma   90.00000000
_symmetry_Int_Tables_number   1
_chemical_formula_structural   V2PO6
_chemical_formula_sum   'V8 P4 O24'
_cell_volume   961.64421292
_cell_formula_units_Z   4
loop_
 _symmetry_equiv_pos_site_id
 _symmetry_equiv_pos_as_xyz
  1  'x, y, z'
loop_
 _atom_site_type_symbol
 _atom_site_label
 _atom_site_symmetry_multiplicity
 _atom_site_fract_x
 _atom_site_fract_y
 _atom_site_fract_z
 _atom_site_occupancy
 _atom_site_charge
  V  V1  1  0.968670  0.210280  0.002230  1.0  1.3106
  V  V2  1  0.733540  0.554640  0.894310  1.0  1.2339
  V  V3  1  0.531330  0.789720  0.502230  1.0  1.3108
  V  V4  1  0.766460  0.445360  0.394310  1.0  1.2287
  V  V5  1  0.031330  0.710280  0.497770  1.0  1.31
  V  V6  1  0.266460  0.054640  0.605690  1.0  1.2344
  V  V7  1  0.468670  0.289720  0.997770  1.0  1.3099
  V  V8  1  0.233540  0.945360  0.105690  1.0  1.2281
  P  P9  1  0.255810  0.065510  0.866390  1.0  1.6977
  P  P10  1  0.244190  0.934490  0.366390  1.0  1.6972
  P  P11  1  0.744190  0.565510  0.633610  1.0  1.6983
  P  P12  1  0.755810  0.434490  0.133610  1.0  1.6979
  O  O13  1  0.934200  0.381900  0.914600  1.0  -0.7181
  O  O14  1  0.264500  0.941900  0.948500  1.0  -0.6875
  O  O15  1  0.097700  0.154000  0.877300  1.0  -0.7088
  O  O16  1  0.399900  0.168900  0.881100  1.0  -0.6906
  O  O17  1  0.258600  0.996800  0.756400  1.0  -0.6564
  O  O18  1  0.098200  0.115900  0.081800  1.0  -0.7774
  O  O19  1  0.565800  0.618100  0.414600  1.0  -0.7165
  O  O20  1  0.235500  0.058100  0.448500  1.0  -0.6896
  O  O21  1  0.402300  0.846000  0.377300  1.0  -0.711
  O  O22  1  0.100100  0.831100  0.381100  1.0  -0.6897
  O  O23  1  0.241400  0.003200  0.256400  1.0  -0.656
  O  O24  1  0.401800  0.884100  0.581800  1.0  -0.7778
  O  O25  1  0.065800  0.881900  0.585400  1.0  -0.7176
  O  O26  1  0.735500  0.441900  0.551500  1.0  -0.6865
  O  O27  1  0.902300  0.654000  0.622700  1.0  -0.7111
  O  O28  1  0.600100  0.668900  0.618900  1.0  -0.6899
  O  O29  1  0.741400  0.496800  0.743600  1.0  -0.6562
  O  O30  1  0.901800  0.615900  0.418200  1.0  -0.7765
  O  O31  1  0.434200  0.118100  0.085400  1.0  -0.7176
  O  O32  1  0.764500  0.558100  0.051500  1.0  -0.6885
  O  O33  1  0.597700  0.346000  0.122700  1.0  -0.709
  O  O34  1  0.899900  0.331100  0.118900  1.0  -0.6918
  O  O35  1  0.758600  0.503200  0.243600  1.0  -0.6567
  O  O36  1  0.598200  0.384100  0.918200  1.0  -0.7768
