# generated using pymatgen
data_CdH8C12(NO2)2
_symmetry_space_group_name_H-M   'P 1'
_cell_length_a   12.69100000
_cell_length_b   15.54500000
_cell_length_c   18.34200000
_cell_angle_alpha   90.00000000
_cell_angle_beta   90.00000000
_cell_angle_gamma   90.00000000
_symmetry_Int_Tables_number   1
_chemical_formula_structural   CdH8C12(NO2)2
_chemical_formula_sum   'Cd8 H64 C96 N16 O32'
_cell_volume   3618.53901549
_cell_formula_units_Z   8
loop_
 _symmetry_equiv_pos_site_id
 _symmetry_equiv_pos_as_xyz
  1  'x, y, z'
loop_
 _atom_site_type_symbol
 _atom_site_label
 _atom_site_symmetry_multiplicity
 _atom_site_fract_x
 _atom_site_fract_y
 _atom_site_fract_z
 _atom_site_occupancy
 _atom_site_charge
  Cd  Cd1  1  0.182860  0.712570  0.683120  1.0  0.9493
  Cd  Cd2  1  0.317140  0.287430  0.183120  1.0  0.9493
  Cd  Cd3  1  0.817140  0.212570  0.816880  1.0  0.9493
  Cd  Cd4  1  0.682860  0.787430  0.316880  1.0  0.9494
  Cd  Cd5  1  0.817140  0.287430  0.316880  1.0  0.9497
  Cd  Cd6  1  0.682860  0.712570  0.816880  1.0  0.949
  Cd  Cd7  1  0.182860  0.787430  0.183120  1.0  0.9492
  Cd  Cd8  1  0.317140  0.212570  0.683120  1.0  0.9495
  H  H9  1  0.098740  0.418240  0.676640  1.0  0.1238
  H  H10  1  0.001720  0.278960  0.709850  1.0  0.1023
  H  H11  1  0.775830  0.415880  0.832820  1.0  0.1
  H  H12  1  0.866120  0.558710  0.805800  1.0  0.1228
  H  H13  1  0.913170  0.612370  0.467760  1.0  0.1266
  H  H14  1  0.045320  0.594400  0.570200  1.0  0.0923
  H  H15  1  0.120300  0.859560  0.567270  1.0  0.0835
  H  H16  1  0.981850  0.888690  0.469240  1.0  0.1344
  H  H17  1  0.401260  0.581760  0.176640  1.0  0.124
  H  H18  1  0.498280  0.721040  0.209850  1.0  0.1022
  H  H19  1  0.724170  0.584120  0.332820  1.0  0.1004
  H  H20  1  0.633880  0.441290  0.305800  1.0  0.123
  H  H21  1  0.586830  0.387630  0.967760  1.0  0.1264
  H  H22  1  0.454680  0.405600  0.070200  1.0  0.0919
  H  H23  1  0.379700  0.140440  0.067270  1.0  0.0855
  H  H24  1  0.518150  0.111310  0.969240  1.0  0.134
  H  H25  1  0.901260  0.918240  0.823360  1.0  0.1239
  H  H26  1  0.998280  0.778960  0.790150  1.0  0.1023
  H  H27  1  0.224170  0.915880  0.667180  1.0  0.1001
  H  H28  1  0.133880  0.058710  0.694200  1.0  0.1257
  H  H29  1  0.086830  0.112370  0.032240  1.0  0.1253
  H  H30  1  0.954680  0.094400  0.929800  1.0  0.0921
  H  H31  1  0.879700  0.359560  0.932730  1.0  0.0849
  H  H32  1  0.018150  0.388690  0.030760  1.0  0.1345
  H  H33  1  0.598740  0.081760  0.323360  1.0  0.1238
  H  H34  1  0.501720  0.221040  0.290150  1.0  0.1021
  H  H35  1  0.275830  0.084120  0.167180  1.0  0.1
  H  H36  1  0.366120  0.941290  0.194200  1.0  0.1259
  H  H37  1  0.413170  0.887630  0.532240  1.0  0.1254
  H  H38  1  0.545320  0.905600  0.429800  1.0  0.0924
  H  H39  1  0.620300  0.640440  0.432730  1.0  0.0848
  H  H40  1  0.481850  0.611310  0.530760  1.0  0.1337
  H  H41  1  0.901260  0.581760  0.323360  1.0  0.1239
  H  H42  1  0.998280  0.721040  0.290150  1.0  0.1027
  H  H43  1  0.224170  0.584120  0.167180  1.0  0.0989
  H  H44  1  0.133880  0.441290  0.194200  1.0  0.1233
  H  H45  1  0.086830  0.387630  0.532240  1.0  0.1257
  H  H46  1  0.954680  0.405600  0.429800  1.0  0.092
  H  H47  1  0.879700  0.140440  0.432730  1.0  0.0852
  H  H48  1  0.018150  0.111310  0.530760  1.0  0.1338
  H  H49  1  0.598740  0.418240  0.823360  1.0  0.1238
  H  H50  1  0.501720  0.278960  0.790150  1.0  0.1029
  H  H51  1  0.275830  0.415880  0.667180  1.0  0.0989
  H  H52  1  0.366120  0.558710  0.694200  1.0  0.123
  H  H53  1  0.413170  0.612370  0.032240  1.0  0.1256
  H  H54  1  0.545320  0.594400  0.929800  1.0  0.0925
  H  H55  1  0.620300  0.859560  0.932730  1.0  0.0842
  H  H56  1  0.481850  0.888690  0.030760  1.0  0.1342
  H  H57  1  0.098740  0.081760  0.176640  1.0  0.1237
  H  H58  1  0.001720  0.221040  0.209850  1.0  0.1026
  H  H59  1  0.775830  0.084120  0.332820  1.0  0.0973
  H  H60  1  0.866120  0.941290  0.305800  1.0  0.1256
  H  H61  1  0.913170  0.887630  0.967760  1.0  0.1263
  H  H62  1  0.045320  0.905600  0.070200  1.0  0.0924
  H  H63  1  0.120300  0.640440  0.067270  1.0  0.085
  H  H64  1  0.981850  0.611310  0.969240  1.0  0.1342
  H  H65  1  0.401260  0.918240  0.676640  1.0  0.1242
  H  H66  1  0.498280  0.778960  0.709850  1.0  0.1027
  H  H67  1  0.724170  0.915880  0.832820  1.0  0.0973
  H  H68  1  0.633880  0.058710  0.805800  1.0  0.1255
  H  H69  1  0.586830  0.112370  0.467760  1.0  0.1262
  H  H70  1  0.454680  0.094400  0.570200  1.0  0.0918
  H  H71  1  0.379700  0.359560  0.567270  1.0  0.0845
  H  H72  1  0.518150  0.388690  0.469240  1.0  0.1345
  C  C73  1  0.048800  0.578500  0.724500  1.0  0.6098
  C  C74  1  0.988900  0.495700  0.740800  1.0  0.0183
  C  C75  1  0.026000  0.418900  0.713100  1.0  -0.1655
  C  C76  1  0.972300  0.343600  0.731000  1.0  0.1383
  C  C77  1  0.850100  0.417900  0.797900  1.0  0.1254
  C  C78  1  0.898600  0.495600  0.783500  1.0  -0.156
  C  C79  1  0.852100  0.766900  0.408100  1.0  0.6307
  C  C80  1  0.936600  0.751900  0.464200  1.0  0.0199
  C  C81  1  0.956600  0.670300  0.491200  1.0  -0.1672
  C  C82  1  0.029200  0.660800  0.546300  1.0  0.1337
  C  C83  1  0.069100  0.805000  0.545600  1.0  0.1406
  C  C84  1  0.995300  0.821100  0.491500  1.0  -0.17
  C  C85  1  0.451200  0.421500  0.224500  1.0  0.6118
  C  C86  1  0.511100  0.504300  0.240800  1.0  0.0183
  C  C87  1  0.474000  0.581100  0.213100  1.0  -0.1695
  C  C88  1  0.527700  0.656400  0.231000  1.0  0.1375
  C  C89  1  0.649900  0.582100  0.297900  1.0  0.1261
  C  C90  1  0.601400  0.504400  0.283500  1.0  -0.1546
  C  C91  1  0.647900  0.233100  0.908100  1.0  0.63
  C  C92  1  0.563400  0.248100  0.964200  1.0  0.0205
  C  C93  1  0.543400  0.329700  0.991200  1.0  -0.1644
  C  C94  1  0.470800  0.339200  0.046300  1.0  0.1323
  C  C95  1  0.430900  0.195000  0.045600  1.0  0.1377
  C  C96  1  0.504700  0.178900  0.991500  1.0  -0.1689
  C  C97  1  0.951200  0.078500  0.775500  1.0  0.6121
  C  C98  1  0.011100  0.995700  0.759200  1.0  0.0187
  C  C99  1  0.974000  0.918900  0.786900  1.0  -0.1696
  C  C100  1  0.027700  0.843600  0.769000  1.0  0.1395
  C  C101  1  0.149900  0.917900  0.702100  1.0  0.1251
  C  C102  1  0.101400  0.995600  0.716500  1.0  -0.1552
  C  C103  1  0.147900  0.266900  0.091900  1.0  0.631
  C  C104  1  0.063400  0.251900  0.035800  1.0  0.0206
  C  C105  1  0.043400  0.170300  0.008800  1.0  -0.1643
  C  C106  1  0.970800  0.160800  0.953700  1.0  0.1332
  C  C107  1  0.930900  0.305000  0.954400  1.0  0.1378
  C  C108  1  0.004700  0.321100  0.008500  1.0  -0.1707
  C  C109  1  0.548800  0.921500  0.275500  1.0  0.6097
  C  C110  1  0.488900  0.004300  0.259200  1.0  0.0187
  C  C111  1  0.526000  0.081100  0.286900  1.0  -0.1656
  C  C112  1  0.472300  0.156400  0.269000  1.0  0.1371
  C  C113  1  0.350100  0.082100  0.202100  1.0  0.1248
  C  C114  1  0.398600  0.004400  0.216500  1.0  -0.1553
  C  C115  1  0.352100  0.733100  0.591900  1.0  0.6307
  C  C116  1  0.436600  0.748100  0.535800  1.0  0.02
  C  C117  1  0.456600  0.829700  0.508800  1.0  -0.1679
  C  C118  1  0.529200  0.839200  0.453700  1.0  0.1325
  C  C119  1  0.569100  0.695000  0.454400  1.0  0.1428
  C  C120  1  0.495300  0.678900  0.508500  1.0  -0.1694
  C  C121  1  0.951200  0.421500  0.275500  1.0  0.612
  C  C122  1  0.011100  0.504300  0.259200  1.0  0.0186
  C  C123  1  0.974000  0.581100  0.286900  1.0  -0.1696
  C  C124  1  0.027700  0.656400  0.269000  1.0  0.1377
  C  C125  1  0.149900  0.582100  0.202100  1.0  0.1252
  C  C126  1  0.101400  0.504400  0.216500  1.0  -0.1547
  C  C127  1  0.147900  0.233100  0.591900  1.0  0.6305
  C  C128  1  0.063400  0.248100  0.535800  1.0  0.0206
  C  C129  1  0.043400  0.329700  0.508800  1.0  -0.1646
  C  C130  1  0.970800  0.339200  0.453700  1.0  0.1326
  C  C131  1  0.930900  0.195000  0.454400  1.0  0.1386
  C  C132  1  0.004700  0.178900  0.508500  1.0  -0.1693
  C  C133  1  0.548800  0.578500  0.775500  1.0  0.61
  C  C134  1  0.488900  0.495700  0.759200  1.0  0.0185
  C  C135  1  0.526000  0.418900  0.786900  1.0  -0.1655
  C  C136  1  0.472300  0.343600  0.769000  1.0  0.1388
  C  C137  1  0.350100  0.417900  0.702100  1.0  0.1248
  C  C138  1  0.398600  0.495600  0.716500  1.0  -0.1559
  C  C139  1  0.352100  0.766900  0.091900  1.0  0.6309
  C  C140  1  0.436600  0.751900  0.035800  1.0  0.02
  C  C141  1  0.456600  0.670300  0.008800  1.0  -0.1669
  C  C142  1  0.529200  0.660800  0.953700  1.0  0.1333
  C  C143  1  0.569100  0.805000  0.954400  1.0  0.142
  C  C144  1  0.495300  0.821100  0.008500  1.0  -0.1709
  C  C145  1  0.048800  0.921500  0.224500  1.0  0.6096
  C  C146  1  0.988900  0.004300  0.240800  1.0  0.0183
  C  C147  1  0.026000  0.081100  0.213100  1.0  -0.1656
  C  C148  1  0.972300  0.156400  0.231000  1.0  0.1369
  C  C149  1  0.850100  0.082100  0.297900  1.0  0.1254
  C  C150  1  0.898600  0.004400  0.283500  1.0  -0.155
  C  C151  1  0.852100  0.733100  0.908100  1.0  0.6301
  C  C152  1  0.936600  0.748100  0.964200  1.0  0.0201
  C  C153  1  0.956600  0.829700  0.991200  1.0  -0.1674
  C  C154  1  0.029200  0.839200  0.046300  1.0  0.1321
  C  C155  1  0.069100  0.695000  0.045600  1.0  0.1419
  C  C156  1  0.995300  0.678900  0.991500  1.0  -0.169
  C  C157  1  0.451200  0.078500  0.724500  1.0  0.6119
  C  C158  1  0.511100  0.995700  0.740800  1.0  0.0184
  C  C159  1  0.474000  0.918900  0.713100  1.0  -0.1694
  C  C160  1  0.527700  0.843600  0.731000  1.0  0.1391
  C  C161  1  0.649900  0.917900  0.797900  1.0  0.1259
  C  C162  1  0.601400  0.995600  0.783500  1.0  -0.1553
  C  C163  1  0.647900  0.266900  0.408100  1.0  0.6309
  C  C164  1  0.563400  0.251900  0.464200  1.0  0.0204
  C  C165  1  0.543400  0.170300  0.491200  1.0  -0.1649
  C  C166  1  0.470800  0.160800  0.546300  1.0  0.1336
  C  C167  1  0.430900  0.305000  0.545600  1.0  0.1364
  C  C168  1  0.504700  0.321100  0.491500  1.0  -0.1698
  N  N169  1  0.885800  0.342400  0.772700  1.0  -0.3395
  N  N170  1  0.083900  0.727000  0.574500  1.0  -0.3071
  N  N171  1  0.614200  0.657600  0.272700  1.0  -0.3395
  N  N172  1  0.416100  0.273000  0.074500  1.0  -0.308
  N  N173  1  0.114200  0.842400  0.727300  1.0  -0.3372
  N  N174  1  0.916100  0.227000  0.925500  1.0  -0.3074
  N  N175  1  0.385800  0.157600  0.227300  1.0  -0.3396
  N  N176  1  0.583900  0.773000  0.425500  1.0  -0.3067
  N  N177  1  0.114200  0.657600  0.227300  1.0  -0.3392
  N  N178  1  0.916100  0.273000  0.425500  1.0  -0.3072
  N  N179  1  0.385800  0.342400  0.727300  1.0  -0.3389
  N  N180  1  0.583900  0.727000  0.925500  1.0  -0.3066
  N  N181  1  0.885800  0.157600  0.272700  1.0  -0.3398
  N  N182  1  0.083900  0.773000  0.074500  1.0  -0.3072
  N  N183  1  0.614200  0.842400  0.772700  1.0  -0.3377
  N  N184  1  0.416100  0.227000  0.574500  1.0  -0.3081
  O  O185  1  0.005500  0.649400  0.739400  1.0  -0.6085
  O  O186  1  0.137700  0.571600  0.696700  1.0  -0.5671
  O  O187  1  0.823000  0.842800  0.395100  1.0  -0.5803
  O  O188  1  0.811700  0.702600  0.378400  1.0  -0.5929
  O  O189  1  0.494500  0.350600  0.239400  1.0  -0.6091
  O  O190  1  0.362300  0.428400  0.196700  1.0  -0.5666
  O  O191  1  0.677000  0.157200  0.895100  1.0  -0.5811
  O  O192  1  0.688300  0.297400  0.878400  1.0  -0.5922
  O  O193  1  0.994500  0.149400  0.760600  1.0  -0.608
  O  O194  1  0.862300  0.071600  0.803300  1.0  -0.5669
  O  O195  1  0.177000  0.342800  0.104900  1.0  -0.5788
  O  O196  1  0.188300  0.202600  0.121600  1.0  -0.5916
  O  O197  1  0.505500  0.850600  0.260600  1.0  -0.609
  O  O198  1  0.637700  0.928400  0.303300  1.0  -0.5669
  O  O199  1  0.323000  0.657200  0.604900  1.0  -0.5818
  O  O200  1  0.311700  0.797400  0.621600  1.0  -0.5922
  O  O201  1  0.994500  0.350600  0.260600  1.0  -0.6089
  O  O202  1  0.862300  0.428400  0.303300  1.0  -0.5655
  O  O203  1  0.177000  0.157200  0.604900  1.0  -0.581
  O  O204  1  0.188300  0.297400  0.621600  1.0  -0.5918
  O  O205  1  0.505500  0.649400  0.760600  1.0  -0.6083
  O  O206  1  0.637700  0.571600  0.803300  1.0  -0.5661
  O  O207  1  0.323000  0.842800  0.104900  1.0  -0.5799
  O  O208  1  0.311700  0.702600  0.121600  1.0  -0.5924
  O  O209  1  0.005500  0.850600  0.239400  1.0  -0.6091
  O  O210  1  0.137700  0.928400  0.196700  1.0  -0.5659
  O  O211  1  0.823000  0.657200  0.895100  1.0  -0.5819
  O  O212  1  0.811700  0.797400  0.878400  1.0  -0.5927
  O  O213  1  0.494500  0.149400  0.739400  1.0  -0.6083
  O  O214  1  0.362300  0.071600  0.696700  1.0  -0.5653
  O  O215  1  0.677000  0.342800  0.395100  1.0  -0.5793
  O  O216  1  0.688300  0.202600  0.378400  1.0  -0.592
