# generated using pymatgen
data_CdH8C12(NO2)2
_symmetry_space_group_name_H-M   'P 1'
_cell_length_a   12.08100000
_cell_length_b   15.32300000
_cell_length_c   19.70500000
_cell_angle_alpha   90.00000000
_cell_angle_beta   90.00000000
_cell_angle_gamma   90.00000000
_symmetry_Int_Tables_number   1
_chemical_formula_structural   CdH8C12(NO2)2
_chemical_formula_sum   'Cd8 H64 C96 N16 O32'
_cell_volume   3647.73369691
_cell_formula_units_Z   8
loop_
 _symmetry_equiv_pos_site_id
 _symmetry_equiv_pos_as_xyz
  1  'x, y, z'
loop_
 _atom_site_type_symbol
 _atom_site_label
 _atom_site_symmetry_multiplicity
 _atom_site_fract_x
 _atom_site_fract_y
 _atom_site_fract_z
 _atom_site_occupancy
 _atom_site_charge
  Cd  Cd1  1  0.688850  0.272250  0.178720  1.0  0.9453
  Cd  Cd2  1  0.811150  0.727750  0.678720  1.0  0.9445
  Cd  Cd3  1  0.311150  0.772250  0.321280  1.0  0.9501
  Cd  Cd4  1  0.188850  0.227750  0.821280  1.0  0.9451
  Cd  Cd5  1  0.311150  0.727750  0.821280  1.0  0.9504
  Cd  Cd6  1  0.188850  0.272250  0.321280  1.0  0.9448
  Cd  Cd7  1  0.688850  0.227750  0.678720  1.0  0.9457
  Cd  Cd8  1  0.811150  0.772250  0.178720  1.0  0.9442
  H  H9  1  0.393060  0.423850  0.318860  1.0  0.142
  H  H10  1  0.301530  0.565970  0.354720  1.0  0.1
  H  H11  1  0.480370  0.708950  0.207910  1.0  0.0911
  H  H12  1  0.581810  0.571680  0.168800  1.0  0.1302
  H  H13  1  0.397300  0.395250  0.989040  1.0  0.1274
  H  H14  1  0.523790  0.398500  0.091750  1.0  0.0878
  H  H15  1  0.648730  0.147670  0.044770  1.0  0.0919
  H  H16  1  0.523680  0.135660  0.943050  1.0  0.1336
  H  H17  1  0.106940  0.576150  0.818860  1.0  0.141
  H  H18  1  0.198470  0.434030  0.854720  1.0  0.0976
  H  H19  1  0.019630  0.291050  0.707910  1.0  0.092
  H  H20  1  0.918190  0.428320  0.668800  1.0  0.1304
  H  H21  1  0.102700  0.604750  0.489040  1.0  0.1267
  H  H22  1  0.976210  0.601500  0.591750  1.0  0.0883
  H  H23  1  0.851270  0.852330  0.544770  1.0  0.0919
  H  H24  1  0.976320  0.864340  0.443050  1.0  0.1342
  H  H25  1  0.606940  0.923850  0.181140  1.0  0.1418
  H  H26  1  0.698470  0.065970  0.145280  1.0  0.0984
  H  H27  1  0.519630  0.208950  0.292090  1.0  0.0931
  H  H28  1  0.418190  0.071680  0.331200  1.0  0.1312
  H  H29  1  0.602700  0.895250  0.510960  1.0  0.1274
  H  H30  1  0.476210  0.898500  0.408250  1.0  0.0876
  H  H31  1  0.351270  0.647670  0.455230  1.0  0.092
  H  H32  1  0.476320  0.635660  0.556950  1.0  0.1342
  H  H33  1  0.893060  0.076150  0.681140  1.0  0.1414
  H  H34  1  0.801530  0.934030  0.645280  1.0  0.0986
  H  H35  1  0.980370  0.791050  0.792090  1.0  0.0918
  H  H36  1  0.081810  0.928320  0.831200  1.0  0.1313
  H  H37  1  0.897300  0.104750  0.010960  1.0  0.1267
  H  H38  1  0.023790  0.101500  0.908250  1.0  0.0882
  H  H39  1  0.148730  0.352330  0.955230  1.0  0.0913
  H  H40  1  0.023680  0.364340  0.056950  1.0  0.1345
  H  H41  1  0.606940  0.576150  0.681140  1.0  0.1413
  H  H42  1  0.698470  0.434030  0.645280  1.0  0.097
  H  H43  1  0.519630  0.291050  0.792090  1.0  0.0926
  H  H44  1  0.418190  0.428320  0.831200  1.0  0.1312
  H  H45  1  0.602700  0.604750  0.010960  1.0  0.1267
  H  H46  1  0.476210  0.601500  0.908250  1.0  0.0882
  H  H47  1  0.351270  0.852330  0.955230  1.0  0.0917
  H  H48  1  0.476320  0.864340  0.056950  1.0  0.1347
  H  H49  1  0.893060  0.423850  0.181140  1.0  0.1416
  H  H50  1  0.801530  0.565970  0.145280  1.0  0.0991
  H  H51  1  0.980370  0.708950  0.292090  1.0  0.0907
  H  H52  1  0.081810  0.571680  0.331200  1.0  0.1313
  H  H53  1  0.897300  0.395250  0.510960  1.0  0.1272
  H  H54  1  0.023790  0.398500  0.408250  1.0  0.0881
  H  H55  1  0.148730  0.147670  0.455230  1.0  0.0918
  H  H56  1  0.023680  0.135660  0.556950  1.0  0.1341
  H  H57  1  0.393060  0.076150  0.818860  1.0  0.141
  H  H58  1  0.301530  0.934030  0.854720  1.0  0.0994
  H  H59  1  0.480370  0.791050  0.707910  1.0  0.0912
  H  H60  1  0.581810  0.928320  0.668800  1.0  0.1303
  H  H61  1  0.397300  0.104750  0.489040  1.0  0.127
  H  H62  1  0.523790  0.101500  0.591750  1.0  0.0883
  H  H63  1  0.648730  0.352330  0.544770  1.0  0.0916
  H  H64  1  0.523680  0.364340  0.443050  1.0  0.1342
  H  H65  1  0.106940  0.923850  0.318860  1.0  0.1421
  H  H66  1  0.198470  0.065970  0.354720  1.0  0.0997
  H  H67  1  0.019630  0.208950  0.207910  1.0  0.0914
  H  H68  1  0.918190  0.071680  0.168800  1.0  0.1302
  H  H69  1  0.102700  0.895250  0.989040  1.0  0.1272
  H  H70  1  0.976210  0.898500  0.091750  1.0  0.0883
  H  H71  1  0.851270  0.647670  0.044770  1.0  0.0919
  H  H72  1  0.976320  0.635660  0.943050  1.0  0.1336
  C  C73  1  0.555000  0.408570  0.221360  1.0  0.6114
  C  C74  1  0.493700  0.490030  0.242270  1.0  0.0241
  C  C75  1  0.415400  0.488270  0.293370  1.0  -0.1554
  C  C76  1  0.365800  0.565520  0.312360  1.0  0.1352
  C  C77  1  0.462900  0.643450  0.233170  1.0  0.1369
  C  C78  1  0.517900  0.568850  0.211310  1.0  -0.1812
  C  C79  1  0.365000  0.255600  0.905070  1.0  0.6156
  C  C80  1  0.449900  0.264030  0.960590  1.0  0.0298
  C  C81  1  0.452300  0.336900  0.001350  1.0  -0.1715
  C  C82  1  0.522000  0.338700  0.057350  1.0  0.1362
  C  C83  1  0.589000  0.202900  0.032070  1.0  0.1231
  C  C84  1  0.521200  0.196500  0.976310  1.0  -0.1604
  C  C85  1  0.945000  0.591430  0.721360  1.0  0.6112
  C  C86  1  0.006300  0.509970  0.742270  1.0  0.0243
  C  C87  1  0.084600  0.511730  0.793370  1.0  -0.1561
  C  C88  1  0.134200  0.434480  0.812360  1.0  0.1341
  C  C89  1  0.037100  0.356550  0.733170  1.0  0.1388
  C  C90  1  0.982100  0.431150  0.711310  1.0  -0.1827
  C  C91  1  0.135000  0.744400  0.405070  1.0  0.6172
  C  C92  1  0.050100  0.735970  0.460590  1.0  0.0312
  C  C93  1  0.047700  0.663100  0.501350  1.0  -0.1715
  C  C94  1  0.978000  0.661300  0.557350  1.0  0.1375
  C  C95  1  0.911000  0.797100  0.532070  1.0  0.123
  C  C96  1  0.978800  0.803500  0.476310  1.0  -0.1616
  C  C97  1  0.445000  0.908570  0.278640  1.0  0.6129
  C  C98  1  0.506300  0.990030  0.257730  1.0  0.0238
  C  C99  1  0.584600  0.988270  0.206630  1.0  -0.1559
  C  C100  1  0.634200  0.065520  0.187640  1.0  0.1338
  C  C101  1  0.537100  0.143450  0.266830  1.0  0.1363
  C  C102  1  0.482100  0.068850  0.288690  1.0  -0.1814
  C  C103  1  0.635000  0.755600  0.594930  1.0  0.6168
  C  C104  1  0.550100  0.764030  0.539410  1.0  0.0318
  C  C105  1  0.547700  0.836900  0.498650  1.0  -0.1706
  C  C106  1  0.478000  0.838700  0.442650  1.0  0.1361
  C  C107  1  0.411000  0.702900  0.467930  1.0  0.123
  C  C108  1  0.478800  0.696500  0.523690  1.0  -0.1617
  C  C109  1  0.055000  0.091430  0.778640  1.0  0.6119
  C  C110  1  0.993700  0.009970  0.757730  1.0  0.0241
  C  C111  1  0.915400  0.011730  0.706630  1.0  -0.1562
  C  C112  1  0.865800  0.934480  0.687640  1.0  0.1346
  C  C113  1  0.962900  0.856550  0.766830  1.0  0.1394
  C  C114  1  0.017900  0.931150  0.788690  1.0  -0.1799
  C  C115  1  0.865000  0.244400  0.094930  1.0  0.6147
  C  C116  1  0.949900  0.235970  0.039410  1.0  0.0304
  C  C117  1  0.952300  0.163100  0.998650  1.0  -0.1706
  C  C118  1  0.022000  0.161300  0.942650  1.0  0.1373
  C  C119  1  0.089000  0.297100  0.967930  1.0  0.1225
  C  C120  1  0.021200  0.303500  0.023690  1.0  -0.1621
  C  C121  1  0.445000  0.591430  0.778640  1.0  0.6124
  C  C122  1  0.506300  0.509970  0.757730  1.0  0.0241
  C  C123  1  0.584600  0.511730  0.706630  1.0  -0.1563
  C  C124  1  0.634200  0.434480  0.687640  1.0  0.1337
  C  C125  1  0.537100  0.356550  0.766830  1.0  0.1388
  C  C126  1  0.482100  0.431150  0.788690  1.0  -0.1808
  C  C127  1  0.635000  0.744400  0.094930  1.0  0.6171
  C  C128  1  0.550100  0.735970  0.039410  1.0  0.0317
  C  C129  1  0.547700  0.663100  0.998650  1.0  -0.171
  C  C130  1  0.478000  0.661300  0.942650  1.0  0.1366
  C  C131  1  0.411000  0.797100  0.967930  1.0  0.1221
  C  C132  1  0.478800  0.803500  0.023690  1.0  -0.1631
  C  C133  1  0.055000  0.408570  0.278640  1.0  0.6122
  C  C134  1  0.993700  0.490030  0.257730  1.0  0.0241
  C  C135  1  0.915400  0.488270  0.206630  1.0  -0.1562
  C  C136  1  0.865800  0.565520  0.187640  1.0  0.1346
  C  C137  1  0.962900  0.643450  0.266830  1.0  0.1355
  C  C138  1  0.017900  0.568850  0.288690  1.0  -0.18
  C  C139  1  0.865000  0.255600  0.594930  1.0  0.6153
  C  C140  1  0.949900  0.264030  0.539410  1.0  0.0306
  C  C141  1  0.952300  0.336900  0.498650  1.0  -0.1706
  C  C142  1  0.022000  0.338700  0.442650  1.0  0.1367
  C  C143  1  0.089000  0.202900  0.467930  1.0  0.1234
  C  C144  1  0.021200  0.196500  0.523690  1.0  -0.1617
  C  C145  1  0.555000  0.091430  0.721360  1.0  0.6109
  C  C146  1  0.493700  0.009970  0.742270  1.0  0.0243
  C  C147  1  0.415400  0.011730  0.793370  1.0  -0.1557
  C  C148  1  0.365800  0.934480  0.812360  1.0  0.1352
  C  C149  1  0.462900  0.856550  0.733170  1.0  0.14
  C  C150  1  0.517900  0.931150  0.711310  1.0  -0.1794
  C  C151  1  0.365000  0.244400  0.405070  1.0  0.6152
  C  C152  1  0.449900  0.235970  0.460590  1.0  0.0299
  C  C153  1  0.452300  0.163100  0.501350  1.0  -0.1711
  C  C154  1  0.522000  0.161300  0.557350  1.0  0.1377
  C  C155  1  0.589000  0.297100  0.532070  1.0  0.1231
  C  C156  1  0.521200  0.303500  0.476310  1.0  -0.16
  C  C157  1  0.945000  0.908570  0.221360  1.0  0.6119
  C  C158  1  0.006300  0.990030  0.242270  1.0  0.0239
  C  C159  1  0.084600  0.988270  0.293370  1.0  -0.1552
  C  C160  1  0.134200  0.065520  0.312360  1.0  0.1341
  C  C161  1  0.037100  0.143450  0.233170  1.0  0.1367
  C  C162  1  0.982100  0.068850  0.211310  1.0  -0.1816
  C  C163  1  0.135000  0.755600  0.905070  1.0  0.6172
  C  C164  1  0.050100  0.764030  0.960590  1.0  0.0311
  C  C165  1  0.047700  0.836900  0.001350  1.0  -0.1714
  C  C166  1  0.978000  0.838700  0.057350  1.0  0.1361
  C  C167  1  0.911000  0.702900  0.032070  1.0  0.1226
  C  C168  1  0.978800  0.696500  0.976310  1.0  -0.1612
  N  N169  1  0.388500  0.642560  0.283640  1.0  -0.3341
  N  N170  1  0.589000  0.272420  0.073670  1.0  -0.3196
  N  N171  1  0.111500  0.357440  0.783640  1.0  -0.3327
  N  N172  1  0.911000  0.727580  0.573670  1.0  -0.3198
  N  N173  1  0.611500  0.142560  0.216360  1.0  -0.3348
  N  N174  1  0.411000  0.772420  0.426330  1.0  -0.3113
  N  N175  1  0.888500  0.857440  0.716360  1.0  -0.3334
  N  N176  1  0.089000  0.227580  0.926330  1.0  -0.3137
  N  N177  1  0.611500  0.357440  0.716360  1.0  -0.3334
  N  N178  1  0.411000  0.727580  0.926330  1.0  -0.3191
  N  N179  1  0.888500  0.642560  0.216360  1.0  -0.334
  N  N180  1  0.089000  0.272420  0.426330  1.0  -0.3185
  N  N181  1  0.388500  0.857440  0.783640  1.0  -0.3326
  N  N182  1  0.589000  0.227580  0.573670  1.0  -0.3114
  N  N183  1  0.111500  0.142560  0.283640  1.0  -0.334
  N  N184  1  0.911000  0.772420  0.073670  1.0  -0.3146
  O  O185  1  0.510900  0.335960  0.230660  1.0  -0.6086
  O  O186  1  0.647580  0.417860  0.194210  1.0  -0.5791
  O  O187  1  0.315350  0.322660  0.886000  1.0  -0.5924
  O  O188  1  0.344700  0.180630  0.883020  1.0  -0.5698
  O  O189  1  0.989100  0.664040  0.730660  1.0  -0.6076
  O  O190  1  0.852420  0.582140  0.694210  1.0  -0.5787
  O  O191  1  0.184650  0.677340  0.386000  1.0  -0.5902
  O  O192  1  0.155300  0.819370  0.383020  1.0  -0.5671
  O  O193  1  0.489100  0.835960  0.269340  1.0  -0.6074
  O  O194  1  0.352420  0.917860  0.305790  1.0  -0.5792
  O  O195  1  0.684650  0.822660  0.614000  1.0  -0.5911
  O  O196  1  0.655300  0.680630  0.616980  1.0  -0.5679
  O  O197  1  0.010900  0.164040  0.769340  1.0  -0.6076
  O  O198  1  0.147580  0.082140  0.805790  1.0  -0.5796
  O  O199  1  0.815350  0.177340  0.114000  1.0  -0.5915
  O  O200  1  0.844700  0.319370  0.116980  1.0  -0.5676
  O  O201  1  0.489100  0.664040  0.769340  1.0  -0.6066
  O  O202  1  0.352420  0.582140  0.805790  1.0  -0.5793
  O  O203  1  0.684650  0.677340  0.114000  1.0  -0.5905
  O  O204  1  0.655300  0.819370  0.116980  1.0  -0.5656
  O  O205  1  0.010900  0.335960  0.269340  1.0  -0.6079
  O  O206  1  0.147580  0.417860  0.305790  1.0  -0.5795
  O  O207  1  0.815350  0.322660  0.614000  1.0  -0.5921
  O  O208  1  0.844700  0.180630  0.616980  1.0  -0.5682
  O  O209  1  0.510900  0.164040  0.730660  1.0  -0.6081
  O  O210  1  0.647580  0.082140  0.694210  1.0  -0.5792
  O  O211  1  0.315350  0.177340  0.386000  1.0  -0.5915
  O  O212  1  0.344700  0.319370  0.383020  1.0  -0.5672
  O  O213  1  0.989100  0.835960  0.230660  1.0  -0.6081
  O  O214  1  0.852420  0.917860  0.194210  1.0  -0.5786
  O  O215  1  0.184650  0.822660  0.886000  1.0  -0.5908
  O  O216  1  0.155300  0.680630  0.883020  1.0  -0.5678
