# generated using pymatgen
data_Al3(PO4)4
_symmetry_space_group_name_H-M   'P 1'
_cell_length_a   16.79630000
_cell_length_b   16.79630000
_cell_length_c   16.79630000
_cell_angle_alpha   90.00000000
_cell_angle_beta   90.00000000
_cell_angle_gamma   90.00000000
_symmetry_Int_Tables_number   1
_chemical_formula_structural   Al3(PO4)4
_chemical_formula_sum   'Al18 P24 O96'
_cell_volume   4738.49982593
_cell_formula_units_Z   6
loop_
 _symmetry_equiv_pos_site_id
 _symmetry_equiv_pos_as_xyz
  1  'x, y, z'
loop_
 _atom_site_type_symbol
 _atom_site_label
 _atom_site_symmetry_multiplicity
 _atom_site_fract_x
 _atom_site_fract_y
 _atom_site_fract_z
 _atom_site_occupancy
 _atom_site_charge
  Al  Al1  1  0.000000  0.500000  0.000000  1.0  1.9789
  Al  Al2  1  0.500000  0.000000  0.500000  1.0  1.9789
  Al  Al3  1  0.000000  0.000000  0.500000  1.0  1.9789
  Al  Al4  1  0.500000  0.500000  0.000000  1.0  1.9789
  Al  Al5  1  0.500000  0.000000  0.000000  1.0  1.9789
  Al  Al6  1  0.000000  0.500000  0.500000  1.0  1.9789
  Al  Al7  1  0.000000  0.500000  0.250000  1.0  1.9634
  Al  Al8  1  0.000000  0.500000  0.750000  1.0  1.9634
  Al  Al9  1  0.500000  0.000000  0.250000  1.0  1.9634
  Al  Al10  1  0.250000  0.000000  0.500000  1.0  1.9634
  Al  Al11  1  0.750000  0.000000  0.500000  1.0  1.9634
  Al  Al12  1  0.250000  0.500000  0.000000  1.0  1.9634
  Al  Al13  1  0.500000  0.250000  0.000000  1.0  1.9634
  Al  Al14  1  0.500000  0.750000  0.000000  1.0  1.9634
  Al  Al15  1  0.000000  0.250000  0.500000  1.0  1.9634
  Al  Al16  1  0.500000  0.000000  0.750000  1.0  1.9634
  Al  Al17  1  0.000000  0.750000  0.500000  1.0  1.9634
  Al  Al18  1  0.750000  0.500000  0.000000  1.0  1.9634
  P  P19  1  0.877800  0.433600  0.122200  1.0  1.7197
  P  P20  1  0.377800  0.933600  0.622200  1.0  1.7197
  P  P21  1  0.122200  0.566400  0.122200  1.0  1.7211
  P  P22  1  0.622200  0.066400  0.622200  1.0  1.7211
  P  P23  1  0.122200  0.433600  0.877800  1.0  1.7233
  P  P24  1  0.622200  0.933600  0.377800  1.0  1.7233
  P  P25  1  0.877800  0.566400  0.877800  1.0  1.7194
  P  P26  1  0.377800  0.066400  0.377800  1.0  1.7194
  P  P27  1  0.122200  0.877800  0.433600  1.0  1.7209
  P  P28  1  0.622200  0.377800  0.933600  1.0  1.7209
  P  P29  1  0.122200  0.122200  0.566400  1.0  1.721
  P  P30  1  0.622200  0.622200  0.066400  1.0  1.721
  P  P31  1  0.877800  0.122200  0.433600  1.0  1.7173
  P  P32  1  0.377800  0.622200  0.933600  1.0  1.7173
  P  P33  1  0.877800  0.877800  0.566400  1.0  1.7197
  P  P34  1  0.377800  0.377800  0.066400  1.0  1.7197
  P  P35  1  0.433600  0.122200  0.877800  1.0  1.7187
  P  P36  1  0.933600  0.622200  0.377800  1.0  1.7187
  P  P37  1  0.566400  0.122200  0.122200  1.0  1.7209
  P  P38  1  0.066400  0.622200  0.622200  1.0  1.7209
  P  P39  1  0.433600  0.877800  0.122200  1.0  1.7193
  P  P40  1  0.933600  0.377800  0.622200  1.0  1.7193
  P  P41  1  0.566400  0.877800  0.877800  1.0  1.7232
  P  P42  1  0.066400  0.377800  0.377800  1.0  1.7232
  O  O43  1  0.909600  0.480000  0.194100  1.0  -0.8525
  O  O44  1  0.409600  0.980000  0.694100  1.0  -0.8525
  O  O45  1  0.090400  0.520000  0.194100  1.0  -0.8508
  O  O46  1  0.590400  0.020000  0.694100  1.0  -0.8508
  O  O47  1  0.090400  0.480000  0.805900  1.0  -0.8507
  O  O48  1  0.590400  0.980000  0.305900  1.0  -0.8507
  O  O49  1  0.909600  0.520000  0.805900  1.0  -0.8518
  O  O50  1  0.409600  0.020000  0.305900  1.0  -0.8518
  O  O51  1  0.194100  0.909600  0.480000  1.0  -0.851
  O  O52  1  0.694100  0.409600  0.980000  1.0  -0.851
  O  O53  1  0.194100  0.090400  0.520000  1.0  -0.851
  O  O54  1  0.694100  0.590400  0.020000  1.0  -0.851
  O  O55  1  0.805900  0.090400  0.480000  1.0  -0.8532
  O  O56  1  0.305900  0.590400  0.980000  1.0  -0.8532
  O  O57  1  0.805900  0.909600  0.520000  1.0  -0.8525
  O  O58  1  0.305900  0.409600  0.020000  1.0  -0.8525
  O  O59  1  0.480000  0.194100  0.909600  1.0  -0.8504
  O  O60  1  0.980000  0.694100  0.409600  1.0  -0.8504
  O  O61  1  0.520000  0.194100  0.090400  1.0  -0.8514
  O  O62  1  0.020000  0.694100  0.590400  1.0  -0.8514
  O  O63  1  0.480000  0.805900  0.090400  1.0  -0.85
  O  O64  1  0.980000  0.305900  0.590400  1.0  -0.85
  O  O65  1  0.520000  0.805900  0.909600  1.0  -0.8513
  O  O66  1  0.020000  0.305900  0.409600  1.0  -0.8513
  O  O67  1  0.480000  0.909600  0.194100  1.0  -0.8517
  O  O68  1  0.980000  0.409600  0.694100  1.0  -0.8517
  O  O69  1  0.520000  0.090400  0.194100  1.0  -0.8527
  O  O70  1  0.020000  0.590400  0.694100  1.0  -0.8527
  O  O71  1  0.480000  0.090400  0.805900  1.0  -0.8515
  O  O72  1  0.980000  0.590400  0.305900  1.0  -0.8515
  O  O73  1  0.520000  0.909600  0.805900  1.0  -0.8521
  O  O74  1  0.020000  0.409600  0.305900  1.0  -0.8521
  O  O75  1  0.909600  0.194100  0.480000  1.0  -0.8532
  O  O76  1  0.409600  0.694100  0.980000  1.0  -0.8532
  O  O77  1  0.090400  0.194100  0.520000  1.0  -0.8523
  O  O78  1  0.590400  0.694100  0.020000  1.0  -0.8523
  O  O79  1  0.090400  0.805900  0.480000  1.0  -0.8518
  O  O80  1  0.590400  0.305900  0.980000  1.0  -0.8518
  O  O81  1  0.909600  0.805900  0.520000  1.0  -0.8527
  O  O82  1  0.409600  0.305900  0.020000  1.0  -0.8527
  O  O83  1  0.194100  0.480000  0.909600  1.0  -0.8495
  O  O84  1  0.694100  0.980000  0.409600  1.0  -0.8495
  O  O85  1  0.194100  0.520000  0.090400  1.0  -0.8492
  O  O86  1  0.694100  0.020000  0.590400  1.0  -0.8492
  O  O87  1  0.805900  0.480000  0.090400  1.0  -0.8515
  O  O88  1  0.305900  0.980000  0.590400  1.0  -0.8515
  O  O89  1  0.805900  0.520000  0.909600  1.0  -0.8517
  O  O90  1  0.305900  0.020000  0.409600  1.0  -0.8517
  O  O91  1  0.859000  0.347100  0.141000  1.0  -0.545
  O  O92  1  0.942500  0.437400  0.057500  1.0  -0.9518
  O  O93  1  0.359000  0.847100  0.641000  1.0  -0.545
  O  O94  1  0.442500  0.937400  0.557500  1.0  -0.9518
  O  O95  1  0.141000  0.652900  0.141000  1.0  -0.5445
  O  O96  1  0.057500  0.562600  0.057500  1.0  -0.9537
  O  O97  1  0.641000  0.152900  0.641000  1.0  -0.5445
  O  O98  1  0.557500  0.062600  0.557500  1.0  -0.9537
  O  O99  1  0.141000  0.347100  0.859000  1.0  -0.5442
  O  O100  1  0.057500  0.437400  0.942500  1.0  -0.9531
  O  O101  1  0.641000  0.847100  0.359000  1.0  -0.5442
  O  O102  1  0.557500  0.937400  0.442500  1.0  -0.9531
  O  O103  1  0.859000  0.652900  0.859000  1.0  -0.5449
  O  O104  1  0.942500  0.562600  0.942500  1.0  -0.9526
  O  O105  1  0.359000  0.152900  0.359000  1.0  -0.5449
  O  O106  1  0.442500  0.062600  0.442500  1.0  -0.9526
  O  O107  1  0.141000  0.859000  0.347100  1.0  -0.5465
  O  O108  1  0.057500  0.942500  0.437400  1.0  -0.9467
  O  O109  1  0.641000  0.359000  0.847100  1.0  -0.5465
  O  O110  1  0.557500  0.442500  0.937400  1.0  -0.9467
  O  O111  1  0.141000  0.141000  0.652900  1.0  -0.5481
  O  O112  1  0.057500  0.057500  0.562600  1.0  -0.9478
  O  O113  1  0.641000  0.641000  0.152900  1.0  -0.5481
  O  O114  1  0.557500  0.557500  0.062600  1.0  -0.9478
  O  O115  1  0.859000  0.141000  0.347100  1.0  -0.5462
  O  O116  1  0.942500  0.057500  0.437400  1.0  -0.9472
  O  O117  1  0.359000  0.641000  0.847100  1.0  -0.5462
  O  O118  1  0.442500  0.557500  0.937400  1.0  -0.9472
  O  O119  1  0.859000  0.859000  0.652900  1.0  -0.5487
  O  O120  1  0.942500  0.942500  0.562600  1.0  -0.9466
  O  O121  1  0.359000  0.359000  0.152900  1.0  -0.5487
  O  O122  1  0.442500  0.442500  0.062600  1.0  -0.9466
  O  O123  1  0.347100  0.141000  0.859000  1.0  -0.5348
  O  O124  1  0.437400  0.057500  0.942500  1.0  -0.9517
  O  O125  1  0.847100  0.641000  0.359000  1.0  -0.5348
  O  O126  1  0.937400  0.557500  0.442500  1.0  -0.9517
  O  O127  1  0.652900  0.141000  0.141000  1.0  -0.5407
  O  O128  1  0.562600  0.057500  0.057500  1.0  -0.9517
  O  O129  1  0.152900  0.641000  0.641000  1.0  -0.5407
  O  O130  1  0.062600  0.557500  0.557500  1.0  -0.9517
  O  O131  1  0.347100  0.859000  0.141000  1.0  -0.5353
  O  O132  1  0.437400  0.942500  0.057500  1.0  -0.9515
  O  O133  1  0.847100  0.359000  0.641000  1.0  -0.5353
  O  O134  1  0.937400  0.442500  0.557500  1.0  -0.9515
  O  O135  1  0.652900  0.859000  0.859000  1.0  -0.5405
  O  O136  1  0.562600  0.942500  0.942500  1.0  -0.9509
  O  O137  1  0.152900  0.359000  0.359000  1.0  -0.5405
  O  O138  1  0.062600  0.442500  0.442500  1.0  -0.9509
