# generated using pymatgen
data_Al3(PO4)4
_symmetry_space_group_name_H-M   'P 1'
_cell_length_a   16.77050000
_cell_length_b   16.77050000
_cell_length_c   16.77050000
_cell_angle_alpha   90.00000000
_cell_angle_beta   90.00000000
_cell_angle_gamma   90.00000000
_symmetry_Int_Tables_number   1
_chemical_formula_structural   Al3(PO4)4
_chemical_formula_sum   'Al18 P24 O96'
_cell_volume   4716.69759493
_cell_formula_units_Z   6
loop_
 _symmetry_equiv_pos_site_id
 _symmetry_equiv_pos_as_xyz
  1  'x, y, z'
loop_
 _atom_site_type_symbol
 _atom_site_label
 _atom_site_symmetry_multiplicity
 _atom_site_fract_x
 _atom_site_fract_y
 _atom_site_fract_z
 _atom_site_occupancy
 _atom_site_charge
  Al  Al1  1  0.000000  0.500000  0.500000  1.0  1.9705
  Al  Al2  1  0.500000  0.000000  0.000000  1.0  1.9705
  Al  Al3  1  0.500000  0.000000  0.500000  1.0  1.9705
  Al  Al4  1  0.000000  0.500000  0.000000  1.0  1.9705
  Al  Al5  1  0.500000  0.500000  0.000000  1.0  1.9705
  Al  Al6  1  0.000000  0.000000  0.500000  1.0  1.9705
  Al  Al7  1  0.000000  0.500000  0.750000  1.0  1.8965
  Al  Al8  1  0.000000  0.500000  0.250000  1.0  1.8965
  Al  Al9  1  0.750000  0.000000  0.500000  1.0  1.8965
  Al  Al10  1  0.250000  0.000000  0.500000  1.0  1.8965
  Al  Al11  1  0.500000  0.750000  0.000000  1.0  1.8965
  Al  Al12  1  0.500000  0.250000  0.000000  1.0  1.8965
  Al  Al13  1  0.500000  0.000000  0.750000  1.0  1.8965
  Al  Al14  1  0.500000  0.000000  0.250000  1.0  1.8965
  Al  Al15  1  0.000000  0.750000  0.500000  1.0  1.8965
  Al  Al16  1  0.000000  0.250000  0.500000  1.0  1.8965
  Al  Al17  1  0.750000  0.500000  0.000000  1.0  1.8965
  Al  Al18  1  0.250000  0.500000  0.000000  1.0  1.8965
  P  P19  1  0.933270  0.376900  0.623100  1.0  1.7237
  P  P20  1  0.433270  0.876900  0.123100  1.0  1.7237
  P  P21  1  0.066730  0.623100  0.623100  1.0  1.7246
  P  P22  1  0.566730  0.123100  0.123100  1.0  1.7246
  P  P23  1  0.066730  0.376900  0.376900  1.0  1.7255
  P  P24  1  0.566730  0.876900  0.876900  1.0  1.7255
  P  P25  1  0.933270  0.623100  0.376900  1.0  1.7234
  P  P26  1  0.433270  0.123100  0.876900  1.0  1.7234
  P  P27  1  0.623100  0.933270  0.376900  1.0  1.7257
  P  P28  1  0.123100  0.433270  0.876900  1.0  1.7257
  P  P29  1  0.623100  0.066730  0.623100  1.0  1.7256
  P  P30  1  0.123100  0.566730  0.123100  1.0  1.7256
  P  P31  1  0.376900  0.066730  0.376900  1.0  1.7251
  P  P32  1  0.876900  0.566730  0.876900  1.0  1.7251
  P  P33  1  0.376900  0.933270  0.623100  1.0  1.7244
  P  P34  1  0.876900  0.433270  0.123100  1.0  1.7244
  P  P35  1  0.376900  0.623100  0.933270  1.0  1.7228
  P  P36  1  0.876900  0.123100  0.433270  1.0  1.7228
  P  P37  1  0.623100  0.623100  0.066730  1.0  1.7241
  P  P38  1  0.123100  0.123100  0.566730  1.0  1.7241
  P  P39  1  0.376900  0.376900  0.066730  1.0  1.7237
  P  P40  1  0.876900  0.876900  0.566730  1.0  1.7237
  P  P41  1  0.623100  0.376900  0.933270  1.0  1.7241
  P  P42  1  0.123100  0.876900  0.433270  1.0  1.7241
  O  O43  1  0.980020  0.406580  0.696340  1.0  -0.8324
  O  O44  1  0.480020  0.906580  0.196340  1.0  -0.8324
  O  O45  1  0.019980  0.593420  0.696340  1.0  -0.8331
  O  O46  1  0.519980  0.093420  0.196340  1.0  -0.8331
  O  O47  1  0.019980  0.406580  0.303660  1.0  -0.8323
  O  O48  1  0.519980  0.906580  0.803660  1.0  -0.8323
  O  O49  1  0.980020  0.593420  0.303660  1.0  -0.8313
  O  O50  1  0.480020  0.093420  0.803660  1.0  -0.8313
  O  O51  1  0.696340  0.980020  0.406580  1.0  -0.8286
  O  O52  1  0.196340  0.480020  0.906580  1.0  -0.8286
  O  O53  1  0.696340  0.019980  0.593420  1.0  -0.8291
  O  O54  1  0.196340  0.519980  0.093420  1.0  -0.8291
  O  O55  1  0.303660  0.019980  0.406580  1.0  -0.8292
  O  O56  1  0.803660  0.519980  0.906580  1.0  -0.8292
  O  O57  1  0.303660  0.980020  0.593420  1.0  -0.8298
  O  O58  1  0.803660  0.480020  0.093420  1.0  -0.8298
  O  O59  1  0.406580  0.696340  0.980020  1.0  -0.8342
  O  O60  1  0.906580  0.196340  0.480020  1.0  -0.8342
  O  O61  1  0.593420  0.696340  0.019980  1.0  -0.834
  O  O62  1  0.093420  0.196340  0.519980  1.0  -0.834
  O  O63  1  0.406580  0.303660  0.019980  1.0  -0.8321
  O  O64  1  0.906580  0.803660  0.519980  1.0  -0.8321
  O  O65  1  0.593420  0.303660  0.980020  1.0  -0.8323
  O  O66  1  0.093420  0.803660  0.480020  1.0  -0.8323
  O  O67  1  0.406580  0.980020  0.696340  1.0  -0.833
  O  O68  1  0.906580  0.480020  0.196340  1.0  -0.833
  O  O69  1  0.593420  0.019980  0.696340  1.0  -0.8323
  O  O70  1  0.093420  0.519980  0.196340  1.0  -0.8323
  O  O71  1  0.406580  0.019980  0.303660  1.0  -0.8314
  O  O72  1  0.906580  0.519980  0.803660  1.0  -0.8314
  O  O73  1  0.593420  0.980020  0.303660  1.0  -0.8314
  O  O74  1  0.093420  0.480020  0.803660  1.0  -0.8314
  O  O75  1  0.980020  0.696340  0.406580  1.0  -0.8297
  O  O76  1  0.480020  0.196340  0.906580  1.0  -0.8297
  O  O77  1  0.019980  0.696340  0.593420  1.0  -0.8312
  O  O78  1  0.519980  0.196340  0.093420  1.0  -0.8312
  O  O79  1  0.019980  0.303660  0.406580  1.0  -0.8298
  O  O80  1  0.519980  0.803660  0.906580  1.0  -0.8298
  O  O81  1  0.980020  0.303660  0.593420  1.0  -0.829
  O  O82  1  0.480020  0.803660  0.093420  1.0  -0.829
  O  O83  1  0.696340  0.406580  0.980020  1.0  -0.8315
  O  O84  1  0.196340  0.906580  0.480020  1.0  -0.8315
  O  O85  1  0.696340  0.593420  0.019980  1.0  -0.8315
  O  O86  1  0.196340  0.093420  0.519980  1.0  -0.8315
  O  O87  1  0.303660  0.406580  0.019980  1.0  -0.8316
  O  O88  1  0.803660  0.906580  0.519980  1.0  -0.8316
  O  O89  1  0.303660  0.593420  0.980020  1.0  -0.832
  O  O90  1  0.803660  0.093420  0.480020  1.0  -0.832
  O  O91  1  0.848160  0.356840  0.643160  1.0  -0.5508
  O  O92  1  0.936210  0.441920  0.558080  1.0  -0.9434
  O  O93  1  0.348160  0.856840  0.143160  1.0  -0.5508
  O  O94  1  0.436210  0.941920  0.058080  1.0  -0.9434
  O  O95  1  0.151840  0.643160  0.643160  1.0  -0.5583
  O  O96  1  0.063790  0.558080  0.558080  1.0  -0.9432
  O  O97  1  0.651840  0.143160  0.143160  1.0  -0.5583
  O  O98  1  0.563790  0.058080  0.058080  1.0  -0.9432
  O  O99  1  0.151840  0.356840  0.356840  1.0  -0.5571
  O  O100  1  0.063790  0.441920  0.441920  1.0  -0.9437
  O  O101  1  0.651840  0.856840  0.856840  1.0  -0.5571
  O  O102  1  0.563790  0.941920  0.941920  1.0  -0.9437
  O  O103  1  0.848160  0.643160  0.356840  1.0  -0.5501
  O  O104  1  0.936210  0.558080  0.441920  1.0  -0.9434
  O  O105  1  0.348160  0.143160  0.856840  1.0  -0.5501
  O  O106  1  0.436210  0.058080  0.941920  1.0  -0.9434
  O  O107  1  0.643160  0.848160  0.356840  1.0  -0.5618
  O  O108  1  0.558080  0.936210  0.441920  1.0  -0.945
  O  O109  1  0.143160  0.348160  0.856840  1.0  -0.5618
  O  O110  1  0.058080  0.436210  0.941920  1.0  -0.945
  O  O111  1  0.643160  0.151840  0.643160  1.0  -0.5634
  O  O112  1  0.558080  0.063790  0.558080  1.0  -0.9464
  O  O113  1  0.143160  0.651840  0.143160  1.0  -0.5634
  O  O114  1  0.058080  0.563790  0.058080  1.0  -0.9464
  O  O115  1  0.356840  0.151840  0.356840  1.0  -0.5632
  O  O116  1  0.441920  0.063790  0.441920  1.0  -0.9456
  O  O117  1  0.856840  0.651840  0.856840  1.0  -0.5632
  O  O118  1  0.941920  0.563790  0.941920  1.0  -0.9456
  O  O119  1  0.356840  0.848160  0.643160  1.0  -0.5628
  O  O120  1  0.441920  0.936210  0.558080  1.0  -0.9433
  O  O121  1  0.856840  0.348160  0.143160  1.0  -0.5628
  O  O122  1  0.941920  0.436210  0.058080  1.0  -0.9433
  O  O123  1  0.356840  0.643160  0.848160  1.0  -0.5635
  O  O124  1  0.441920  0.558080  0.936210  1.0  -0.9368
  O  O125  1  0.856840  0.143160  0.348160  1.0  -0.5635
  O  O126  1  0.941920  0.058080  0.436210  1.0  -0.9368
  O  O127  1  0.643160  0.643160  0.151840  1.0  -0.5656
  O  O128  1  0.558080  0.558080  0.063790  1.0  -0.9391
  O  O129  1  0.143160  0.143160  0.651840  1.0  -0.5656
  O  O130  1  0.058080  0.058080  0.563790  1.0  -0.9391
  O  O131  1  0.356840  0.356840  0.151840  1.0  -0.5655
  O  O132  1  0.441920  0.441920  0.063790  1.0  -0.9385
  O  O133  1  0.856840  0.856840  0.651840  1.0  -0.5655
  O  O134  1  0.941920  0.941920  0.563790  1.0  -0.9385
  O  O135  1  0.643160  0.356840  0.848160  1.0  -0.5634
  O  O136  1  0.558080  0.441920  0.936210  1.0  -0.9367
  O  O137  1  0.143160  0.856840  0.348160  1.0  -0.5634
  O  O138  1  0.058080  0.941920  0.436210  1.0  -0.9367
