# generated using pymatgen
data_Pr4Cu4H38C78N13ClO27
_symmetry_space_group_name_H-M   'P 1'
_cell_length_a   17.38490000
_cell_length_b   21.03310000
_cell_length_c   23.40900000
_cell_angle_alpha   90.00000000
_cell_angle_beta   91.97800000
_cell_angle_gamma   90.00000000
_symmetry_Int_Tables_number   1
_chemical_formula_structural   Pr4Cu4H38C78N13ClO27
_chemical_formula_sum   'Pr16 Cu16 H152 C312 N52 Cl4 O108'
_cell_volume   8554.59582304
_cell_formula_units_Z   4
loop_
 _symmetry_equiv_pos_site_id
 _symmetry_equiv_pos_as_xyz
  1  'x, y, z'
loop_
 _atom_site_type_symbol
 _atom_site_label
 _atom_site_symmetry_multiplicity
 _atom_site_fract_x
 _atom_site_fract_y
 _atom_site_fract_z
 _atom_site_occupancy
 _atom_site_charge
  Pr  Pr1  1  0.571840  0.833530  0.906330  1.0  2.1755
  Pr  Pr2  1  0.450320  0.827640  0.075500  1.0  2.1959
  Pr  Pr3  1  0.935080  0.996910  0.585030  1.0  2.2269
  Pr  Pr4  1  0.769650  0.086190  0.751760  1.0  1.906
  Pr  Pr5  1  0.928160  0.333530  0.593670  1.0  2.1761
  Pr  Pr6  1  0.049680  0.327640  0.424500  1.0  2.1942
  Pr  Pr7  1  0.564920  0.496910  0.914970  1.0  2.2273
  Pr  Pr8  1  0.730350  0.586190  0.748240  1.0  1.905
  Pr  Pr9  1  0.428160  0.166470  0.093670  1.0  2.1756
  Pr  Pr10  1  0.549680  0.172360  0.924500  1.0  2.1954
  Pr  Pr11  1  0.064920  0.003090  0.414970  1.0  2.2277
  Pr  Pr12  1  0.230350  0.913810  0.248240  1.0  1.9049
  Pr  Pr13  1  0.071840  0.666470  0.406330  1.0  2.1749
  Pr  Pr14  1  0.950320  0.672360  0.575500  1.0  2.1968
  Pr  Pr15  1  0.435080  0.503090  0.085030  1.0  2.2269
  Pr  Pr16  1  0.269650  0.413810  0.251760  1.0  1.906
  Cu  Cu17  1  0.230250  0.834950  0.725570  1.0  0.3722
  Cu  Cu18  1  0.274840  0.001910  0.768400  1.0  0.4023
  Cu  Cu19  1  0.288870  0.669840  0.760000  1.0  0.3869
  Cu  Cu20  1  0.490210  0.116680  0.506430  1.0  0.4064
  Cu  Cu21  1  0.269750  0.334950  0.774430  1.0  0.3719
  Cu  Cu22  1  0.225160  0.501910  0.731600  1.0  0.4016
  Cu  Cu23  1  0.211130  0.169840  0.740000  1.0  0.3862
  Cu  Cu24  1  0.009790  0.616680  0.993570  1.0  0.4063
  Cu  Cu25  1  0.769750  0.165050  0.274430  1.0  0.3718
  Cu  Cu26  1  0.725160  0.998090  0.231600  1.0  0.4016
  Cu  Cu27  1  0.711130  0.330160  0.240000  1.0  0.3862
  Cu  Cu28  1  0.509790  0.883320  0.493570  1.0  0.4058
  Cu  Cu29  1  0.730250  0.665050  0.225570  1.0  0.3723
  Cu  Cu30  1  0.774840  0.498090  0.268400  1.0  0.4023
  Cu  Cu31  1  0.788870  0.830160  0.260000  1.0  0.3868
  Cu  Cu32  1  0.990210  0.383320  0.006430  1.0  0.4054
  H  H33  1  0.398600  0.878700  0.775000  1.0  0.0728
  H  H34  1  0.544000  0.848300  0.650200  1.0  0.1012
  H  H35  1  0.441200  0.825400  0.590400  1.0  0.1012
  H  H36  1  0.334800  0.842800  0.534100  1.0  0.1018
  H  H37  1  0.226200  0.817900  0.480400  1.0  0.1115
  H  H38  1  0.117900  0.788100  0.625800  1.0  0.0663
  H  H39  1  0.060700  0.881200  0.679400  1.0  0.07
  H  H40  1  0.922300  0.856900  0.810700  1.0  0.1062
  H  H41  1  0.028500  0.844000  0.869500  1.0  0.1257
  H  H42  1  0.135700  0.846500  0.922000  1.0  0.1266
  H  H43  1  0.250600  0.822800  0.969300  1.0  0.0964
  H  H44  1  0.344300  0.789000  0.820100  1.0  0.0744
  H  H45  1  0.966800  0.015500  0.845800  1.0  0.1157
  H  H46  1  0.110700  0.037700  0.717900  1.0  0.08
  H  H47  1  0.070900  0.999500  0.906200  1.0  0.1081
  H  H48  1  0.182000  0.002500  0.962600  1.0  0.1199
  H  H49  1  0.294400  0.978100  0.010800  1.0  0.1116
  H  H50  1  0.392600  0.949800  0.861900  1.0  0.0736
  H  H51  1  0.432900  0.058600  0.819300  1.0  0.068
  H  H52  1  0.415700  0.970700  0.302400  1.0  0.1046
  H  H53  1  0.518500  0.993700  0.364400  1.0  0.0934
  H  H54  1  0.374800  0.018600  0.576800  1.0  0.1038
  H  H55  1  0.261500  0.996800  0.525800  1.0  0.0919
  H  H56  1  0.162000  0.956600  0.670400  1.0  0.0845
  H  H57  1  0.451300  0.714300  0.810500  1.0  0.0817
  H  H58  1  0.596500  0.683900  0.686800  1.0  0.1105
  H  H59  1  0.495700  0.673700  0.623800  1.0  0.1197
  H  H60  1  0.390400  0.680900  0.566100  1.0  0.1166
  H  H61  1  0.277900  0.661400  0.513800  1.0  0.1084
  H  H62  1  0.173600  0.626500  0.658500  1.0  0.0805
  H  H63  1  0.131900  0.711500  0.707000  1.0  0.0789
  H  H64  1  0.478100  0.804800  0.329500  1.0  0.1249
  H  H65  1  0.576200  0.829000  0.393400  1.0  0.1106
  H  H66  1  0.182900  0.678100  0.952000  1.0  0.116
  H  H67  1  0.291400  0.650500  0.005000  1.0  0.0931
  H  H68  1  0.400100  0.615800  0.862300  1.0  0.0749
  H  H69  1  0.642200  0.100200  0.583800  1.0  0.1011
  H  H70  1  0.669800  0.912300  0.568900  1.0  0.1193
  H  H71  1  0.101400  0.378700  0.725000  1.0  0.0724
  H  H72  1  0.956000  0.348300  0.849800  1.0  0.1012
  H  H73  1  0.058800  0.325400  0.909600  1.0  0.1017
  H  H74  1  0.165200  0.342800  0.965900  1.0  0.1009
  H  H75  1  0.273800  0.317900  0.019600  1.0  0.1123
  H  H76  1  0.382100  0.288100  0.874200  1.0  0.0657
  H  H77  1  0.439300  0.381200  0.820600  1.0  0.0688
  H  H78  1  0.577700  0.356900  0.689300  1.0  0.1056
  H  H79  1  0.471500  0.344000  0.630500  1.0  0.1255
  H  H80  1  0.364300  0.346500  0.578000  1.0  0.1265
  H  H81  1  0.249400  0.322800  0.530700  1.0  0.0965
  H  H82  1  0.155700  0.289000  0.679900  1.0  0.0761
  H  H83  1  0.533200  0.515500  0.654200  1.0  0.1163
  H  H84  1  0.389300  0.537700  0.782100  1.0  0.0799
  H  H85  1  0.429100  0.499500  0.593800  1.0  0.1097
  H  H86  1  0.318000  0.502500  0.537400  1.0  0.1214
  H  H87  1  0.205600  0.478100  0.489200  1.0  0.1119
  H  H88  1  0.107400  0.449800  0.638100  1.0  0.0743
  H  H89  1  0.067100  0.558600  0.680700  1.0  0.0685
  H  H90  1  0.084300  0.470700  0.197600  1.0  0.1058
  H  H91  1  0.981500  0.493700  0.135600  1.0  0.0939
  H  H92  1  0.125200  0.518600  0.923200  1.0  0.1043
  H  H93  1  0.238500  0.496800  0.974200  1.0  0.093
  H  H94  1  0.338000  0.456600  0.829600  1.0  0.0828
  H  H95  1  0.048700  0.214300  0.689500  1.0  0.0821
  H  H96  1  0.903500  0.183900  0.813200  1.0  0.1121
  H  H97  1  0.004300  0.173700  0.876200  1.0  0.1193
  H  H98  1  0.109600  0.180900  0.933900  1.0  0.1159
  H  H99  1  0.222100  0.161400  0.986200  1.0  0.1078
  H  H100  1  0.326400  0.126500  0.841500  1.0  0.0787
  H  H101  1  0.368100  0.211500  0.793000  1.0  0.0803
  H  H102  1  0.021900  0.304800  0.170500  1.0  0.124
  H  H103  1  0.923800  0.329000  0.106600  1.0  0.1098
  H  H104  1  0.317100  0.178100  0.548000  1.0  0.1163
  H  H105  1  0.208600  0.150500  0.495000  1.0  0.0934
  H  H106  1  0.099900  0.115800  0.637700  1.0  0.0753
  H  H107  1  0.857800  0.600200  0.916200  1.0  0.1007
  H  H108  1  0.830200  0.412300  0.931100  1.0  0.1193
  H  H109  1  0.601400  0.121300  0.225000  1.0  0.0724
  H  H110  1  0.456000  0.151700  0.349800  1.0  0.1012
  H  H111  1  0.558800  0.174600  0.409600  1.0  0.1015
  H  H112  1  0.665200  0.157200  0.465900  1.0  0.1009
  H  H113  1  0.773800  0.182100  0.519600  1.0  0.1121
  H  H114  1  0.882100  0.211900  0.374200  1.0  0.0654
  H  H115  1  0.939300  0.118800  0.320600  1.0  0.0691
  H  H116  1  0.077700  0.143100  0.189300  1.0  0.1056
  H  H117  1  0.971500  0.156000  0.130500  1.0  0.1254
  H  H118  1  0.864300  0.153500  0.078000  1.0  0.1263
  H  H119  1  0.749400  0.177200  0.030700  1.0  0.0965
  H  H120  1  0.655700  0.211000  0.179900  1.0  0.0761
  H  H121  1  0.033200  0.984500  0.154200  1.0  0.1164
  H  H122  1  0.889300  0.962300  0.282100  1.0  0.0802
  H  H123  1  0.929100  0.000500  0.093800  1.0  0.1096
  H  H124  1  0.818000  0.997500  0.037400  1.0  0.1215
  H  H125  1  0.705600  0.021900  0.989200  1.0  0.1117
  H  H126  1  0.607400  0.050200  0.138100  1.0  0.0741
  H  H127  1  0.567100  0.941400  0.180700  1.0  0.0685
  H  H128  1  0.584300  0.029300  0.697600  1.0  0.1057
  H  H129  1  0.481500  0.006300  0.635600  1.0  0.0939
  H  H130  1  0.625200  0.981400  0.423200  1.0  0.1043
  H  H131  1  0.738500  0.003200  0.474200  1.0  0.0924
  H  H132  1  0.838000  0.043400  0.329600  1.0  0.0829
  H  H133  1  0.548700  0.285700  0.189500  1.0  0.0823
  H  H134  1  0.403500  0.316100  0.313200  1.0  0.1118
  H  H135  1  0.504300  0.326300  0.376200  1.0  0.1191
  H  H136  1  0.609600  0.319100  0.433900  1.0  0.116
  H  H137  1  0.722100  0.338600  0.486200  1.0  0.108
  H  H138  1  0.826400  0.373500  0.341500  1.0  0.079
  H  H139  1  0.868100  0.288500  0.293000  1.0  0.0808
  H  H140  1  0.521900  0.195200  0.670500  1.0  0.1242
  H  H141  1  0.423800  0.171000  0.606600  1.0  0.1099
  H  H142  1  0.817100  0.321900  0.048000  1.0  0.1164
  H  H143  1  0.708600  0.349500  0.995000  1.0  0.0931
  H  H144  1  0.599900  0.384200  0.137700  1.0  0.0748
  H  H145  1  0.357800  0.899800  0.416200  1.0  0.1017
  H  H146  1  0.330200  0.087700  0.431100  1.0  0.1195
  H  H147  1  0.898600  0.621300  0.275000  1.0  0.0726
  H  H148  1  0.044000  0.651700  0.150200  1.0  0.1014
  H  H149  1  0.941200  0.674600  0.090400  1.0  0.1012
  H  H150  1  0.834800  0.657200  0.034100  1.0  0.1018
  H  H151  1  0.726200  0.682100  0.980400  1.0  0.1115
  H  H152  1  0.617900  0.711900  0.125800  1.0  0.0658
  H  H153  1  0.560700  0.618800  0.179400  1.0  0.0704
  H  H154  1  0.422300  0.643100  0.310700  1.0  0.1061
  H  H155  1  0.528500  0.656000  0.369500  1.0  0.1255
  H  H156  1  0.635700  0.653500  0.422000  1.0  0.1267
  H  H157  1  0.750600  0.677200  0.469300  1.0  0.0964
  H  H158  1  0.844300  0.711000  0.320100  1.0  0.0745
  H  H159  1  0.466800  0.484500  0.345800  1.0  0.1156
  H  H160  1  0.610700  0.462300  0.217900  1.0  0.0795
  H  H161  1  0.570900  0.500500  0.406200  1.0  0.1079
  H  H162  1  0.682000  0.497500  0.462600  1.0  0.1201
  H  H163  1  0.794400  0.521900  0.510800  1.0  0.1117
  H  H164  1  0.892600  0.550200  0.361900  1.0  0.0735
  H  H165  1  0.932900  0.441400  0.319300  1.0  0.0675
  H  H166  1  0.915700  0.529300  0.802400  1.0  0.1046
  H  H167  1  0.018500  0.506300  0.864400  1.0  0.0935
  H  H168  1  0.874800  0.481400  0.076800  1.0  0.1037
  H  H169  1  0.761500  0.503200  0.025800  1.0  0.0914
  H  H170  1  0.662000  0.543400  0.170400  1.0  0.0845
  H  H171  1  0.951300  0.785700  0.310500  1.0  0.0814
  H  H172  1  0.096500  0.816100  0.186800  1.0  0.1106
  H  H173  1  0.995700  0.826300  0.123800  1.0  0.1197
  H  H174  1  0.890400  0.819100  0.066100  1.0  0.1163
  H  H175  1  0.777900  0.838600  0.013800  1.0  0.1084
  H  H176  1  0.673600  0.873500  0.158500  1.0  0.0806
  H  H177  1  0.631900  0.788500  0.207000  1.0  0.0798
  H  H178  1  0.978100  0.695200  0.829500  1.0  0.1252
  H  H179  1  0.076200  0.671000  0.893400  1.0  0.1101
  H  H180  1  0.682900  0.821900  0.452000  1.0  0.1164
  H  H181  1  0.791400  0.849500  0.505000  1.0  0.0931
  H  H182  1  0.900100  0.884200  0.362300  1.0  0.0737
  H  H183  1  0.142200  0.399800  0.083800  1.0  0.1019
  H  H184  1  0.169800  0.587700  0.068900  1.0  0.119
  C  C185  1  0.551300  0.874400  0.762100  1.0  0.6891
  C  C186  1  0.483600  0.863600  0.720400  1.0  -0.1383
  C  C187  1  0.407500  0.867400  0.737400  1.0  0.1294
  C  C188  1  0.494500  0.849500  0.663900  1.0  -0.0227
  C  C189  1  0.433200  0.837200  0.628000  1.0  -0.1302
  C  C190  1  0.357200  0.842100  0.647500  1.0  0.2101
  C  C191  1  0.289600  0.828800  0.612300  1.0  0.1675
  C  C192  1  0.290100  0.831100  0.552100  1.0  -0.0977
  C  C193  1  0.225800  0.816300  0.520100  1.0  -0.0247
  C  C194  1  0.162500  0.798800  0.607200  1.0  0.2017
  C  C195  1  0.159200  0.798800  0.547600  1.0  -0.1987
  C  C196  1  0.591700  0.727500  0.014000  1.0  0.6859
  C  C197  1  0.912700  0.887500  0.697300  1.0  0.697
  C  C198  1  0.979300  0.873900  0.736900  1.0  -0.1609
  C  C199  1  0.053900  0.873300  0.718000  1.0  0.1945
  C  C200  1  0.971100  0.859700  0.795900  1.0  -0.0044
  C  C201  1  0.033700  0.850200  0.830500  1.0  -0.1529
  C  C202  1  0.106200  0.849700  0.807000  1.0  0.1915
  C  C203  1  0.177800  0.834400  0.840600  1.0  0.1268
  C  C204  1  0.179200  0.836100  0.902000  1.0  -0.1733
  C  C205  1  0.247500  0.821700  0.929600  1.0  0.0113
  C  C206  1  0.302600  0.802900  0.840600  1.0  0.1706
  C  C207  1  0.312100  0.805500  0.900100  1.0  -0.0853
  C  C208  1  0.389100  0.793500  0.929600  1.0  0.6874
  C  C209  1  0.961200  0.037000  0.731200  1.0  0.7004
  C  C210  1  0.027500  0.029400  0.774300  1.0  -0.1661
  C  C211  1  0.016300  0.016900  0.832000  1.0  -0.0068
  C  C212  1  0.102600  0.030300  0.756300  1.0  0.1136
  C  C213  1  0.078000  0.006800  0.867600  1.0  -0.1294
  C  C214  1  0.151900  0.007400  0.846900  1.0  0.1815
  C  C215  1  0.223200  0.992200  0.882400  1.0  0.1365
  C  C216  1  0.225600  0.992100  0.942700  1.0  -0.1545
  C  C217  1  0.291700  0.976700  0.971000  1.0  -0.0052
  C  C218  1  0.349400  0.960700  0.882200  1.0  0.2035
  C  C219  1  0.355400  0.959100  0.941600  1.0  -0.153
  C  C220  1  0.426300  0.932500  0.971100  1.0  0.7035
  C  C221  1  0.417900  0.932600  0.192400  1.0  0.7379
  C  C222  1  0.479900  0.951400  0.234100  1.0  -0.1604
  C  C223  1  0.443100  0.048000  0.781800  1.0  0.1492
  C  C224  1  0.465800  0.968900  0.289900  1.0  -0.1555
  C  C225  1  0.527400  0.983700  0.326500  1.0  -0.106
  C  C226  1  0.399900  0.016300  0.692000  1.0  0.1539
  C  C227  1  0.332100  0.002300  0.655800  1.0  0.1216
  C  C228  1  0.330800  0.006900  0.595700  1.0  -0.1354
  C  C229  1  0.263500  0.993600  0.565400  1.0  0.0107
  C  C230  1  0.205500  0.970200  0.651800  1.0  0.1447
  C  C231  1  0.200800  0.976000  0.593100  1.0  -0.1824
  C  C232  1  0.876600  0.034100  0.439000  1.0  0.6515
  C  C233  1  0.599000  0.706500  0.800700  1.0  0.6781
  C  C234  1  0.535400  0.700000  0.755500  1.0  -0.0904
  C  C235  1  0.459800  0.704300  0.772600  1.0  0.1358
  C  C236  1  0.546600  0.687400  0.699600  1.0  -0.1181
  C  C237  1  0.486900  0.679900  0.662400  1.0  -0.1018
  C  C238  1  0.413900  0.681400  0.680600  1.0  0.1434
  C  C239  1  0.344700  0.669200  0.645000  1.0  0.1752
  C  C240  1  0.345300  0.671200  0.584600  1.0  -0.1099
  C  C241  1  0.278500  0.658800  0.553500  1.0  0.003
  C  C242  1  0.217500  0.639100  0.639900  1.0  0.1527
  C  C243  1  0.213200  0.642800  0.580700  1.0  -0.1387
  C  C244  1  0.637800  0.866000  0.049600  1.0  0.7009
  C  C245  1  0.481600  0.785500  0.213800  1.0  0.667
  C  C246  1  0.544100  0.795900  0.259900  1.0  -0.1346
  C  C247  1  0.120600  0.702800  0.744700  1.0  0.1526
  C  C248  1  0.528400  0.807000  0.317400  1.0  -0.0031
  C  C249  1  0.586500  0.821000  0.355300  1.0  -0.1313
  C  C250  1  0.163200  0.676800  0.836700  1.0  0.2041
  C  C251  1  0.228500  0.660800  0.873500  1.0  0.1738
  C  C252  1  0.227000  0.664700  0.934100  1.0  -0.1818
  C  C253  1  0.291600  0.648200  0.965300  1.0  0.0284
  C  C254  1  0.355600  0.627800  0.880400  1.0  0.1503
  C  C255  1  0.357600  0.628400  0.939200  1.0  -0.1918
  C  C256  1  0.925600  0.897500  0.472900  1.0  0.7184
  C  C257  1  0.744300  0.012400  0.615600  1.0  0.7029
  C  C258  1  0.668600  0.007200  0.583700  1.0  -0.0881
  C  C259  1  0.625700  0.060900  0.570000  1.0  0.1415
  C  C260  1  0.534900  0.002100  0.516800  1.0  0.3065
  C  C261  1  0.428500  0.047700  0.469600  1.0  -0.0341
  C  C262  1  0.642800  0.950000  0.562600  1.0  -0.0883
  C  C263  1  0.948700  0.374400  0.737900  1.0  0.6908
  C  C264  1  0.016400  0.363600  0.779600  1.0  -0.1366
  C  C265  1  0.092500  0.367400  0.762600  1.0  0.1294
  C  C266  1  0.005500  0.349500  0.836100  1.0  -0.0221
  C  C267  1  0.066800  0.337200  0.872000  1.0  -0.1337
  C  C268  1  0.142800  0.342100  0.852500  1.0  0.2106
  C  C269  1  0.210400  0.328800  0.887700  1.0  0.1686
  C  C270  1  0.209900  0.331100  0.947900  1.0  -0.0945
  C  C271  1  0.274200  0.316300  0.979900  1.0  -0.0259
  C  C272  1  0.337500  0.298800  0.892800  1.0  0.2041
  C  C273  1  0.340800  0.298800  0.952400  1.0  -0.1973
  C  C274  1  0.908300  0.227500  0.486000  1.0  0.6862
  C  C275  1  0.587300  0.387500  0.802700  1.0  0.6959
  C  C276  1  0.520700  0.373900  0.763100  1.0  -0.1598
  C  C277  1  0.446100  0.373300  0.782000  1.0  0.1944
  C  C278  1  0.528900  0.359700  0.704100  1.0  -0.0062
  C  C279  1  0.466300  0.350200  0.669500  1.0  -0.151
  C  C280  1  0.393800  0.349700  0.693000  1.0  0.1914
  C  C281  1  0.322200  0.334400  0.659400  1.0  0.1268
  C  C282  1  0.320800  0.336100  0.598000  1.0  -0.1736
  C  C283  1  0.252500  0.321700  0.570400  1.0  0.0127
  C  C284  1  0.197400  0.302900  0.659400  1.0  0.1696
  C  C285  1  0.187900  0.305500  0.599900  1.0  -0.0858
  C  C286  1  0.110900  0.293500  0.570400  1.0  0.6876
  C  C287  1  0.538800  0.537000  0.768800  1.0  0.699
  C  C288  1  0.472500  0.529400  0.725700  1.0  -0.166
  C  C289  1  0.483700  0.516900  0.668000  1.0  -0.0068
  C  C290  1  0.397400  0.530300  0.743700  1.0  0.1119
  C  C291  1  0.422000  0.506800  0.632400  1.0  -0.1244
  C  C292  1  0.348100  0.507400  0.653100  1.0  0.1809
  C  C293  1  0.276800  0.492200  0.617600  1.0  0.1342
  C  C294  1  0.274400  0.492100  0.557300  1.0  -0.1536
  C  C295  1  0.208300  0.476700  0.529000  1.0  -0.0041
  C  C296  1  0.150600  0.460700  0.617800  1.0  0.2011
  C  C297  1  0.144600  0.459100  0.558400  1.0  -0.1552
  C  C298  1  0.073700  0.432500  0.528900  1.0  0.7035
  C  C299  1  0.082100  0.432600  0.307600  1.0  0.7369
  C  C300  1  0.020100  0.451400  0.265900  1.0  -0.1603
  C  C301  1  0.056900  0.548000  0.718200  1.0  0.1498
  C  C302  1  0.034200  0.468900  0.210100  1.0  -0.155
  C  C303  1  0.972600  0.483700  0.173500  1.0  -0.1066
  C  C304  1  0.100100  0.516300  0.808000  1.0  0.1564
  C  C305  1  0.167900  0.502300  0.844200  1.0  0.1223
  C  C306  1  0.169200  0.506900  0.904300  1.0  -0.136
  C  C307  1  0.236500  0.493600  0.934600  1.0  0.0103
  C  C308  1  0.294500  0.470200  0.848200  1.0  0.1439
  C  C309  1  0.299200  0.476000  0.906900  1.0  -0.1799
  C  C310  1  0.623400  0.534100  0.061000  1.0  0.6504
  C  C311  1  0.901000  0.206500  0.699300  1.0  0.6799
  C  C312  1  0.964600  0.200000  0.744500  1.0  -0.0907
  C  C313  1  0.040200  0.204300  0.727400  1.0  0.1361
  C  C314  1  0.953400  0.187400  0.800400  1.0  -0.12
  C  C315  1  0.013100  0.179900  0.837600  1.0  -0.0984
  C  C316  1  0.086100  0.181400  0.819400  1.0  0.1445
  C  C317  1  0.155300  0.169200  0.855000  1.0  0.1763
  C  C318  1  0.154700  0.171200  0.915400  1.0  -0.1104
  C  C319  1  0.221500  0.158800  0.946500  1.0  0.0003
  C  C320  1  0.282500  0.139100  0.860100  1.0  0.1522
  C  C321  1  0.286800  0.142800  0.919300  1.0  -0.1367
  C  C322  1  0.862200  0.366000  0.450400  1.0  0.7009
  C  C323  1  0.018400  0.285500  0.286200  1.0  0.6676
  C  C324  1  0.955900  0.295900  0.240100  1.0  -0.135
  C  C325  1  0.379400  0.202800  0.755300  1.0  0.1503
  C  C326  1  0.971600  0.307000  0.182600  1.0  0.0007
  C  C327  1  0.913500  0.321000  0.144700  1.0  -0.1308
  C  C328  1  0.336800  0.176800  0.663300  1.0  0.204
  C  C329  1  0.271500  0.160800  0.626500  1.0  0.1725
  C  C330  1  0.273000  0.164700  0.565900  1.0  -0.1836
  C  C331  1  0.208400  0.148200  0.534700  1.0  0.0306
  C  C332  1  0.144400  0.127800  0.619600  1.0  0.1507
  C  C333  1  0.142400  0.128400  0.560800  1.0  -0.1912
  C  C334  1  0.574400  0.397500  0.027100  1.0  0.7156
  C  C335  1  0.755700  0.512400  0.884400  1.0  0.7034
  C  C336  1  0.831400  0.507200  0.916300  1.0  -0.0884
  C  C337  1  0.874300  0.560900  0.930000  1.0  0.1424
  C  C338  1  0.965100  0.502100  0.983200  1.0  0.3071
  C  C339  1  0.071500  0.547700  0.030400  1.0  -0.0339
  C  C340  1  0.857200  0.450000  0.937400  1.0  -0.0884
  C  C341  1  0.448700  0.125600  0.237900  1.0  0.6905
  C  C342  1  0.516400  0.136400  0.279600  1.0  -0.1367
  C  C343  1  0.592500  0.132600  0.262600  1.0  0.1297
  C  C344  1  0.505500  0.150500  0.336100  1.0  -0.0228
  C  C345  1  0.566800  0.162800  0.372000  1.0  -0.1338
  C  C346  1  0.642800  0.157900  0.352500  1.0  0.2104
  C  C347  1  0.710400  0.171200  0.387700  1.0  0.1684
  C  C348  1  0.709900  0.168900  0.447900  1.0  -0.0948
  C  C349  1  0.774200  0.183700  0.479900  1.0  -0.0264
  C  C350  1  0.837500  0.201200  0.392800  1.0  0.2001
  C  C351  1  0.840800  0.201200  0.452400  1.0  -0.1968
  C  C352  1  0.408300  0.272500  0.986000  1.0  0.6861
  C  C353  1  0.087300  0.112500  0.302700  1.0  0.695
  C  C354  1  0.020700  0.126100  0.263100  1.0  -0.1599
  C  C355  1  0.946100  0.126700  0.282000  1.0  0.1948
  C  C356  1  0.028900  0.140300  0.204100  1.0  -0.0063
  C  C357  1  0.966300  0.149800  0.169500  1.0  -0.1513
  C  C358  1  0.893800  0.150300  0.193000  1.0  0.1911
  C  C359  1  0.822200  0.165600  0.159400  1.0  0.1268
  C  C360  1  0.820800  0.163900  0.098000  1.0  -0.1722
  C  C361  1  0.752500  0.178300  0.070400  1.0  0.0126
  C  C362  1  0.697400  0.197100  0.159400  1.0  0.1694
  C  C363  1  0.687900  0.194500  0.099900  1.0  -0.085
  C  C364  1  0.610900  0.206500  0.070400  1.0  0.688
  C  C365  1  0.038800  0.963000  0.268800  1.0  0.6992
  C  C366  1  0.972500  0.970600  0.225700  1.0  -0.166
  C  C367  1  0.983700  0.983100  0.168000  1.0  -0.0064
  C  C368  1  0.897400  0.969700  0.243700  1.0  0.112
  C  C369  1  0.922000  0.993200  0.132400  1.0  -0.1248
  C  C370  1  0.848100  0.992600  0.153100  1.0  0.1807
  C  C371  1  0.776800  0.007800  0.117600  1.0  0.1344
  C  C372  1  0.774400  0.007900  0.057300  1.0  -0.1529
  C  C373  1  0.708300  0.023300  0.029000  1.0  -0.0038
  C  C374  1  0.650600  0.039300  0.117800  1.0  0.2008
  C  C375  1  0.644600  0.040900  0.058400  1.0  -0.1559
  C  C376  1  0.573700  0.067500  0.028900  1.0  0.703
  C  C377  1  0.582100  0.067400  0.807600  1.0  0.7366
  C  C378  1  0.520100  0.048600  0.765900  1.0  -0.1605
  C  C379  1  0.556900  0.952000  0.218200  1.0  0.1495
  C  C380  1  0.534200  0.031100  0.710100  1.0  -0.157
  C  C381  1  0.472600  0.016300  0.673500  1.0  -0.1064
  C  C382  1  0.600100  0.983700  0.308000  1.0  0.1572
  C  C383  1  0.667900  0.997700  0.344200  1.0  0.1216
  C  C384  1  0.669200  0.993100  0.404300  1.0  -0.1356
  C  C385  1  0.736500  0.006400  0.434600  1.0  0.0104
  C  C386  1  0.794500  0.029800  0.348200  1.0  0.1446
  C  C387  1  0.799200  0.024000  0.406900  1.0  -0.1806
  C  C388  1  0.123400  0.965900  0.561000  1.0  0.6508
  C  C389  1  0.401000  0.293500  0.199300  1.0  0.6796
  C  C390  1  0.464600  0.300000  0.244500  1.0  -0.0911
  C  C391  1  0.540200  0.295700  0.227400  1.0  0.1363
  C  C392  1  0.453400  0.312600  0.300400  1.0  -0.1199
  C  C393  1  0.513100  0.320100  0.337600  1.0  -0.0988
  C  C394  1  0.586100  0.318600  0.319400  1.0  0.1445
  C  C395  1  0.655300  0.330800  0.355000  1.0  0.1763
  C  C396  1  0.654700  0.328800  0.415400  1.0  -0.1104
  C  C397  1  0.721500  0.341200  0.446500  1.0  -0.0006
  C  C398  1  0.782500  0.360900  0.360100  1.0  0.1528
  C  C399  1  0.786800  0.357200  0.419300  1.0  -0.137
  C  C400  1  0.362200  0.134000  0.950400  1.0  0.7018
  C  C401  1  0.518400  0.214500  0.786200  1.0  0.6673
  C  C402  1  0.455900  0.204100  0.740100  1.0  -0.1351
  C  C403  1  0.879400  0.297200  0.255300  1.0  0.1504
  C  C404  1  0.471600  0.193000  0.682600  1.0  -0.0008
  C  C405  1  0.413500  0.179000  0.644700  1.0  -0.1299
  C  C406  1  0.836800  0.323200  0.163300  1.0  0.204
  C  C407  1  0.771500  0.339200  0.126500  1.0  0.1728
  C  C408  1  0.773000  0.335300  0.065900  1.0  -0.1834
  C  C409  1  0.708400  0.351800  0.034700  1.0  0.0316
  C  C410  1  0.644400  0.372200  0.119600  1.0  0.1471
  C  C411  1  0.642400  0.371600  0.060800  1.0  -0.1914
  C  C412  1  0.074400  0.102500  0.527100  1.0  0.7275
  C  C413  1  0.255700  0.987600  0.384400  1.0  0.7035
  C  C414  1  0.331400  0.992800  0.416300  1.0  -0.0884
  C  C415  1  0.374300  0.939100  0.430000  1.0  0.1423
  C  C416  1  0.465100  0.997900  0.483200  1.0  0.3081
  C  C417  1  0.571500  0.952300  0.530400  1.0  -0.034
  C  C418  1  0.357200  0.050000  0.437400  1.0  -0.0892
  C  C419  1  0.051300  0.625600  0.262100  1.0  0.6894
  C  C420  1  0.983600  0.636400  0.220400  1.0  -0.1383
  C  C421  1  0.907500  0.632600  0.237400  1.0  0.1295
  C  C422  1  0.994500  0.650500  0.163900  1.0  -0.0233
  C  C423  1  0.933200  0.662800  0.128000  1.0  -0.1313
  C  C424  1  0.857200  0.657900  0.147500  1.0  0.2098
  C  C425  1  0.789600  0.671200  0.112300  1.0  0.1675
  C  C426  1  0.790100  0.668900  0.052100  1.0  -0.0977
  C  C427  1  0.725800  0.683700  0.020100  1.0  -0.0249
  C  C428  1  0.662500  0.701200  0.107200  1.0  0.1975
  C  C429  1  0.659200  0.701200  0.047600  1.0  -0.2003
  C  C430  1  0.091700  0.772500  0.514000  1.0  0.6865
  C  C431  1  0.412700  0.612500  0.197300  1.0  0.6977
  C  C432  1  0.479300  0.626100  0.236900  1.0  -0.1605
  C  C433  1  0.553900  0.626700  0.218000  1.0  0.195
  C  C434  1  0.471100  0.640300  0.295900  1.0  -0.0044
  C  C435  1  0.533700  0.649800  0.330500  1.0  -0.1527
  C  C436  1  0.606200  0.650300  0.307000  1.0  0.1917
  C  C437  1  0.677800  0.665600  0.340600  1.0  0.1267
  C  C438  1  0.679200  0.663900  0.402000  1.0  -0.1729
  C  C439  1  0.747500  0.678300  0.429600  1.0  0.0112
  C  C440  1  0.802600  0.697100  0.340600  1.0  0.1706
  C  C441  1  0.812100  0.694500  0.400100  1.0  -0.0857
  C  C442  1  0.889100  0.706500  0.429600  1.0  0.6873
  C  C443  1  0.461200  0.463000  0.231200  1.0  0.7003
  C  C444  1  0.527500  0.470600  0.274300  1.0  -0.1661
  C  C445  1  0.516300  0.483100  0.332000  1.0  -0.0066
  C  C446  1  0.602600  0.469700  0.256300  1.0  0.1138
  C  C447  1  0.578000  0.493200  0.367600  1.0  -0.1292
  C  C448  1  0.651900  0.492600  0.346900  1.0  0.1815
  C  C449  1  0.723200  0.507800  0.382400  1.0  0.1366
  C  C450  1  0.725600  0.507900  0.442700  1.0  -0.1543
  C  C451  1  0.791700  0.523300  0.471000  1.0  -0.0053
  C  C452  1  0.849400  0.539300  0.382200  1.0  0.2034
  C  C453  1  0.855400  0.540900  0.441600  1.0  -0.153
  C  C454  1  0.926300  0.567500  0.471100  1.0  0.7036
  C  C455  1  0.917900  0.567400  0.692400  1.0  0.7377
  C  C456  1  0.979900  0.548600  0.734100  1.0  -0.161
  C  C457  1  0.943100  0.452000  0.281800  1.0  0.1491
  C  C458  1  0.965800  0.531100  0.789900  1.0  -0.1576
  C  C459  1  0.027400  0.516300  0.826500  1.0  -0.106
  C  C460  1  0.899900  0.483700  0.192000  1.0  0.1546
  C  C461  1  0.832100  0.497700  0.155800  1.0  0.1211
  C  C462  1  0.830800  0.493100  0.095700  1.0  -0.1351
  C  C463  1  0.763500  0.506400  0.065400  1.0  0.0107
  C  C464  1  0.705500  0.529800  0.151800  1.0  0.1452
  C  C465  1  0.700800  0.524000  0.093100  1.0  -0.1819
  C  C466  1  0.376600  0.465900  0.939000  1.0  0.6524
  C  C467  1  0.099000  0.793500  0.300700  1.0  0.6786
  C  C468  1  0.035400  0.800000  0.255500  1.0  -0.0898
  C  C469  1  0.959800  0.795700  0.272600  1.0  0.1361
  C  C470  1  0.046600  0.812600  0.199600  1.0  -0.1183
  C  C471  1  0.986900  0.820100  0.162400  1.0  -0.1021
  C  C472  1  0.913900  0.818600  0.180600  1.0  0.1434
  C  C473  1  0.844700  0.830800  0.145000  1.0  0.1753
  C  C474  1  0.845300  0.828800  0.084600  1.0  -0.1093
  C  C475  1  0.778500  0.841200  0.053500  1.0  0.0022
  C  C476  1  0.717500  0.860900  0.139900  1.0  0.153
  C  C477  1  0.713200  0.857200  0.080700  1.0  -0.1375
  C  C478  1  0.137800  0.634000  0.549600  1.0  0.7011
  C  C479  1  0.981600  0.714500  0.713800  1.0  0.6676
  C  C480  1  0.044100  0.704100  0.759900  1.0  -0.1344
  C  C481  1  0.620600  0.797200  0.244700  1.0  0.1528
  C  C482  1  0.028400  0.693000  0.817400  1.0  -0.0046
  C  C483  1  0.086500  0.679000  0.855300  1.0  -0.1307
  C  C484  1  0.663200  0.823200  0.336700  1.0  0.2041
  C  C485  1  0.728500  0.839200  0.373500  1.0  0.1742
  C  C486  1  0.727000  0.835300  0.434100  1.0  -0.1811
  C  C487  1  0.791600  0.851800  0.465300  1.0  0.0288
  C  C488  1  0.855600  0.872200  0.380400  1.0  0.147
  C  C489  1  0.857600  0.871600  0.439200  1.0  -0.1915
  C  C490  1  0.425600  0.602500  0.972900  1.0  0.7287
  C  C491  1  0.244300  0.487600  0.115600  1.0  0.703
  C  C492  1  0.168600  0.492800  0.083700  1.0  -0.088
  C  C493  1  0.125700  0.439100  0.070000  1.0  0.141
  C  C494  1  0.034900  0.497900  0.016800  1.0  0.3077
  C  C495  1  0.928500  0.452300  0.969600  1.0  -0.0343
  C  C496  1  0.142800  0.550000  0.062600  1.0  -0.0887
  N  N497  1  0.347100  0.855800  0.702500  1.0  -0.31
  N  N498  1  0.224800  0.813200  0.639700  1.0  -0.3679
  N  N499  1  0.116600  0.862100  0.750700  1.0  -0.3681
  N  N500  1  0.239400  0.818700  0.811200  1.0  -0.3846
  N  N501  1  0.164900  0.020900  0.791600  1.0  -0.371
  N  N502  1  0.285200  0.976900  0.852200  1.0  -0.3472
  N  N503  1  0.383600  0.033300  0.747000  1.0  -0.3579
  N  N504  1  0.269100  0.983200  0.683400  1.0  -0.3394
  N  N505  1  0.399000  0.694800  0.737800  1.0  -0.3532
  N  N506  1  0.281000  0.652600  0.672300  1.0  -0.3521
  N  N507  1  0.179300  0.689500  0.781900  1.0  -0.3502
  N  N508  1  0.293800  0.643400  0.847400  1.0  -0.3484
  N  N509  1  0.559800  0.057300  0.536600  1.0  -0.3434
  N  N510  1  0.152900  0.355800  0.797500  1.0  -0.3104
  N  N511  1  0.275200  0.313200  0.860300  1.0  -0.3684
  N  N512  1  0.383400  0.362100  0.749300  1.0  -0.3681
  N  N513  1  0.260600  0.318700  0.688800  1.0  -0.3843
  N  N514  1  0.335100  0.520900  0.708400  1.0  -0.3718
  N  N515  1  0.214800  0.476900  0.647800  1.0  -0.3479
  N  N516  1  0.116400  0.533300  0.753000  1.0  -0.3594
  N  N517  1  0.230900  0.483200  0.816600  1.0  -0.3387
  N  N518  1  0.101000  0.194800  0.762200  1.0  -0.3552
  N  N519  1  0.219000  0.152600  0.827700  1.0  -0.3517
  N  N520  1  0.320700  0.189500  0.718100  1.0  -0.3501
  N  N521  1  0.206200  0.143400  0.652600  1.0  -0.3478
  N  N522  1  0.940200  0.557300  0.963400  1.0  -0.3444
  N  N523  1  0.652900  0.144200  0.297500  1.0  -0.3102
  N  N524  1  0.775200  0.186800  0.360300  1.0  -0.3686
  N  N525  1  0.883400  0.137900  0.249300  1.0  -0.3683
  N  N526  1  0.760600  0.181300  0.188800  1.0  -0.3846
  N  N527  1  0.835100  0.979100  0.208400  1.0  -0.3718
  N  N528  1  0.714800  0.023100  0.147800  1.0  -0.3477
  N  N529  1  0.616400  0.966700  0.253000  1.0  -0.3599
  N  N530  1  0.730900  0.016800  0.316600  1.0  -0.3386
  N  N531  1  0.601000  0.305200  0.262200  1.0  -0.3556
  N  N532  1  0.719000  0.347400  0.327700  1.0  -0.3517
  N  N533  1  0.820700  0.310500  0.218100  1.0  -0.3527
  N  N534  1  0.706200  0.356600  0.152600  1.0  -0.3481
  N  N535  1  0.440200  0.942700  0.463400  1.0  -0.3433
  N  N536  1  0.847100  0.644200  0.202500  1.0  -0.3098
  N  N537  1  0.724800  0.686800  0.139700  1.0  -0.3676
  N  N538  1  0.616600  0.637900  0.250700  1.0  -0.3683
  N  N539  1  0.739400  0.681300  0.311200  1.0  -0.3849
  N  N540  1  0.664900  0.479100  0.291600  1.0  -0.3709
  N  N541  1  0.785200  0.523100  0.352200  1.0  -0.347
  N  N542  1  0.883600  0.466700  0.247000  1.0  -0.3586
  N  N543  1  0.769100  0.516800  0.183400  1.0  -0.3393
  N  N544  1  0.899000  0.805200  0.237800  1.0  -0.3534
  N  N545  1  0.781000  0.847400  0.172300  1.0  -0.352
  N  N546  1  0.679300  0.810500  0.281900  1.0  -0.3528
  N  N547  1  0.793800  0.856600  0.347400  1.0  -0.3486
  N  N548  1  0.059800  0.442700  0.036600  1.0  -0.3426
  Cl  Cl549  1  0.476200  0.221000  0.501800  1.0  -0.403
  Cl  Cl550  1  0.023800  0.721000  0.998200  1.0  -0.4035
  Cl  Cl551  1  0.523800  0.779000  0.498200  1.0  -0.4039
  Cl  Cl552  1  0.976200  0.279000  0.001800  1.0  -0.4039
  O  O553  1  0.584100  0.716000  0.530200  1.0  -0.5469
  O  O554  1  0.615300  0.881300  0.743800  1.0  -0.5286
  O  O555  1  0.533900  0.876200  0.814700  1.0  -0.7388
  O  O556  1  0.595300  0.731600  0.961300  1.0  -0.6893
  O  O557  1  0.536900  0.747700  0.043100  1.0  -0.7441
  O  O558  1  0.926700  0.906400  0.649700  1.0  -0.6802
  O  O559  1  0.845300  0.878600  0.716300  1.0  -0.559
  O  O560  1  0.444700  0.784500  0.897800  1.0  -0.701
  O  O561  1  0.391500  0.798900  0.982400  1.0  -0.6829
  O  O562  1  0.977800  0.038400  0.680100  1.0  -0.6687
  O  O563  1  0.895100  0.040000  0.749600  1.0  -0.7315
  O  O564  1  0.427400  0.929100  0.023400  1.0  -0.6254
  O  O565  1  0.479400  0.912400  0.939700  1.0  -0.7008
  O  O566  1  0.435900  0.912400  0.144700  1.0  -0.6751
  O  O567  1  0.649100  0.063100  0.793000  1.0  -0.7567
  O  O568  1  0.877500  0.025800  0.491300  1.0  -0.6633
  O  O569  1  0.065900  0.953800  0.591400  1.0  -0.7135
  O  O570  1  0.592800  0.744700  0.839900  1.0  -0.7525
  O  O571  1  0.843200  0.168800  0.703600  1.0  -0.7542
  O  O572  1  0.636800  0.860200  0.997100  1.0  -0.6688
  O  O573  1  0.578500  0.876300  0.078700  1.0  -0.7174
  O  O574  1  0.504800  0.782700  0.164000  1.0  -0.6349
  O  O575  1  0.414600  0.781900  0.227400  1.0  -0.5346
  O  O576  1  0.921200  0.898500  0.526300  1.0  -0.6984
  O  O577  1  0.020600  0.080200  0.554300  1.0  -0.679
  O  O578  1  0.748000  0.052100  0.656900  1.0  -0.7528
  O  O579  1  0.798400  0.980000  0.597300  1.0  -0.6789
  O  O580  1  0.915900  0.216000  0.969800  1.0  -0.5458
  O  O581  1  0.884700  0.381300  0.756200  1.0  -0.5263
  O  O582  1  0.966100  0.376200  0.685300  1.0  -0.7395
  O  O583  1  0.904700  0.231600  0.538700  1.0  -0.6907
  O  O584  1  0.963100  0.247700  0.456900  1.0  -0.7428
  O  O585  1  0.573300  0.406400  0.850300  1.0  -0.6799
  O  O586  1  0.654700  0.378600  0.783700  1.0  -0.562
  O  O587  1  0.055300  0.284500  0.602200  1.0  -0.7003
  O  O588  1  0.108500  0.298900  0.517600  1.0  -0.6843
  O  O589  1  0.522200  0.538400  0.819900  1.0  -0.6686
  O  O590  1  0.604900  0.540000  0.750400  1.0  -0.7303
  O  O591  1  0.072600  0.429100  0.476600  1.0  -0.6191
  O  O592  1  0.020600  0.412400  0.560300  1.0  -0.6992
  O  O593  1  0.064100  0.412400  0.355300  1.0  -0.673
  O  O594  1  0.850900  0.563100  0.707000  1.0  -0.7625
  O  O595  1  0.622500  0.525800  0.008700  1.0  -0.6618
  O  O596  1  0.434100  0.453800  0.908600  1.0  -0.7122
  O  O597  1  0.907200  0.244700  0.660100  1.0  -0.7543
  O  O598  1  0.656800  0.668800  0.796400  1.0  -0.7532
  O  O599  1  0.863200  0.360200  0.502900  1.0  -0.6703
  O  O600  1  0.921500  0.376300  0.421300  1.0  -0.7185
  O  O601  1  0.995200  0.282700  0.336000  1.0  -0.6371
  O  O602  1  0.085400  0.281900  0.272600  1.0  -0.5334
  O  O603  1  0.578800  0.398500  0.973700  1.0  -0.6994
  O  O604  1  0.479400  0.580200  0.945700  1.0  -0.6777
  O  O605  1  0.752000  0.552100  0.843100  1.0  -0.755
  O  O606  1  0.701600  0.480000  0.902700  1.0  -0.6781
  O  O607  1  0.415900  0.284000  0.469800  1.0  -0.545
  O  O608  1  0.384700  0.118700  0.256200  1.0  -0.5262
  O  O609  1  0.466100  0.123800  0.185300  1.0  -0.7399
  O  O610  1  0.404700  0.268400  0.038700  1.0  -0.6903
  O  O611  1  0.463100  0.252300  0.956900  1.0  -0.7428
  O  O612  1  0.073300  0.093600  0.350300  1.0  -0.6802
  O  O613  1  0.154700  0.121400  0.283700  1.0  -0.5602
  O  O614  1  0.555300  0.215500  0.102200  1.0  -0.6999
  O  O615  1  0.608500  0.201100  0.017600  1.0  -0.6835
  O  O616  1  0.022200  0.961600  0.319900  1.0  -0.669
  O  O617  1  0.104900  0.960000  0.250400  1.0  -0.7301
  O  O618  1  0.572600  0.070900  0.976600  1.0  -0.6191
  O  O619  1  0.520600  0.087600  0.060300  1.0  -0.6996
  O  O620  1  0.564100  0.087600  0.855300  1.0  -0.6733
  O  O621  1  0.350900  0.936900  0.207000  1.0  -0.7623
  O  O622  1  0.122500  0.974200  0.508700  1.0  -0.6609
  O  O623  1  0.934100  0.046200  0.408600  1.0  -0.7121
  O  O624  1  0.407200  0.255300  0.160100  1.0  -0.7551
  O  O625  1  0.156800  0.831200  0.296400  1.0  -0.7537
  O  O626  1  0.363200  0.139800  0.002900  1.0  -0.6695
  O  O627  1  0.421500  0.123700  0.921300  1.0  -0.7183
  O  O628  1  0.495200  0.217300  0.836000  1.0  -0.6366
  O  O629  1  0.585400  0.218100  0.772600  1.0  -0.5327
  O  O630  1  0.078800  0.101500  0.473700  1.0  -0.7001
  O  O631  1  0.979400  0.919800  0.445700  1.0  -0.6779
  O  O632  1  0.252000  0.947900  0.343100  1.0  -0.7564
  O  O633  1  0.201600  0.020000  0.402700  1.0  -0.678
  O  O634  1  0.084100  0.784000  0.030200  1.0  -0.546
  O  O635  1  0.115300  0.618700  0.243800  1.0  -0.5286
  O  O636  1  0.033900  0.623800  0.314700  1.0  -0.7391
  O  O637  1  0.095300  0.768400  0.461300  1.0  -0.6885
  O  O638  1  0.036900  0.752300  0.543100  1.0  -0.7438
  O  O639  1  0.426700  0.593600  0.149700  1.0  -0.6798
  O  O640  1  0.345300  0.621400  0.216300  1.0  -0.5602
  O  O641  1  0.944700  0.715500  0.397800  1.0  -0.7007
  O  O642  1  0.891500  0.701100  0.482400  1.0  -0.6822
  O  O643  1  0.477800  0.461600  0.180100  1.0  -0.669
  O  O644  1  0.395100  0.460000  0.249600  1.0  -0.7315
  O  O645  1  0.927400  0.570900  0.523400  1.0  -0.6255
  O  O646  1  0.979400  0.587600  0.439700  1.0  -0.7009
  O  O647  1  0.935900  0.587600  0.644700  1.0  -0.675
  O  O648  1  0.149100  0.436900  0.293000  1.0  -0.7571
  O  O649  1  0.377500  0.474200  0.991300  1.0  -0.6616
  O  O650  1  0.565900  0.546200  0.091400  1.0  -0.7134
  O  O651  1  0.092800  0.755300  0.339900  1.0  -0.7516
  O  O652  1  0.343200  0.331200  0.203600  1.0  -0.7539
  O  O653  1  0.136800  0.639800  0.497100  1.0  -0.6678
  O  O654  1  0.078500  0.623700  0.578700  1.0  -0.7171
  O  O655  1  0.004800  0.717300  0.664000  1.0  -0.6342
  O  O656  1  0.914600  0.718100  0.727400  1.0  -0.5349
  O  O657  1  0.421200  0.601500  0.026300  1.0  -0.6999
  O  O658  1  0.520600  0.419800  0.054300  1.0  -0.6788
  O  O659  1  0.248000  0.447900  0.156900  1.0  -0.7545
  O  O660  1  0.298400  0.520000  0.097300  1.0  -0.6788
