# generated using pymatgen
data_Zn3H44C46(N3O2)4
_symmetry_space_group_name_H-M   'P 1'
_cell_length_a   13.68830000
_cell_length_b   24.97200000
_cell_length_c   18.27270000
_cell_angle_alpha   101.09700000
_cell_angle_beta   90.00000000
_cell_angle_gamma   90.00000000
_symmetry_Int_Tables_number   1
_chemical_formula_structural   Zn3H44C46(N3O2)4
_chemical_formula_sum   'Zn12 H176 C184 N48 O32'
_cell_volume   6129.26753281
_cell_formula_units_Z   4
loop_
 _symmetry_equiv_pos_site_id
 _symmetry_equiv_pos_as_xyz
  1  'x, y, z'
loop_
 _atom_site_type_symbol
 _atom_site_label
 _atom_site_symmetry_multiplicity
 _atom_site_fract_x
 _atom_site_fract_y
 _atom_site_fract_z
 _atom_site_occupancy
 _atom_site_charge
  Zn  Zn1  1  0.185350  0.347690  0.628180  1.0  0.8972
  Zn  Zn2  1  0.894650  0.961600  0.772720  1.0  0.3314
  Zn  Zn3  1  0.787300  0.338660  0.070780  1.0  0.4114
  Zn  Zn4  1  0.685350  0.652310  0.871820  1.0  0.8977
  Zn  Zn5  1  0.394650  0.038400  0.727280  1.0  0.333
  Zn  Zn6  1  0.287300  0.661340  0.429220  1.0  0.411
  Zn  Zn7  1  0.814650  0.652310  0.371820  1.0  0.8975
  Zn  Zn8  1  0.105350  0.038400  0.227280  1.0  0.3326
  Zn  Zn9  1  0.212700  0.661340  0.929220  1.0  0.4101
  Zn  Zn10  1  0.314650  0.347690  0.128180  1.0  0.8973
  Zn  Zn11  1  0.605350  0.961600  0.272720  1.0  0.3303
  Zn  Zn12  1  0.712700  0.338660  0.570780  1.0  0.411
  H  H13  1  0.019500  0.154400  0.613800  1.0  0.1263
  H  H14  1  0.886700  0.024400  0.490300  1.0  0.1247
  H  H15  1  0.887600  0.168100  0.422700  1.0  0.135
  H  H16  1  0.116400  0.223800  0.589800  1.0  0.1041
  H  H17  1  0.987100  0.347700  0.530000  1.0  0.1051
  H  H18  1  0.889300  0.267000  0.480500  1.0  0.1318
  H  H19  1  0.868600  0.003500  0.618100  1.0  0.1014
  H  H20  1  0.089300  0.031800  0.754600  1.0  0.1012
  H  H21  1  0.110900  0.089000  0.663200  1.0  0.1396
  H  H22  1  0.742900  0.008800  0.415700  1.0  0.0887
  H  H23  1  0.726700  0.063600  0.230100  1.0  0.0949
  H  H24  1  0.848600  0.118100  0.307500  1.0  0.1429
  H  H25  1  0.502400  0.317100  0.354800  1.0  0.1247
  H  H26  1  0.541500  0.452100  0.269100  1.0  0.1332
  H  H27  1  0.405100  0.461800  0.465900  1.0  0.1268
  H  H28  1  0.283200  0.405000  0.508800  1.0  0.1063
  H  H29  1  0.377500  0.271900  0.569700  1.0  0.1101
  H  H30  1  0.490500  0.291600  0.476100  1.0  0.1199
  H  H31  1  0.637400  0.404600  0.187200  1.0  0.1079
  H  H32  1  0.578600  0.268500  0.257600  1.0  0.1324
  H  H33  1  0.693500  0.249100  0.155000  1.0  0.101
  H  H34  1  0.323800  0.537500  0.422100  1.0  0.1072
  H  H35  1  0.493400  0.637500  0.342200  1.0  0.108
  H  H36  1  0.573700  0.549000  0.318200  1.0  0.1374
  H  H37  1  0.095700  0.526000  0.701700  1.0  0.0737
  H  H38  1  0.262000  0.549400  0.697600  1.0  0.0632
  H  H39  1  0.257300  0.541000  0.610300  1.0  0.0673
  H  H40  1  0.246800  0.632100  0.660300  1.0  0.0635
  H  H41  1  0.157200  0.621900  0.709200  1.0  0.0718
  H  H42  1  0.092900  0.654300  0.614100  1.0  0.0908
  H  H43  1  0.991100  0.588000  0.634900  1.0  0.0752
  H  H44  1  0.998700  0.578400  0.547800  1.0  0.0825
  H  H45  1  0.099700  0.506800  0.544700  1.0  0.0796
  H  H46  1  0.008300  0.497700  0.592400  1.0  0.0816
  H  H47  1  0.208400  0.288700  0.837900  1.0  0.0777
  H  H48  1  0.204200  0.182800  0.748600  1.0  0.079
  H  H49  1  0.112700  0.214500  0.786400  1.0  0.0709
  H  H50  1  0.169600  0.208000  0.904100  1.0  0.0708
  H  H51  1  0.165400  0.149200  0.855000  1.0  0.0727
  H  H52  1  0.311000  0.165900  0.924400  1.0  0.0827
  H  H53  1  0.428500  0.224400  0.887300  1.0  0.0681
  H  H54  1  0.336400  0.255700  0.924800  1.0  0.0695
  H  H55  1  0.373300  0.231500  0.769900  1.0  0.0789
  H  H56  1  0.375700  0.290200  0.819600  1.0  0.0755
  H  H57  1  0.519500  0.845600  0.886200  1.0  0.1267
  H  H58  1  0.386700  0.975600  0.009700  1.0  0.1242
  H  H59  1  0.387600  0.831900  0.077300  1.0  0.1352
  H  H60  1  0.616400  0.776200  0.910200  1.0  0.1045
  H  H61  1  0.487100  0.652300  0.970000  1.0  0.105
  H  H62  1  0.389300  0.733000  0.019500  1.0  0.1318
  H  H63  1  0.368600  0.996500  0.881900  1.0  0.1013
  H  H64  1  0.589300  0.968200  0.745400  1.0  0.1008
  H  H65  1  0.610900  0.911000  0.836800  1.0  0.1398
  H  H66  1  0.242900  0.991200  0.084300  1.0  0.0873
  H  H67  1  0.226700  0.936400  0.269900  1.0  0.0955
  H  H68  1  0.348600  0.881900  0.192500  1.0  0.1435
  H  H69  1  0.002400  0.682900  0.145200  1.0  0.1251
  H  H70  1  0.041500  0.547900  0.230900  1.0  0.1336
  H  H71  1  0.905100  0.538200  0.034100  1.0  0.1274
  H  H72  1  0.783200  0.595000  0.991200  1.0  0.106
  H  H73  1  0.877500  0.728100  0.930300  1.0  0.1107
  H  H74  1  0.990500  0.708400  0.023900  1.0  0.1193
  H  H75  1  0.137400  0.595400  0.312800  1.0  0.1076
  H  H76  1  0.078600  0.731500  0.242400  1.0  0.1324
  H  H77  1  0.193500  0.750900  0.345000  1.0  0.0998
  H  H78  1  0.823800  0.462500  0.077900  1.0  0.1073
  H  H79  1  0.993400  0.362500  0.157800  1.0  0.1081
  H  H80  1  0.073700  0.451000  0.181800  1.0  0.1378
  H  H81  1  0.595700  0.474000  0.798300  1.0  0.0744
  H  H82  1  0.762000  0.450600  0.802400  1.0  0.0638
  H  H83  1  0.757300  0.459000  0.889700  1.0  0.0674
  H  H84  1  0.746800  0.367900  0.839700  1.0  0.0645
  H  H85  1  0.657200  0.378100  0.790800  1.0  0.0736
  H  H86  1  0.592900  0.345700  0.885900  1.0  0.0899
  H  H87  1  0.491100  0.412000  0.865100  1.0  0.077
  H  H88  1  0.498700  0.421600  0.952200  1.0  0.082
  H  H89  1  0.599700  0.493200  0.955300  1.0  0.079
  H  H90  1  0.508300  0.502300  0.907600  1.0  0.0814
  H  H91  1  0.708400  0.711300  0.662100  1.0  0.0773
  H  H92  1  0.704200  0.817200  0.751400  1.0  0.0791
  H  H93  1  0.612700  0.785500  0.713600  1.0  0.0713
  H  H94  1  0.669600  0.792000  0.595900  1.0  0.073
  H  H95  1  0.665400  0.850800  0.645000  1.0  0.0746
  H  H96  1  0.811000  0.834100  0.575600  1.0  0.0834
  H  H97  1  0.928500  0.775600  0.612700  1.0  0.0686
  H  H98  1  0.836400  0.744300  0.575200  1.0  0.0713
  H  H99  1  0.873300  0.768500  0.730100  1.0  0.0776
  H  H100  1  0.875700  0.709800  0.680400  1.0  0.0769
  H  H101  1  0.980500  0.845600  0.386200  1.0  0.1269
  H  H102  1  0.113300  0.975600  0.509700  1.0  0.124
  H  H103  1  0.112400  0.831900  0.577300  1.0  0.1344
  H  H104  1  0.883600  0.776200  0.410200  1.0  0.1046
  H  H105  1  0.012900  0.652300  0.470000  1.0  0.105
  H  H106  1  0.110700  0.733000  0.519500  1.0  0.1318
  H  H107  1  0.131400  0.996500  0.381900  1.0  0.1012
  H  H108  1  0.910700  0.968200  0.245400  1.0  0.101
  H  H109  1  0.889100  0.911000  0.336800  1.0  0.1394
  H  H110  1  0.257100  0.991200  0.584300  1.0  0.0874
  H  H111  1  0.273300  0.936400  0.769900  1.0  0.0955
  H  H112  1  0.151400  0.881900  0.692500  1.0  0.1435
  H  H113  1  0.497600  0.682900  0.645200  1.0  0.1252
  H  H114  1  0.458500  0.547900  0.730900  1.0  0.1335
  H  H115  1  0.594900  0.538200  0.534100  1.0  0.1274
  H  H116  1  0.716800  0.595000  0.491200  1.0  0.1061
  H  H117  1  0.622500  0.728100  0.430300  1.0  0.1116
  H  H118  1  0.509500  0.708400  0.523900  1.0  0.1192
  H  H119  1  0.362600  0.595400  0.812800  1.0  0.1075
  H  H120  1  0.421400  0.731500  0.742400  1.0  0.1322
  H  H121  1  0.306500  0.750900  0.845000  1.0  0.0992
  H  H122  1  0.676200  0.462500  0.577900  1.0  0.1073
  H  H123  1  0.506600  0.362500  0.657800  1.0  0.1084
  H  H124  1  0.426300  0.451000  0.681800  1.0  0.1401
  H  H125  1  0.904300  0.474000  0.298300  1.0  0.0743
  H  H126  1  0.738000  0.450600  0.302400  1.0  0.0633
  H  H127  1  0.742700  0.459000  0.389700  1.0  0.0677
  H  H128  1  0.753200  0.367900  0.339700  1.0  0.0643
  H  H129  1  0.842800  0.378100  0.290800  1.0  0.0729
  H  H130  1  0.907100  0.345700  0.385900  1.0  0.0891
  H  H131  1  0.008900  0.412000  0.365100  1.0  0.0753
  H  H132  1  0.001300  0.421600  0.452200  1.0  0.0824
  H  H133  1  0.900300  0.493200  0.455300  1.0  0.0786
  H  H134  1  0.991700  0.502300  0.407600  1.0  0.0812
  H  H135  1  0.791600  0.711300  0.162100  1.0  0.0772
  H  H136  1  0.795800  0.817200  0.251400  1.0  0.0791
  H  H137  1  0.887300  0.785500  0.213600  1.0  0.0683
  H  H138  1  0.830400  0.792000  0.095900  1.0  0.0718
  H  H139  1  0.834600  0.850800  0.145000  1.0  0.0738
  H  H140  1  0.689000  0.834100  0.075600  1.0  0.0836
  H  H141  1  0.571500  0.775600  0.112700  1.0  0.069
  H  H142  1  0.663600  0.744300  0.075200  1.0  0.0713
  H  H143  1  0.626700  0.768500  0.230100  1.0  0.078
  H  H144  1  0.624300  0.709800  0.180400  1.0  0.0772
  H  H145  1  0.480500  0.154400  0.113800  1.0  0.1265
  H  H146  1  0.613300  0.024400  0.990300  1.0  0.1242
  H  H147  1  0.612400  0.168100  0.922700  1.0  0.1349
  H  H148  1  0.383600  0.223800  0.089800  1.0  0.1044
  H  H149  1  0.512900  0.347700  0.030000  1.0  0.105
  H  H150  1  0.610700  0.267000  0.980500  1.0  0.1316
  H  H151  1  0.631400  0.003500  0.118100  1.0  0.1011
  H  H152  1  0.410700  0.031800  0.254600  1.0  0.1012
  H  H153  1  0.389100  0.089000  0.163200  1.0  0.1393
  H  H154  1  0.757100  0.008800  0.915700  1.0  0.0871
  H  H155  1  0.773300  0.063600  0.730100  1.0  0.0947
  H  H156  1  0.651400  0.118100  0.807500  1.0  0.143
  H  H157  1  0.997600  0.317100  0.854800  1.0  0.1247
  H  H158  1  0.958500  0.452100  0.769100  1.0  0.1333
  H  H159  1  0.094900  0.461800  0.965900  1.0  0.1269
  H  H160  1  0.216800  0.405000  0.008800  1.0  0.1064
  H  H161  1  0.122500  0.271900  0.069700  1.0  0.1116
  H  H162  1  0.009500  0.291600  0.976100  1.0  0.1199
  H  H163  1  0.862600  0.404600  0.687200  1.0  0.1078
  H  H164  1  0.921400  0.268500  0.757600  1.0  0.1326
  H  H165  1  0.806500  0.249100  0.655000  1.0  0.0992
  H  H166  1  0.176200  0.537500  0.922100  1.0  0.1074
  H  H167  1  0.006600  0.637500  0.842200  1.0  0.1083
  H  H168  1  0.926300  0.549000  0.818200  1.0  0.1399
  H  H169  1  0.404300  0.526000  0.201700  1.0  0.0742
  H  H170  1  0.238000  0.549400  0.197600  1.0  0.0629
  H  H171  1  0.242700  0.541000  0.110300  1.0  0.0679
  H  H172  1  0.253200  0.632100  0.160300  1.0  0.0629
  H  H173  1  0.342800  0.621900  0.209200  1.0  0.0715
  H  H174  1  0.407100  0.654300  0.114100  1.0  0.09
  H  H175  1  0.508900  0.588000  0.134900  1.0  0.0756
  H  H176  1  0.501300  0.578400  0.047800  1.0  0.083
  H  H177  1  0.400300  0.506800  0.044700  1.0  0.0798
  H  H178  1  0.491700  0.497700  0.092400  1.0  0.0811
  H  H179  1  0.291600  0.288700  0.337900  1.0  0.0778
  H  H180  1  0.295800  0.182800  0.248600  1.0  0.0791
  H  H181  1  0.387300  0.214500  0.286400  1.0  0.0678
  H  H182  1  0.330400  0.208000  0.404100  1.0  0.0707
  H  H183  1  0.334600  0.149200  0.355000  1.0  0.0731
  H  H184  1  0.189000  0.165900  0.424400  1.0  0.0817
  H  H185  1  0.071500  0.224400  0.387300  1.0  0.0693
  H  H186  1  0.163600  0.255700  0.424800  1.0  0.0697
  H  H187  1  0.126700  0.231500  0.269900  1.0  0.0788
  H  H188  1  0.124300  0.290200  0.319600  1.0  0.0773
  C  C189  1  0.961000  0.169580  0.519300  1.0  0.1748
  C  C190  1  0.984800  0.138860  0.571200  1.0  -0.2737
  C  C191  1  0.957300  0.085110  0.560300  1.0  0.1708
  C  C192  1  0.903900  0.061110  0.498200  1.0  -0.3127
  C  C193  1  0.877100  0.093530  0.448700  1.0  0.177
  C  C194  1  0.905400  0.147180  0.457500  1.0  -0.2669
  C  C195  1  0.072200  0.244880  0.568900  1.0  0.142
  C  C196  1  0.001100  0.312360  0.535800  1.0  0.0422
  C  C197  1  0.946400  0.268050  0.508400  1.0  -0.1497
  C  C198  1  0.926400  0.017490  0.640800  1.0  0.1198
  C  C199  1  0.047100  0.033300  0.715100  1.0  0.0208
  C  C200  1  0.059600  0.064800  0.665000  1.0  -0.1573
  C  C201  1  0.753000  0.029320  0.379000  1.0  0.1102
  C  C202  1  0.745000  0.059500  0.277700  1.0  -0.0004
  C  C203  1  0.812400  0.089800  0.320200  1.0  -0.1372
  C  C204  1  0.443700  0.385550  0.417900  1.0  0.1853
  C  C205  1  0.494000  0.354410  0.357800  1.0  -0.2331
  C  C206  1  0.530800  0.379670  0.303300  1.0  0.1739
  C  C207  1  0.517700  0.435180  0.306600  1.0  -0.2391
  C  C208  1  0.468200  0.464760  0.367100  1.0  0.1825
  C  C209  1  0.434200  0.440790  0.424000  1.0  -0.2798
  C  C210  1  0.320600  0.374610  0.512700  1.0  0.145
  C  C211  1  0.373100  0.301400  0.545700  1.0  0.0552
  C  C212  1  0.435700  0.311950  0.494000  1.0  -0.1462
  C  C213  1  0.637900  0.368200  0.192200  1.0  0.1482
  C  C214  1  0.604500  0.293580  0.231300  1.0  -0.1471
  C  C215  1  0.668100  0.283400  0.174900  1.0  0.0152
  C  C216  1  0.376200  0.551510  0.399400  1.0  0.1467
  C  C217  1  0.469300  0.605890  0.355400  1.0  0.0182
  C  C218  1  0.514000  0.557220  0.342100  1.0  -0.1292
  C  C219  1  0.132100  0.513720  0.655300  1.0  -0.1801
  C  C220  1  0.219900  0.552200  0.655800  1.0  -0.1178
  C  C221  1  0.189200  0.609700  0.661600  1.0  -0.1107
  C  C222  1  0.120800  0.617700  0.599800  1.0  -0.1702
  C  C223  1  0.034900  0.576900  0.593000  1.0  -0.1227
  C  C224  1  0.065900  0.520100  0.591300  1.0  -0.1185
  C  C225  1  0.166000  0.455300  0.654700  1.0  0.6759
  C  C226  1  0.177000  0.616000  0.525700  1.0  0.6692
  C  C227  1  0.236100  0.261990  0.796800  1.0  -0.166
  C  C228  1  0.182000  0.208500  0.792200  1.0  -0.1254
  C  C229  1  0.198200  0.184200  0.861200  1.0  -0.1068
  C  C230  1  0.305600  0.176600  0.875700  1.0  -0.1648
  C  C231  1  0.359200  0.230300  0.881100  1.0  -0.1255
  C  C232  1  0.343600  0.254900  0.812600  1.0  -0.1218
  C  C233  1  0.226600  0.284000  0.725900  1.0  0.6823
  C  C234  1  0.354700  0.130600  0.817200  1.0  0.6626
  C  C235  1  0.461000  0.830420  0.980700  1.0  0.175
  C  C236  1  0.484800  0.861140  0.928800  1.0  -0.2732
  C  C237  1  0.457300  0.914890  0.939700  1.0  0.1703
  C  C238  1  0.403900  0.938890  0.001800  1.0  -0.3133
  C  C239  1  0.377100  0.906470  0.051300  1.0  0.1779
  C  C240  1  0.405400  0.852820  0.042500  1.0  -0.2654
  C  C241  1  0.572200  0.755120  0.931100  1.0  0.1429
  C  C242  1  0.501100  0.687640  0.964200  1.0  0.0419
  C  C243  1  0.446400  0.731950  0.991600  1.0  -0.1489
  C  C244  1  0.426400  0.982510  0.859200  1.0  0.1191
  C  C245  1  0.547100  0.966700  0.784900  1.0  0.0205
  C  C246  1  0.559600  0.935200  0.835000  1.0  -0.1575
  C  C247  1  0.253000  0.970680  0.121000  1.0  0.1113
  C  C248  1  0.245000  0.940500  0.222300  1.0  -0.0016
  C  C249  1  0.312400  0.910200  0.179800  1.0  -0.1386
  C  C250  1  0.943700  0.614450  0.082100  1.0  0.1853
  C  C251  1  0.994000  0.645590  0.142200  1.0  -0.2332
  C  C252  1  0.030800  0.620330  0.196700  1.0  0.1735
  C  C253  1  0.017700  0.564820  0.193400  1.0  -0.2395
  C  C254  1  0.968200  0.535240  0.132900  1.0  0.1826
  C  C255  1  0.934200  0.559210  0.076000  1.0  -0.2813
  C  C256  1  0.820600  0.625390  0.987300  1.0  0.1458
  C  C257  1  0.873100  0.698600  0.954300  1.0  0.0547
  C  C258  1  0.935700  0.688050  0.006000  1.0  -0.1459
  C  C259  1  0.137900  0.631800  0.307800  1.0  0.1481
  C  C260  1  0.104500  0.706420  0.268700  1.0  -0.1488
  C  C261  1  0.168100  0.716600  0.325100  1.0  0.0125
  C  C262  1  0.876200  0.448490  0.100600  1.0  0.146
  C  C263  1  0.969300  0.394110  0.144600  1.0  0.0188
  C  C264  1  0.014000  0.442780  0.157900  1.0  -0.129
  C  C265  1  0.632100  0.486280  0.844700  1.0  -0.1808
  C  C266  1  0.719900  0.447800  0.844200  1.0  -0.1172
  C  C267  1  0.689200  0.390300  0.838400  1.0  -0.1112
  C  C268  1  0.620800  0.382300  0.900200  1.0  -0.1685
  C  C269  1  0.534900  0.423100  0.907000  1.0  -0.1222
  C  C270  1  0.565900  0.479900  0.908700  1.0  -0.1189
  C  C271  1  0.666000  0.544700  0.845300  1.0  0.6744
  C  C272  1  0.677000  0.384000  0.974300  1.0  0.6681
  C  C273  1  0.736100  0.738010  0.703200  1.0  -0.1643
  C  C274  1  0.682000  0.791500  0.707800  1.0  -0.1263
  C  C275  1  0.698200  0.815800  0.638800  1.0  -0.1068
  C  C276  1  0.805600  0.823400  0.624300  1.0  -0.1663
  C  C277  1  0.859200  0.769700  0.618900  1.0  -0.1254
  C  C278  1  0.843600  0.745100  0.687400  1.0  -0.1207
  C  C279  1  0.726600  0.716000  0.774100  1.0  0.6829
  C  C280  1  0.854700  0.869400  0.682800  1.0  0.662
  C  C281  1  0.039000  0.830420  0.480700  1.0  0.1755
  C  C282  1  0.015200  0.861140  0.428800  1.0  -0.2732
  C  C283  1  0.042700  0.914890  0.439700  1.0  0.1697
  C  C284  1  0.096100  0.938890  0.501800  1.0  -0.3115
  C  C285  1  0.122900  0.906470  0.551300  1.0  0.1804
  C  C286  1  0.094600  0.852820  0.542500  1.0  -0.2651
  C  C287  1  0.927800  0.755120  0.431100  1.0  0.143
  C  C288  1  0.998900  0.687640  0.464200  1.0  0.0419
  C  C289  1  0.053600  0.731950  0.491600  1.0  -0.1483
  C  C290  1  0.073600  0.982510  0.359200  1.0  0.1225
  C  C291  1  0.952900  0.966700  0.284900  1.0  0.0218
  C  C292  1  0.940400  0.935200  0.335000  1.0  -0.1579
  C  C293  1  0.247000  0.970680  0.621000  1.0  0.1158
  C  C294  1  0.255000  0.940500  0.722300  1.0  -0.0002
  C  C295  1  0.187600  0.910200  0.679800  1.0  -0.1398
  C  C296  1  0.556300  0.614450  0.582100  1.0  0.1851
  C  C297  1  0.506000  0.645590  0.642200  1.0  -0.2331
  C  C298  1  0.469200  0.620330  0.696700  1.0  0.1732
  C  C299  1  0.482300  0.564820  0.693400  1.0  -0.24
  C  C300  1  0.531800  0.535240  0.632900  1.0  0.1823
  C  C301  1  0.565800  0.559210  0.576000  1.0  -0.2786
  C  C302  1  0.679400  0.625390  0.487300  1.0  0.1461
  C  C303  1  0.626900  0.698600  0.454300  1.0  0.0548
  C  C304  1  0.564300  0.688050  0.506000  1.0  -0.1482
  C  C305  1  0.362100  0.631800  0.807800  1.0  0.1477
  C  C306  1  0.395500  0.706420  0.768700  1.0  -0.1486
  C  C307  1  0.331900  0.716600  0.825100  1.0  0.0124
  C  C308  1  0.623800  0.448490  0.600600  1.0  0.1459
  C  C309  1  0.530700  0.394110  0.644600  1.0  0.0191
  C  C310  1  0.486000  0.442780  0.657900  1.0  -0.1297
  C  C311  1  0.867900  0.486280  0.344700  1.0  -0.1804
  C  C312  1  0.780100  0.447800  0.344200  1.0  -0.118
  C  C313  1  0.810800  0.390300  0.338400  1.0  -0.1101
  C  C314  1  0.879200  0.382300  0.400200  1.0  -0.1689
  C  C315  1  0.965100  0.423100  0.407000  1.0  -0.1162
  C  C316  1  0.934100  0.479900  0.408700  1.0  -0.1204
  C  C317  1  0.834000  0.544700  0.345300  1.0  0.6743
  C  C318  1  0.823000  0.384000  0.474300  1.0  0.6677
  C  C319  1  0.763900  0.738010  0.203200  1.0  -0.1647
  C  C320  1  0.818000  0.791500  0.207800  1.0  -0.1266
  C  C321  1  0.801800  0.815800  0.138800  1.0  -0.1079
  C  C322  1  0.694400  0.823400  0.124300  1.0  -0.1646
  C  C323  1  0.640800  0.769700  0.118900  1.0  -0.1244
  C  C324  1  0.656400  0.745100  0.187400  1.0  -0.1197
  C  C325  1  0.773400  0.716000  0.274100  1.0  0.6829
  C  C326  1  0.645300  0.869400  0.182800  1.0  0.6621
  C  C327  1  0.539000  0.169580  0.019300  1.0  0.1752
  C  C328  1  0.515200  0.138860  0.071200  1.0  -0.2739
  C  C329  1  0.542700  0.085110  0.060300  1.0  0.1705
  C  C330  1  0.596100  0.061110  0.998200  1.0  -0.3111
  C  C331  1  0.622900  0.093530  0.948700  1.0  0.18
  C  C332  1  0.594600  0.147180  0.957500  1.0  -0.2666
  C  C333  1  0.427800  0.244880  0.068900  1.0  0.142
  C  C334  1  0.498900  0.312360  0.035800  1.0  0.0423
  C  C335  1  0.553600  0.268050  0.008400  1.0  -0.1487
  C  C336  1  0.573600  0.017490  0.140800  1.0  0.122
  C  C337  1  0.452900  0.033300  0.215100  1.0  0.0212
  C  C338  1  0.440400  0.064800  0.165000  1.0  -0.1582
  C  C339  1  0.747000  0.029320  0.879000  1.0  0.1152
  C  C340  1  0.755000  0.059500  0.777700  1.0  0.0002
  C  C341  1  0.687600  0.089800  0.820200  1.0  -0.1382
  C  C342  1  0.056300  0.385550  0.917900  1.0  0.1851
  C  C343  1  0.006000  0.354410  0.857800  1.0  -0.2333
  C  C344  1  0.969200  0.379670  0.803300  1.0  0.1737
  C  C345  1  0.982300  0.435180  0.806600  1.0  -0.2403
  C  C346  1  0.031800  0.464760  0.867100  1.0  0.1818
  C  C347  1  0.065800  0.440790  0.924000  1.0  -0.2774
  C  C348  1  0.179400  0.374610  0.012700  1.0  0.1451
  C  C349  1  0.126900  0.301400  0.045700  1.0  0.0547
  C  C350  1  0.064300  0.311950  0.994000  1.0  -0.1479
  C  C351  1  0.862100  0.368200  0.692200  1.0  0.1484
  C  C352  1  0.895500  0.293580  0.731300  1.0  -0.1474
  C  C353  1  0.831900  0.283400  0.674900  1.0  0.014
  C  C354  1  0.123800  0.551510  0.899400  1.0  0.1467
  C  C355  1  0.030700  0.605890  0.855400  1.0  0.0187
  C  C356  1  0.986000  0.557220  0.842100  1.0  -0.1303
  C  C357  1  0.367900  0.513720  0.155300  1.0  -0.1808
  C  C358  1  0.280100  0.552200  0.155800  1.0  -0.1178
  C  C359  1  0.310800  0.609700  0.161600  1.0  -0.1107
  C  C360  1  0.379200  0.617700  0.099800  1.0  -0.1702
  C  C361  1  0.465100  0.576900  0.093000  1.0  -0.1157
  C  C362  1  0.434100  0.520100  0.091300  1.0  -0.1199
  C  C363  1  0.334000  0.455300  0.154700  1.0  0.6755
  C  C364  1  0.323000  0.616000  0.025700  1.0  0.67
  C  C365  1  0.263900  0.261990  0.296800  1.0  -0.166
  C  C366  1  0.318000  0.208500  0.292200  1.0  -0.1257
  C  C367  1  0.301800  0.184200  0.361200  1.0  -0.1078
  C  C368  1  0.194400  0.176600  0.375700  1.0  -0.1643
  C  C369  1  0.140800  0.230300  0.381100  1.0  -0.1245
  C  C370  1  0.156400  0.254900  0.312600  1.0  -0.1203
  C  C371  1  0.273400  0.284000  0.225900  1.0  0.6829
  C  C372  1  0.145300  0.130600  0.317200  1.0  0.6625
  N  N373  1  0.080200  0.297700  0.573500  1.0  -0.3894
  N  N374  1  0.992400  0.224950  0.530300  1.0  0.0363
  N  N375  1  0.963000  0.003120  0.700200  1.0  -0.2691
  N  N376  1  0.981800  0.054920  0.616300  1.0  0.0317
  N  N377  1  0.706800  0.021130  0.315800  1.0  -0.3168
  N  N378  1  0.817700  0.071130  0.385300  1.0  0.0382
  N  N379  1  0.301200  0.340620  0.558000  1.0  -0.3731
  N  N380  1  0.403300  0.358850  0.472200  1.0  0.0287
  N  N381  1  0.690300  0.330250  0.150500  1.0  -0.3117
  N  N382  1  0.584800  0.348550  0.242900  1.0  0.0378
  N  N383  1  0.383100  0.601890  0.391500  1.0  -0.2949
  N  N384  1  0.454600  0.521940  0.370500  1.0  0.0317
  N  N385  1  0.580200  0.702300  0.926500  1.0  -0.3876
  N  N386  1  0.492400  0.775050  0.969700  1.0  0.0368
  N  N387  1  0.463000  0.996880  0.799800  1.0  -0.2694
  N  N388  1  0.481800  0.945080  0.883700  1.0  0.0319
  N  N389  1  0.206800  0.978870  0.184200  1.0  -0.3163
  N  N390  1  0.317700  0.928870  0.114700  1.0  0.0379
  N  N391  1  0.801200  0.659380  0.942000  1.0  -0.3723
  N  N392  1  0.903300  0.641150  0.027800  1.0  0.0288
  N  N393  1  0.190300  0.669750  0.349500  1.0  -0.3122
  N  N394  1  0.084800  0.651450  0.257100  1.0  0.0383
  N  N395  1  0.883100  0.398110  0.108500  1.0  -0.2951
  N  N396  1  0.954600  0.478060  0.129500  1.0  0.0322
  N  N397  1  0.919800  0.702300  0.426500  1.0  -0.3901
  N  N398  1  0.007600  0.775050  0.469700  1.0  0.0369
  N  N399  1  0.037000  0.996880  0.299800  1.0  -0.2695
  N  N400  1  0.018200  0.945080  0.383700  1.0  0.0326
  N  N401  1  0.293200  0.978870  0.684200  1.0  -0.2923
  N  N402  1  0.182300  0.928870  0.614700  1.0  0.0376
  N  N403  1  0.698800  0.659380  0.442000  1.0  -0.3719
  N  N404  1  0.596700  0.641150  0.527800  1.0  0.0288
  N  N405  1  0.309700  0.669750  0.849500  1.0  -0.3168
  N  N406  1  0.415200  0.651450  0.757100  1.0  0.0384
  N  N407  1  0.616900  0.398110  0.608500  1.0  -0.2941
  N  N408  1  0.545400  0.478060  0.629500  1.0  0.0322
  N  N409  1  0.419800  0.297700  0.073500  1.0  -0.3907
  N  N410  1  0.507600  0.224950  0.030300  1.0  0.037
  N  N411  1  0.537000  0.003120  0.200200  1.0  -0.2682
  N  N412  1  0.518200  0.054920  0.116300  1.0  0.0321
  N  N413  1  0.793200  0.021130  0.815800  1.0  -0.2908
  N  N414  1  0.682300  0.071130  0.885300  1.0  0.0374
  N  N415  1  0.198800  0.340620  0.058000  1.0  -0.3716
  N  N416  1  0.096700  0.358850  0.972200  1.0  0.0288
  N  N417  1  0.809700  0.330250  0.650500  1.0  -0.316
  N  N418  1  0.915200  0.348550  0.742900  1.0  0.0381
  N  N419  1  0.116900  0.601890  0.891500  1.0  -0.2958
  N  N420  1  0.045400  0.521940  0.870500  1.0  0.0318
  O  O421  1  0.122400  0.418090  0.624900  1.0  -0.5746
  O  O422  1  0.246000  0.448230  0.685900  1.0  -0.6925
  O  O423  1  0.234700  0.654600  0.527300  1.0  -0.5792
  O  O424  1  0.163200  0.580100  0.469900  1.0  -0.584
  O  O425  1  0.195500  0.331910  0.729120  1.0  -0.6157
  O  O426  1  0.249600  0.254910  0.665100  1.0  -0.6351
  O  O427  1  0.442600  0.135750  0.798500  1.0  -0.6165
  O  O428  1  0.306300  0.089950  0.793900  1.0  -0.5318
  O  O429  1  0.622400  0.581910  0.875100  1.0  -0.5758
  O  O430  1  0.746000  0.551770  0.814100  1.0  -0.6929
  O  O431  1  0.734700  0.345400  0.972700  1.0  -0.5794
  O  O432  1  0.663200  0.419900  0.030100  1.0  -0.5846
  O  O433  1  0.695500  0.668090  0.770880  1.0  -0.618
  O  O434  1  0.749600  0.745090  0.834900  1.0  -0.6343
  O  O435  1  0.942600  0.864250  0.701500  1.0  -0.6152
  O  O436  1  0.806300  0.910050  0.706100  1.0  -0.5312
  O  O437  1  0.877600  0.581910  0.375100  1.0  -0.5764
  O  O438  1  0.754000  0.551770  0.314100  1.0  -0.692
  O  O439  1  0.765300  0.345400  0.472700  1.0  -0.5794
  O  O440  1  0.836800  0.419900  0.530100  1.0  -0.5852
  O  O441  1  0.804500  0.668090  0.270880  1.0  -0.6181
  O  O442  1  0.750400  0.745090  0.334900  1.0  -0.6346
  O  O443  1  0.557400  0.864250  0.201500  1.0  -0.6154
  O  O444  1  0.693700  0.910050  0.206100  1.0  -0.5318
  O  O445  1  0.377600  0.418090  0.124900  1.0  -0.5748
  O  O446  1  0.254000  0.448230  0.185900  1.0  -0.6932
  O  O447  1  0.265300  0.654600  0.027300  1.0  -0.5791
  O  O448  1  0.336800  0.580100  0.969900  1.0  -0.5841
  O  O449  1  0.304500  0.331910  0.229120  1.0  -0.6173
  O  O450  1  0.250400  0.254910  0.165100  1.0  -0.6368
  O  O451  1  0.057400  0.135750  0.298500  1.0  -0.6174
  O  O452  1  0.193700  0.089950  0.293900  1.0  -0.5313
