# generated using pymatgen
data_Zn6C13O22
_symmetry_space_group_name_H-M   'P 1'
_cell_length_a   16.80700000
_cell_length_b   16.80700000
_cell_length_c   16.80700000
_cell_angle_alpha   90.00000000
_cell_angle_beta   90.00000000
_cell_angle_gamma   90.00000000
_symmetry_Int_Tables_number   1
_chemical_formula_structural   Zn6C13O22
_chemical_formula_sum   'Zn24 C52 O88'
_cell_volume   4747.56150994
_cell_formula_units_Z   4
loop_
 _symmetry_equiv_pos_site_id
 _symmetry_equiv_pos_as_xyz
  1  'x, y, z'
loop_
 _atom_site_type_symbol
 _atom_site_label
 _atom_site_symmetry_multiplicity
 _atom_site_fract_x
 _atom_site_fract_y
 _atom_site_fract_z
 _atom_site_occupancy
 _atom_site_charge
  Zn  Zn1  1  0.874640  0.472710  0.482760  1.0  1.0547
  Zn  Zn2  1  0.625360  0.527290  0.982760  1.0  1.0545
  Zn  Zn3  1  0.125360  0.972710  0.017240  1.0  1.055
  Zn  Zn4  1  0.374640  0.027290  0.517240  1.0  1.0546
  Zn  Zn5  1  0.482760  0.874640  0.472710  1.0  1.0533
  Zn  Zn6  1  0.982760  0.625360  0.527290  1.0  1.0549
  Zn  Zn7  1  0.017240  0.125360  0.972710  1.0  1.0543
  Zn  Zn8  1  0.517240  0.374640  0.027290  1.0  1.0556
  Zn  Zn9  1  0.472710  0.482760  0.874640  1.0  1.0516
  Zn  Zn10  1  0.527290  0.982760  0.625360  1.0  1.054
  Zn  Zn11  1  0.972710  0.017240  0.125360  1.0  1.0534
  Zn  Zn12  1  0.027290  0.517240  0.374640  1.0  1.0506
  Zn  Zn13  1  0.871190  0.628810  0.371190  1.0  0.8304
  Zn  Zn14  1  0.147500  0.352500  0.647500  1.0  0.8041
  Zn  Zn15  1  0.628810  0.371190  0.871190  1.0  0.8379
  Zn  Zn16  1  0.352500  0.647500  0.147500  1.0  0.7969
  Zn  Zn17  1  0.128810  0.128810  0.128810  1.0  0.8344
  Zn  Zn18  1  0.852500  0.852500  0.852500  1.0  0.8033
  Zn  Zn19  1  0.371190  0.871190  0.628810  1.0  0.8305
  Zn  Zn20  1  0.647500  0.147500  0.352500  1.0  0.7989
  Zn  Zn21  1  0.821820  0.321820  0.178180  1.0  1.038
  Zn  Zn22  1  0.678180  0.678180  0.678180  1.0  1.0373
  Zn  Zn23  1  0.178180  0.821820  0.321820  1.0  1.0374
  Zn  Zn24  1  0.321820  0.178180  0.821820  1.0  1.0388
  C  C25  1  0.820800  0.391000  0.341300  1.0  0.7113
  C  C26  1  0.876000  0.457300  0.302100  1.0  0.0674
  C  C27  1  0.946700  0.414000  0.262300  1.0  0.7022
  C  C28  1  0.990400  0.386400  0.573400  1.0  0.6858
  C  C29  1  0.679200  0.609000  0.841300  1.0  0.7098
  C  C30  1  0.624000  0.542700  0.802100  1.0  0.0712
  C  C31  1  0.553300  0.586000  0.762300  1.0  0.7031
  C  C32  1  0.509600  0.613600  0.073400  1.0  0.6821
  C  C33  1  0.179200  0.891000  0.158700  1.0  0.7096
  C  C34  1  0.124000  0.957300  0.197900  1.0  0.067
  C  C35  1  0.053300  0.914000  0.237700  1.0  0.7026
  C  C36  1  0.009600  0.886400  0.926600  1.0  0.6846
  C  C37  1  0.320800  0.109000  0.658700  1.0  0.7118
  C  C38  1  0.376000  0.042700  0.697900  1.0  0.0693
  C  C39  1  0.446700  0.086000  0.737700  1.0  0.703
  C  C40  1  0.490400  0.113600  0.426600  1.0  0.6831
  C  C41  1  0.341300  0.820800  0.391000  1.0  0.7073
  C  C42  1  0.302100  0.876000  0.457300  1.0  0.0696
  C  C43  1  0.262300  0.946700  0.414000  1.0  0.7019
  C  C44  1  0.573400  0.990400  0.386400  1.0  0.6925
  C  C45  1  0.841300  0.679200  0.609000  1.0  0.7093
  C  C46  1  0.802100  0.624000  0.542700  1.0  0.0695
  C  C47  1  0.762300  0.553300  0.586000  1.0  0.703
  C  C48  1  0.073400  0.509600  0.613600  1.0  0.6922
  C  C49  1  0.158700  0.179200  0.891000  1.0  0.7083
  C  C50  1  0.197900  0.124000  0.957300  1.0  0.0687
  C  C51  1  0.237700  0.053300  0.914000  1.0  0.7028
  C  C52  1  0.926600  0.009600  0.886400  1.0  0.6922
  C  C53  1  0.658700  0.320800  0.109000  1.0  0.7088
  C  C54  1  0.697900  0.376000  0.042700  1.0  0.0714
  C  C55  1  0.737700  0.446700  0.086000  1.0  0.7012
  C  C56  1  0.426600  0.490400  0.113600  1.0  0.6925
  C  C57  1  0.391000  0.341300  0.820800  1.0  0.7097
  C  C58  1  0.457300  0.302100  0.876000  1.0  0.0726
  C  C59  1  0.414000  0.262300  0.946700  1.0  0.7027
  C  C60  1  0.386400  0.573400  0.990400  1.0  0.6887
  C  C61  1  0.609000  0.841300  0.679200  1.0  0.7113
  C  C62  1  0.542700  0.802100  0.624000  1.0  0.0699
  C  C63  1  0.586000  0.762300  0.553300  1.0  0.7024
  C  C64  1  0.613600  0.073400  0.509600  1.0  0.6894
  C  C65  1  0.891000  0.158700  0.179200  1.0  0.71
  C  C66  1  0.957300  0.197900  0.124000  1.0  0.0699
  C  C67  1  0.914000  0.237700  0.053300  1.0  0.7012
  C  C68  1  0.886400  0.926600  0.009600  1.0  0.6878
  C  C69  1  0.109000  0.658700  0.320800  1.0  0.7093
  C  C70  1  0.042700  0.697900  0.376000  1.0  0.0702
  C  C71  1  0.086000  0.737700  0.446700  1.0  0.7019
  C  C72  1  0.113600  0.426600  0.490400  1.0  0.6878
  C  C73  1  0.042400  0.457600  0.542400  1.0  0.0288
  C  C74  1  0.457600  0.542400  0.042400  1.0  0.0295
  C  C75  1  0.957600  0.957600  0.957600  1.0  0.0293
  C  C76  1  0.542400  0.042400  0.457600  1.0  0.0287
  O  O77  1  0.788500  0.343400  0.294400  1.0  -0.5349
  O  O78  1  0.904600  0.506700  0.364200  1.0  -0.8047
  O  O79  1  0.814400  0.390100  0.414800  1.0  -0.508
  O  O80  1  0.016300  0.433500  0.288400  1.0  -0.5375
  O  O81  1  0.935100  0.364200  0.210200  1.0  -0.5161
  O  O82  1  0.921400  0.378900  0.548900  1.0  -0.4907
  O  O83  1  0.026000  0.334600  0.616800  1.0  -0.4907
  O  O84  1  0.711500  0.656600  0.794400  1.0  -0.5359
  O  O85  1  0.595400  0.493300  0.864200  1.0  -0.805
  O  O86  1  0.685600  0.609900  0.914800  1.0  -0.507
  O  O87  1  0.483700  0.566500  0.788400  1.0  -0.5385
  O  O88  1  0.564900  0.635800  0.710200  1.0  -0.5169
  O  O89  1  0.578600  0.621100  0.048900  1.0  -0.4896
  O  O90  1  0.474000  0.665400  0.116800  1.0  -0.4873
  O  O91  1  0.211500  0.843400  0.205600  1.0  -0.5347
  O  O92  1  0.095400  0.006700  0.135800  1.0  -0.8045
  O  O93  1  0.185600  0.890100  0.085200  1.0  -0.506
  O  O94  1  0.983700  0.933500  0.211600  1.0  -0.5367
  O  O95  1  0.064900  0.864200  0.289800  1.0  -0.5166
  O  O96  1  0.078600  0.878900  0.951100  1.0  -0.4878
  O  O97  1  0.974000  0.834600  0.883200  1.0  -0.4874
  O  O98  1  0.288500  0.156600  0.705600  1.0  -0.5353
  O  O99  1  0.404600  0.993300  0.635800  1.0  -0.8056
  O  O100  1  0.314400  0.109900  0.585200  1.0  -0.5109
  O  O101  1  0.516300  0.066500  0.711600  1.0  -0.5372
  O  O102  1  0.435100  0.135800  0.789800  1.0  -0.5168
  O  O103  1  0.421400  0.121100  0.451100  1.0  -0.49
  O  O104  1  0.526000  0.165400  0.383200  1.0  -0.491
  O  O105  1  0.294400  0.788500  0.343400  1.0  -0.5373
  O  O106  1  0.364200  0.904600  0.506700  1.0  -0.8043
  O  O107  1  0.414800  0.814400  0.390100  1.0  -0.5034
  O  O108  1  0.288400  0.016300  0.433500  1.0  -0.541
  O  O109  1  0.210200  0.935100  0.364200  1.0  -0.5179
  O  O110  1  0.548900  0.921400  0.378900  1.0  -0.4903
  O  O111  1  0.616800  0.026000  0.334600  1.0  -0.4908
  O  O112  1  0.794400  0.711500  0.656600  1.0  -0.5369
  O  O113  1  0.864200  0.595400  0.493300  1.0  -0.803
  O  O114  1  0.914800  0.685600  0.609900  1.0  -0.5053
  O  O115  1  0.788400  0.483700  0.566500  1.0  -0.5385
  O  O116  1  0.710200  0.564900  0.635800  1.0  -0.5183
  O  O117  1  0.048900  0.578600  0.621100  1.0  -0.4864
  O  O118  1  0.116800  0.474000  0.665400  1.0  -0.4878
  O  O119  1  0.205600  0.211500  0.843400  1.0  -0.5372
  O  O120  1  0.135800  0.095400  0.006700  1.0  -0.8039
  O  O121  1  0.085200  0.185600  0.890100  1.0  -0.5054
  O  O122  1  0.211600  0.983700  0.933500  1.0  -0.5395
  O  O123  1  0.289800  0.064900  0.864200  1.0  -0.5169
  O  O124  1  0.951100  0.078600  0.878900  1.0  -0.4921
  O  O125  1  0.883200  0.974000  0.834600  1.0  -0.4899
  O  O126  1  0.705600  0.288500  0.156600  1.0  -0.5352
  O  O127  1  0.635800  0.404600  0.993300  1.0  -0.8052
  O  O128  1  0.585200  0.314400  0.109900  1.0  -0.5061
  O  O129  1  0.711600  0.516300  0.066500  1.0  -0.5399
  O  O130  1  0.789800  0.435100  0.135800  1.0  -0.5175
  O  O131  1  0.451100  0.421400  0.121100  1.0  -0.4887
  O  O132  1  0.383200  0.526000  0.165400  1.0  -0.4886
  O  O133  1  0.343400  0.294400  0.788500  1.0  -0.5344
  O  O134  1  0.506700  0.364200  0.904600  1.0  -0.8038
  O  O135  1  0.390100  0.414800  0.814400  1.0  -0.5081
  O  O136  1  0.433500  0.288400  0.016300  1.0  -0.544
  O  O137  1  0.364200  0.210200  0.935100  1.0  -0.515
  O  O138  1  0.378900  0.548900  0.921400  1.0  -0.4903
  O  O139  1  0.334600  0.616800  0.026000  1.0  -0.4874
  O  O140  1  0.656600  0.794400  0.711500  1.0  -0.5357
  O  O141  1  0.493300  0.864200  0.595400  1.0  -0.8037
  O  O142  1  0.609900  0.914800  0.685600  1.0  -0.5046
  O  O143  1  0.566500  0.788400  0.483700  1.0  -0.5414
  O  O144  1  0.635800  0.710200  0.564900  1.0  -0.513
  O  O145  1  0.621100  0.048900  0.578600  1.0  -0.486
  O  O146  1  0.665400  0.116800  0.474000  1.0  -0.4892
  O  O147  1  0.843400  0.205600  0.211500  1.0  -0.5348
  O  O148  1  0.006700  0.135800  0.095400  1.0  -0.8018
  O  O149  1  0.890100  0.085200  0.185600  1.0  -0.5071
  O  O150  1  0.933500  0.211600  0.983700  1.0  -0.5429
  O  O151  1  0.864200  0.289800  0.064900  1.0  -0.5145
  O  O152  1  0.878900  0.951100  0.078600  1.0  -0.4866
  O  O153  1  0.834600  0.883200  0.974000  1.0  -0.4883
  O  O154  1  0.156600  0.705600  0.288500  1.0  -0.5341
  O  O155  1  0.993300  0.635800  0.404600  1.0  -0.8023
  O  O156  1  0.109900  0.585200  0.314400  1.0  -0.5053
  O  O157  1  0.066500  0.711600  0.516300  1.0  -0.5413
  O  O158  1  0.135800  0.789800  0.435100  1.0  -0.5147
  O  O159  1  0.121100  0.451100  0.421400  1.0  -0.4877
  O  O160  1  0.165400  0.383200  0.526000  1.0  -0.4902
  O  O161  1  0.993200  0.506800  0.493200  1.0  -0.732
  O  O162  1  0.506800  0.493200  0.993200  1.0  -0.7339
  O  O163  1  0.006800  0.006800  0.006800  1.0  -0.7331
  O  O164  1  0.493200  0.993200  0.506800  1.0  -0.733
