# generated using pymatgen
data_Zn2H14C33O8
_symmetry_space_group_name_H-M   'P 1'
_cell_length_a   18.76500000
_cell_length_b   18.76500000
_cell_length_c   26.75380000
_cell_angle_alpha   110.53000000
_cell_angle_beta   110.53000000
_cell_angle_gamma   90.00010000
_symmetry_Int_Tables_number   1
_chemical_formula_structural   Zn2H14C33O8
_chemical_formula_sum   'Zn8 H56 C132 O32'
_cell_volume   8180.39999777
_cell_formula_units_Z   4
loop_
 _symmetry_equiv_pos_site_id
 _symmetry_equiv_pos_as_xyz
  1  'x, y, z'
loop_
 _atom_site_type_symbol
 _atom_site_label
 _atom_site_symmetry_multiplicity
 _atom_site_fract_x
 _atom_site_fract_y
 _atom_site_fract_z
 _atom_site_occupancy
 _atom_site_charge
  Zn  Zn1  1  0.486920  0.486920  0.548780  1.0  1.1214
  Zn  Zn2  1  0.061860  0.061860  0.548780  1.0  1.1231
  Zn  Zn3  1  0.486920  0.061860  0.548780  1.0  1.1279
  Zn  Zn4  1  0.061860  0.486920  0.548780  1.0  1.1289
  Zn  Zn5  1  0.938140  0.513080  0.451220  1.0  1.1276
  Zn  Zn6  1  0.513080  0.938140  0.451220  1.0  1.1262
  Zn  Zn7  1  0.938140  0.938140  0.451220  1.0  1.1213
  Zn  Zn8  1  0.513080  0.513080  0.451220  1.0  1.119
  H  H9  1  0.275400  0.465300  0.337600  1.0  0.0935
  H  H10  1  0.180900  0.445200  0.155400  1.0  0.0964
  H  H11  1  0.133300  0.443500  0.062000  1.0  0.0825
  H  H12  1  0.062200  0.872300  0.337600  1.0  0.0925
  H  H13  1  0.974500  0.710200  0.155400  1.0  0.0978
  H  H14  1  0.928700  0.618500  0.062000  1.0  0.0829
  H  H15  1  0.465300  0.062200  0.337600  1.0  0.0964
  H  H16  1  0.445200  0.974500  0.155400  1.0  0.0982
  H  H17  1  0.443500  0.928700  0.062000  1.0  0.0813
  H  H18  1  0.872300  0.275400  0.337600  1.0  0.0949
  H  H19  1  0.710200  0.180900  0.155400  1.0  0.0959
  H  H20  1  0.618500  0.133300  0.062000  1.0  0.0836
  H  H21  1  0.937800  0.534700  0.662400  1.0  0.0967
  H  H22  1  0.025500  0.554800  0.844600  1.0  0.0981
  H  H23  1  0.071300  0.556500  0.938000  1.0  0.0822
  H  H24  1  0.724600  0.127700  0.662400  1.0  0.0951
  H  H25  1  0.819100  0.289800  0.844600  1.0  0.0968
  H  H26  1  0.866700  0.381500  0.938000  1.0  0.0827
  H  H27  1  0.127700  0.937800  0.662400  1.0  0.0933
  H  H28  1  0.289800  0.025500  0.844600  1.0  0.0977
  H  H29  1  0.381500  0.071300  0.938000  1.0  0.0824
  H  H30  1  0.534700  0.724600  0.662400  1.0  0.0928
  H  H31  1  0.554800  0.819100  0.844600  1.0  0.0971
  H  H32  1  0.556500  0.866700  0.938000  1.0  0.082
  H  H33  1  0.724600  0.534700  0.662400  1.0  0.0934
  H  H34  1  0.819100  0.554800  0.844600  1.0  0.0979
  H  H35  1  0.866700  0.556500  0.938000  1.0  0.0825
  H  H36  1  0.937800  0.127700  0.662400  1.0  0.0923
  H  H37  1  0.025500  0.289800  0.844600  1.0  0.0971
  H  H38  1  0.071300  0.381500  0.938000  1.0  0.0839
  H  H39  1  0.534700  0.937800  0.662400  1.0  0.0966
  H  H40  1  0.554800  0.025500  0.844600  1.0  0.0973
  H  H41  1  0.556500  0.071300  0.938000  1.0  0.0812
  H  H42  1  0.127700  0.724600  0.662400  1.0  0.0947
  H  H43  1  0.289800  0.819100  0.844600  1.0  0.0963
  H  H44  1  0.381500  0.866700  0.938000  1.0  0.0837
  H  H45  1  0.062200  0.465300  0.337600  1.0  0.0968
  H  H46  1  0.974500  0.445200  0.155400  1.0  0.0986
  H  H47  1  0.928700  0.443500  0.062000  1.0  0.0815
  H  H48  1  0.275400  0.872300  0.337600  1.0  0.095
  H  H49  1  0.180900  0.710200  0.155400  1.0  0.0966
  H  H50  1  0.133300  0.618500  0.062000  1.0  0.0829
  H  H51  1  0.872300  0.062200  0.337600  1.0  0.0931
  H  H52  1  0.710200  0.974500  0.155400  1.0  0.0976
  H  H53  1  0.618500  0.928700  0.062000  1.0  0.083
  H  H54  1  0.465300  0.275400  0.337600  1.0  0.093
  H  H55  1  0.445200  0.180900  0.155400  1.0  0.0971
  H  H56  1  0.443500  0.133300  0.062000  1.0  0.0822
  H  H57  1  0.241000  0.485300  0.482000  1.0  0.086
  H  H58  1  0.241000  0.996700  0.482000  1.0  0.0877
  H  H59  1  0.485300  0.241000  0.482000  1.0  0.0861
  H  H60  1  0.996700  0.241000  0.482000  1.0  0.0867
  H  H61  1  0.759000  0.514700  0.518000  1.0  0.086
  H  H62  1  0.759000  0.003300  0.518000  1.0  0.0877
  H  H63  1  0.003300  0.759000  0.518000  1.0  0.0867
  H  H64  1  0.514700  0.759000  0.518000  1.0  0.0862
  C  C65  1  0.242380  0.469080  0.358160  1.0  -0.0887
  C  C66  1  0.273850  0.479950  0.416300  1.0  -0.1637
  C  C67  1  0.127000  0.440000  0.135400  1.0  -0.1128
  C  C68  1  0.098570  0.441870  0.080340  1.0  -0.152
  C  C69  1  0.357170  0.489270  0.446340  1.0  0.6449
  C  C70  1  0.115780  0.889080  0.358160  1.0  -0.0893
  C  C71  1  0.142450  0.936350  0.416300  1.0  -0.164
  C  C72  1  0.008400  0.695400  0.135400  1.0  -0.1182
  C  C73  1  0.981770  0.638470  0.080340  1.0  -0.1569
  C  C74  1  0.089170  0.957070  0.446340  1.0  0.6458
  C  C75  1  0.469080  0.115780  0.358160  1.0  -0.0846
  C  C76  1  0.479950  0.142450  0.416300  1.0  -0.1723
  C  C77  1  0.440000  0.008400  0.135400  1.0  -0.1173
  C  C78  1  0.441870  0.981770  0.080340  1.0  -0.1701
  C  C79  1  0.489270  0.089170  0.446340  1.0  0.6533
  C  C80  1  0.889080  0.242380  0.358160  1.0  -0.0855
  C  C81  1  0.936350  0.273850  0.416300  1.0  -0.1782
  C  C82  1  0.695400  0.127000  0.135400  1.0  -0.1198
  C  C83  1  0.638470  0.098570  0.080340  1.0  -0.1547
  C  C84  1  0.957070  0.357170  0.446340  1.0  0.6485
  C  C85  1  0.884220  0.530920  0.641840  1.0  -0.0811
  C  C86  1  0.857550  0.520050  0.583700  1.0  -0.1719
  C  C87  1  0.991600  0.560000  0.864600  1.0  -0.115
  C  C88  1  0.018230  0.558130  0.919660  1.0  -0.1633
  C  C89  1  0.910830  0.510730  0.553660  1.0  0.6524
  C  C90  1  0.757620  0.110920  0.641840  1.0  -0.0852
  C  C91  1  0.726150  0.063650  0.583700  1.0  -0.1782
  C  C92  1  0.873000  0.304600  0.864600  1.0  -0.1148
  C  C93  1  0.901430  0.361530  0.919660  1.0  -0.1524
  C  C94  1  0.642830  0.042930  0.553660  1.0  0.6474
  C  C95  1  0.110920  0.884220  0.641840  1.0  -0.0918
  C  C96  1  0.063650  0.857550  0.583700  1.0  -0.1634
  C  C97  1  0.304600  0.991600  0.864600  1.0  -0.1196
  C  C98  1  0.361530  0.018230  0.919660  1.0  -0.1592
  C  C99  1  0.042930  0.910830  0.553660  1.0  0.646
  C  C100  1  0.530920  0.757620  0.641840  1.0  -0.0883
  C  C101  1  0.520050  0.726150  0.583700  1.0  -0.1634
  C  C102  1  0.560000  0.873000  0.864600  1.0  -0.1149
  C  C103  1  0.558130  0.901430  0.919660  1.0  -0.1566
  C  C104  1  0.510730  0.642830  0.553660  1.0  0.6463
  C  C105  1  0.757620  0.530920  0.641840  1.0  -0.0888
  C  C106  1  0.726150  0.520050  0.583700  1.0  -0.1636
  C  C107  1  0.873000  0.560000  0.864600  1.0  -0.1111
  C  C108  1  0.901430  0.558130  0.919660  1.0  -0.1542
  C  C109  1  0.642830  0.510730  0.553660  1.0  0.646
  C  C110  1  0.884220  0.110920  0.641840  1.0  -0.0898
  C  C111  1  0.857550  0.063650  0.583700  1.0  -0.1636
  C  C112  1  0.991600  0.304600  0.864600  1.0  -0.1194
  C  C113  1  0.018230  0.361530  0.919660  1.0  -0.1553
  C  C114  1  0.910830  0.042930  0.553660  1.0  0.6456
  C  C115  1  0.530920  0.884220  0.641840  1.0  -0.0841
  C  C116  1  0.520050  0.857550  0.583700  1.0  -0.172
  C  C117  1  0.560000  0.991600  0.864600  1.0  -0.1187
  C  C118  1  0.558130  0.018230  0.919660  1.0  -0.1692
  C  C119  1  0.510730  0.910830  0.553660  1.0  0.6535
  C  C120  1  0.110920  0.757620  0.641840  1.0  -0.0842
  C  C121  1  0.063650  0.726150  0.583700  1.0  -0.1782
  C  C122  1  0.304600  0.873000  0.864600  1.0  -0.1194
  C  C123  1  0.361530  0.901430  0.919660  1.0  -0.1587
  C  C124  1  0.042930  0.642830  0.553660  1.0  0.6488
  C  C125  1  0.115780  0.469080  0.358160  1.0  -0.0818
  C  C126  1  0.142450  0.479950  0.416300  1.0  -0.1719
  C  C127  1  0.008400  0.440000  0.135400  1.0  -0.1147
  C  C128  1  0.981770  0.441870  0.080340  1.0  -0.1633
  C  C129  1  0.089170  0.489270  0.446340  1.0  0.6523
  C  C130  1  0.242380  0.889080  0.358160  1.0  -0.086
  C  C131  1  0.273850  0.936350  0.416300  1.0  -0.1777
  C  C132  1  0.127000  0.695400  0.135400  1.0  -0.1155
  C  C133  1  0.098570  0.638470  0.080340  1.0  -0.1535
  C  C134  1  0.357170  0.957070  0.446340  1.0  0.6473
  C  C135  1  0.889080  0.115780  0.358160  1.0  -0.0915
  C  C136  1  0.936350  0.142450  0.416300  1.0  -0.1646
  C  C137  1  0.695400  0.008400  0.135400  1.0  -0.1184
  C  C138  1  0.638470  0.981770  0.080340  1.0  -0.1587
  C  C139  1  0.957070  0.089170  0.446340  1.0  0.6455
  C  C140  1  0.469080  0.242380  0.358160  1.0  -0.089
  C  C141  1  0.479950  0.273850  0.416300  1.0  -0.1634
  C  C142  1  0.440000  0.127000  0.135400  1.0  -0.1147
  C  C143  1  0.441870  0.098570  0.080340  1.0  -0.1556
  C  C144  1  0.489270  0.357170  0.446340  1.0  0.6468
  C  C145  1  0.165220  0.463920  0.330440  1.0  0.0817
  C  C146  1  0.221590  0.482090  0.443180  1.0  -0.0178
  C  C147  1  0.110250  0.440350  0.220500  1.0  -0.021
  C  C148  1  0.135880  0.453280  0.271760  1.0  -0.0957
  C  C149  1  0.079920  0.431220  0.159840  1.0  0.3852
  C  C150  1  0.026970  0.441670  0.053940  1.0  0.2005
  C  C151  1  0.165220  0.866520  0.330440  1.0  0.0773
  C  C152  1  0.221590  0.961090  0.443180  1.0  -0.0173
  C  C153  1  0.110250  0.780150  0.220500  1.0  -0.0166
  C  C154  1  0.135880  0.818480  0.271760  1.0  -0.1009
  C  C155  1  0.079920  0.728620  0.159840  1.0  0.3946
  C  C156  1  0.026970  0.612270  0.053940  1.0  0.2044
  C  C157  1  0.463920  0.165220  0.330440  1.0  0.0817
  C  C158  1  0.482090  0.221590  0.443180  1.0  -0.018
  C  C159  1  0.440350  0.110250  0.220500  1.0  -0.0209
  C  C160  1  0.453280  0.135880  0.271760  1.0  -0.096
  C  C161  1  0.431220  0.079920  0.159840  1.0  0.3854
  C  C162  1  0.441670  0.026970  0.053940  1.0  0.2008
  C  C163  1  0.866520  0.165220  0.330440  1.0  0.0767
  C  C164  1  0.961090  0.221590  0.443180  1.0  -0.0188
  C  C165  1  0.780150  0.110250  0.220500  1.0  -0.0176
  C  C166  1  0.818480  0.135880  0.271760  1.0  -0.1014
  C  C167  1  0.728620  0.079920  0.159840  1.0  0.3898
  C  C168  1  0.612270  0.026970  0.053940  1.0  0.2065
  C  C169  1  0.834780  0.536080  0.669560  1.0  0.0812
  C  C170  1  0.778410  0.517910  0.556820  1.0  -0.0174
  C  C171  1  0.889750  0.559650  0.779500  1.0  -0.0219
  C  C172  1  0.864120  0.546720  0.728240  1.0  -0.0947
  C  C173  1  0.920080  0.568780  0.840160  1.0  0.3833
  C  C174  1  0.973030  0.558330  0.946060  1.0  0.2011
  C  C175  1  0.834780  0.133480  0.669560  1.0  0.0774
  C  C176  1  0.778410  0.038910  0.556820  1.0  -0.0176
  C  C177  1  0.889750  0.219850  0.779500  1.0  -0.0179
  C  C178  1  0.864120  0.181520  0.728240  1.0  -0.1001
  C  C179  1  0.920080  0.271380  0.840160  1.0  0.3935
  C  C180  1  0.973030  0.387730  0.946060  1.0  0.2022
  C  C181  1  0.133480  0.834780  0.669560  1.0  0.0773
  C  C182  1  0.038910  0.778410  0.556820  1.0  -0.0167
  C  C183  1  0.219850  0.889750  0.779500  1.0  -0.0186
  C  C184  1  0.181520  0.864120  0.728240  1.0  -0.0988
  C  C185  1  0.271380  0.920080  0.840160  1.0  0.3919
  C  C186  1  0.387730  0.973030  0.946060  1.0  0.2037
  C  C187  1  0.536080  0.834780  0.669560  1.0  0.082
  C  C188  1  0.517910  0.778410  0.556820  1.0  -0.0169
  C  C189  1  0.559650  0.889750  0.779500  1.0  -0.0222
  C  C190  1  0.546720  0.864120  0.728240  1.0  -0.0952
  C  C191  1  0.568780  0.920080  0.840160  1.0  0.3843
  C  C192  1  0.558330  0.973030  0.946060  1.0  0.2028
  C  C193  1  0.000000  0.465300  0.000000  1.0  -0.0759
  C  C194  1  0.000000  0.534700  0.000000  1.0  -0.0757
  C  C195  1  0.465300  0.000000  0.000000  1.0  -0.0753
  C  C196  1  0.534700  0.000000  0.000000  1.0  -0.0752
  O  O197  1  0.379930  0.486240  0.497880  1.0  -0.626
  O  O198  1  0.399960  0.502260  0.422520  1.0  -0.6212
  O  O199  1  0.117950  0.011640  0.497880  1.0  -0.6274
  O  O200  1  0.022560  0.920260  0.422520  1.0  -0.6213
  O  O201  1  0.486240  0.117950  0.497880  1.0  -0.6268
  O  O202  1  0.502260  0.022560  0.422520  1.0  -0.6157
  O  O203  1  0.011640  0.379930  0.497880  1.0  -0.6241
  O  O204  1  0.920260  0.399960  0.422520  1.0  -0.6234
  O  O205  1  0.882050  0.513760  0.502120  1.0  -0.625
  O  O206  1  0.977440  0.497740  0.577480  1.0  -0.6136
  O  O207  1  0.620070  0.988360  0.502120  1.0  -0.6258
  O  O208  1  0.600040  0.079740  0.577480  1.0  -0.6227
  O  O209  1  0.988360  0.882050  0.502120  1.0  -0.6271
  O  O210  1  0.079740  0.977440  0.577480  1.0  -0.6211
  O  O211  1  0.513760  0.620070  0.502120  1.0  -0.6249
  O  O212  1  0.497740  0.600040  0.577480  1.0  -0.6213
  O  O213  1  0.620070  0.513760  0.502120  1.0  -0.627
  O  O214  1  0.600040  0.497740  0.577480  1.0  -0.6187
  O  O215  1  0.882050  0.988360  0.502120  1.0  -0.6275
  O  O216  1  0.977440  0.079740  0.577480  1.0  -0.6217
  O  O217  1  0.513760  0.882050  0.502120  1.0  -0.6255
  O  O218  1  0.497740  0.977440  0.577480  1.0  -0.6145
  O  O219  1  0.988360  0.620070  0.502120  1.0  -0.625
  O  O220  1  0.079740  0.600040  0.577480  1.0  -0.6238
  O  O221  1  0.117950  0.486240  0.497880  1.0  -0.6243
  O  O222  1  0.022560  0.502260  0.422520  1.0  -0.614
  O  O223  1  0.379930  0.011640  0.497880  1.0  -0.6273
  O  O224  1  0.399960  0.920260  0.422520  1.0  -0.6226
  O  O225  1  0.011640  0.117950  0.497880  1.0  -0.6259
  O  O226  1  0.920260  0.022560  0.422520  1.0  -0.6211
  O  O227  1  0.486240  0.379930  0.497880  1.0  -0.6232
  O  O228  1  0.502260  0.399960  0.422520  1.0  -0.6229
