# generated using pymatgen
data_FeCoAg2H60(C14N3)6
_symmetry_space_group_name_H-M   'P 1'
_cell_length_a   26.81300000
_cell_length_b   12.60350000
_cell_length_c   33.47200000
_cell_angle_alpha   90.00000000
_cell_angle_beta   90.00000000
_cell_angle_gamma   90.00000000
_symmetry_Int_Tables_number   1
_chemical_formula_structural   FeCoAg2H60(C14N3)6
_chemical_formula_sum   'Fe4 Co4 Ag8 H240 C336 N72'
_cell_volume   11311.44887018
_cell_formula_units_Z   4
loop_
 _symmetry_equiv_pos_site_id
 _symmetry_equiv_pos_as_xyz
  1  'x, y, z'
loop_
 _atom_site_type_symbol
 _atom_site_label
 _atom_site_symmetry_multiplicity
 _atom_site_fract_x
 _atom_site_fract_y
 _atom_site_fract_z
 _atom_site_occupancy
 _atom_site_charge
  Fe  Fe1  1  0.431920  0.514440  0.385270  1.0  0.1647
  Fe  Fe2  1  0.931920  0.985560  0.614730  1.0  0.1621
  Fe  Fe3  1  0.068080  0.985560  0.885270  1.0  0.1609
  Fe  Fe4  1  0.568080  0.514440  0.114730  1.0  0.1605
  Co  Co5  1  0.431920  0.485560  0.885270  1.0  0.3919
  Co  Co6  1  0.931920  0.014440  0.114730  1.0  0.3917
  Co  Co7  1  0.068080  0.014440  0.385270  1.0  0.3901
  Co  Co8  1  0.568080  0.485560  0.614730  1.0  0.3879
  Ag  Ag9  1  0.279990  0.757960  0.637550  1.0  0.26
  Ag  Ag10  1  0.779990  0.742040  0.362450  1.0  0.2598
  Ag  Ag11  1  0.779990  0.257960  0.862450  1.0  0.2597
  Ag  Ag12  1  0.279990  0.242040  0.137550  1.0  0.2602
  Ag  Ag13  1  0.220010  0.742040  0.137550  1.0  0.2597
  Ag  Ag14  1  0.720010  0.757960  0.862450  1.0  0.2594
  Ag  Ag15  1  0.720010  0.242040  0.362450  1.0  0.2594
  Ag  Ag16  1  0.220010  0.257960  0.637550  1.0  0.2597
  H  H17  1  0.348800  0.647200  0.344600  1.0  0.1051
  H  H18  1  0.281300  0.749600  0.381100  1.0  0.1094
  H  H19  1  0.296500  0.725300  0.453600  1.0  0.1136
  H  H20  1  0.421400  0.463800  0.534700  1.0  0.1145
  H  H21  1  0.486100  0.335400  0.512100  1.0  0.1132
  H  H22  1  0.496000  0.361100  0.438000  1.0  0.1016
  H  H23  1  0.414800  0.699700  0.529200  1.0  0.1215
  H  H24  1  0.378300  0.767100  0.586700  1.0  0.0856
  H  H25  1  0.253100  0.619400  0.562800  1.0  0.086
  H  H26  1  0.283600  0.556100  0.503800  1.0  0.1217
  H  H27  1  0.470300  0.307300  0.827800  1.0  0.0993
  H  H28  1  0.450600  0.294500  0.754400  1.0  0.1165
  H  H29  1  0.396700  0.448000  0.737600  1.0  0.1099
  H  H30  1  0.314000  0.759100  0.828300  1.0  0.1219
  H  H31  1  0.322900  0.805900  0.900500  1.0  0.1174
  H  H32  1  0.381300  0.671600  0.930300  1.0  0.0921
  H  H33  1  0.302800  0.495000  0.756100  1.0  0.1127
  H  H34  1  0.268000  0.560900  0.697900  1.0  0.091
  H  H35  1  0.343900  0.823200  0.708900  1.0  0.0752
  H  H36  1  0.380700  0.767000  0.767200  1.0  0.1368
  H  H37  1  0.960200  0.216100  0.643900  1.0  0.1
  H  H38  1  0.045900  0.275000  0.663500  1.0  0.116
  H  H39  1  0.102400  0.120800  0.655200  1.0  0.1201
  H  H40  1  0.074100  0.726300  0.599100  1.0  0.1283
  H  H41  1  0.998400  0.629100  0.574200  1.0  0.1226
  H  H42  1  0.926200  0.756000  0.580300  1.0  0.0905
  H  H43  1  0.097700  0.812100  0.680000  1.0  0.1132
  H  H44  1  0.180200  0.761500  0.686500  1.0  0.0736
  H  H45  1  0.219800  0.946000  0.598700  1.0  0.0771
  H  H46  1  0.138700  0.004500  0.590000  1.0  0.1111
  H  H47  1  0.848800  0.852800  0.655400  1.0  0.1045
  H  H48  1  0.781300  0.750400  0.618900  1.0  0.1098
  H  H49  1  0.796500  0.774700  0.546400  1.0  0.1135
  H  H50  1  0.921400  0.036200  0.465300  1.0  0.1154
  H  H51  1  0.986100  0.164600  0.487900  1.0  0.1145
  H  H52  1  0.996000  0.138900  0.562000  1.0  0.1025
  H  H53  1  0.914800  0.800300  0.470800  1.0  0.1207
  H  H54  1  0.878300  0.732900  0.413300  1.0  0.0864
  H  H55  1  0.753100  0.880600  0.437200  1.0  0.086
  H  H56  1  0.783600  0.943900  0.496200  1.0  0.1222
  H  H57  1  0.970300  0.192700  0.172200  1.0  0.0993
  H  H58  1  0.950600  0.205500  0.245600  1.0  0.1171
  H  H59  1  0.896700  0.052000  0.262400  1.0  0.1103
  H  H60  1  0.814000  0.740900  0.171700  1.0  0.1216
  H  H61  1  0.822900  0.694100  0.099500  1.0  0.1173
  H  H62  1  0.881300  0.828400  0.069700  1.0  0.0941
  H  H63  1  0.802800  0.005000  0.243900  1.0  0.1119
  H  H64  1  0.768000  0.939100  0.302100  1.0  0.0908
  H  H65  1  0.843900  0.676800  0.291100  1.0  0.0774
  H  H66  1  0.880700  0.733000  0.232800  1.0  0.1368
  H  H67  1  0.460200  0.283900  0.356100  1.0  0.0985
  H  H68  1  0.545900  0.225000  0.336500  1.0  0.114
  H  H69  1  0.602400  0.379200  0.344800  1.0  0.1203
  H  H70  1  0.574100  0.773700  0.400900  1.0  0.1285
  H  H71  1  0.498400  0.870900  0.425800  1.0  0.1222
  H  H72  1  0.426200  0.744000  0.419700  1.0  0.0908
  H  H73  1  0.597700  0.687900  0.320000  1.0  0.1143
  H  H74  1  0.680200  0.738500  0.313500  1.0  0.0726
  H  H75  1  0.719800  0.554000  0.401300  1.0  0.0773
  H  H76  1  0.638700  0.495500  0.410000  1.0  0.1114
  H  H77  1  0.848800  0.147200  0.155400  1.0  0.1044
  H  H78  1  0.781300  0.249600  0.118900  1.0  0.1092
  H  H79  1  0.796500  0.225300  0.046400  1.0  0.1135
  H  H80  1  0.921400  0.963800  0.965300  1.0  0.1147
  H  H81  1  0.986100  0.835400  0.987900  1.0  0.1128
  H  H82  1  0.996000  0.861100  0.062000  1.0  0.1022
  H  H83  1  0.914800  0.199700  0.970800  1.0  0.1214
  H  H84  1  0.878300  0.267100  0.913300  1.0  0.0868
  H  H85  1  0.753100  0.119400  0.937200  1.0  0.0862
  H  H86  1  0.783600  0.056100  0.996200  1.0  0.1222
  H  H87  1  0.970300  0.807300  0.672200  1.0  0.0991
  H  H88  1  0.950600  0.794500  0.745600  1.0  0.117
  H  H89  1  0.896700  0.948000  0.762400  1.0  0.1106
  H  H90  1  0.814000  0.259100  0.671700  1.0  0.1215
  H  H91  1  0.822900  0.305900  0.599500  1.0  0.1172
  H  H92  1  0.881300  0.171600  0.569700  1.0  0.0923
  H  H93  1  0.802800  0.995000  0.743900  1.0  0.1116
  H  H94  1  0.768000  0.060900  0.802100  1.0  0.0913
  H  H95  1  0.843900  0.323200  0.791100  1.0  0.0756
  H  H96  1  0.880700  0.267000  0.732800  1.0  0.1376
  H  H97  1  0.460200  0.716100  0.856100  1.0  0.0999
  H  H98  1  0.545900  0.775000  0.836500  1.0  0.1163
  H  H99  1  0.602400  0.620800  0.844800  1.0  0.1203
  H  H100  1  0.574100  0.226300  0.900900  1.0  0.1283
  H  H101  1  0.498400  0.129100  0.925800  1.0  0.1234
  H  H102  1  0.426200  0.256000  0.919700  1.0  0.0907
  H  H103  1  0.597700  0.312100  0.820000  1.0  0.1132
  H  H104  1  0.680200  0.261500  0.813500  1.0  0.0726
  H  H105  1  0.719800  0.446000  0.901300  1.0  0.0774
  H  H106  1  0.638700  0.504500  0.910000  1.0  0.1111
  H  H107  1  0.348800  0.352800  0.844600  1.0  0.1051
  H  H108  1  0.281300  0.250400  0.881100  1.0  0.1091
  H  H109  1  0.296500  0.274700  0.953600  1.0  0.1139
  H  H110  1  0.421400  0.536200  0.034700  1.0  0.115
  H  H111  1  0.486100  0.664600  0.012100  1.0  0.1143
  H  H112  1  0.496000  0.638900  0.938000  1.0  0.1022
  H  H113  1  0.414800  0.300300  0.029200  1.0  0.1208
  H  H114  1  0.378300  0.232900  0.086700  1.0  0.0865
  H  H115  1  0.253100  0.380600  0.062800  1.0  0.0858
  H  H116  1  0.283600  0.443900  0.003800  1.0  0.122
  H  H117  1  0.470300  0.692700  0.327800  1.0  0.1
  H  H118  1  0.450600  0.705500  0.254400  1.0  0.1176
  H  H119  1  0.396700  0.552000  0.237600  1.0  0.11
  H  H120  1  0.314000  0.240900  0.328300  1.0  0.1216
  H  H121  1  0.322900  0.194100  0.400500  1.0  0.118
  H  H122  1  0.381300  0.328400  0.430300  1.0  0.0939
  H  H123  1  0.302800  0.505000  0.256100  1.0  0.1125
  H  H124  1  0.268000  0.439100  0.197900  1.0  0.0908
  H  H125  1  0.343900  0.176800  0.208900  1.0  0.0768
  H  H126  1  0.380700  0.233000  0.267200  1.0  0.1367
  H  H127  1  0.960200  0.783900  0.143900  1.0  0.0987
  H  H128  1  0.045900  0.725000  0.163500  1.0  0.1147
  H  H129  1  0.102400  0.879200  0.155200  1.0  0.1204
  H  H130  1  0.074100  0.273700  0.099100  1.0  0.1288
  H  H131  1  0.998400  0.370900  0.074200  1.0  0.1224
  H  H132  1  0.926200  0.244000  0.080300  1.0  0.0908
  H  H133  1  0.097700  0.187900  0.180000  1.0  0.114
  H  H134  1  0.180200  0.238500  0.186500  1.0  0.0737
  H  H135  1  0.219800  0.054000  0.098700  1.0  0.0774
  H  H136  1  0.138700  0.995500  0.090000  1.0  0.1115
  H  H137  1  0.151200  0.852800  0.844600  1.0  0.1044
  H  H138  1  0.218700  0.750400  0.881100  1.0  0.1091
  H  H139  1  0.203500  0.774700  0.953600  1.0  0.1133
  H  H140  1  0.078600  0.036200  0.034700  1.0  0.1147
  H  H141  1  0.013900  0.164600  0.012100  1.0  0.1148
  H  H142  1  0.004000  0.138900  0.938000  1.0  0.1026
  H  H143  1  0.085200  0.800300  0.029200  1.0  0.1203
  H  H144  1  0.121700  0.732900  0.086700  1.0  0.0862
  H  H145  1  0.246900  0.880600  0.062800  1.0  0.086
  H  H146  1  0.216400  0.943900  0.003800  1.0  0.1217
  H  H147  1  0.029700  0.192700  0.327800  1.0  0.0999
  H  H148  1  0.049400  0.205500  0.254400  1.0  0.118
  H  H149  1  0.103300  0.052000  0.237600  1.0  0.1117
  H  H150  1  0.186000  0.740900  0.328300  1.0  0.1215
  H  H151  1  0.177100  0.694100  0.400500  1.0  0.1177
  H  H152  1  0.118700  0.828400  0.430300  1.0  0.093
  H  H153  1  0.197200  0.005000  0.256100  1.0  0.1122
  H  H154  1  0.232000  0.939100  0.197900  1.0  0.0908
  H  H155  1  0.156100  0.676800  0.208900  1.0  0.0766
  H  H156  1  0.119300  0.733000  0.267200  1.0  0.1366
  H  H157  1  0.539800  0.283900  0.143900  1.0  0.0989
  H  H158  1  0.454100  0.225000  0.163500  1.0  0.1148
  H  H159  1  0.397600  0.379200  0.155200  1.0  0.1206
  H  H160  1  0.425900  0.773700  0.099100  1.0  0.1287
  H  H161  1  0.501600  0.870900  0.074200  1.0  0.1224
  H  H162  1  0.573800  0.744000  0.080300  1.0  0.0917
  H  H163  1  0.402300  0.687900  0.180000  1.0  0.114
  H  H164  1  0.319800  0.738500  0.186500  1.0  0.0739
  H  H165  1  0.280200  0.554000  0.098700  1.0  0.0786
  H  H166  1  0.361300  0.495500  0.090000  1.0  0.1108
  H  H167  1  0.651200  0.647200  0.155400  1.0  0.104
  H  H168  1  0.718700  0.749600  0.118900  1.0  0.109
  H  H169  1  0.703500  0.725300  0.046400  1.0  0.1133
  H  H170  1  0.578600  0.463800  0.965300  1.0  0.1145
  H  H171  1  0.513900  0.335400  0.987900  1.0  0.1132
  H  H172  1  0.504000  0.361100  0.062000  1.0  0.1026
  H  H173  1  0.585200  0.699700  0.970800  1.0  0.1208
  H  H174  1  0.621700  0.767100  0.913300  1.0  0.0875
  H  H175  1  0.746900  0.619400  0.937200  1.0  0.087
  H  H176  1  0.716400  0.556100  0.996200  1.0  0.1214
  H  H177  1  0.529700  0.307300  0.672200  1.0  0.0991
  H  H178  1  0.549400  0.294500  0.745600  1.0  0.1169
  H  H179  1  0.603300  0.448000  0.762400  1.0  0.1124
  H  H180  1  0.686000  0.759100  0.671700  1.0  0.1212
  H  H181  1  0.677100  0.805900  0.599500  1.0  0.1174
  H  H182  1  0.618700  0.671600  0.569700  1.0  0.0917
  H  H183  1  0.697200  0.495000  0.743900  1.0  0.112
  H  H184  1  0.732000  0.560900  0.802100  1.0  0.0907
  H  H185  1  0.656100  0.823200  0.791100  1.0  0.0757
  H  H186  1  0.619300  0.767000  0.732800  1.0  0.138
  H  H187  1  0.039800  0.216100  0.856100  1.0  0.0992
  H  H188  1  0.954100  0.275000  0.836500  1.0  0.1164
  H  H189  1  0.897600  0.120800  0.844800  1.0  0.1206
  H  H190  1  0.925900  0.726300  0.900900  1.0  0.1281
  H  H191  1  0.001600  0.629100  0.925800  1.0  0.1236
  H  H192  1  0.073800  0.756000  0.919700  1.0  0.0911
  H  H193  1  0.902300  0.812100  0.820000  1.0  0.1131
  H  H194  1  0.819800  0.761500  0.813500  1.0  0.0727
  H  H195  1  0.780200  0.946000  0.901300  1.0  0.0787
  H  H196  1  0.861300  0.004500  0.910000  1.0  0.1105
  H  H197  1  0.651200  0.352800  0.655400  1.0  0.1038
  H  H198  1  0.718700  0.250400  0.618900  1.0  0.1097
  H  H199  1  0.703500  0.274700  0.546400  1.0  0.1136
  H  H200  1  0.578600  0.536200  0.465300  1.0  0.115
  H  H201  1  0.513900  0.664600  0.487900  1.0  0.1152
  H  H202  1  0.504000  0.638900  0.562000  1.0  0.1028
  H  H203  1  0.585200  0.300300  0.470800  1.0  0.1201
  H  H204  1  0.621700  0.232900  0.413300  1.0  0.086
  H  H205  1  0.746900  0.380600  0.437200  1.0  0.087
  H  H206  1  0.716400  0.443900  0.496200  1.0  0.1214
  H  H207  1  0.529700  0.692700  0.172200  1.0  0.0997
  H  H208  1  0.549400  0.705500  0.245600  1.0  0.1172
  H  H209  1  0.603300  0.552000  0.262400  1.0  0.112
  H  H210  1  0.686000  0.240900  0.171700  1.0  0.1213
  H  H211  1  0.677100  0.194100  0.099500  1.0  0.1174
  H  H212  1  0.618700  0.328400  0.069700  1.0  0.0932
  H  H213  1  0.697200  0.505000  0.243900  1.0  0.112
  H  H214  1  0.732000  0.439100  0.302100  1.0  0.0906
  H  H215  1  0.656100  0.176800  0.291100  1.0  0.0773
  H  H216  1  0.619300  0.233000  0.232800  1.0  0.1366
  H  H217  1  0.039800  0.783900  0.356100  1.0  0.0986
  H  H218  1  0.954100  0.725000  0.336500  1.0  0.1139
  H  H219  1  0.897600  0.879200  0.344800  1.0  0.1204
  H  H220  1  0.925900  0.273700  0.400900  1.0  0.1287
  H  H221  1  0.001600  0.370900  0.425800  1.0  0.1222
  H  H222  1  0.073800  0.244000  0.419700  1.0  0.0916
  H  H223  1  0.902300  0.187900  0.320000  1.0  0.1139
  H  H224  1  0.819800  0.238500  0.313500  1.0  0.073
  H  H225  1  0.780200  0.054000  0.401300  1.0  0.0787
  H  H226  1  0.861300  0.995500  0.410000  1.0  0.1108
  H  H227  1  0.151200  0.147200  0.344600  1.0  0.1046
  H  H228  1  0.218700  0.249600  0.381100  1.0  0.1091
  H  H229  1  0.203500  0.225300  0.453600  1.0  0.1128
  H  H230  1  0.078600  0.963800  0.534700  1.0  0.1145
  H  H231  1  0.013900  0.835400  0.512100  1.0  0.1135
  H  H232  1  0.004000  0.861100  0.438000  1.0  0.1019
  H  H233  1  0.085200  0.199700  0.529200  1.0  0.1209
  H  H234  1  0.121700  0.267100  0.586700  1.0  0.0863
  H  H235  1  0.246900  0.119400  0.562800  1.0  0.0859
  H  H236  1  0.216400  0.056100  0.503800  1.0  0.1212
  H  H237  1  0.029700  0.807300  0.827800  1.0  0.0992
  H  H238  1  0.049400  0.794500  0.754400  1.0  0.1165
  H  H239  1  0.103300  0.948000  0.737600  1.0  0.1117
  H  H240  1  0.186000  0.259100  0.828300  1.0  0.1215
  H  H241  1  0.177100  0.305900  0.900500  1.0  0.1172
  H  H242  1  0.118700  0.171600  0.930300  1.0  0.0914
  H  H243  1  0.197200  0.995000  0.756100  1.0  0.1127
  H  H244  1  0.232000  0.060900  0.697900  1.0  0.0905
  H  H245  1  0.156100  0.323200  0.708900  1.0  0.0753
  H  H246  1  0.119300  0.267000  0.767200  1.0  0.1371
  H  H247  1  0.539800  0.716100  0.643900  1.0  0.0993
  H  H248  1  0.454100  0.775000  0.663500  1.0  0.1163
  H  H249  1  0.397600  0.620800  0.655200  1.0  0.1204
  H  H250  1  0.425900  0.226300  0.599100  1.0  0.1284
  H  H251  1  0.501600  0.129100  0.574200  1.0  0.1227
  H  H252  1  0.573800  0.256000  0.580300  1.0  0.0907
  H  H253  1  0.402300  0.312100  0.680000  1.0  0.1135
  H  H254  1  0.319800  0.261500  0.686500  1.0  0.0737
  H  H255  1  0.280200  0.446000  0.598700  1.0  0.0785
  H  H256  1  0.361300  0.504500  0.590000  1.0  0.1106
  C  C257  1  0.344500  0.648700  0.372750  1.0  0.0041
  C  C258  1  0.306900  0.708000  0.392990  1.0  -0.1404
  C  C259  1  0.314700  0.693400  0.432410  1.0  -0.1775
  C  C260  1  0.355390  0.621200  0.436540  1.0  0.1419
  C  C261  1  0.376120  0.580500  0.471810  1.0  -0.1098
  C  C262  1  0.415160  0.507800  0.473690  1.0  0.1684
  C  C263  1  0.432600  0.453500  0.508090  1.0  -0.1763
  C  C264  1  0.468100  0.384000  0.495920  1.0  -0.1039
  C  C265  1  0.472850  0.398400  0.454290  1.0  0.0404
  C  C266  1  0.353770  0.618900  0.509630  1.0  0.0988
  C  C267  1  0.381130  0.682900  0.535250  1.0  -0.1405
  C  C268  1  0.359270  0.722400  0.569740  1.0  0.152
  C  C269  1  0.286300  0.637100  0.555340  1.0  0.1423
  C  C270  1  0.304300  0.597800  0.520620  1.0  -0.1887
  C  C271  1  0.449770  0.355400  0.813480  1.0  0.0024
  C  C272  1  0.439200  0.347700  0.772320  1.0  -0.1194
  C  C273  1  0.409500  0.431400  0.763360  1.0  -0.1595
  C  C274  1  0.400700  0.490200  0.798920  1.0  0.1831
  C  C275  1  0.371930  0.580000  0.804360  1.0  -0.0971
  C  C276  1  0.364880  0.634100  0.840010  1.0  0.1788
  C  C277  1  0.334140  0.723400  0.847360  1.0  -0.1817
  C  C278  1  0.338700  0.749000  0.886820  1.0  -0.1124
  C  C279  1  0.371590  0.673400  0.902990  1.0  0.0568
  C  C280  1  0.346310  0.621300  0.767750  1.0  0.0854
  C  C281  1  0.312330  0.563300  0.746790  1.0  -0.1092
  C  C282  1  0.291540  0.602900  0.712040  1.0  0.1404
  C  C283  1  0.335700  0.754700  0.718720  1.0  0.164
  C  C284  1  0.358000  0.722300  0.753380  1.0  -0.2403
  C  C285  1  0.989100  0.172500  0.643130  1.0  0.0385
  C  C286  1  0.036830  0.206200  0.654360  1.0  -0.102
  C  C287  1  0.067630  0.122100  0.649720  1.0  -0.1701
  C  C288  1  0.038740  0.036400  0.635300  1.0  0.144
  C  C289  1  0.054920  0.934900  0.625340  1.0  -0.097
  C  C290  1  0.024920  0.856000  0.609420  1.0  0.1723
  C  C291  1  0.041000  0.753100  0.597730  1.0  -0.1805
  C  C292  1  0.999700  0.699700  0.584060  1.0  -0.1329
  C  C293  1  0.959500  0.771900  0.587780  1.0  0.0275
  C  C294  1  0.108260  0.908900  0.632290  1.0  0.1279
  C  C295  1  0.121990  0.839500  0.662140  1.0  -0.202
  C  C296  1  0.171550  0.810000  0.665890  1.0  0.149
  C  C297  1  0.194400  0.917000  0.615170  1.0  0.1595
  C  C298  1  0.145900  0.951800  0.609410  1.0  -0.2271
  C  C299  1  0.844500  0.851300  0.627250  1.0  0.0055
  C  C300  1  0.806900  0.792000  0.607010  1.0  -0.14
  C  C301  1  0.814700  0.806600  0.567590  1.0  -0.1754
  C  C302  1  0.855390  0.878800  0.563460  1.0  0.1419
  C  C303  1  0.876120  0.919500  0.528190  1.0  -0.1094
  C  C304  1  0.915160  0.992200  0.526310  1.0  0.1686
  C  C305  1  0.932600  0.046500  0.491910  1.0  -0.1786
  C  C306  1  0.968100  0.116000  0.504080  1.0  -0.1036
  C  C307  1  0.972850  0.101600  0.545710  1.0  0.0425
  C  C308  1  0.853770  0.881100  0.490370  1.0  0.099
  C  C309  1  0.881130  0.817100  0.464750  1.0  -0.1418
  C  C310  1  0.859270  0.777600  0.430260  1.0  0.1515
  C  C311  1  0.786300  0.862900  0.444660  1.0  0.1431
  C  C312  1  0.804300  0.902200  0.479380  1.0  -0.1879
  C  C313  1  0.949770  0.144600  0.186520  1.0  0.0003
  C  C314  1  0.939200  0.152300  0.227680  1.0  -0.1203
  C  C315  1  0.909500  0.068600  0.236640  1.0  -0.1597
  C  C316  1  0.900700  0.009800  0.201080  1.0  0.1829
  C  C317  1  0.871930  0.920000  0.195640  1.0  -0.0971
  C  C318  1  0.864880  0.865900  0.159990  1.0  0.1784
  C  C319  1  0.834140  0.776600  0.152640  1.0  -0.1803
  C  C320  1  0.838700  0.751000  0.113180  1.0  -0.1115
  C  C321  1  0.871590  0.826600  0.097010  1.0  0.058
  C  C322  1  0.846310  0.878700  0.232250  1.0  0.0858
  C  C323  1  0.812330  0.936700  0.253210  1.0  -0.1102
  C  C324  1  0.791540  0.897100  0.287960  1.0  0.1411
  C  C325  1  0.835700  0.745300  0.281280  1.0  0.1643
  C  C326  1  0.858000  0.777700  0.246620  1.0  -0.2389
  C  C327  1  0.489100  0.327500  0.356870  1.0  0.0372
  C  C328  1  0.536830  0.293800  0.345640  1.0  -0.1027
  C  C329  1  0.567630  0.377900  0.350280  1.0  -0.1703
  C  C330  1  0.538740  0.463600  0.364700  1.0  0.1438
  C  C331  1  0.554920  0.565100  0.374660  1.0  -0.0967
  C  C332  1  0.524920  0.644000  0.390580  1.0  0.1749
  C  C333  1  0.541000  0.746900  0.402270  1.0  -0.1777
  C  C334  1  0.499700  0.800300  0.415940  1.0  -0.1288
  C  C335  1  0.459500  0.728100  0.412220  1.0  0.0256
  C  C336  1  0.608260  0.591100  0.367710  1.0  0.1281
  C  C337  1  0.621990  0.660500  0.337860  1.0  -0.2031
  C  C338  1  0.671550  0.690000  0.334110  1.0  0.1493
  C  C339  1  0.694400  0.583000  0.384830  1.0  0.1595
  C  C340  1  0.645900  0.548200  0.390590  1.0  -0.2261
  C  C341  1  0.844500  0.148700  0.127250  1.0  0.0051
  C  C342  1  0.806900  0.208000  0.107010  1.0  -0.1402
  C  C343  1  0.814700  0.193400  0.067590  1.0  -0.1762
  C  C344  1  0.855390  0.121200  0.063460  1.0  0.1417
  C  C345  1  0.876120  0.080500  0.028190  1.0  -0.1096
  C  C346  1  0.915160  0.007800  0.026310  1.0  0.1689
  C  C347  1  0.932600  0.953500  0.991910  1.0  -0.1777
  C  C348  1  0.968100  0.884000  0.004080  1.0  -0.104
  C  C349  1  0.972850  0.898400  0.045710  1.0  0.0408
  C  C350  1  0.853770  0.118900  0.990370  1.0  0.0987
  C  C351  1  0.881130  0.182900  0.964750  1.0  -0.1407
  C  C352  1  0.859270  0.222400  0.930260  1.0  0.1523
  C  C353  1  0.786300  0.137100  0.944660  1.0  0.1429
  C  C354  1  0.804300  0.097800  0.979380  1.0  -0.1887
  C  C355  1  0.949770  0.855400  0.686520  1.0  0.0026
  C  C356  1  0.939200  0.847700  0.727680  1.0  -0.1194
  C  C357  1  0.909500  0.931400  0.736640  1.0  -0.1595
  C  C358  1  0.900700  0.990200  0.701080  1.0  0.1831
  C  C359  1  0.871930  0.080000  0.695640  1.0  -0.0971
  C  C360  1  0.864880  0.134100  0.659990  1.0  0.1794
  C  C361  1  0.834140  0.223400  0.652640  1.0  -0.1816
  C  C362  1  0.838700  0.249000  0.613180  1.0  -0.1121
  C  C363  1  0.871590  0.173400  0.597010  1.0  0.0578
  C  C364  1  0.846310  0.121300  0.732250  1.0  0.0856
  C  C365  1  0.812330  0.063300  0.753210  1.0  -0.1104
  C  C366  1  0.791540  0.102900  0.787960  1.0  0.1414
  C  C367  1  0.835700  0.254700  0.781280  1.0  0.1636
  C  C368  1  0.858000  0.222300  0.746620  1.0  -0.2394
  C  C369  1  0.489100  0.672500  0.856870  1.0  0.0388
  C  C370  1  0.536830  0.706200  0.845640  1.0  -0.1022
  C  C371  1  0.567630  0.622100  0.850280  1.0  -0.171
  C  C372  1  0.538740  0.536400  0.864700  1.0  0.1436
  C  C373  1  0.554920  0.434900  0.874660  1.0  -0.0971
  C  C374  1  0.524920  0.356000  0.890580  1.0  0.1723
  C  C375  1  0.541000  0.253100  0.902270  1.0  -0.1802
  C  C376  1  0.499700  0.199700  0.915940  1.0  -0.1334
  C  C377  1  0.459500  0.271900  0.912220  1.0  0.0276
  C  C378  1  0.608260  0.408900  0.867710  1.0  0.1277
  C  C379  1  0.621990  0.339500  0.837860  1.0  -0.2009
  C  C380  1  0.671550  0.310000  0.834110  1.0  0.1482
  C  C381  1  0.694400  0.417000  0.884830  1.0  0.1598
  C  C382  1  0.645900  0.451800  0.890590  1.0  -0.2264
  C  C383  1  0.344500  0.351300  0.872750  1.0  0.0038
  C  C384  1  0.306900  0.292000  0.892990  1.0  -0.1402
  C  C385  1  0.314700  0.306600  0.932410  1.0  -0.1757
  C  C386  1  0.355390  0.378800  0.936540  1.0  0.1421
  C  C387  1  0.376120  0.419500  0.971810  1.0  -0.1095
  C  C388  1  0.415160  0.492200  0.973690  1.0  0.1684
  C  C389  1  0.432600  0.546500  0.008090  1.0  -0.1775
  C  C390  1  0.468100  0.616000  0.995920  1.0  -0.1035
  C  C391  1  0.472850  0.601600  0.954290  1.0  0.0427
  C  C392  1  0.353770  0.381100  0.009630  1.0  0.0994
  C  C393  1  0.381130  0.317100  0.035250  1.0  -0.1408
  C  C394  1  0.359270  0.277600  0.069740  1.0  0.1521
  C  C395  1  0.286300  0.362900  0.055340  1.0  0.1424
  C  C396  1  0.304300  0.402200  0.020620  1.0  -0.1879
  C  C397  1  0.449770  0.644600  0.313480  1.0  0.0023
  C  C398  1  0.439200  0.652300  0.272320  1.0  -0.1199
  C  C399  1  0.409500  0.568600  0.263360  1.0  -0.1599
  C  C400  1  0.400700  0.509800  0.298920  1.0  0.1828
  C  C401  1  0.371930  0.420000  0.304360  1.0  -0.0971
  C  C402  1  0.364880  0.365900  0.340010  1.0  0.1781
  C  C403  1  0.334140  0.276600  0.347360  1.0  -0.181
  C  C404  1  0.338700  0.251000  0.386820  1.0  -0.1123
  C  C405  1  0.371590  0.326600  0.402990  1.0  0.0575
  C  C406  1  0.346310  0.378700  0.267750  1.0  0.0853
  C  C407  1  0.312330  0.436700  0.246790  1.0  -0.1095
  C  C408  1  0.291540  0.397100  0.212040  1.0  0.1404
  C  C409  1  0.335700  0.245300  0.218720  1.0  0.164
  C  C410  1  0.358000  0.277700  0.253380  1.0  -0.2402
  C  C411  1  0.989100  0.827500  0.143130  1.0  0.038
  C  C412  1  0.036830  0.793800  0.154360  1.0  -0.1027
  C  C413  1  0.067630  0.877900  0.149720  1.0  -0.1696
  C  C414  1  0.038740  0.963600  0.135300  1.0  0.1443
  C  C415  1  0.054920  0.065100  0.125340  1.0  -0.0967
  C  C416  1  0.024920  0.144000  0.109420  1.0  0.1749
  C  C417  1  0.041000  0.246900  0.097730  1.0  -0.1777
  C  C418  1  0.999700  0.300300  0.084060  1.0  -0.1279
  C  C419  1  0.959500  0.228100  0.087780  1.0  0.0253
  C  C420  1  0.108260  0.091100  0.132290  1.0  0.1282
  C  C421  1  0.121990  0.160500  0.162140  1.0  -0.2038
  C  C422  1  0.171550  0.190000  0.165890  1.0  0.1496
  C  C423  1  0.194400  0.083000  0.115170  1.0  0.1595
  C  C424  1  0.145900  0.048200  0.109410  1.0  -0.2264
  C  C425  1  0.155500  0.851300  0.872750  1.0  0.0034
  C  C426  1  0.193100  0.792000  0.892990  1.0  -0.1394
  C  C427  1  0.185300  0.806600  0.932410  1.0  -0.1734
  C  C428  1  0.144610  0.878800  0.936540  1.0  0.142
  C  C429  1  0.123880  0.919500  0.971810  1.0  -0.1089
  C  C430  1  0.084840  0.992200  0.973690  1.0  0.1685
  C  C431  1  0.067400  0.046500  0.008090  1.0  -0.1773
  C  C432  1  0.031900  0.116000  0.995920  1.0  -0.1041
  C  C433  1  0.027150  0.101600  0.954290  1.0  0.0419
  C  C434  1  0.146230  0.881100  0.009630  1.0  0.0994
  C  C435  1  0.118870  0.817100  0.035250  1.0  -0.1391
  C  C436  1  0.140730  0.777600  0.069740  1.0  0.1528
  C  C437  1  0.213700  0.862900  0.055340  1.0  0.1442
  C  C438  1  0.195700  0.902200  0.020620  1.0  -0.187
  C  C439  1  0.050230  0.144600  0.313480  1.0  0.0011
  C  C440  1  0.060800  0.152300  0.272320  1.0  -0.1211
  C  C441  1  0.090500  0.068600  0.263360  1.0  -0.1591
  C  C442  1  0.099300  0.009800  0.298920  1.0  0.1838
  C  C443  1  0.128070  0.920000  0.304360  1.0  -0.0969
  C  C444  1  0.135120  0.865900  0.340010  1.0  0.1777
  C  C445  1  0.165860  0.776600  0.347360  1.0  -0.18
  C  C446  1  0.161300  0.751000  0.386820  1.0  -0.1118
  C  C447  1  0.128410  0.826600  0.402990  1.0  0.0577
  C  C448  1  0.153690  0.878700  0.267750  1.0  0.0862
  C  C449  1  0.187670  0.936700  0.246790  1.0  -0.1101
  C  C450  1  0.208460  0.897100  0.212040  1.0  0.14
  C  C451  1  0.164300  0.745300  0.218720  1.0  0.1636
  C  C452  1  0.142000  0.777700  0.253380  1.0  -0.2386
  C  C453  1  0.510900  0.327500  0.143130  1.0  0.0377
  C  C454  1  0.463170  0.293800  0.154360  1.0  -0.1026
  C  C455  1  0.432370  0.377900  0.149720  1.0  -0.1694
  C  C456  1  0.461260  0.463600  0.135300  1.0  0.1451
  C  C457  1  0.445080  0.565100  0.125340  1.0  -0.0966
  C  C458  1  0.475080  0.644000  0.109420  1.0  0.174
  C  C459  1  0.459000  0.746900  0.097730  1.0  -0.178
  C  C460  1  0.500300  0.800300  0.084060  1.0  -0.1276
  C  C461  1  0.540500  0.728100  0.087780  1.0  0.0267
  C  C462  1  0.391740  0.591100  0.132290  1.0  0.1258
  C  C463  1  0.378010  0.660500  0.162140  1.0  -0.2033
  C  C464  1  0.328450  0.690000  0.165890  1.0  0.1492
  C  C465  1  0.305600  0.583000  0.115170  1.0  0.1584
  C  C466  1  0.354100  0.548200  0.109410  1.0  -0.2272
  C  C467  1  0.655500  0.648700  0.127250  1.0  0.0058
  C  C468  1  0.693100  0.708000  0.107010  1.0  -0.1385
  C  C469  1  0.685300  0.693400  0.067590  1.0  -0.1747
  C  C470  1  0.644610  0.621200  0.063460  1.0  0.1422
  C  C471  1  0.623880  0.580500  0.028190  1.0  -0.1088
  C  C472  1  0.584840  0.507800  0.026310  1.0  0.1694
  C  C473  1  0.567400  0.453500  0.991910  1.0  -0.1781
  C  C474  1  0.531900  0.384000  0.004080  1.0  -0.1039
  C  C475  1  0.527150  0.398400  0.045710  1.0  0.0417
  C  C476  1  0.646230  0.618900  0.990370  1.0  0.0981
  C  C477  1  0.618870  0.682900  0.964750  1.0  -0.1411
  C  C478  1  0.640730  0.722400  0.930260  1.0  0.153
  C  C479  1  0.713700  0.637100  0.944660  1.0  0.1445
  C  C480  1  0.695700  0.597800  0.979380  1.0  -0.1879
  C  C481  1  0.550230  0.355400  0.686520  1.0  0.0023
  C  C482  1  0.560800  0.347700  0.727680  1.0  -0.1203
  C  C483  1  0.590500  0.431400  0.736640  1.0  -0.1584
  C  C484  1  0.599300  0.490200  0.701080  1.0  0.184
  C  C485  1  0.628070  0.580000  0.695640  1.0  -0.0975
  C  C486  1  0.635120  0.634100  0.659990  1.0  0.1787
  C  C487  1  0.665860  0.723400  0.652640  1.0  -0.1803
  C  C488  1  0.661300  0.749000  0.613180  1.0  -0.1107
  C  C489  1  0.628410  0.673400  0.597010  1.0  0.0582
  C  C490  1  0.653690  0.621300  0.732250  1.0  0.0871
  C  C491  1  0.687670  0.563300  0.753210  1.0  -0.1099
  C  C492  1  0.708460  0.602900  0.787960  1.0  0.1416
  C  C493  1  0.664300  0.754700  0.781280  1.0  0.1627
  C  C494  1  0.642000  0.722300  0.746620  1.0  -0.2402
  C  C495  1  0.010900  0.172500  0.856870  1.0  0.0399
  C  C496  1  0.963170  0.206200  0.845640  1.0  -0.1021
  C  C497  1  0.932370  0.122100  0.850280  1.0  -0.172
  C  C498  1  0.961260  0.036400  0.864700  1.0  0.1444
  C  C499  1  0.945080  0.934900  0.874660  1.0  -0.0969
  C  C500  1  0.975080  0.856000  0.890580  1.0  0.1714
  C  C501  1  0.959000  0.753100  0.902270  1.0  -0.1785
  C  C502  1  0.000300  0.699700  0.915940  1.0  -0.1329
  C  C503  1  0.040500  0.771900  0.912220  1.0  0.027
  C  C504  1  0.891740  0.908900  0.867710  1.0  0.1265
  C  C505  1  0.878010  0.839500  0.837860  1.0  -0.2018
  C  C506  1  0.828450  0.810000  0.834110  1.0  0.1487
  C  C507  1  0.805600  0.917000  0.884830  1.0  0.1593
  C  C508  1  0.854100  0.951800  0.890590  1.0  -0.2278
  C  C509  1  0.655500  0.351300  0.627250  1.0  0.0059
  C  C510  1  0.693100  0.292000  0.607010  1.0  -0.1396
  C  C511  1  0.685300  0.306600  0.567590  1.0  -0.1739
  C  C512  1  0.644610  0.378800  0.563460  1.0  0.1426
  C  C513  1  0.623880  0.419500  0.528190  1.0  -0.1086
  C  C514  1  0.584840  0.492200  0.526310  1.0  0.169
  C  C515  1  0.567400  0.546500  0.491910  1.0  -0.1783
  C  C516  1  0.531900  0.616000  0.504080  1.0  -0.1045
  C  C517  1  0.527150  0.601600  0.545710  1.0  0.0418
  C  C518  1  0.646230  0.381100  0.490370  1.0  0.0982
  C  C519  1  0.618870  0.317100  0.464750  1.0  -0.1405
  C  C520  1  0.640730  0.277600  0.430260  1.0  0.152
  C  C521  1  0.713700  0.362900  0.444660  1.0  0.1444
  C  C522  1  0.695700  0.402200  0.479380  1.0  -0.1874
  C  C523  1  0.550230  0.644600  0.186520  1.0  -0.001
  C  C524  1  0.560800  0.652300  0.227680  1.0  -0.1216
  C  C525  1  0.590500  0.568600  0.236640  1.0  -0.1587
  C  C526  1  0.599300  0.509800  0.201080  1.0  0.1837
  C  C527  1  0.628070  0.420000  0.195640  1.0  -0.097
  C  C528  1  0.635120  0.365900  0.159990  1.0  0.1777
  C  C529  1  0.665860  0.276600  0.152640  1.0  -0.1793
  C  C530  1  0.661300  0.251000  0.113180  1.0  -0.111
  C  C531  1  0.628410  0.326600  0.097010  1.0  0.0587
  C  C532  1  0.653690  0.378700  0.232250  1.0  0.0872
  C  C533  1  0.687670  0.436700  0.253210  1.0  -0.1102
  C  C534  1  0.708460  0.397100  0.287960  1.0  0.1413
  C  C535  1  0.664300  0.245300  0.281280  1.0  0.1634
  C  C536  1  0.642000  0.277700  0.246620  1.0  -0.2376
  C  C537  1  0.010900  0.827500  0.356870  1.0  0.0369
  C  C538  1  0.963170  0.793800  0.345640  1.0  -0.1025
  C  C539  1  0.932370  0.877900  0.350280  1.0  -0.17
  C  C540  1  0.961260  0.963600  0.364700  1.0  0.1446
  C  C541  1  0.945080  0.065100  0.374660  1.0  -0.0965
  C  C542  1  0.975080  0.144000  0.390580  1.0  0.1739
  C  C543  1  0.959000  0.246900  0.402270  1.0  -0.1784
  C  C544  1  0.000300  0.300300  0.415940  1.0  -0.1287
  C  C545  1  0.040500  0.228100  0.412220  1.0  0.0271
  C  C546  1  0.891740  0.091100  0.367710  1.0  0.1258
  C  C547  1  0.878010  0.160500  0.337860  1.0  -0.2026
  C  C548  1  0.828450  0.190000  0.334110  1.0  0.1489
  C  C549  1  0.805600  0.083000  0.384830  1.0  0.159
  C  C550  1  0.854100  0.048200  0.390590  1.0  -0.2272
  C  C551  1  0.155500  0.148700  0.372750  1.0  0.0042
  C  C552  1  0.193100  0.208000  0.392990  1.0  -0.1384
  C  C553  1  0.185300  0.193400  0.432410  1.0  -0.1757
  C  C554  1  0.144610  0.121200  0.436540  1.0  0.1418
  C  C555  1  0.123880  0.080500  0.471810  1.0  -0.109
  C  C556  1  0.084840  0.007800  0.473690  1.0  0.1687
  C  C557  1  0.067400  0.953500  0.508090  1.0  -0.1772
  C  C558  1  0.031900  0.884000  0.495920  1.0  -0.1037
  C  C559  1  0.027150  0.898400  0.454290  1.0  0.041
  C  C560  1  0.146230  0.118900  0.509630  1.0  0.0988
  C  C561  1  0.118870  0.182900  0.535250  1.0  -0.1408
  C  C562  1  0.140730  0.222400  0.569740  1.0  0.1533
  C  C563  1  0.213700  0.137100  0.555340  1.0  0.1446
  C  C564  1  0.195700  0.097800  0.520620  1.0  -0.1875
  C  C565  1  0.050230  0.855400  0.813480  1.0  0.0025
  C  C566  1  0.060800  0.847700  0.772320  1.0  -0.1202
  C  C567  1  0.090500  0.931400  0.763360  1.0  -0.1587
  C  C568  1  0.099300  0.990200  0.798920  1.0  0.184
  C  C569  1  0.128070  0.080000  0.804360  1.0  -0.0972
  C  C570  1  0.135120  0.134100  0.840010  1.0  0.1784
  C  C571  1  0.165860  0.223400  0.847360  1.0  -0.1806
  C  C572  1  0.161300  0.249000  0.886820  1.0  -0.1107
  C  C573  1  0.128410  0.173400  0.902990  1.0  0.0575
  C  C574  1  0.153690  0.121300  0.767750  1.0  0.0864
  C  C575  1  0.187670  0.063300  0.746790  1.0  -0.1095
  C  C576  1  0.208460  0.102900  0.712040  1.0  0.1402
  C  C577  1  0.164300  0.254700  0.718720  1.0  0.1632
  C  C578  1  0.142000  0.222300  0.753380  1.0  -0.241
  C  C579  1  0.510900  0.672500  0.643130  1.0  0.0396
  C  C580  1  0.463170  0.706200  0.654360  1.0  -0.1024
  C  C581  1  0.432370  0.622100  0.649720  1.0  -0.1714
  C  C582  1  0.461260  0.536400  0.635300  1.0  0.1449
  C  C583  1  0.445080  0.434900  0.625340  1.0  -0.0969
  C  C584  1  0.475080  0.356000  0.609420  1.0  0.1714
  C  C585  1  0.459000  0.253100  0.597730  1.0  -0.1786
  C  C586  1  0.500300  0.199700  0.584060  1.0  -0.1323
  C  C587  1  0.540500  0.271900  0.587780  1.0  0.0268
  C  C588  1  0.391740  0.408900  0.632290  1.0  0.1265
  C  C589  1  0.378010  0.339500  0.662140  1.0  -0.2028
  C  C590  1  0.328450  0.310000  0.665890  1.0  0.1498
  C  C591  1  0.305600  0.417000  0.615170  1.0  0.1586
  C  C592  1  0.354100  0.451800  0.609410  1.0  -0.2282
  N  N593  1  0.372600  0.595800  0.398540  1.0  -0.351
  N  N594  1  0.440880  0.471000  0.440590  1.0  -0.3439
  N  N595  1  0.312710  0.699800  0.579800  1.0  -0.3037
  N  N596  1  0.426830  0.440200  0.829720  1.0  -0.3321
  N  N597  1  0.387370  0.605900  0.876020  1.0  -0.3336
  N  N598  1  0.303430  0.697300  0.697920  1.0  -0.3037
  N  N599  1  0.989130  0.071200  0.631230  1.0  -0.3634
  N  N600  1  0.973650  0.863600  0.602830  1.0  -0.3241
  N  N601  1  0.207410  0.845600  0.642430  1.0  -0.3021
  N  N602  1  0.872600  0.904200  0.601460  1.0  -0.3508
  N  N603  1  0.940880  0.029000  0.559410  1.0  -0.3436
  N  N604  1  0.812710  0.800200  0.420200  1.0  -0.3066
  N  N605  1  0.926830  0.059800  0.170280  1.0  -0.3316
  N  N606  1  0.887370  0.894100  0.123980  1.0  -0.3335
  N  N607  1  0.803430  0.802700  0.302080  1.0  -0.3028
  N  N608  1  0.489130  0.428800  0.368770  1.0  -0.3639
  N  N609  1  0.473650  0.636400  0.397170  1.0  -0.3225
  N  N610  1  0.707410  0.654400  0.357570  1.0  -0.3022
  N  N611  1  0.872600  0.095800  0.101460  1.0  -0.3503
  N  N612  1  0.940880  0.971000  0.059410  1.0  -0.3448
  N  N613  1  0.812710  0.199800  0.920200  1.0  -0.3041
  N  N614  1  0.926830  0.940200  0.670280  1.0  -0.3341
  N  N615  1  0.887370  0.105900  0.623980  1.0  -0.3352
  N  N616  1  0.803430  0.197300  0.802080  1.0  -0.3024
  N  N617  1  0.489130  0.571200  0.868770  1.0  -0.3611
  N  N618  1  0.473650  0.363600  0.897170  1.0  -0.3238
  N  N619  1  0.707410  0.345600  0.857570  1.0  -0.3021
  N  N620  1  0.372600  0.404200  0.898540  1.0  -0.3507
  N  N621  1  0.440880  0.529000  0.940590  1.0  -0.3436
  N  N622  1  0.312710  0.300200  0.079800  1.0  -0.3074
  N  N623  1  0.426830  0.559800  0.329720  1.0  -0.3343
  N  N624  1  0.387370  0.394100  0.376020  1.0  -0.3355
  N  N625  1  0.303430  0.302700  0.197920  1.0  -0.3055
  N  N626  1  0.989130  0.928800  0.131230  1.0  -0.3628
  N  N627  1  0.973650  0.136400  0.102830  1.0  -0.3227
  N  N628  1  0.207410  0.154400  0.142430  1.0  -0.3024
  N  N629  1  0.127400  0.904200  0.898540  1.0  -0.3493
  N  N630  1  0.059120  0.029000  0.940590  1.0  -0.343
  N  N631  1  0.187290  0.800200  0.079800  1.0  -0.3043
  N  N632  1  0.073170  0.059800  0.329720  1.0  -0.332
  N  N633  1  0.112630  0.894100  0.376020  1.0  -0.3339
  N  N634  1  0.196570  0.802700  0.197920  1.0  -0.3054
  N  N635  1  0.510870  0.428800  0.131230  1.0  -0.3641
  N  N636  1  0.526350  0.636400  0.102830  1.0  -0.3228
  N  N637  1  0.292590  0.654400  0.142430  1.0  -0.3014
  N  N638  1  0.627400  0.595800  0.101460  1.0  -0.3491
  N  N639  1  0.559120  0.471000  0.059410  1.0  -0.344
  N  N640  1  0.687290  0.699800  0.920200  1.0  -0.3069
  N  N641  1  0.573170  0.440200  0.670280  1.0  -0.3312
  N  N642  1  0.612630  0.605900  0.623980  1.0  -0.3335
  N  N643  1  0.696570  0.697300  0.802080  1.0  -0.302
  N  N644  1  0.010870  0.071200  0.868770  1.0  -0.3624
  N  N645  1  0.026350  0.863600  0.897170  1.0  -0.3237
  N  N646  1  0.792590  0.845600  0.857570  1.0  -0.3029
  N  N647  1  0.627400  0.404200  0.601460  1.0  -0.3488
  N  N648  1  0.559120  0.529000  0.559410  1.0  -0.3446
  N  N649  1  0.687290  0.300200  0.420200  1.0  -0.3053
  N  N650  1  0.573170  0.559800  0.170280  1.0  -0.3332
  N  N651  1  0.612630  0.394100  0.123980  1.0  -0.3356
  N  N652  1  0.696570  0.302700  0.302080  1.0  -0.302
  N  N653  1  0.010870  0.928800  0.368770  1.0  -0.3623
  N  N654  1  0.026350  0.136400  0.397170  1.0  -0.3226
  N  N655  1  0.792590  0.154400  0.357570  1.0  -0.3012
  N  N656  1  0.127400  0.095800  0.398540  1.0  -0.3484
  N  N657  1  0.059120  0.971000  0.440590  1.0  -0.3446
  N  N658  1  0.187290  0.199800  0.579800  1.0  -0.3043
  N  N659  1  0.073170  0.940200  0.829720  1.0  -0.3338
  N  N660  1  0.112630  0.105900  0.876020  1.0  -0.3355
  N  N661  1  0.196570  0.197300  0.697920  1.0  -0.3052
  N  N662  1  0.510870  0.571200  0.631230  1.0  -0.3627
  N  N663  1  0.526350  0.363600  0.602830  1.0  -0.3241
  N  N664  1  0.292590  0.345600  0.642430  1.0  -0.3031
