# generated using pymatgen
data_FeCoAg2H60(C14N3)6
_symmetry_space_group_name_H-M   'P 1'
_cell_length_a   26.93900000
_cell_length_b   12.33500000
_cell_length_c   33.45800000
_cell_angle_alpha   90.00000000
_cell_angle_beta   90.00000000
_cell_angle_gamma   90.00000000
_symmetry_Int_Tables_number   1
_chemical_formula_structural   FeCoAg2H60(C14N3)6
_chemical_formula_sum   'Fe4 Co4 Ag8 H240 C336 N72'
_cell_volume   11117.84463977
_cell_formula_units_Z   4
loop_
 _symmetry_equiv_pos_site_id
 _symmetry_equiv_pos_as_xyz
  1  'x, y, z'
loop_
 _atom_site_type_symbol
 _atom_site_label
 _atom_site_symmetry_multiplicity
 _atom_site_fract_x
 _atom_site_fract_y
 _atom_site_fract_z
 _atom_site_occupancy
 _atom_site_charge
  Fe  Fe1  1  0.431230  0.477440  0.613770  1.0  0.1563
  Fe  Fe2  1  0.931230  0.977440  0.886230  1.0  0.1564
  Fe  Fe3  1  0.068770  0.022560  0.113770  1.0  0.1548
  Fe  Fe4  1  0.568770  0.522560  0.386230  1.0  0.1547
  Co  Co5  1  0.931230  0.022560  0.386230  1.0  0.3692
  Co  Co6  1  0.431230  0.522560  0.113770  1.0  0.3689
  Co  Co7  1  0.568770  0.477440  0.886230  1.0  0.3664
  Co  Co8  1  0.068770  0.977440  0.613770  1.0  0.3663
  Ag  Ag9  1  0.778890  0.261240  0.639870  1.0  0.2561
  Ag  Ag10  1  0.278890  0.238760  0.360130  1.0  0.2554
  Ag  Ag11  1  0.278890  0.761240  0.860130  1.0  0.2558
  Ag  Ag12  1  0.778890  0.738760  0.139870  1.0  0.2558
  Ag  Ag13  1  0.721110  0.238760  0.139870  1.0  0.2555
  Ag  Ag14  1  0.221110  0.261240  0.860130  1.0  0.2557
  Ag  Ag15  1  0.221110  0.738760  0.360130  1.0  0.2551
  Ag  Ag16  1  0.721110  0.761240  0.639870  1.0  0.2561
  H  H17  1  0.460000  0.710700  0.644000  1.0  0.0841
  H  H18  1  0.544100  0.766100  0.669100  1.0  0.118
  H  H19  1  0.599600  0.609100  0.659200  1.0  0.1059
  H  H20  1  0.571500  0.206900  0.597900  1.0  0.1321
  H  H21  1  0.494800  0.115300  0.570300  1.0  0.1102
  H  H22  1  0.426200  0.247100  0.575100  1.0  0.0886
  H  H23  1  0.594700  0.282200  0.676400  1.0  0.1215
  H  H24  1  0.676200  0.238400  0.684600  1.0  0.0694
  H  H25  1  0.716900  0.452500  0.605000  1.0  0.0686
  H  H26  1  0.636800  0.502200  0.593000  1.0  0.1034
  H  H27  1  0.993300  0.859000  0.437900  1.0  0.0981
  H  H28  1  0.984200  0.835800  0.512100  1.0  0.1034
  H  H29  1  0.921300  0.965500  0.535300  1.0  0.1166
  H  H30  1  0.792400  0.227400  0.454800  1.0  0.1127
  H  H31  1  0.778700  0.251500  0.381400  1.0  0.1093
  H  H32  1  0.847800  0.151800  0.346200  1.0  0.0917
  H  H33  1  0.914200  0.205400  0.531400  1.0  0.1208
  H  H34  1  0.878300  0.266900  0.590100  1.0  0.0734
  H  H35  1  0.753000  0.117900  0.565100  1.0  0.0816
  H  H36  1  0.784000  0.050000  0.506600  1.0  0.1125
  H  H37  1  0.875400  0.165900  0.928800  1.0  0.086
  H  H38  1  0.818700  0.299500  0.895300  1.0  0.1202
  H  H39  1  0.820800  0.253900  0.821900  1.0  0.1123
  H  H40  1  0.905300  0.935900  0.737300  1.0  0.1263
  H  H41  1  0.955200  0.772900  0.758200  1.0  0.1172
  H  H42  1  0.964100  0.781300  0.832500  1.0  0.0818
  H  H43  1  0.811400  0.990200  0.752800  1.0  0.1236
  H  H44  1  0.775600  0.066100  0.696000  1.0  0.0852
  H  H45  1  0.859300  0.326900  0.704200  1.0  0.0958
  H  H46  1  0.896600  0.263600  0.763800  1.0  0.1291
  H  H47  1  0.960000  0.789300  0.356000  1.0  0.0829
  H  H48  1  0.044100  0.733900  0.330900  1.0  0.1178
  H  H49  1  0.099600  0.890900  0.340800  1.0  0.1055
  H  H50  1  0.071500  0.293100  0.402100  1.0  0.1325
  H  H51  1  0.994800  0.384700  0.429700  1.0  0.1106
  H  H52  1  0.926200  0.252900  0.424900  1.0  0.0892
  H  H53  1  0.094700  0.217800  0.323600  1.0  0.1214
  H  H54  1  0.176200  0.261600  0.315400  1.0  0.069
  H  H55  1  0.216900  0.047500  0.395000  1.0  0.0681
  H  H56  1  0.136800  0.997800  0.407000  1.0  0.1035
  H  H57  1  0.493300  0.641000  0.562100  1.0  0.0989
  H  H58  1  0.484200  0.664200  0.487900  1.0  0.1035
  H  H59  1  0.421300  0.534500  0.464700  1.0  0.1167
  H  H60  1  0.292400  0.272600  0.545200  1.0  0.1121
  H  H61  1  0.278700  0.248500  0.618600  1.0  0.1098
  H  H62  1  0.347800  0.348200  0.653800  1.0  0.0916
  H  H63  1  0.414200  0.294600  0.468600  1.0  0.1193
  H  H64  1  0.378300  0.233100  0.409900  1.0  0.0728
  H  H65  1  0.253000  0.382100  0.434900  1.0  0.0814
  H  H66  1  0.284000  0.450000  0.493400  1.0  0.1136
  H  H67  1  0.375400  0.334100  0.071200  1.0  0.0868
  H  H68  1  0.318700  0.200500  0.104700  1.0  0.1195
  H  H69  1  0.320800  0.246100  0.178100  1.0  0.1117
  H  H70  1  0.405300  0.564100  0.262700  1.0  0.126
  H  H71  1  0.455200  0.727100  0.241800  1.0  0.1172
  H  H72  1  0.464100  0.718700  0.167500  1.0  0.0817
  H  H73  1  0.311400  0.509800  0.247200  1.0  0.1239
  H  H74  1  0.275600  0.433900  0.304000  1.0  0.0847
  H  H75  1  0.359300  0.173100  0.295800  1.0  0.0955
  H  H76  1  0.396600  0.236400  0.236200  1.0  0.1276
  H  H77  1  0.960000  0.210700  0.856000  1.0  0.0836
  H  H78  1  0.044100  0.266100  0.830900  1.0  0.1178
  H  H79  1  0.099600  0.109100  0.840800  1.0  0.1057
  H  H80  1  0.071500  0.706900  0.902100  1.0  0.1316
  H  H81  1  0.994800  0.615300  0.929700  1.0  0.1101
  H  H82  1  0.926200  0.747100  0.924900  1.0  0.0889
  H  H83  1  0.094700  0.782200  0.823600  1.0  0.1208
  H  H84  1  0.176200  0.738400  0.815400  1.0  0.0687
  H  H85  1  0.216900  0.952500  0.895000  1.0  0.0686
  H  H86  1  0.136800  0.002200  0.907000  1.0  0.1033
  H  H87  1  0.493300  0.359000  0.062100  1.0  0.0985
  H  H88  1  0.484200  0.335800  0.987900  1.0  0.1027
  H  H89  1  0.421300  0.465500  0.964700  1.0  0.1165
  H  H90  1  0.292400  0.727400  0.045200  1.0  0.1125
  H  H91  1  0.278700  0.751500  0.118600  1.0  0.1096
  H  H92  1  0.347800  0.651800  0.153800  1.0  0.0917
  H  H93  1  0.414200  0.705400  0.968600  1.0  0.1205
  H  H94  1  0.378300  0.766900  0.909900  1.0  0.0737
  H  H95  1  0.253000  0.617900  0.934900  1.0  0.0816
  H  H96  1  0.284000  0.550000  0.993400  1.0  0.1132
  H  H97  1  0.375400  0.665900  0.571200  1.0  0.0856
  H  H98  1  0.318700  0.799500  0.604700  1.0  0.1199
  H  H99  1  0.320800  0.753900  0.678100  1.0  0.1121
  H  H100  1  0.405300  0.435900  0.762700  1.0  0.1263
  H  H101  1  0.455200  0.272900  0.741800  1.0  0.1172
  H  H102  1  0.464100  0.281300  0.667500  1.0  0.0817
  H  H103  1  0.311400  0.490200  0.747200  1.0  0.1231
  H  H104  1  0.275600  0.566100  0.804000  1.0  0.0854
  H  H105  1  0.359300  0.826900  0.795800  1.0  0.0962
  H  H106  1  0.396600  0.763600  0.736200  1.0  0.1296
  H  H107  1  0.460000  0.289300  0.144000  1.0  0.0832
  H  H108  1  0.544100  0.233900  0.169100  1.0  0.1178
  H  H109  1  0.599600  0.390900  0.159200  1.0  0.1059
  H  H110  1  0.571500  0.793100  0.097900  1.0  0.1337
  H  H111  1  0.494800  0.884700  0.070300  1.0  0.1111
  H  H112  1  0.426200  0.752900  0.075100  1.0  0.0896
  H  H113  1  0.594700  0.717800  0.176400  1.0  0.1212
  H  H114  1  0.676200  0.761600  0.184600  1.0  0.0692
  H  H115  1  0.716900  0.547500  0.105000  1.0  0.0684
  H  H116  1  0.636800  0.497800  0.093000  1.0  0.1032
  H  H117  1  0.993300  0.141000  0.937900  1.0  0.0989
  H  H118  1  0.984200  0.164200  0.012100  1.0  0.1035
  H  H119  1  0.921300  0.034500  0.035300  1.0  0.1166
  H  H120  1  0.792400  0.772600  0.954800  1.0  0.1127
  H  H121  1  0.778700  0.748500  0.881400  1.0  0.1091
  H  H122  1  0.847800  0.848200  0.846200  1.0  0.0919
  H  H123  1  0.914200  0.794600  0.031400  1.0  0.1195
  H  H124  1  0.878300  0.733100  0.090100  1.0  0.073
  H  H125  1  0.753000  0.882100  0.065100  1.0  0.0815
  H  H126  1  0.784000  0.950000  0.006600  1.0  0.1134
  H  H127  1  0.875400  0.834100  0.428800  1.0  0.0858
  H  H128  1  0.818700  0.700500  0.395300  1.0  0.1201
  H  H129  1  0.820800  0.746100  0.321900  1.0  0.1116
  H  H130  1  0.905300  0.064100  0.237300  1.0  0.1266
  H  H131  1  0.955200  0.227100  0.258200  1.0  0.1181
  H  H132  1  0.964100  0.218700  0.332500  1.0  0.0811
  H  H133  1  0.811400  0.009800  0.252800  1.0  0.1241
  H  H134  1  0.775600  0.933900  0.196000  1.0  0.085
  H  H135  1  0.859300  0.673100  0.204200  1.0  0.0953
  H  H136  1  0.896600  0.736400  0.263800  1.0  0.1275
  H  H137  1  0.040000  0.789300  0.144000  1.0  0.0832
  H  H138  1  0.955900  0.733900  0.169100  1.0  0.1178
  H  H139  1  0.900400  0.890900  0.159200  1.0  0.106
  H  H140  1  0.928500  0.293100  0.097900  1.0  0.1335
  H  H141  1  0.005200  0.384700  0.070300  1.0  0.1108
  H  H142  1  0.073800  0.252900  0.075100  1.0  0.0897
  H  H143  1  0.905300  0.217800  0.176400  1.0  0.121
  H  H144  1  0.823800  0.261600  0.184600  1.0  0.0694
  H  H145  1  0.783100  0.047500  0.105000  1.0  0.0687
  H  H146  1  0.863200  0.997800  0.093000  1.0  0.1029
  H  H147  1  0.506700  0.641000  0.937900  1.0  0.0994
  H  H148  1  0.515800  0.664200  0.012100  1.0  0.104
  H  H149  1  0.578700  0.534500  0.035300  1.0  0.1163
  H  H150  1  0.707600  0.272600  0.954800  1.0  0.1119
  H  H151  1  0.721300  0.248500  0.881400  1.0  0.109
  H  H152  1  0.652200  0.348200  0.846200  1.0  0.0917
  H  H153  1  0.585800  0.294600  0.031400  1.0  0.1193
  H  H154  1  0.621700  0.233100  0.090100  1.0  0.0729
  H  H155  1  0.747000  0.382100  0.065100  1.0  0.0824
  H  H156  1  0.716000  0.450000  0.006600  1.0  0.1134
  H  H157  1  0.624600  0.334100  0.428800  1.0  0.0854
  H  H158  1  0.681300  0.200500  0.395300  1.0  0.1202
  H  H159  1  0.679200  0.246100  0.321900  1.0  0.1114
  H  H160  1  0.594700  0.564100  0.237300  1.0  0.1267
  H  H161  1  0.544800  0.727100  0.258200  1.0  0.1186
  H  H162  1  0.535900  0.718700  0.332500  1.0  0.0815
  H  H163  1  0.688600  0.509800  0.252800  1.0  0.124
  H  H164  1  0.724400  0.433900  0.196000  1.0  0.0851
  H  H165  1  0.640700  0.173100  0.204200  1.0  0.0952
  H  H166  1  0.603400  0.236400  0.263800  1.0  0.127
  H  H167  1  0.540000  0.710700  0.856000  1.0  0.0831
  H  H168  1  0.455900  0.766100  0.830900  1.0  0.1182
  H  H169  1  0.400400  0.609100  0.840800  1.0  0.106
  H  H170  1  0.428500  0.206900  0.902100  1.0  0.1318
  H  H171  1  0.505200  0.115300  0.929700  1.0  0.1101
  H  H172  1  0.573800  0.247100  0.924900  1.0  0.0896
  H  H173  1  0.405300  0.282200  0.823600  1.0  0.1207
  H  H174  1  0.323800  0.238400  0.815400  1.0  0.0686
  H  H175  1  0.283100  0.452500  0.895000  1.0  0.0691
  H  H176  1  0.363200  0.502200  0.907000  1.0  0.1028
  H  H177  1  0.006700  0.859000  0.062100  1.0  0.0987
  H  H178  1  0.015800  0.835800  0.987900  1.0  0.1029
  H  H179  1  0.078700  0.965500  0.964700  1.0  0.116
  H  H180  1  0.207600  0.227400  0.045200  1.0  0.112
  H  H181  1  0.221300  0.251500  0.118600  1.0  0.1093
  H  H182  1  0.152200  0.151800  0.153800  1.0  0.0916
  H  H183  1  0.085800  0.205400  0.968600  1.0  0.1202
  H  H184  1  0.121700  0.266900  0.909900  1.0  0.0744
  H  H185  1  0.247000  0.117900  0.934900  1.0  0.0833
  H  H186  1  0.216000  0.050000  0.993400  1.0  0.113
  H  H187  1  0.124600  0.165900  0.571200  1.0  0.0859
  H  H188  1  0.181300  0.299500  0.604700  1.0  0.1201
  H  H189  1  0.179200  0.253900  0.678100  1.0  0.1113
  H  H190  1  0.094700  0.935900  0.762700  1.0  0.1266
  H  H191  1  0.044800  0.772900  0.741800  1.0  0.1171
  H  H192  1  0.035900  0.781300  0.667500  1.0  0.0815
  H  H193  1  0.188600  0.990200  0.747200  1.0  0.1238
  H  H194  1  0.224400  0.066100  0.804000  1.0  0.0854
  H  H195  1  0.140700  0.326900  0.795800  1.0  0.0964
  H  H196  1  0.103400  0.263600  0.736200  1.0  0.13
  H  H197  1  0.540000  0.289300  0.356000  1.0  0.0831
  H  H198  1  0.455900  0.233900  0.330900  1.0  0.1177
  H  H199  1  0.400400  0.390900  0.340800  1.0  0.1055
  H  H200  1  0.428500  0.793100  0.402100  1.0  0.1327
  H  H201  1  0.505200  0.884700  0.429700  1.0  0.1104
  H  H202  1  0.573800  0.752900  0.424900  1.0  0.0893
  H  H203  1  0.405300  0.717800  0.323600  1.0  0.121
  H  H204  1  0.323800  0.761600  0.315400  1.0  0.0691
  H  H205  1  0.283100  0.547500  0.395000  1.0  0.0687
  H  H206  1  0.363200  0.497800  0.407000  1.0  0.1031
  H  H207  1  0.006700  0.141000  0.562100  1.0  0.0995
  H  H208  1  0.015800  0.164200  0.487900  1.0  0.1039
  H  H209  1  0.078700  0.034500  0.464700  1.0  0.1162
  H  H210  1  0.207600  0.772600  0.545200  1.0  0.1119
  H  H211  1  0.221300  0.748500  0.618600  1.0  0.1098
  H  H212  1  0.152200  0.848200  0.653800  1.0  0.0915
  H  H213  1  0.085800  0.794600  0.468600  1.0  0.1189
  H  H214  1  0.121700  0.733100  0.409900  1.0  0.0725
  H  H215  1  0.247000  0.882100  0.434900  1.0  0.0832
  H  H216  1  0.216000  0.950000  0.493400  1.0  0.1131
  H  H217  1  0.124600  0.834100  0.071200  1.0  0.0862
  H  H218  1  0.181300  0.700500  0.104700  1.0  0.1195
  H  H219  1  0.179200  0.746100  0.178100  1.0  0.1113
  H  H220  1  0.094700  0.064100  0.262700  1.0  0.1264
  H  H221  1  0.044800  0.227100  0.241800  1.0  0.1174
  H  H222  1  0.035900  0.218700  0.167500  1.0  0.082
  H  H223  1  0.188600  0.009800  0.247200  1.0  0.1242
  H  H224  1  0.224400  0.933900  0.304000  1.0  0.085
  H  H225  1  0.140700  0.673100  0.295800  1.0  0.0955
  H  H226  1  0.103400  0.736400  0.236200  1.0  0.1271
  H  H227  1  0.040000  0.210700  0.644000  1.0  0.0836
  H  H228  1  0.955900  0.266100  0.669100  1.0  0.1184
  H  H229  1  0.900400  0.109100  0.659200  1.0  0.1061
  H  H230  1  0.928500  0.706900  0.597900  1.0  0.1325
  H  H231  1  0.005200  0.615300  0.570300  1.0  0.11
  H  H232  1  0.073800  0.747100  0.575100  1.0  0.0894
  H  H233  1  0.905300  0.782200  0.676400  1.0  0.1216
  H  H234  1  0.823800  0.738400  0.684600  1.0  0.0696
  H  H235  1  0.783100  0.952500  0.605000  1.0  0.0688
  H  H236  1  0.863200  0.002200  0.593000  1.0  0.1031
  H  H237  1  0.506700  0.359000  0.437900  1.0  0.0983
  H  H238  1  0.515800  0.335800  0.512100  1.0  0.1038
  H  H239  1  0.578700  0.465500  0.535300  1.0  0.1163
  H  H240  1  0.707600  0.727400  0.454800  1.0  0.1116
  H  H241  1  0.721300  0.751500  0.381400  1.0  0.1088
  H  H242  1  0.652200  0.651800  0.346200  1.0  0.0915
  H  H243  1  0.585800  0.705400  0.531400  1.0  0.1206
  H  H244  1  0.621700  0.766900  0.590100  1.0  0.0741
  H  H245  1  0.747000  0.617900  0.565100  1.0  0.0823
  H  H246  1  0.716000  0.550000  0.506600  1.0  0.1129
  H  H247  1  0.624600  0.665900  0.928800  1.0  0.0852
  H  H248  1  0.681300  0.799500  0.895300  1.0  0.1204
  H  H249  1  0.679200  0.753900  0.821900  1.0  0.1116
  H  H250  1  0.594700  0.435900  0.737300  1.0  0.1266
  H  H251  1  0.544800  0.272900  0.758200  1.0  0.1173
  H  H252  1  0.535900  0.281300  0.832500  1.0  0.0817
  H  H253  1  0.688600  0.490200  0.752800  1.0  0.124
  H  H254  1  0.724400  0.566100  0.696000  1.0  0.085
  H  H255  1  0.640700  0.826900  0.704200  1.0  0.096
  H  H256  1  0.603400  0.763600  0.763800  1.0  0.1293
  C  C257  1  0.488300  0.664900  0.644190  1.0  0.0253
  C  C258  1  0.535400  0.697600  0.658200  1.0  -0.1702
  C  C259  1  0.565200  0.611900  0.653000  1.0  -0.1656
  C  C260  1  0.536700  0.526000  0.636760  1.0  0.1259
  C  C261  1  0.552500  0.421000  0.625790  1.0  -0.1043
  C  C262  1  0.523900  0.343000  0.608730  1.0  0.1975
  C  C263  1  0.539100  0.236900  0.596100  1.0  -0.186
  C  C264  1  0.497000  0.186700  0.580800  1.0  -0.1025
  C  C265  1  0.459100  0.261300  0.583900  1.0  0.031
  C  C266  1  0.605800  0.394800  0.633400  1.0  0.101
  C  C267  1  0.619200  0.317600  0.660720  1.0  -0.2072
  C  C268  1  0.667800  0.291900  0.665280  1.0  0.1391
  C  C269  1  0.691300  0.415800  0.619000  1.0  0.1593
  C  C270  1  0.644100  0.446900  0.611900  1.0  -0.2247
  C  C271  1  0.970800  0.898100  0.454320  1.0  -0.0112
  C  C272  1  0.966100  0.885200  0.495900  1.0  -0.0752
  C  C273  1  0.931800  0.954700  0.508500  1.0  -0.0724
  C  C274  1  0.913900  0.009100  0.474500  1.0  0.0931
  C  C275  1  0.873300  0.086300  0.472100  1.0  -0.021
  C  C276  1  0.853800  0.125500  0.437700  1.0  0.2198
  C  C277  1  0.811500  0.196700  0.433700  1.0  -0.1867
  C  C278  1  0.804400  0.211100  0.393800  1.0  -0.1563
  C  C279  1  0.843100  0.153700  0.374300  1.0  0.0194
  C  C280  1  0.851500  0.120300  0.510640  1.0  0.0688
  C  C281  1  0.880700  0.187600  0.537500  1.0  -0.1426
  C  C282  1  0.858800  0.225000  0.572200  1.0  0.152
  C  C283  1  0.785700  0.137600  0.557500  1.0  0.133
  C  C284  1  0.804120  0.096000  0.522600  1.0  -0.2042
  C  C285  1  0.868300  0.167500  0.901000  1.0  0.0335
  C  C286  1  0.837000  0.243100  0.882800  1.0  -0.1269
  C  C287  1  0.838500  0.218000  0.842600  1.0  -0.1208
  C  C288  1  0.871100  0.129400  0.837800  1.0  0.1769
  C  C289  1  0.881300  0.073900  0.802300  1.0  -0.096
  C  C290  1  0.908000  0.980100  0.799200  1.0  0.2003
  C  C291  1  0.916100  0.918400  0.763600  1.0  -0.1745
  C  C292  1  0.942700  0.828400  0.775100  1.0  -0.1171
  C  C293  1  0.947900  0.834700  0.816700  1.0  0.0413
  C  C294  1  0.858500  0.120900  0.764500  1.0  0.0539
  C  C295  1  0.821500  0.059600  0.743600  1.0  -0.1499
  C  C296  1  0.801100  0.104500  0.709600  1.0  0.1627
  C  C297  1  0.850100  0.258300  0.714800  1.0  0.1388
  C  C298  1  0.872500  0.221100  0.750200  1.0  -0.1209
  C  C299  1  0.988300  0.835100  0.355810  1.0  0.0274
  C  C300  1  0.035400  0.802400  0.341800  1.0  -0.1723
  C  C301  1  0.065200  0.888100  0.347000  1.0  -0.1666
  C  C302  1  0.036700  0.974000  0.363240  1.0  0.1257
  C  C303  1  0.052500  0.079000  0.374210  1.0  -0.1044
  C  C304  1  0.023900  0.157000  0.391270  1.0  0.1984
  C  C305  1  0.039100  0.263100  0.403900  1.0  -0.1854
  C  C306  1  0.997000  0.313300  0.419200  1.0  -0.1
  C  C307  1  0.959100  0.238700  0.416100  1.0  0.0281
  C  C308  1  0.105800  0.105200  0.366600  1.0  0.1003
  C  C309  1  0.119200  0.182400  0.339280  1.0  -0.207
  C  C310  1  0.167800  0.208100  0.334720  1.0  0.139
  C  C311  1  0.191300  0.084200  0.381000  1.0  0.1599
  C  C312  1  0.144100  0.053100  0.388100  1.0  -0.2244
  C  C313  1  0.470800  0.601900  0.545680  1.0  -0.0098
  C  C314  1  0.466100  0.614800  0.504100  1.0  -0.0728
  C  C315  1  0.431800  0.545300  0.491500  1.0  -0.0719
  C  C316  1  0.413900  0.490900  0.525500  1.0  0.0936
  C  C317  1  0.373300  0.413700  0.527900  1.0  -0.0211
  C  C318  1  0.353800  0.374500  0.562300  1.0  0.2198
  C  C319  1  0.311500  0.303300  0.566300  1.0  -0.1849
  C  C320  1  0.304400  0.288900  0.606200  1.0  -0.1551
  C  C321  1  0.343100  0.346300  0.625700  1.0  0.019
  C  C322  1  0.351500  0.379700  0.489360  1.0  0.0687
  C  C323  1  0.380700  0.312400  0.462500  1.0  -0.146
  C  C324  1  0.358800  0.275000  0.427800  1.0  0.1507
  C  C325  1  0.285700  0.362400  0.442500  1.0  0.1337
  C  C326  1  0.304120  0.404000  0.477400  1.0  -0.2046
  C  C327  1  0.368300  0.332500  0.099000  1.0  0.0355
  C  C328  1  0.337000  0.256900  0.117200  1.0  -0.1266
  C  C329  1  0.338500  0.282000  0.157400  1.0  -0.1185
  C  C330  1  0.371100  0.370600  0.162200  1.0  0.1769
  C  C331  1  0.381300  0.426100  0.197700  1.0  -0.0958
  C  C332  1  0.408000  0.519900  0.200800  1.0  0.1999
  C  C333  1  0.416100  0.581600  0.236400  1.0  -0.1762
  C  C334  1  0.442700  0.671600  0.224900  1.0  -0.1181
  C  C335  1  0.447900  0.665300  0.183300  1.0  0.0391
  C  C336  1  0.358500  0.379100  0.235500  1.0  0.0542
  C  C337  1  0.321500  0.440400  0.256400  1.0  -0.1502
  C  C338  1  0.301100  0.395500  0.290400  1.0  0.1621
  C  C339  1  0.350100  0.241700  0.285200  1.0  0.1376
  C  C340  1  0.372500  0.278900  0.249800  1.0  -0.1217
  C  C341  1  0.988300  0.164900  0.855810  1.0  0.0274
  C  C342  1  0.035400  0.197600  0.841800  1.0  -0.1703
  C  C343  1  0.065200  0.111900  0.847000  1.0  -0.1657
  C  C344  1  0.036700  0.026000  0.863240  1.0  0.1251
  C  C345  1  0.052500  0.921000  0.874210  1.0  -0.1043
  C  C346  1  0.023900  0.843000  0.891270  1.0  0.1977
  C  C347  1  0.039100  0.736900  0.903900  1.0  -0.1859
  C  C348  1  0.997000  0.686700  0.919200  1.0  -0.1028
  C  C349  1  0.959100  0.761300  0.916100  1.0  0.0313
  C  C350  1  0.105800  0.894800  0.866600  1.0  0.1009
  C  C351  1  0.119200  0.817600  0.839280  1.0  -0.2062
  C  C352  1  0.167800  0.791900  0.834720  1.0  0.1382
  C  C353  1  0.191300  0.915800  0.881000  1.0  0.1598
  C  C354  1  0.144100  0.946900  0.888100  1.0  -0.2243
  C  C355  1  0.470800  0.398100  0.045680  1.0  -0.0106
  C  C356  1  0.466100  0.385200  0.004100  1.0  -0.0741
  C  C357  1  0.431800  0.454700  0.991500  1.0  -0.0723
  C  C358  1  0.413900  0.509100  0.025500  1.0  0.0931
  C  C359  1  0.373300  0.586300  0.027900  1.0  -0.0211
  C  C360  1  0.353800  0.625500  0.062300  1.0  0.2197
  C  C361  1  0.311500  0.696700  0.066300  1.0  -0.1854
  C  C362  1  0.304400  0.711100  0.106200  1.0  -0.1566
  C  C363  1  0.343100  0.653700  0.125700  1.0  0.0188
  C  C364  1  0.351500  0.620300  0.989360  1.0  0.0688
  C  C365  1  0.380700  0.687600  0.962500  1.0  -0.1415
  C  C366  1  0.358800  0.725000  0.927800  1.0  0.1521
  C  C367  1  0.285700  0.637600  0.942500  1.0  0.1337
  C  C368  1  0.304120  0.596000  0.977400  1.0  -0.2044
  C  C369  1  0.368300  0.667500  0.599000  1.0  0.0358
  C  C370  1  0.337000  0.743100  0.617200  1.0  -0.1277
  C  C371  1  0.338500  0.718000  0.657400  1.0  -0.1203
  C  C372  1  0.371100  0.629400  0.662200  1.0  0.1773
  C  C373  1  0.381300  0.573900  0.697700  1.0  -0.0961
  C  C374  1  0.408000  0.480100  0.700800  1.0  0.2002
  C  C375  1  0.416100  0.418400  0.736400  1.0  -0.1757
  C  C376  1  0.442700  0.328400  0.724900  1.0  -0.1171
  C  C377  1  0.447900  0.334700  0.683300  1.0  0.0401
  C  C378  1  0.358500  0.620900  0.735500  1.0  0.054
  C  C379  1  0.321500  0.559600  0.756400  1.0  -0.1501
  C  C380  1  0.301100  0.604500  0.790400  1.0  0.1626
  C  C381  1  0.350100  0.758300  0.785200  1.0  0.1387
  C  C382  1  0.372500  0.721100  0.749800  1.0  -0.1204
  C  C383  1  0.488300  0.335100  0.144190  1.0  0.0266
  C  C384  1  0.535400  0.302400  0.158200  1.0  -0.1717
  C  C385  1  0.565200  0.388100  0.153000  1.0  -0.1666
  C  C386  1  0.536700  0.474000  0.136760  1.0  0.1266
  C  C387  1  0.552500  0.579000  0.125790  1.0  -0.1045
  C  C388  1  0.523900  0.657000  0.108730  1.0  0.1981
  C  C389  1  0.539100  0.763100  0.096100  1.0  -0.1855
  C  C390  1  0.497000  0.813300  0.080800  1.0  -0.0996
  C  C391  1  0.459100  0.738700  0.083900  1.0  0.0278
  C  C392  1  0.605800  0.605200  0.133400  1.0  0.1005
  C  C393  1  0.619200  0.682400  0.160720  1.0  -0.2068
  C  C394  1  0.667800  0.708100  0.165280  1.0  0.1383
  C  C395  1  0.691300  0.584200  0.119000  1.0  0.16
  C  C396  1  0.644100  0.553100  0.111900  1.0  -0.2244
  C  C397  1  0.970800  0.101900  0.954320  1.0  -0.0102
  C  C398  1  0.966100  0.114800  0.995900  1.0  -0.0738
  C  C399  1  0.931800  0.045300  0.008500  1.0  -0.0721
  C  C400  1  0.913900  0.990900  0.974500  1.0  0.0938
  C  C401  1  0.873300  0.913700  0.972100  1.0  -0.0209
  C  C402  1  0.853800  0.874500  0.937700  1.0  0.2201
  C  C403  1  0.811500  0.803300  0.933700  1.0  -0.1853
  C  C404  1  0.804400  0.788900  0.893800  1.0  -0.1556
  C  C405  1  0.843100  0.846300  0.874300  1.0  0.0199
  C  C406  1  0.851500  0.879700  0.010640  1.0  0.0686
  C  C407  1  0.880700  0.812400  0.037500  1.0  -0.1455
  C  C408  1  0.858800  0.775000  0.072200  1.0  0.1513
  C  C409  1  0.785700  0.862400  0.057500  1.0  0.1329
  C  C410  1  0.804120  0.904000  0.022600  1.0  -0.2042
  C  C411  1  0.868300  0.832500  0.401000  1.0  0.0347
  C  C412  1  0.837000  0.756900  0.382800  1.0  -0.1265
  C  C413  1  0.838500  0.782000  0.342600  1.0  -0.1195
  C  C414  1  0.871100  0.870600  0.337800  1.0  0.1762
  C  C415  1  0.881300  0.926100  0.302300  1.0  -0.0959
  C  C416  1  0.908000  0.019900  0.299200  1.0  0.1999
  C  C417  1  0.916100  0.081600  0.263600  1.0  -0.1744
  C  C418  1  0.942700  0.171600  0.275100  1.0  -0.1177
  C  C419  1  0.947900  0.165300  0.316700  1.0  0.0414
  C  C420  1  0.858500  0.879100  0.264500  1.0  0.0539
  C  C421  1  0.821500  0.940400  0.243600  1.0  -0.1506
  C  C422  1  0.801100  0.895500  0.209600  1.0  0.1623
  C  C423  1  0.850100  0.741700  0.214800  1.0  0.1378
  C  C424  1  0.872500  0.778900  0.250200  1.0  -0.1225
  C  C425  1  0.011700  0.835100  0.144190  1.0  0.0257
  C  C426  1  0.964600  0.802400  0.158200  1.0  -0.1736
  C  C427  1  0.934800  0.888100  0.153000  1.0  -0.1669
  C  C428  1  0.963300  0.974000  0.136760  1.0  0.1268
  C  C429  1  0.947500  0.079000  0.125790  1.0  -0.1055
  C  C430  1  0.976100  0.157000  0.108730  1.0  0.1981
  C  C431  1  0.960900  0.263100  0.096100  1.0  -0.1846
  C  C432  1  0.003000  0.313300  0.080800  1.0  -0.0998
  C  C433  1  0.040900  0.238700  0.083900  1.0  0.0288
  C  C434  1  0.894200  0.105200  0.133400  1.0  0.1001
  C  C435  1  0.880800  0.182400  0.160720  1.0  -0.2066
  C  C436  1  0.832200  0.208100  0.165280  1.0  0.138
  C  C437  1  0.808700  0.084200  0.119000  1.0  0.1585
  C  C438  1  0.855900  0.053100  0.111900  1.0  -0.2251
  C  C439  1  0.529200  0.601900  0.954320  1.0  -0.0108
  C  C440  1  0.533900  0.614800  0.995900  1.0  -0.0738
  C  C441  1  0.568200  0.545300  0.008500  1.0  -0.0704
  C  C442  1  0.586100  0.490900  0.974500  1.0  0.0937
  C  C443  1  0.626700  0.413700  0.972100  1.0  -0.0205
  C  C444  1  0.646200  0.374500  0.937700  1.0  0.22
  C  C445  1  0.688500  0.303300  0.933700  1.0  -0.1838
  C  C446  1  0.695600  0.288900  0.893800  1.0  -0.1536
  C  C447  1  0.656900  0.346300  0.874300  1.0  0.0184
  C  C448  1  0.648500  0.379700  0.010640  1.0  0.069
  C  C449  1  0.619300  0.312400  0.037500  1.0  -0.1438
  C  C450  1  0.641200  0.275000  0.072200  1.0  0.1524
  C  C451  1  0.714300  0.362400  0.057500  1.0  0.1344
  C  C452  1  0.695880  0.404000  0.022600  1.0  -0.2022
  C  C453  1  0.631700  0.332500  0.401000  1.0  0.0351
  C  C454  1  0.663000  0.256900  0.382800  1.0  -0.1255
  C  C455  1  0.661500  0.282000  0.342600  1.0  -0.1177
  C  C456  1  0.628900  0.370600  0.337800  1.0  0.1767
  C  C457  1  0.618700  0.426100  0.302300  1.0  -0.0959
  C  C458  1  0.592000  0.519900  0.299200  1.0  0.2004
  C  C459  1  0.583900  0.581600  0.263600  1.0  -0.1738
  C  C460  1  0.557300  0.671600  0.275100  1.0  -0.1185
  C  C461  1  0.552100  0.665300  0.316700  1.0  0.0423
  C  C462  1  0.641500  0.379100  0.264500  1.0  0.0549
  C  C463  1  0.678500  0.440400  0.243600  1.0  -0.1506
  C  C464  1  0.698900  0.395500  0.209600  1.0  0.1627
  C  C465  1  0.649900  0.241700  0.214800  1.0  0.1374
  C  C466  1  0.627500  0.278900  0.250200  1.0  -0.1205
  C  C467  1  0.511700  0.664900  0.855810  1.0  0.0275
  C  C468  1  0.464600  0.697600  0.841800  1.0  -0.1721
  C  C469  1  0.434800  0.611900  0.847000  1.0  -0.1668
  C  C470  1  0.463300  0.526000  0.863240  1.0  0.1254
  C  C471  1  0.447500  0.421000  0.874210  1.0  -0.1051
  C  C472  1  0.476100  0.343000  0.891270  1.0  0.198
  C  C473  1  0.460900  0.236900  0.903900  1.0  -0.1842
  C  C474  1  0.503000  0.186700  0.919200  1.0  -0.1026
  C  C475  1  0.540900  0.261300  0.916100  1.0  0.0298
  C  C476  1  0.394200  0.394800  0.866600  1.0  0.1008
  C  C477  1  0.380800  0.317600  0.839280  1.0  -0.2068
  C  C478  1  0.332200  0.291900  0.834720  1.0  0.1383
  C  C479  1  0.308700  0.415800  0.881000  1.0  0.1591
  C  C480  1  0.355900  0.446900  0.888100  1.0  -0.225
  C  C481  1  0.029200  0.898100  0.045680  1.0  -0.0096
  C  C482  1  0.033900  0.885200  0.004100  1.0  -0.0733
  C  C483  1  0.068200  0.954700  0.991500  1.0  -0.0709
  C  C484  1  0.086100  0.009100  0.025500  1.0  0.0938
  C  C485  1  0.126700  0.086300  0.027900  1.0  -0.0205
  C  C486  1  0.146200  0.125500  0.062300  1.0  0.2202
  C  C487  1  0.188500  0.196700  0.066300  1.0  -0.1842
  C  C488  1  0.195600  0.211100  0.106200  1.0  -0.1541
  C  C489  1  0.156900  0.153700  0.125700  1.0  0.0189
  C  C490  1  0.148500  0.120300  0.989360  1.0  0.0687
  C  C491  1  0.119300  0.187600  0.962500  1.0  -0.1431
  C  C492  1  0.141200  0.225000  0.927800  1.0  0.1522
  C  C493  1  0.214300  0.137600  0.942500  1.0  0.1348
  C  C494  1  0.195880  0.096000  0.977400  1.0  -0.2029
  C  C495  1  0.131700  0.167500  0.599000  1.0  0.0365
  C  C496  1  0.163000  0.243100  0.617200  1.0  -0.1257
  C  C497  1  0.161500  0.218000  0.657400  1.0  -0.1181
  C  C498  1  0.128900  0.129400  0.662200  1.0  0.1772
  C  C499  1  0.118700  0.073900  0.697700  1.0  -0.0962
  C  C500  1  0.092000  0.980100  0.700800  1.0  0.2006
  C  C501  1  0.083900  0.918400  0.736400  1.0  -0.1751
  C  C502  1  0.057300  0.828400  0.724900  1.0  -0.1175
  C  C503  1  0.052100  0.834700  0.683300  1.0  0.0411
  C  C504  1  0.141500  0.120900  0.735500  1.0  0.0549
  C  C505  1  0.178500  0.059600  0.756400  1.0  -0.1494
  C  C506  1  0.198900  0.104500  0.790400  1.0  0.1631
  C  C507  1  0.149900  0.258300  0.785200  1.0  0.1383
  C  C508  1  0.127500  0.221100  0.749800  1.0  -0.1211
  C  C509  1  0.511700  0.335100  0.355810  1.0  0.0268
  C  C510  1  0.464600  0.302400  0.341800  1.0  -0.1741
  C  C511  1  0.434800  0.388100  0.347000  1.0  -0.1672
  C  C512  1  0.463300  0.474000  0.363240  1.0  0.1258
  C  C513  1  0.447500  0.579000  0.374210  1.0  -0.1055
  C  C514  1  0.476100  0.657000  0.391270  1.0  0.1981
  C  C515  1  0.460900  0.763100  0.403900  1.0  -0.185
  C  C516  1  0.503000  0.813300  0.419200  1.0  -0.1004
  C  C517  1  0.540900  0.738700  0.416100  1.0  0.0286
  C  C518  1  0.394200  0.605200  0.366600  1.0  0.0999
  C  C519  1  0.380800  0.682400  0.339280  1.0  -0.2062
  C  C520  1  0.332200  0.708100  0.334720  1.0  0.1386
  C  C521  1  0.308700  0.584200  0.381000  1.0  0.1589
  C  C522  1  0.355900  0.553100  0.388100  1.0  -0.2249
  C  C523  1  0.029200  0.101900  0.545680  1.0  -0.0107
  C  C524  1  0.033900  0.114800  0.504100  1.0  -0.0733
  C  C525  1  0.068200  0.045300  0.491500  1.0  -0.0702
  C  C526  1  0.086100  0.990900  0.525500  1.0  0.0938
  C  C527  1  0.126700  0.913700  0.527900  1.0  -0.0205
  C  C528  1  0.146200  0.874500  0.562300  1.0  0.2206
  C  C529  1  0.188500  0.803300  0.566300  1.0  -0.1845
  C  C530  1  0.195600  0.788900  0.606200  1.0  -0.1535
  C  C531  1  0.156900  0.846300  0.625700  1.0  0.0197
  C  C532  1  0.148500  0.879700  0.489360  1.0  0.0684
  C  C533  1  0.119300  0.812400  0.462500  1.0  -0.1444
  C  C534  1  0.141200  0.775000  0.427800  1.0  0.1518
  C  C535  1  0.214300  0.862400  0.442500  1.0  0.1348
  C  C536  1  0.195880  0.904000  0.477400  1.0  -0.2031
  C  C537  1  0.131700  0.832500  0.099000  1.0  0.0357
  C  C538  1  0.163000  0.756900  0.117200  1.0  -0.1257
  C  C539  1  0.161500  0.782000  0.157400  1.0  -0.116
  C  C540  1  0.128900  0.870600  0.162200  1.0  0.1769
  C  C541  1  0.118700  0.926100  0.197700  1.0  -0.0958
  C  C542  1  0.092000  0.019900  0.200800  1.0  0.2003
  C  C543  1  0.083900  0.081600  0.236400  1.0  -0.1754
  C  C544  1  0.057300  0.171600  0.224900  1.0  -0.1188
  C  C545  1  0.052100  0.165300  0.183300  1.0  0.0402
  C  C546  1  0.141500  0.879100  0.235500  1.0  0.055
  C  C547  1  0.178500  0.940400  0.256400  1.0  -0.1496
  C  C548  1  0.198900  0.895500  0.290400  1.0  0.1627
  C  C549  1  0.149900  0.741700  0.285200  1.0  0.1373
  C  C550  1  0.127500  0.778900  0.249800  1.0  -0.1197
  C  C551  1  0.011700  0.164900  0.644190  1.0  0.0255
  C  C552  1  0.964600  0.197600  0.658200  1.0  -0.1725
  C  C553  1  0.934800  0.111900  0.653000  1.0  -0.1664
  C  C554  1  0.963300  0.026000  0.636760  1.0  0.1263
  C  C555  1  0.947500  0.921000  0.625790  1.0  -0.1053
  C  C556  1  0.976100  0.843000  0.608730  1.0  0.1979
  C  C557  1  0.960900  0.736900  0.596100  1.0  -0.1841
  C  C558  1  0.003000  0.686700  0.580800  1.0  -0.1024
  C  C559  1  0.040900  0.761300  0.583900  1.0  0.0297
  C  C560  1  0.894200  0.894800  0.633400  1.0  0.101
  C  C561  1  0.880800  0.817600  0.660720  1.0  -0.2082
  C  C562  1  0.832200  0.791900  0.665280  1.0  0.1394
  C  C563  1  0.808700  0.915800  0.619000  1.0  0.1585
  C  C564  1  0.855900  0.946900  0.611900  1.0  -0.2256
  C  C565  1  0.529200  0.398100  0.454320  1.0  -0.0104
  C  C566  1  0.533900  0.385200  0.495900  1.0  -0.0743
  C  C567  1  0.568200  0.454700  0.508500  1.0  -0.0712
  C  C568  1  0.586100  0.509100  0.474500  1.0  0.0935
  C  C569  1  0.626700  0.586300  0.472100  1.0  -0.0206
  C  C570  1  0.646200  0.625500  0.437700  1.0  0.2196
  C  C571  1  0.688500  0.696700  0.433700  1.0  -0.1848
  C  C572  1  0.695600  0.711100  0.393800  1.0  -0.1537
  C  C573  1  0.656900  0.653700  0.374300  1.0  0.0197
  C  C574  1  0.648500  0.620300  0.510640  1.0  0.0693
  C  C575  1  0.619300  0.687600  0.537500  1.0  -0.1438
  C  C576  1  0.641200  0.725000  0.572200  1.0  0.1523
  C  C577  1  0.714300  0.637600  0.557500  1.0  0.1346
  C  C578  1  0.695880  0.596000  0.522600  1.0  -0.2021
  C  C579  1  0.631700  0.667500  0.901000  1.0  0.0347
  C  C580  1  0.663000  0.743100  0.882800  1.0  -0.1253
  C  C581  1  0.661500  0.718000  0.842600  1.0  -0.1192
  C  C582  1  0.628900  0.629400  0.837800  1.0  0.1773
  C  C583  1  0.618700  0.573900  0.802300  1.0  -0.0961
  C  C584  1  0.592000  0.480100  0.799200  1.0  0.2007
  C  C585  1  0.583900  0.418400  0.763600  1.0  -0.1744
  C  C586  1  0.557300  0.328400  0.775100  1.0  -0.1176
  C  C587  1  0.552100  0.334700  0.816700  1.0  0.0422
  C  C588  1  0.641500  0.620900  0.764500  1.0  0.0549
  C  C589  1  0.678500  0.559600  0.743600  1.0  -0.1496
  C  C590  1  0.698900  0.604500  0.709600  1.0  0.163
  C  C591  1  0.649900  0.758300  0.714800  1.0  0.1382
  C  C592  1  0.627500  0.721100  0.750200  1.0  -0.1216
  N  N593  1  0.488020  0.563000  0.631230  1.0  -0.38
  N  N594  1  0.472870  0.355700  0.600280  1.0  -0.362
  N  N595  1  0.704800  0.337200  0.644320  1.0  -0.3128
  N  N596  1  0.939120  0.973500  0.441430  1.0  -0.3168
  N  N597  1  0.871470  0.103700  0.400120  1.0  -0.2993
  N  N598  1  0.811140  0.205000  0.581920  1.0  -0.3373
  N  N599  1  0.887140  0.097200  0.874320  1.0  -0.3256
  N  N600  1  0.928020  0.921400  0.831210  1.0  -0.3087
  N  N601  1  0.815400  0.197400  0.695560  1.0  -0.317
  N  N602  1  0.988020  0.937000  0.368770  1.0  -0.3794
  N  N603  1  0.972870  0.144300  0.399720  1.0  -0.3599
  N  N604  1  0.204800  0.162800  0.355680  1.0  -0.3127
  N  N605  1  0.439120  0.526500  0.558570  1.0  -0.3164
  N  N606  1  0.371470  0.396300  0.599880  1.0  -0.3029
  N  N607  1  0.311140  0.295000  0.418080  1.0  -0.3408
  N  N608  1  0.387140  0.402800  0.125680  1.0  -0.3229
  N  N609  1  0.428020  0.578600  0.168790  1.0  -0.3063
  N  N610  1  0.315400  0.302600  0.304440  1.0  -0.3175
  N  N611  1  0.988020  0.063000  0.868770  1.0  -0.3797
  N  N612  1  0.972870  0.855700  0.899720  1.0  -0.3618
  N  N613  1  0.204800  0.837200  0.855680  1.0  -0.3129
  N  N614  1  0.439120  0.473500  0.058570  1.0  -0.318
  N  N615  1  0.371470  0.603700  0.099880  1.0  -0.2988
  N  N616  1  0.311140  0.705000  0.918080  1.0  -0.3375
  N  N617  1  0.387140  0.597200  0.625680  1.0  -0.3254
  N  N618  1  0.428020  0.421400  0.668790  1.0  -0.3071
  N  N619  1  0.315400  0.697400  0.804440  1.0  -0.3178
  N  N620  1  0.488020  0.437000  0.131230  1.0  -0.3794
  N  N621  1  0.472870  0.644300  0.100280  1.0  -0.3598
  N  N622  1  0.704800  0.662800  0.144320  1.0  -0.3129
  N  N623  1  0.939120  0.026500  0.941430  1.0  -0.3147
  N  N624  1  0.871470  0.896300  0.900120  1.0  -0.3036
  N  N625  1  0.811140  0.795000  0.081920  1.0  -0.3409
  N  N626  1  0.887140  0.902800  0.374320  1.0  -0.3228
  N  N627  1  0.928020  0.078600  0.331210  1.0  -0.308
  N  N628  1  0.815400  0.802600  0.195560  1.0  -0.3165
  N  N629  1  0.011980  0.937000  0.131230  1.0  -0.3803
  N  N630  1  0.027130  0.144300  0.100280  1.0  -0.3604
  N  N631  1  0.795200  0.162800  0.144320  1.0  -0.3135
  N  N632  1  0.560880  0.526500  0.941430  1.0  -0.3159
  N  N633  1  0.628530  0.396300  0.900120  1.0  -0.2976
  N  N634  1  0.688860  0.295000  0.081920  1.0  -0.3403
  N  N635  1  0.612860  0.402800  0.374320  1.0  -0.3265
  N  N636  1  0.571980  0.578600  0.331210  1.0  -0.3077
  N  N637  1  0.684600  0.302600  0.195560  1.0  -0.3167
  N  N638  1  0.511980  0.563000  0.868770  1.0  -0.3786
  N  N639  1  0.527130  0.355700  0.899720  1.0  -0.3607
  N  N640  1  0.295200  0.337200  0.855680  1.0  -0.3142
  N  N641  1  0.060880  0.973500  0.058570  1.0  -0.3167
  N  N642  1  0.128530  0.103700  0.099880  1.0  -0.3016
  N  N643  1  0.188860  0.205000  0.918080  1.0  -0.3419
  N  N644  1  0.112860  0.097200  0.625680  1.0  -0.322
  N  N645  1  0.071980  0.921400  0.668790  1.0  -0.3066
  N  N646  1  0.184600  0.197400  0.804440  1.0  -0.3189
  N  N647  1  0.511980  0.437000  0.368770  1.0  -0.3803
  N  N648  1  0.527130  0.644300  0.399720  1.0  -0.3605
  N  N649  1  0.295200  0.662800  0.355680  1.0  -0.3129
  N  N650  1  0.060880  0.026500  0.558570  1.0  -0.3173
  N  N651  1  0.128530  0.896300  0.599880  1.0  -0.2977
  N  N652  1  0.188860  0.795000  0.418080  1.0  -0.3405
  N  N653  1  0.112860  0.902800  0.125680  1.0  -0.3265
  N  N654  1  0.071980  0.078600  0.168790  1.0  -0.3061
  N  N655  1  0.184600  0.802600  0.304440  1.0  -0.3178
  N  N656  1  0.011980  0.063000  0.631230  1.0  -0.3792
  N  N657  1  0.027130  0.855700  0.600280  1.0  -0.3608
  N  N658  1  0.795200  0.837200  0.644320  1.0  -0.3146
  N  N659  1  0.560880  0.473500  0.441430  1.0  -0.3156
  N  N660  1  0.628530  0.603700  0.400120  1.0  -0.3014
  N  N661  1  0.688860  0.705000  0.581920  1.0  -0.3405
  N  N662  1  0.612860  0.597200  0.874320  1.0  -0.3221
  N  N663  1  0.571980  0.421400  0.831210  1.0  -0.3081
  N  N664  1  0.684600  0.697400  0.695560  1.0  -0.319
