# generated using pymatgen
data_MnH15C19S(NO2)3
_symmetry_space_group_name_H-M   'P 1'
_cell_length_a   8.70700000
_cell_length_b   11.67800000
_cell_length_c   28.00500000
_cell_angle_alpha   90.00000000
_cell_angle_beta   90.00000000
_cell_angle_gamma   104.20000000
_symmetry_Int_Tables_number   1
_chemical_formula_structural   MnH15C19S(NO2)3
_chemical_formula_sum   'Mn4 H60 C76 S4 N12 O24'
_cell_volume   2760.55194865
_cell_formula_units_Z   4
loop_
 _symmetry_equiv_pos_site_id
 _symmetry_equiv_pos_as_xyz
  1  'x, y, z'
loop_
 _atom_site_type_symbol
 _atom_site_label
 _atom_site_symmetry_multiplicity
 _atom_site_fract_x
 _atom_site_fract_y
 _atom_site_fract_z
 _atom_site_occupancy
 _atom_site_charge
  Mn  Mn1  1  0.191940  0.365680  0.199050  1.0  1.0181
  Mn  Mn2  1  0.308060  0.634320  0.699050  1.0  1.0185
  Mn  Mn3  1  0.808060  0.634320  0.800950  1.0  1.0186
  Mn  Mn4  1  0.691940  0.365680  0.300950  1.0  1.0181
  H  H5  1  0.433400  0.496600  0.127800  1.0  0.3194
  H  H6  1  0.632300  0.390900  0.129200  1.0  0.1248
  H  H7  1  0.739400  0.503600  0.153200  1.0  0.1156
  H  H8  1  0.488600  0.679500  0.018900  1.0  0.1224
  H  H9  1  0.589600  0.666500  0.942600  1.0  0.0956
  H  H10  1  0.986800  0.611800  0.999000  1.0  0.1047
  H  H11  1  0.884800  0.622200  0.075000  1.0  0.0955
  H  H12  1  0.057300  0.557000  0.144500  1.0  0.069
  H  H13  1  0.049900  0.750500  0.144000  1.0  0.1185
  H  H14  1  0.344100  0.803900  0.254800  1.0  0.1155
  H  H15  1  0.345400  0.607800  0.251600  1.0  0.0677
  H  H16  1  0.041900  0.118500  0.148400  1.0  0.0777
  H  H17  1  0.035200  0.923900  0.148000  1.0  0.1251
  H  H18  1  0.347200  0.982600  0.252400  1.0  0.1078
  H  H19  1  0.326200  0.173100  0.254600  1.0  0.0649
  H  H20  1  0.066600  0.503400  0.627800  1.0  0.3231
  H  H21  1  0.867700  0.609100  0.629200  1.0  0.1246
  H  H22  1  0.760600  0.496400  0.653200  1.0  0.1163
  H  H23  1  0.011400  0.320500  0.518900  1.0  0.1245
  H  H24  1  0.910400  0.333500  0.442600  1.0  0.0958
  H  H25  1  0.513200  0.388200  0.499000  1.0  0.1053
  H  H26  1  0.615200  0.377800  0.575000  1.0  0.0958
  H  H27  1  0.442700  0.443000  0.644500  1.0  0.0687
  H  H28  1  0.450100  0.249500  0.644000  1.0  0.1181
  H  H29  1  0.155900  0.196100  0.754800  1.0  0.1153
  H  H30  1  0.154600  0.392200  0.751600  1.0  0.0675
  H  H31  1  0.458100  0.881500  0.648400  1.0  0.0773
  H  H32  1  0.464800  0.076100  0.648000  1.0  0.1252
  H  H33  1  0.152800  0.017400  0.752400  1.0  0.1081
  H  H34  1  0.173800  0.826900  0.754600  1.0  0.065
  H  H35  1  0.566600  0.503400  0.872200  1.0  0.323
  H  H36  1  0.367700  0.609100  0.870800  1.0  0.1239
  H  H37  1  0.260600  0.496400  0.846800  1.0  0.1162
  H  H38  1  0.511400  0.320500  0.981100  1.0  0.1247
  H  H39  1  0.410400  0.333500  0.057400  1.0  0.0956
  H  H40  1  0.013200  0.388200  0.001000  1.0  0.1052
  H  H41  1  0.115200  0.377800  0.925000  1.0  0.0957
  H  H42  1  0.942700  0.443000  0.855500  1.0  0.0686
  H  H43  1  0.950100  0.249500  0.856000  1.0  0.1186
  H  H44  1  0.655900  0.196100  0.745200  1.0  0.1148
  H  H45  1  0.654600  0.392200  0.748400  1.0  0.0672
  H  H46  1  0.958100  0.881500  0.851600  1.0  0.0774
  H  H47  1  0.964800  0.076100  0.852000  1.0  0.1256
  H  H48  1  0.652800  0.017400  0.747600  1.0  0.1075
  H  H49  1  0.673800  0.826900  0.745400  1.0  0.0652
  H  H50  1  0.933400  0.496600  0.372200  1.0  0.3195
  H  H51  1  0.132300  0.390900  0.370800  1.0  0.1249
  H  H52  1  0.239400  0.503600  0.346800  1.0  0.1154
  H  H53  1  0.988600  0.679500  0.481100  1.0  0.1225
  H  H54  1  0.089600  0.666500  0.557400  1.0  0.0953
  H  H55  1  0.486800  0.611800  0.501000  1.0  0.1046
  H  H56  1  0.384800  0.622200  0.425000  1.0  0.0954
  H  H57  1  0.557300  0.557000  0.355500  1.0  0.0691
  H  H58  1  0.549900  0.750500  0.356000  1.0  0.1182
  H  H59  1  0.844100  0.803900  0.245200  1.0  0.1154
  H  H60  1  0.845400  0.607800  0.248400  1.0  0.0671
  H  H61  1  0.541900  0.118500  0.351600  1.0  0.0771
  H  H62  1  0.535200  0.923900  0.352000  1.0  0.125
  H  H63  1  0.847200  0.982600  0.247600  1.0  0.1076
  H  H64  1  0.826200  0.173100  0.245400  1.0  0.0654
  C  C65  1  0.577900  0.406300  0.199190  1.0  0.7112
  C  C66  1  0.631600  0.455900  0.150700  1.0  -0.1055
  C  C67  1  0.678000  0.649300  0.053800  1.0  -0.2189
  C  C68  1  0.588200  0.665000  0.014800  1.0  -0.0567
  C  C69  1  0.650400  0.658700  0.969200  1.0  -0.0271
  C  C70  1  0.798600  0.641300  0.962700  1.0  -0.1222
  C  C71  1  0.886900  0.625700  0.002800  1.0  -0.041
  C  C72  1  0.825300  0.631100  0.048300  1.0  -0.0459
  C  C73  1  0.867700  0.639500  0.913600  1.0  0.691
  C  C74  1  0.116000  0.607400  0.167200  1.0  0.1877
  C  C75  1  0.111000  0.724000  0.166800  1.0  -0.1717
  C  C76  1  0.196000  0.802600  0.200000  1.0  0.083
  C  C77  1  0.283900  0.755600  0.231700  1.0  -0.1731
  C  C78  1  0.283800  0.636800  0.229800  1.0  0.1844
  C  C79  1  0.104500  0.091400  0.170500  1.0  0.168
  C  C80  1  0.101100  0.973500  0.169600  1.0  -0.2001
  C  C81  1  0.193100  0.928700  0.199800  1.0  0.1122
  C  C82  1  0.280300  0.007200  0.230900  1.0  -0.1981
  C  C83  1  0.270700  0.124000  0.231000  1.0  0.1902
  C  C84  1  0.922100  0.593700  0.699190  1.0  0.7116
  C  C85  1  0.868400  0.544100  0.650700  1.0  -0.1048
  C  C86  1  0.822000  0.350700  0.553800  1.0  -0.2194
  C  C87  1  0.911800  0.335000  0.514800  1.0  -0.0591
  C  C88  1  0.849600  0.341300  0.469200  1.0  -0.028
  C  C89  1  0.701400  0.358700  0.462700  1.0  -0.1212
  C  C90  1  0.613100  0.374300  0.502800  1.0  -0.0414
  C  C91  1  0.674700  0.368900  0.548300  1.0  -0.0456
  C  C92  1  0.632300  0.360500  0.413600  1.0  0.6872
  C  C93  1  0.384000  0.392600  0.667200  1.0  0.1881
  C  C94  1  0.389000  0.276000  0.666800  1.0  -0.1721
  C  C95  1  0.304000  0.197400  0.700000  1.0  0.0841
  C  C96  1  0.216100  0.244400  0.731700  1.0  -0.1736
  C  C97  1  0.216200  0.363200  0.729800  1.0  0.1844
  C  C98  1  0.395500  0.908600  0.670500  1.0  0.1673
  C  C99  1  0.398900  0.026500  0.669600  1.0  -0.1998
  C  C100  1  0.306900  0.071300  0.699800  1.0  0.1126
  C  C101  1  0.219700  0.992800  0.730900  1.0  -0.1987
  C  C102  1  0.229300  0.876000  0.731000  1.0  0.1905
  C  C103  1  0.422100  0.593700  0.800810  1.0  0.7146
  C  C104  1  0.368400  0.544100  0.849300  1.0  -0.1052
  C  C105  1  0.322000  0.350700  0.946200  1.0  -0.2197
  C  C106  1  0.411800  0.335000  0.985200  1.0  -0.0592
  C  C107  1  0.349600  0.341300  0.030800  1.0  -0.028
  C  C108  1  0.201400  0.358700  0.037300  1.0  -0.1209
  C  C109  1  0.113100  0.374300  0.997200  1.0  -0.0415
  C  C110  1  0.174700  0.368900  0.951700  1.0  -0.0464
  C  C111  1  0.132300  0.360500  0.086400  1.0  0.6856
  C  C112  1  0.884000  0.392600  0.832800  1.0  0.1883
  C  C113  1  0.889000  0.276000  0.833200  1.0  -0.1723
  C  C114  1  0.804000  0.197400  0.800000  1.0  0.0847
  C  C115  1  0.716100  0.244400  0.768300  1.0  -0.174
  C  C116  1  0.716200  0.363200  0.770200  1.0  0.1838
  C  C117  1  0.895500  0.908600  0.829500  1.0  0.1672
  C  C118  1  0.898900  0.026500  0.830400  1.0  -0.2004
  C  C119  1  0.806900  0.071300  0.800200  1.0  0.1122
  C  C120  1  0.719700  0.992800  0.769100  1.0  -0.1986
  C  C121  1  0.729300  0.876000  0.769000  1.0  0.1897
  C  C122  1  0.077900  0.406300  0.300810  1.0  0.7128
  C  C123  1  0.131600  0.455900  0.349300  1.0  -0.1056
  C  C124  1  0.178000  0.649300  0.446200  1.0  -0.2196
  C  C125  1  0.088200  0.665000  0.485200  1.0  -0.0575
  C  C126  1  0.150400  0.658700  0.530800  1.0  -0.0271
  C  C127  1  0.298600  0.641300  0.537300  1.0  -0.1229
  C  C128  1  0.386900  0.625700  0.497200  1.0  -0.0412
  C  C129  1  0.325300  0.631100  0.451700  1.0  -0.0465
  C  C130  1  0.367700  0.639500  0.586400  1.0  0.6889
  C  C131  1  0.616000  0.607400  0.332800  1.0  0.1881
  C  C132  1  0.611000  0.724000  0.333200  1.0  -0.1721
  C  C133  1  0.696000  0.802600  0.300000  1.0  0.0831
  C  C134  1  0.783900  0.755600  0.268300  1.0  -0.1736
  C  C135  1  0.783800  0.636800  0.270200  1.0  0.1835
  C  C136  1  0.604500  0.091400  0.329500  1.0  0.1669
  C  C137  1  0.601100  0.973500  0.330400  1.0  -0.2014
  C  C138  1  0.693100  0.928700  0.300200  1.0  0.1117
  C  C139  1  0.780300  0.007200  0.269100  1.0  -0.1979
  C  C140  1  0.770700  0.124000  0.269000  1.0  0.1898
  S  S141  1  0.601100  0.659100  0.112140  1.0  1.2434
  S  S142  1  0.898900  0.340900  0.612140  1.0  1.2418
  S  S143  1  0.398900  0.340900  0.887860  1.0  1.2422
  S  S144  1  0.101100  0.659100  0.387860  1.0  1.2446
  N  N145  1  0.533600  0.527200  0.130200  1.0  -0.5571
  N  N146  1  0.199800  0.563300  0.198250  1.0  -0.3626
  N  N147  1  0.189700  0.170400  0.200430  1.0  -0.3565
  N  N148  1  0.966400  0.472800  0.630200  1.0  -0.5606
  N  N149  1  0.300200  0.436700  0.698250  1.0  -0.3641
  N  N150  1  0.310300  0.829600  0.700430  1.0  -0.3566
  N  N151  1  0.466400  0.472800  0.869800  1.0  -0.5603
  N  N152  1  0.800200  0.436700  0.801750  1.0  -0.364
  N  N153  1  0.810300  0.829600  0.799570  1.0  -0.3567
  N  N154  1  0.033600  0.527200  0.369800  1.0  -0.5571
  N  N155  1  0.699800  0.563300  0.301750  1.0  -0.3623
  N  N156  1  0.689700  0.170400  0.299570  1.0  -0.3566
  O  O157  1  0.443300  0.406600  0.213270  1.0  -0.6112
  O  O158  1  0.678700  0.370200  0.223140  1.0  -0.6252
  O  O159  1  0.467400  0.707900  0.108100  1.0  -0.5787
  O  O160  1  0.731700  0.713000  0.141600  1.0  -0.6088
  O  O161  1  0.773500  0.630300  0.878610  1.0  -0.6434
  O  O162  1  0.012100  0.645400  0.910140  1.0  -0.6031
  O  O163  1  0.056700  0.593400  0.713270  1.0  -0.6116
  O  O164  1  0.821300  0.629800  0.723140  1.0  -0.6242
  O  O165  1  0.032600  0.292100  0.608100  1.0  -0.5802
  O  O166  1  0.768300  0.287000  0.641600  1.0  -0.6089
  O  O167  1  0.726500  0.369700  0.378610  1.0  -0.6439
  O  O168  1  0.487900  0.354600  0.410140  1.0  -0.6037
  O  O169  1  0.556700  0.593400  0.786730  1.0  -0.612
  O  O170  1  0.321300  0.629800  0.776860  1.0  -0.6241
  O  O171  1  0.532600  0.292100  0.891900  1.0  -0.581
  O  O172  1  0.268300  0.287000  0.858400  1.0  -0.6093
  O  O173  1  0.226500  0.369700  0.121390  1.0  -0.6429
  O  O174  1  0.987900  0.354600  0.089860  1.0  -0.6029
  O  O175  1  0.943300  0.406600  0.286730  1.0  -0.6122
  O  O176  1  0.178700  0.370200  0.276860  1.0  -0.6252
  O  O177  1  0.967400  0.707900  0.391900  1.0  -0.5789
  O  O178  1  0.231700  0.713000  0.358400  1.0  -0.6096
  O  O179  1  0.273500  0.630300  0.621390  1.0  -0.6427
  O  O180  1  0.512100  0.645400  0.589860  1.0  -0.6029
