# generated using pymatgen
data_PrH4C7(NO3)2
_symmetry_space_group_name_H-M   'P 1'
_cell_length_a   10.37790000
_cell_length_b   11.38290000
_cell_length_c   22.38780000
_cell_angle_alpha   90.00000000
_cell_angle_beta   97.39900000
_cell_angle_gamma   90.00000000
_symmetry_Int_Tables_number   1
_chemical_formula_structural   PrH4C7(NO3)2
_chemical_formula_sum   'Pr8 H32 C56 N16 O48'
_cell_volume   2622.66299925
_cell_formula_units_Z   8
loop_
 _symmetry_equiv_pos_site_id
 _symmetry_equiv_pos_as_xyz
  1  'x, y, z'
loop_
 _atom_site_type_symbol
 _atom_site_label
 _atom_site_symmetry_multiplicity
 _atom_site_fract_x
 _atom_site_fract_y
 _atom_site_fract_z
 _atom_site_occupancy
 _atom_site_charge
  Pr  Pr1  1  0.262240  0.081240  0.064690  1.0  2.1784
  Pr  Pr2  1  0.891490  0.308500  0.274670  1.0  2.165
  Pr  Pr3  1  0.237760  0.581240  0.435310  1.0  2.1755
  Pr  Pr4  1  0.608510  0.808500  0.225330  1.0  2.1648
  Pr  Pr5  1  0.737760  0.918760  0.935310  1.0  2.1755
  Pr  Pr6  1  0.108510  0.691500  0.725330  1.0  2.1648
  Pr  Pr7  1  0.762240  0.418760  0.564690  1.0  2.1785
  Pr  Pr8  1  0.391490  0.191500  0.774670  1.0  2.1649
  H  H9  1  0.204300  0.225900  0.413000  1.0  0.1628
  H  H10  1  0.093300  0.131800  0.409400  1.0  0.1803
  H  H11  1  0.238800  0.092900  0.424000  1.0  0.1502
  H  H12  1  0.884200  0.175900  0.731000  1.0  0.13
  H  H13  1  0.988400  0.089100  0.711500  1.0  0.1557
  H  H14  1  0.014300  0.224800  0.712100  1.0  0.1646
  H  H15  1  0.336200  0.023000  0.336100  1.0  0.3408
  H  H16  1  0.886400  0.124000  0.838300  1.0  0.3042
  H  H17  1  0.295700  0.725900  0.087000  1.0  0.1625
  H  H18  1  0.406700  0.631800  0.090600  1.0  0.1804
  H  H19  1  0.261200  0.592900  0.076000  1.0  0.1485
  H  H20  1  0.615800  0.675900  0.769000  1.0  0.1303
  H  H21  1  0.511600  0.589100  0.788500  1.0  0.1573
  H  H22  1  0.485700  0.724800  0.787900  1.0  0.1634
  H  H23  1  0.163800  0.523000  0.163900  1.0  0.342
  H  H24  1  0.613600  0.624000  0.661700  1.0  0.3047
  H  H25  1  0.795700  0.774100  0.587000  1.0  0.1636
  H  H26  1  0.906700  0.868200  0.590600  1.0  0.1807
  H  H27  1  0.761200  0.907100  0.576000  1.0  0.149
  H  H28  1  0.115800  0.824100  0.269000  1.0  0.1305
  H  H29  1  0.011600  0.910900  0.288500  1.0  0.1587
  H  H30  1  0.985700  0.775200  0.287900  1.0  0.1637
  H  H31  1  0.663800  0.977000  0.663900  1.0  0.3425
  H  H32  1  0.113600  0.876000  0.161700  1.0  0.3048
  H  H33  1  0.704300  0.274100  0.913000  1.0  0.164
  H  H34  1  0.593300  0.368200  0.909400  1.0  0.1807
  H  H35  1  0.738800  0.407100  0.924000  1.0  0.1498
  H  H36  1  0.384200  0.324100  0.231000  1.0  0.13
  H  H37  1  0.488400  0.410900  0.211500  1.0  0.1569
  H  H38  1  0.514300  0.275200  0.212100  1.0  0.1643
  H  H39  1  0.836200  0.477000  0.836100  1.0  0.3416
  H  H40  1  0.386400  0.376000  0.338300  1.0  0.304
  C  C41  1  0.083100  0.179600  0.180700  1.0  0.7343
  C  C42  1  0.152700  0.140000  0.238680  1.0  0.0188
  C  C43  1  0.257600  0.065400  0.252930  1.0  -0.0815
  C  C44  1  0.339200  0.988700  0.218310  1.0  0.742
  C  C45  1  0.188100  0.131400  0.336200  1.0  0.4733
  C  C46  1  0.180400  0.146900  0.401400  1.0  -0.4548
  C  C47  1  0.304800  0.151700  0.912820  1.0  0.7903
  C  C48  1  0.172800  0.148700  0.877240  1.0  0.0517
  C  C49  1  0.051900  0.130600  0.894430  1.0  -0.0722
  C  C50  1  0.995500  0.117200  0.951530  1.0  0.7851
  C  C51  1  0.037300  0.153500  0.795420  1.0  0.4789
  C  C52  1  0.975600  0.161600  0.731900  1.0  -0.4735
  C  C53  1  0.764400  0.040900  0.285480  1.0  0.5359
  C  C54  1  0.703800  0.087000  0.222770  1.0  0.5378
  C  C55  1  0.416900  0.679600  0.319300  1.0  0.7354
  C  C56  1  0.347300  0.640000  0.261320  1.0  0.0177
  C  C57  1  0.242400  0.565400  0.247070  1.0  -0.0823
  C  C58  1  0.160800  0.488700  0.281690  1.0  0.7422
  C  C59  1  0.311900  0.631400  0.163800  1.0  0.4758
  C  C60  1  0.319600  0.646900  0.098600  1.0  -0.4553
  C  C61  1  0.195200  0.651700  0.587180  1.0  0.7892
  C  C62  1  0.327200  0.648700  0.622760  1.0  0.0526
  C  C63  1  0.448100  0.630600  0.605570  1.0  -0.0731
  C  C64  1  0.504500  0.617200  0.548470  1.0  0.7898
  C  C65  1  0.462700  0.653500  0.704580  1.0  0.4804
  C  C66  1  0.524400  0.661600  0.768100  1.0  -0.4731
  C  C67  1  0.735600  0.540900  0.214520  1.0  0.5358
  C  C68  1  0.796200  0.587000  0.277230  1.0  0.5366
  C  C69  1  0.916900  0.820400  0.819300  1.0  0.7345
  C  C70  1  0.847300  0.860000  0.761320  1.0  0.018
  C  C71  1  0.742400  0.934600  0.747070  1.0  -0.0824
  C  C72  1  0.660800  0.011300  0.781690  1.0  0.7424
  C  C73  1  0.811900  0.868600  0.663800  1.0  0.475
  C  C74  1  0.819600  0.853100  0.598600  1.0  -0.455
  C  C75  1  0.695200  0.848300  0.087180  1.0  0.7893
  C  C76  1  0.827200  0.851300  0.122760  1.0  0.0531
  C  C77  1  0.948100  0.869400  0.105570  1.0  -0.0729
  C  C78  1  0.004500  0.882800  0.048470  1.0  0.7911
  C  C79  1  0.962700  0.846500  0.204580  1.0  0.4808
  C  C80  1  0.024400  0.838400  0.268100  1.0  -0.4727
  C  C81  1  0.235600  0.959100  0.714520  1.0  0.5359
  C  C82  1  0.296200  0.913000  0.777230  1.0  0.5364
  C  C83  1  0.583100  0.320400  0.680700  1.0  0.7347
  C  C84  1  0.652700  0.360000  0.738680  1.0  0.0186
  C  C85  1  0.757600  0.434600  0.752930  1.0  -0.0815
  C  C86  1  0.839200  0.511300  0.718310  1.0  0.742
  C  C87  1  0.688100  0.368600  0.836200  1.0  0.4732
  C  C88  1  0.680400  0.353100  0.901400  1.0  -0.4554
  C  C89  1  0.804800  0.348300  0.412820  1.0  0.7905
  C  C90  1  0.672800  0.351300  0.377240  1.0  0.0523
  C  C91  1  0.551900  0.369400  0.394430  1.0  -0.0727
  C  C92  1  0.495500  0.382800  0.451530  1.0  0.7866
  C  C93  1  0.537300  0.346500  0.295420  1.0  0.4797
  C  C94  1  0.475600  0.338400  0.231900  1.0  -0.473
  C  C95  1  0.264400  0.459100  0.785480  1.0  0.5362
  C  C96  1  0.203800  0.413000  0.722770  1.0  0.5372
  N  N97  1  0.110200  0.179600  0.291320  1.0  -0.5551
  N  N98  1  0.276800  0.062600  0.314550  1.0  -0.2843
  N  N99  1  0.162300  0.162900  0.815670  1.0  -0.5452
  N  N100  1  0.969200  0.133500  0.841500  1.0  -0.2664
  N  N101  1  0.389800  0.679600  0.208680  1.0  -0.5539
  N  N102  1  0.223200  0.562600  0.185450  1.0  -0.2832
  N  N103  1  0.337700  0.662900  0.684330  1.0  -0.5451
  N  N104  1  0.530800  0.633500  0.658500  1.0  -0.2693
  N  N105  1  0.889800  0.820400  0.708680  1.0  -0.5536
  N  N106  1  0.723200  0.937400  0.685450  1.0  -0.2839
  N  N107  1  0.837700  0.837100  0.184330  1.0  -0.5446
  N  N108  1  0.030800  0.866500  0.158500  1.0  -0.2698
  N  N109  1  0.610200  0.320400  0.791320  1.0  -0.5551
  N  N110  1  0.776800  0.437400  0.814550  1.0  -0.2843
  N  N111  1  0.662300  0.337100  0.315670  1.0  -0.5449
  N  N112  1  0.469200  0.366500  0.341500  1.0  -0.2668
  O  O113  1  0.978800  0.234900  0.182480  1.0  -0.6182
  O  O114  1  0.128100  0.160100  0.132680  1.0  -0.7855
  O  O115  1  0.314400  0.980100  0.162170  1.0  -0.7967
  O  O116  1  0.426200  0.934200  0.250370  1.0  -0.6618
  O  O117  1  0.399200  0.179600  0.885070  1.0  -0.6669
  O  O118  1  0.319500  0.124200  0.967080  1.0  -0.8465
  O  O119  1  0.062800  0.133800  0.000830  1.0  -0.704
  O  O120  1  0.875900  0.091900  0.945560  1.0  -0.7329
  O  O121  1  0.841900  0.108200  0.315860  1.0  -0.6375
  O  O122  1  0.732000  0.940400  0.300800  1.0  -0.6175
  O  O123  1  0.731000  0.189600  0.209690  1.0  -0.6216
  O  O124  1  0.631400  0.017900  0.190750  1.0  -0.6579
  O  O125  1  0.521200  0.734900  0.317520  1.0  -0.6221
  O  O126  1  0.371900  0.660100  0.367320  1.0  -0.7844
  O  O127  1  0.185600  0.480100  0.337830  1.0  -0.7951
  O  O128  1  0.073800  0.434200  0.249630  1.0  -0.6664
  O  O129  1  0.100800  0.679600  0.614930  1.0  -0.6649
  O  O130  1  0.180500  0.624200  0.532920  1.0  -0.8458
  O  O131  1  0.437200  0.633800  0.499170  1.0  -0.7045
  O  O132  1  0.624100  0.591900  0.554440  1.0  -0.7356
  O  O133  1  0.658100  0.608200  0.184140  1.0  -0.6379
  O  O134  1  0.768000  0.440400  0.199200  1.0  -0.6161
  O  O135  1  0.769000  0.689600  0.290310  1.0  -0.6214
  O  O136  1  0.868600  0.517900  0.309250  1.0  -0.6592
  O  O137  1  0.021200  0.765100  0.817520  1.0  -0.6237
  O  O138  1  0.871900  0.839900  0.867320  1.0  -0.7854
  O  O139  1  0.685600  0.019900  0.837830  1.0  -0.7956
  O  O140  1  0.573800  0.065800  0.749630  1.0  -0.6622
  O  O141  1  0.600800  0.820400  0.114930  1.0  -0.6643
  O  O142  1  0.680500  0.875800  0.032920  1.0  -0.8458
  O  O143  1  0.937200  0.866200  0.999170  1.0  -0.7051
  O  O144  1  0.124100  0.908100  0.054440  1.0  -0.7353
  O  O145  1  0.158100  0.891800  0.684140  1.0  -0.6377
  O  O146  1  0.268000  0.059600  0.699200  1.0  -0.6166
  O  O147  1  0.269000  0.810400  0.790310  1.0  -0.6214
  O  O148  1  0.368600  0.982100  0.809250  1.0  -0.6591
  O  O149  1  0.478800  0.265100  0.682480  1.0  -0.6185
  O  O150  1  0.628100  0.339900  0.632680  1.0  -0.7853
  O  O151  1  0.814400  0.519900  0.662170  1.0  -0.7963
  O  O152  1  0.926200  0.565800  0.750370  1.0  -0.6662
  O  O153  1  0.899200  0.320400  0.385070  1.0  -0.6667
  O  O154  1  0.819500  0.375800  0.467080  1.0  -0.8468
  O  O155  1  0.562800  0.366200  0.500830  1.0  -0.7034
  O  O156  1  0.375900  0.408100  0.445560  1.0  -0.7339
  O  O157  1  0.341900  0.391800  0.815860  1.0  -0.6368
  O  O158  1  0.232000  0.559600  0.800800  1.0  -0.6178
  O  O159  1  0.231000  0.310400  0.709690  1.0  -0.6217
  O  O160  1  0.131400  0.482100  0.690750  1.0  -0.6578
