# generated using pymatgen
data_CdH7C13NO4
_symmetry_space_group_name_H-M   'P 1'
_cell_length_a   9.24200000
_cell_length_b   9.72700000
_cell_length_c   18.20100000
_cell_angle_alpha   90.00000000
_cell_angle_beta   90.00000000
_cell_angle_gamma   105.11000000
_symmetry_Int_Tables_number   1
_chemical_formula_structural   CdH7C13NO4
_chemical_formula_sum   'Cd4 H28 C52 N4 O16'
_cell_volume   1579.64551052
_cell_formula_units_Z   4
loop_
 _symmetry_equiv_pos_site_id
 _symmetry_equiv_pos_as_xyz
  1  'x, y, z'
loop_
 _atom_site_type_symbol
 _atom_site_label
 _atom_site_symmetry_multiplicity
 _atom_site_fract_x
 _atom_site_fract_y
 _atom_site_fract_z
 _atom_site_occupancy
 _atom_site_charge
  Cd  Cd1  1  0.366370  0.061720  0.433730  1.0  0.9743
  Cd  Cd2  1  0.633630  0.438280  0.933730  1.0  0.9795
  Cd  Cd3  1  0.633630  0.938280  0.566270  1.0  0.9797
  Cd  Cd4  1  0.366370  0.561720  0.066270  1.0  0.9797
  H  H5  1  0.896100  0.783000  0.725700  1.0  0.1347
  H  H6  1  0.751000  0.477600  0.367300  1.0  0.1136
  H  H7  1  0.976100  0.605000  0.950900  1.0  0.0869
  H  H8  1  0.834800  0.721500  0.398400  1.0  0.1234
  H  H9  1  0.477700  0.204400  0.689600  1.0  0.1099
  H  H10  1  0.716500  0.606600  0.781800  1.0  0.0796
  H  H11  1  0.165200  0.778500  0.898400  1.0  0.1234
  H  H12  1  0.283500  0.893400  0.281800  1.0  0.079
  H  H13  1  0.249000  0.022400  0.867300  1.0  0.1127
  H  H14  1  0.869200  0.640600  0.166600  1.0  0.1121
  H  H15  1  0.023900  0.895000  0.450900  1.0  0.0868
  H  H16  1  0.103900  0.717000  0.225700  1.0  0.1351
  H  H17  1  0.522300  0.295600  0.189600  1.0  0.1098
  H  H18  1  0.130800  0.859400  0.666667  1.0  0.1126
  H  H19  1  0.283500  0.393400  0.218200  1.0  0.0796
  H  H20  1  0.716500  0.106600  0.718200  1.0  0.0802
  H  H21  1  0.522300  0.795600  0.310400  1.0  0.1102
  H  H22  1  0.023900  0.395000  0.049100  1.0  0.0867
  H  H23  1  0.165200  0.278500  0.601600  1.0  0.1233
  H  H24  1  0.869200  0.140600  0.333400  1.0  0.1123
  H  H25  1  0.896100  0.283000  0.774300  1.0  0.1351
  H  H26  1  0.976100  0.105000  0.549100  1.0  0.087
  H  H27  1  0.477700  0.704400  0.810400  1.0  0.1109
  H  H28  1  0.130800  0.359400  0.833400  1.0  0.1127
  H  H29  1  0.103900  0.217000  0.274300  1.0  0.1348
  H  H30  1  0.249000  0.522400  0.632700  1.0  0.1139
  H  H31  1  0.834800  0.221500  0.101600  1.0  0.1231
  H  H32  1  0.751000  0.977600  0.132700  1.0  0.1138
  C  C33  1  0.193000  0.856600  0.305990  1.0  0.1844
  C  C34  1  0.925800  0.753400  0.374020  1.0  -0.2101
  C  C35  1  0.828100  0.580000  0.272870  1.0  0.0064
  C  C36  1  0.171900  0.920000  0.772870  1.0  0.0062
  C  C37  1  0.805900  0.574100  0.196740  1.0  -0.0722
  C  C38  1  0.084900  0.751000  0.271530  1.0  -0.1892
  C  C39  1  0.915100  0.749000  0.771530  1.0  -0.188
  C  C40  1  0.689500  0.469200  0.165900  1.0  -0.1339
  C  C41  1  0.074200  0.746600  0.874020  1.0  -0.2116
  C  C42  1  0.310500  0.030800  0.665900  1.0  -0.134
  C  C43  1  0.375800  0.133800  0.785630  1.0  -0.1203
  C  C44  1  0.736800  0.475100  0.316710  1.0  -0.0486
  C  C45  1  0.663200  0.468200  0.084750  1.0  0.68
  C  C46  1  0.599600  0.365800  0.210340  1.0  -0.0081
  C  C47  1  0.336800  0.031800  0.584750  1.0  0.6806
  C  C48  1  0.040200  0.858100  0.405360  1.0  0.1727
  C  C49  1  0.263200  0.024900  0.816710  1.0  -0.0487
  C  C50  1  0.807000  0.643400  0.805990  1.0  0.1838
  C  C51  1  0.400400  0.134200  0.710340  1.0  -0.009
  C  C52  1  0.053000  0.804100  0.806030  1.0  0.1012
  C  C53  1  0.528800  0.251300  0.333660  1.0  0.7024
  C  C54  1  0.947000  0.695900  0.306030  1.0  0.1023
  C  C55  1  0.959800  0.641900  0.905360  1.0  0.1731
  C  C56  1  0.194100  0.925900  0.696740  1.0  -0.0739
  C  C57  1  0.471200  0.248700  0.833660  1.0  0.708
  C  C58  1  0.624200  0.366200  0.285630  1.0  -0.1201
  C  C59  1  0.471200  0.748700  0.666340  1.0  0.7053
  C  C60  1  0.336800  0.531800  0.915250  1.0  0.6791
  C  C61  1  0.959800  0.141900  0.594640  1.0  0.1736
  C  C62  1  0.736800  0.975100  0.183290  1.0  -0.0494
  C  C63  1  0.053000  0.304100  0.693970  1.0  0.1008
  C  C64  1  0.663200  0.968200  0.415250  1.0  0.68
  C  C65  1  0.084900  0.251000  0.228470  1.0  -0.1902
  C  C66  1  0.947000  0.195900  0.193970  1.0  0.1012
  C  C67  1  0.528800  0.751300  0.166340  1.0  0.7055
  C  C68  1  0.310500  0.530800  0.834100  1.0  -0.1326
  C  C69  1  0.599600  0.865800  0.289660  1.0  -0.007
  C  C70  1  0.074200  0.246600  0.625980  1.0  -0.2087
  C  C71  1  0.400400  0.634200  0.789660  1.0  -0.0089
  C  C72  1  0.805900  0.074100  0.303260  1.0  -0.0721
  C  C73  1  0.624200  0.866200  0.214370  1.0  -0.1209
  C  C74  1  0.375800  0.633800  0.714370  1.0  -0.1182
  C  C75  1  0.828100  0.080000  0.227130  1.0  0.0065
  C  C76  1  0.689500  0.969200  0.334100  1.0  -0.1325
  C  C77  1  0.040200  0.358100  0.094640  1.0  0.1732
  C  C78  1  0.193000  0.356600  0.194010  1.0  0.1845
  C  C79  1  0.263200  0.524900  0.683290  1.0  -0.0491
  C  C80  1  0.194100  0.425900  0.803260  1.0  -0.0722
  C  C81  1  0.171900  0.420000  0.727130  1.0  0.0059
  C  C82  1  0.915100  0.249000  0.728470  1.0  -0.1883
  C  C83  1  0.925800  0.253400  0.125980  1.0  -0.2086
  C  C84  1  0.807000  0.143400  0.694010  1.0  0.1844
  N  N85  1  0.173900  0.908400  0.372450  1.0  -0.3569
  N  N86  1  0.826100  0.591600  0.872450  1.0  -0.3547
  N  N87  1  0.173900  0.408400  0.127550  1.0  -0.3565
  N  N88  1  0.826100  0.091600  0.627550  1.0  -0.354
  O  O89  1  0.577300  0.338900  0.805620  1.0  -0.6017
  O  O90  1  0.231200  0.975100  0.542940  1.0  -0.593
  O  O91  1  0.768800  0.524900  0.042940  1.0  -0.5934
  O  O92  1  0.438200  0.249000  0.900810  1.0  -0.5813
  O  O93  1  0.468500  0.092100  0.561030  1.0  -0.6775
  O  O94  1  0.531500  0.407900  0.061030  1.0  -0.6789
  O  O95  1  0.561800  0.251000  0.400810  1.0  -0.5801
  O  O96  1  0.422700  0.161100  0.305620  1.0  -0.6018
  O  O97  1  0.422700  0.661100  0.194380  1.0  -0.6011
  O  O98  1  0.231200  0.475100  0.957060  1.0  -0.5914
  O  O99  1  0.468500  0.592100  0.938970  1.0  -0.6777
  O  O100  1  0.561800  0.751000  0.099190  1.0  -0.5802
  O  O101  1  0.768800  0.024900  0.457060  1.0  -0.5924
  O  O102  1  0.531500  0.907900  0.438970  1.0  -0.6782
  O  O103  1  0.438200  0.749000  0.599190  1.0  -0.579
  O  O104  1  0.577300  0.838900  0.694380  1.0  -0.6014
