# generated using pymatgen
data_CdH7C13NO4
_symmetry_space_group_name_H-M   'P 1'
_cell_length_a   9.23800000
_cell_length_b   9.74300000
_cell_length_c   18.22500000
_cell_angle_alpha   90.00000000
_cell_angle_beta   90.00000000
_cell_angle_gamma   104.94000000
_symmetry_Int_Tables_number   1
_chemical_formula_structural   CdH7C13NO4
_chemical_formula_sum   'Cd4 H28 C52 N4 O16'
_cell_volume   1584.90626287
_cell_formula_units_Z   4
loop_
 _symmetry_equiv_pos_site_id
 _symmetry_equiv_pos_as_xyz
  1  'x, y, z'
loop_
 _atom_site_type_symbol
 _atom_site_label
 _atom_site_symmetry_multiplicity
 _atom_site_fract_x
 _atom_site_fract_y
 _atom_site_fract_z
 _atom_site_occupancy
 _atom_site_charge
  Cd  Cd1  1  0.133150  0.438120  0.933920  1.0  0.9908
  Cd  Cd2  1  0.866850  0.061880  0.433920  1.0  0.9942
  Cd  Cd3  1  0.866850  0.561880  0.066080  1.0  0.9984
  Cd  Cd4  1  0.133150  0.938120  0.566080  1.0  0.997
  H  H5  1  0.632800  0.859500  0.666667  1.0  0.1088
  H  H6  1  0.977500  0.202200  0.689800  1.0  0.1056
  H  H7  1  0.749000  0.022600  0.867100  1.0  0.1119
  H  H8  1  0.216300  0.607000  0.782800  1.0  0.0763
  H  H9  1  0.395900  0.781500  0.725900  1.0  0.1326
  H  H10  1  0.665700  0.776500  0.897500  1.0  0.1218
  H  H11  1  0.475500  0.606000  0.951100  1.0  0.0844
  H  H12  1  0.367200  0.640500  0.166700  1.0  0.109
  H  H13  1  0.022500  0.297800  0.189800  1.0  0.1048
  H  H14  1  0.251000  0.477400  0.367100  1.0  0.1124
  H  H15  1  0.783700  0.893000  0.282800  1.0  0.0757
  H  H16  1  0.604100  0.718500  0.225900  1.0  0.1326
  H  H17  1  0.334300  0.723500  0.397500  1.0  0.1216
  H  H18  1  0.524500  0.894000  0.451100  1.0  0.0845
  H  H19  1  0.367200  0.140500  0.333333  1.0  0.1087
  H  H20  1  0.022500  0.797800  0.310200  1.0  0.1049
  H  H21  1  0.251000  0.977400  0.132900  1.0  0.1136
  H  H22  1  0.783700  0.393000  0.217200  1.0  0.0761
  H  H23  1  0.604100  0.218500  0.274100  1.0  0.1323
  H  H24  1  0.334300  0.223500  0.102500  1.0  0.121
  H  H25  1  0.524500  0.394000  0.048900  1.0  0.0848
  H  H26  1  0.632800  0.359500  0.833300  1.0  0.1093
  H  H27  1  0.977500  0.702200  0.810200  1.0  0.1049
  H  H28  1  0.749000  0.522600  0.632900  1.0  0.1135
  H  H29  1  0.216300  0.107000  0.717200  1.0  0.0768
  H  H30  1  0.395900  0.281500  0.774100  1.0  0.1325
  H  H31  1  0.665700  0.276500  0.602500  1.0  0.1213
  H  H32  1  0.475500  0.106000  0.548900  1.0  0.0849
  C  C33  1  0.672000  0.919500  0.772700  1.0  -0.0
  C  C34  1  0.695300  0.926000  0.697000  1.0  -0.0729
  C  C35  1  0.810300  0.030300  0.666667  1.0  -0.1344
  C  C36  1  0.900000  0.132700  0.710500  1.0  -0.0028
  C  C37  1  0.875400  0.132700  0.785600  1.0  -0.1183
  C  C38  1  0.763400  0.024800  0.816600  1.0  -0.054
  C  C39  1  0.307100  0.643200  0.806600  1.0  0.1887
  C  C40  1  0.415000  0.748100  0.771800  1.0  -0.2094
  C  C41  1  0.552900  0.803400  0.806300  1.0  0.1198
  C  C42  1  0.574200  0.745700  0.873500  1.0  -0.2128
  C  C43  1  0.459400  0.641800  0.905300  1.0  0.1708
  C  C44  1  0.837200  0.031500  0.584400  1.0  0.6608
  C  C45  1  0.971900  0.248700  0.834200  1.0  0.6565
  C  C46  1  0.328000  0.580500  0.272700  1.0  -0.0002
  C  C47  1  0.304700  0.574000  0.197000  1.0  -0.0545
  C  C48  1  0.189700  0.469700  0.166600  1.0  -0.1418
  C  C49  1  0.100000  0.367300  0.210500  1.0  -0.0067
  C  C50  1  0.124600  0.367300  0.285600  1.0  -0.1174
  C  C51  1  0.236600  0.475200  0.316600  1.0  -0.0545
  C  C52  1  0.692900  0.856800  0.306600  1.0  0.1893
  C  C53  1  0.585000  0.751900  0.271800  1.0  -0.2091
  C  C54  1  0.447100  0.696600  0.306300  1.0  0.1208
  C  C55  1  0.425800  0.754300  0.373500  1.0  -0.2116
  C  C56  1  0.540600  0.858200  0.405300  1.0  0.1702
  C  C57  1  0.162800  0.468500  0.084400  1.0  0.6612
  C  C58  1  0.028100  0.251300  0.334200  1.0  0.6548
  C  C59  1  0.328000  0.080500  0.227300  1.0  -0.0002
  C  C60  1  0.304700  0.074000  0.303000  1.0  -0.056
  C  C61  1  0.189700  0.969700  0.333400  1.0  -0.1411
  C  C62  1  0.100000  0.867300  0.289500  1.0  -0.0064
  C  C63  1  0.124600  0.867300  0.214400  1.0  -0.1186
  C  C64  1  0.236600  0.975200  0.183400  1.0  -0.0549
  C  C65  1  0.692900  0.356800  0.193400  1.0  0.1896
  C  C66  1  0.585000  0.251900  0.228200  1.0  -0.2101
  C  C67  1  0.447100  0.196600  0.193700  1.0  0.1191
  C  C68  1  0.425800  0.254300  0.126500  1.0  -0.2106
  C  C69  1  0.540600  0.358200  0.094700  1.0  0.1718
  C  C70  1  0.162800  0.968500  0.415600  1.0  0.6603
  C  C71  1  0.028100  0.751300  0.165800  1.0  0.658
  C  C72  1  0.672000  0.419500  0.727300  1.0  -0.0015
  C  C73  1  0.695300  0.426000  0.803000  1.0  -0.0544
  C  C74  1  0.810300  0.530300  0.833400  1.0  -0.1413
  C  C75  1  0.900000  0.632700  0.789500  1.0  -0.0068
  C  C76  1  0.875400  0.632700  0.714400  1.0  -0.1167
  C  C77  1  0.763400  0.524800  0.683400  1.0  -0.0548
  C  C78  1  0.307100  0.143200  0.693400  1.0  0.1894
  C  C79  1  0.415000  0.248100  0.728200  1.0  -0.2104
  C  C80  1  0.552900  0.303400  0.693700  1.0  0.1188
  C  C81  1  0.574200  0.245700  0.626500  1.0  -0.2118
  C  C82  1  0.459400  0.141800  0.594700  1.0  0.1722
  C  C83  1  0.837200  0.531500  0.915600  1.0  0.6593
  C  C84  1  0.971900  0.748700  0.665800  1.0  0.6582
  N  N85  1  0.326600  0.591200  0.872700  1.0  -0.3601
  N  N86  1  0.673400  0.908800  0.372700  1.0  -0.3623
  N  N87  1  0.673400  0.408800  0.127300  1.0  -0.3616
  N  N88  1  0.326600  0.091200  0.627300  1.0  -0.3617
  O  O89  1  0.968100  0.091500  0.561460  1.0  -0.6238
  O  O90  1  0.731600  0.976000  0.543000  1.0  -0.5661
  O  O91  1  0.077300  0.338400  0.805800  1.0  -0.6014
  O  O92  1  0.938200  0.248900  0.900700  1.0  -0.5826
  O  O93  1  0.031900  0.408500  0.061460  1.0  -0.6249
  O  O94  1  0.268400  0.524000  0.043000  1.0  -0.5659
  O  O95  1  0.922700  0.161600  0.305800  1.0  -0.6014
  O  O96  1  0.061800  0.251100  0.400700  1.0  -0.5822
  O  O97  1  0.031900  0.908500  0.438540  1.0  -0.625
  O  O98  1  0.268400  0.024000  0.457000  1.0  -0.5653
  O  O99  1  0.922700  0.661600  0.194200  1.0  -0.6008
  O  O100  1  0.061800  0.751100  0.099300  1.0  -0.5827
  O  O101  1  0.968100  0.591500  0.938540  1.0  -0.6249
  O  O102  1  0.731600  0.476000  0.957000  1.0  -0.5658
  O  O103  1  0.077300  0.838400  0.694200  1.0  -0.6014
  O  O104  1  0.938200  0.748900  0.599300  1.0  -0.581
