# generated using pymatgen
data_CdH7C13NO4
_symmetry_space_group_name_H-M   'P 1'
_cell_length_a   9.22110000
_cell_length_b   18.18480000
_cell_length_c   9.72270000
_cell_angle_alpha   90.00000000
_cell_angle_beta   104.99400000
_cell_angle_gamma   90.00000000
_symmetry_Int_Tables_number   1
_chemical_formula_structural   CdH7C13NO4
_chemical_formula_sum   'Cd4 H28 C52 N4 O16'
_cell_volume   1574.83155430
_cell_formula_units_Z   4
loop_
 _symmetry_equiv_pos_site_id
 _symmetry_equiv_pos_as_xyz
  1  'x, y, z'
loop_
 _atom_site_type_symbol
 _atom_site_label
 _atom_site_symmetry_multiplicity
 _atom_site_fract_x
 _atom_site_fract_y
 _atom_site_fract_z
 _atom_site_occupancy
 _atom_site_charge
  Cd  Cd1  1  0.866800  0.933900  0.061680  1.0  1.0045
  Cd  Cd2  1  0.133200  0.433900  0.438320  1.0  1.0046
  Cd  Cd3  1  0.133200  0.066100  0.938320  1.0  1.0072
  Cd  Cd4  1  0.866800  0.566100  0.561680  1.0  1.009
  H  H5  1  0.784600  0.782100  0.892600  1.0  0.0758
  H  H6  1  0.603300  0.725700  0.717800  1.0  0.1284
  H  H7  1  0.334800  0.898400  0.722600  1.0  0.1167
  H  H8  1  0.523400  0.951000  0.894900  1.0  0.0858
  H  H9  1  0.367800  0.666900  0.642100  1.0  0.1101
  H  H10  1  0.022800  0.689900  0.295800  1.0  0.1076
  H  H11  1  0.250800  0.867500  0.478000  1.0  0.1107
  H  H12  1  0.215400  0.282100  0.607400  1.0  0.0756
  H  H13  1  0.396700  0.225700  0.782200  1.0  0.1284
  H  H14  1  0.665200  0.398400  0.777400  1.0  0.1163
  H  H15  1  0.476600  0.451000  0.605100  1.0  0.0851
  H  H16  1  0.632200  0.166900  0.857900  1.0  0.1099
  H  H17  1  0.977200  0.189900  0.204200  1.0  0.1075
  H  H18  1  0.749200  0.367500  0.022000  1.0  0.1102
  H  H19  1  0.215400  0.217900  0.107400  1.0  0.0757
  H  H20  1  0.396700  0.274300  0.282200  1.0  0.1279
  H  H21  1  0.665200  0.101600  0.277400  1.0  0.1165
  H  H22  1  0.476600  0.049000  0.105100  1.0  0.0848
  H  H23  1  0.632200  0.333100  0.357900  1.0  0.11
  H  H24  1  0.977200  0.310100  0.704200  1.0  0.1073
  H  H25  1  0.749200  0.132500  0.522000  1.0  0.1115
  H  H26  1  0.784600  0.717900  0.392600  1.0  0.0756
  H  H27  1  0.603300  0.774300  0.217800  1.0  0.128
  H  H28  1  0.334800  0.601600  0.222600  1.0  0.1168
  H  H29  1  0.523400  0.549000  0.394900  1.0  0.0855
  H  H30  1  0.367800  0.833100  0.142100  1.0  0.1098
  H  H31  1  0.022800  0.810100  0.795800  1.0  0.1076
  H  H32  1  0.250800  0.632500  0.978000  1.0  0.1116
  C  C33  1  0.693700  0.806120  0.856500  1.0  0.181
  C  C34  1  0.584800  0.771630  0.751600  1.0  -0.1855
  C  C35  1  0.446700  0.806280  0.696700  1.0  0.1055
  C  C36  1  0.426000  0.874000  0.754200  1.0  -0.1795
  C  C37  1  0.539800  0.905470  0.858200  1.0  0.1687
  C  C38  1  0.328200  0.773020  0.580500  1.0  0.0211
  C  C39  1  0.305300  0.697040  0.574900  1.0  -0.0698
  C  C40  1  0.190200  0.666110  0.469900  1.0  -0.1445
  C  C41  1  0.162800  0.584820  0.468700  1.0  0.6724
  C  C42  1  0.100000  0.710730  0.366100  1.0  -0.0112
  C  C43  1  0.028200  0.833750  0.251400  1.0  0.6843
  C  C44  1  0.124100  0.785970  0.366400  1.0  -0.1279
  C  C45  1  0.236600  0.816850  0.475300  1.0  -0.0527
  C  C46  1  0.306300  0.306120  0.643500  1.0  0.1813
  C  C47  1  0.415200  0.271630  0.748400  1.0  -0.1855
  C  C48  1  0.553300  0.306280  0.803300  1.0  0.1044
  C  C49  1  0.574000  0.374000  0.745800  1.0  -0.1797
  C  C50  1  0.460200  0.405470  0.641800  1.0  0.1689
  C  C51  1  0.671800  0.273020  0.919500  1.0  0.0208
  C  C52  1  0.694700  0.197040  0.925100  1.0  -0.07
  C  C53  1  0.809800  0.166110  0.030100  1.0  -0.1442
  C  C54  1  0.837200  0.084820  0.031300  1.0  0.6723
  C  C55  1  0.900000  0.210730  0.133900  1.0  -0.0115
  C  C56  1  0.971800  0.333750  0.248600  1.0  0.6837
  C  C57  1  0.875900  0.285970  0.133600  1.0  -0.1275
  C  C58  1  0.763400  0.316850  0.024700  1.0  -0.0526
  C  C59  1  0.306300  0.193880  0.143500  1.0  0.1813
  C  C60  1  0.415200  0.228370  0.248400  1.0  -0.1855
  C  C61  1  0.553300  0.193720  0.303300  1.0  0.1044
  C  C62  1  0.574000  0.126000  0.245800  1.0  -0.18
  C  C63  1  0.460200  0.094530  0.141800  1.0  0.1673
  C  C64  1  0.671800  0.226980  0.419500  1.0  0.0208
  C  C65  1  0.694700  0.302960  0.425100  1.0  -0.07
  C  C66  1  0.809800  0.333890  0.530100  1.0  -0.1439
  C  C67  1  0.837200  0.415180  0.531300  1.0  0.6731
  C  C68  1  0.900000  0.289270  0.633900  1.0  -0.0117
  C  C69  1  0.971800  0.166250  0.748600  1.0  0.6834
  C  C70  1  0.875900  0.214030  0.633600  1.0  -0.128
  C  C71  1  0.763400  0.183150  0.524700  1.0  -0.0511
  C  C72  1  0.693700  0.693880  0.356500  1.0  0.181
  C  C73  1  0.584800  0.728370  0.251600  1.0  -0.186
  C  C74  1  0.446700  0.693720  0.196700  1.0  0.1053
  C  C75  1  0.426000  0.626000  0.254200  1.0  -0.1797
  C  C76  1  0.539800  0.594530  0.358200  1.0  0.1675
  C  C77  1  0.328200  0.726980  0.080500  1.0  0.021
  C  C78  1  0.305300  0.802960  0.074900  1.0  -0.0699
  C  C79  1  0.190200  0.833890  0.969900  1.0  -0.144
  C  C80  1  0.162800  0.915180  0.968700  1.0  0.6728
  C  C81  1  0.100000  0.789270  0.866100  1.0  -0.011
  C  C82  1  0.028200  0.666250  0.751400  1.0  0.6837
  C  C83  1  0.124100  0.714030  0.866400  1.0  -0.1293
  C  C84  1  0.236600  0.683150  0.975300  1.0  -0.0509
  N  N85  1  0.674300  0.872490  0.908700  1.0  -0.3609
  N  N86  1  0.325700  0.372490  0.591300  1.0  -0.3579
  N  N87  1  0.325700  0.127510  0.091300  1.0  -0.3587
  N  N88  1  0.674300  0.627510  0.408700  1.0  -0.3593
  O  O89  1  0.268800  0.542810  0.524800  1.0  -0.5901
  O  O90  1  0.031500  0.561300  0.408400  1.0  -0.6701
  O  O91  1  0.061900  0.901120  0.251200  1.0  -0.578
  O  O92  1  0.922100  0.805910  0.161800  1.0  -0.6068
  O  O93  1  0.731200  0.042810  0.975200  1.0  -0.5903
  O  O94  1  0.968500  0.061300  0.091600  1.0  -0.6673
  O  O95  1  0.938100  0.401120  0.248800  1.0  -0.5763
  O  O96  1  0.077900  0.305910  0.338200  1.0  -0.606
  O  O97  1  0.731200  0.457190  0.475200  1.0  -0.5898
  O  O98  1  0.968500  0.438700  0.591600  1.0  -0.6675
  O  O99  1  0.938100  0.098880  0.748800  1.0  -0.5764
  O  O100  1  0.077900  0.194090  0.838200  1.0  -0.6061
  O  O101  1  0.268800  0.957190  0.024800  1.0  -0.5904
  O  O102  1  0.031500  0.938700  0.908400  1.0  -0.6689
  O  O103  1  0.061900  0.598880  0.751200  1.0  -0.5775
  O  O104  1  0.922100  0.694090  0.661800  1.0  -0.6065
