# generated using pymatgen
data_Dy2H18(C5O4)3
_symmetry_space_group_name_H-M   'P 1'
_cell_length_a   7.91800000
_cell_length_b   8.44190000
_cell_length_c   19.61700000
_cell_angle_alpha   87.81650000
_cell_angle_beta   85.34000000
_cell_angle_gamma   62.03250000
_symmetry_Int_Tables_number   1
_chemical_formula_structural   Dy2H18(C5O4)3
_chemical_formula_sum   'Dy4 H36 C30 O24'
_cell_volume   1154.29312738
_cell_formula_units_Z   2
loop_
 _symmetry_equiv_pos_site_id
 _symmetry_equiv_pos_as_xyz
  1  'x, y, z'
loop_
 _atom_site_type_symbol
 _atom_site_label
 _atom_site_symmetry_multiplicity
 _atom_site_fract_x
 _atom_site_fract_y
 _atom_site_fract_z
 _atom_site_occupancy
 _atom_site_charge
  Dy  Dy1  1  0.794370  0.925500  0.487560  1.0  2.2898
  Dy  Dy2  1  0.280130  0.925500  0.012440  1.0  2.2891
  Dy  Dy3  1  0.205630  0.074500  0.512440  1.0  2.2894
  Dy  Dy4  1  0.719870  0.074500  0.987560  1.0  2.2898
  H  H5  1  0.246800  0.532600  0.321900  1.0  0.109
  H  H6  1  0.056900  0.550000  0.296000  1.0  0.1091
  H  H7  1  0.184300  0.806800  0.265000  1.0  0.0812
  H  H8  1  0.676000  0.530000  0.462100  1.0  0.1284
  H  H9  1  0.849900  0.441600  0.407600  1.0  0.1195
  H  H10  1  0.639900  0.454800  0.326500  1.0  0.0717
  H  H11  1  0.466200  0.546600  0.381100  1.0  0.0755
  H  H12  1  0.507500  0.757000  0.302800  1.0  0.1133
  H  H13  1  0.698600  0.710200  0.336600  1.0  0.1091
  H  H14  1  0.220600  0.532600  0.178100  1.0  0.1076
  H  H15  1  0.393100  0.550000  0.204000  1.0  0.1085
  H  H16  1  0.008900  0.806800  0.235000  1.0  0.0808
  H  H17  1  0.794000  0.530000  0.037900  1.0  0.13
  H  H18  1  0.708500  0.441600  0.092400  1.0  0.1163
  H  H19  1  0.905300  0.454800  0.173500  1.0  0.0732
  H  H20  1  0.987200  0.546600  0.118900  1.0  0.0765
  H  H21  1  0.735500  0.757000  0.197200  1.0  0.1119
  H  H22  1  0.591200  0.710200  0.163400  1.0  0.1109
  H  H23  1  0.753200  0.467400  0.678100  1.0  0.1076
  H  H24  1  0.943100  0.450000  0.704000  1.0  0.1085
  H  H25  1  0.815700  0.193200  0.735000  1.0  0.0814
  H  H26  1  0.324000  0.470000  0.537900  1.0  0.1302
  H  H27  1  0.150100  0.558400  0.592400  1.0  0.1173
  H  H28  1  0.360100  0.545200  0.673500  1.0  0.0721
  H  H29  1  0.533800  0.453400  0.618900  1.0  0.0772
  H  H30  1  0.492500  0.243000  0.697200  1.0  0.1128
  H  H31  1  0.301400  0.289800  0.663400  1.0  0.111
  H  H32  1  0.779400  0.467400  0.821900  1.0  0.1077
  H  H33  1  0.606900  0.450000  0.796000  1.0  0.1091
  H  H34  1  0.991100  0.193200  0.765000  1.0  0.0821
  H  H35  1  0.206000  0.470000  0.962100  1.0  0.1286
  H  H36  1  0.291500  0.558400  0.907600  1.0  0.1199
  H  H37  1  0.094700  0.545200  0.826500  1.0  0.0722
  H  H38  1  0.012800  0.453400  0.881100  1.0  0.0759
  H  H39  1  0.264500  0.243000  0.802800  1.0  0.114
  H  H40  1  0.408800  0.289800  0.836600  1.0  0.1096
  C  C41  1  0.008200  0.725200  0.372500  1.0  0.7329
  C  C42  1  0.118700  0.617800  0.310100  1.0  -0.3361
  C  C43  1  0.752900  0.269000  0.444400  1.0  0.813
  C  C44  1  0.725900  0.450800  0.422700  1.0  -0.3682
  C  C45  1  0.591600  0.534000  0.365900  1.0  -0.0299
  C  C46  1  0.572200  0.718600  0.344900  1.0  -0.3408
  C  C47  1  0.460500  0.853400  0.400100  1.0  0.8115
  C  C48  1  0.266600  0.725200  0.127500  1.0  0.7356
  C  C49  1  0.263500  0.617800  0.189900  1.0  -0.3375
  C  C50  1  0.978100  0.269000  0.055600  1.0  0.8134
  C  C51  1  0.823300  0.450800  0.077300  1.0  -0.3689
  C  C52  1  0.874400  0.534000  0.134100  1.0  -0.029
  C  C53  1  0.709200  0.718600  0.155100  1.0  -0.3389
  C  C54  1  0.686100  0.853400  0.099900  1.0  0.8122
  C  C55  1  0.991800  0.274800  0.627500  1.0  0.7361
  C  C56  1  0.881300  0.382200  0.689900  1.0  -0.3385
  C  C57  1  0.247100  0.731000  0.555600  1.0  0.8141
  C  C58  1  0.274100  0.549200  0.577300  1.0  -0.3691
  C  C59  1  0.408400  0.466000  0.634100  1.0  -0.0282
  C  C60  1  0.427800  0.281400  0.655100  1.0  -0.3338
  C  C61  1  0.539500  0.146600  0.599900  1.0  0.8121
  C  C62  1  0.733400  0.274800  0.872500  1.0  0.7336
  C  C63  1  0.736500  0.382200  0.810100  1.0  -0.3384
  C  C64  1  0.021900  0.731000  0.944400  1.0  0.8137
  C  C65  1  0.176700  0.549200  0.922700  1.0  -0.3687
  C  C66  1  0.125600  0.466000  0.865900  1.0  -0.0288
  C  C67  1  0.290800  0.281400  0.844900  1.0  -0.3381
  C  C68  1  0.313900  0.146600  0.900100  1.0  0.8125
  C  C69  1  0.134600  0.730800  0.250000  1.0  -0.0306
  C  C70  1  0.865400  0.269200  0.750000  1.0  -0.0325
  O  O71  1  0.909200  0.892600  0.369610  1.0  -0.6667
  O  O72  1  0.011000  0.644800  0.429020  1.0  -0.7197
  O  O73  1  0.909600  0.155600  0.466980  1.0  -0.8545
  O  O74  1  0.619400  0.226200  0.441920  1.0  -0.6741
  O  O75  1  0.284900  0.907000  0.409090  1.0  -0.6769
  O  O76  1  0.541300  0.910200  0.439240  1.0  -0.8876
  O  O77  1  0.198200  0.892600  0.130390  1.0  -0.6672
  O  O78  1  0.344200  0.644800  0.070980  1.0  -0.7124
  O  O79  1  0.934800  0.155600  0.033020  1.0  -0.8548
  O  O80  1  0.154400  0.226200  0.058080  1.0  -0.6749
  O  O81  1  0.808100  0.907000  0.090910  1.0  -0.6762
  O  O82  1  0.548500  0.910200  0.060760  1.0  -0.8847
  O  O83  1  0.090800  0.107400  0.630390  1.0  -0.669
  O  O84  1  0.989000  0.355200  0.570980  1.0  -0.7106
  O  O85  1  0.090400  0.844400  0.533020  1.0  -0.8536
  O  O86  1  0.380600  0.773800  0.558080  1.0  -0.6747
  O  O87  1  0.715100  0.093000  0.590910  1.0  -0.6751
  O  O88  1  0.458700  0.089800  0.560760  1.0  -0.8937
  O  O89  1  0.801800  0.107400  0.869610  1.0  -0.669
  O  O90  1  0.655800  0.355200  0.929020  1.0  -0.721
  O  O91  1  0.065200  0.844400  0.966980  1.0  -0.853
  O  O92  1  0.845600  0.773800  0.941920  1.0  -0.6728
  O  O93  1  0.191900  0.093000  0.909090  1.0  -0.6759
  O  O94  1  0.451500  0.089800  0.939240  1.0  -0.8947
