# generated using pymatgen
data_CaH14C12O11
_symmetry_space_group_name_H-M   'P 1'
_cell_length_a   10.89840000
_cell_length_b   11.42600000
_cell_length_c   15.05900000
_cell_angle_alpha   90.00000000
_cell_angle_beta   90.00000000
_cell_angle_gamma   90.00000000
_symmetry_Int_Tables_number   1
_chemical_formula_structural   CaH14C12O11
_chemical_formula_sum   'Ca4 H56 C48 O44'
_cell_volume   1875.22375799
_cell_formula_units_Z   4
loop_
 _symmetry_equiv_pos_site_id
 _symmetry_equiv_pos_as_xyz
  1  'x, y, z'
loop_
 _atom_site_type_symbol
 _atom_site_label
 _atom_site_symmetry_multiplicity
 _atom_site_fract_x
 _atom_site_fract_y
 _atom_site_fract_z
 _atom_site_occupancy
 _atom_site_charge
  Ca  Ca1  1  0.205850  0.000000  0.500000  1.0  1.6113
  Ca  Ca2  1  0.705850  0.500000  0.500000  1.0  1.6113
  Ca  Ca3  1  0.794150  0.000000  0.000000  1.0  1.6095
  Ca  Ca4  1  0.294150  0.500000  0.000000  1.0  1.6095
  H  H5  1  0.251900  0.179000  0.356100  1.0  0.1504
  H  H6  1  0.356600  0.118000  0.125600  1.0  0.158
  H  H7  1  0.127800  0.120800  0.210600  1.0  0.1569
  H  H8  1  0.321000  0.977200  0.266700  1.0  0.1599
  H  H9  1  0.430400  0.269500  0.315500  1.0  0.1424
  H  H10  1  0.165100  0.274700  0.093100  1.0  0.1778
  H  H11  1  0.193600  0.169700  0.031200  1.0  0.1663
  H  H12  1  0.751900  0.679000  0.356100  1.0  0.1504
  H  H13  1  0.856600  0.618000  0.125600  1.0  0.158
  H  H14  1  0.627800  0.620800  0.210600  1.0  0.1569
  H  H15  1  0.821000  0.477200  0.266700  1.0  0.1599
  H  H16  1  0.930400  0.769500  0.315500  1.0  0.1424
  H  H17  1  0.665100  0.774700  0.093100  1.0  0.1778
  H  H18  1  0.693600  0.669700  0.031200  1.0  0.1663
  H  H19  1  0.748100  0.821000  0.856100  1.0  0.1509
  H  H20  1  0.643400  0.882000  0.625600  1.0  0.1589
  H  H21  1  0.872200  0.879200  0.710600  1.0  0.1555
  H  H22  1  0.679000  0.022800  0.766700  1.0  0.16
  H  H23  1  0.569600  0.730500  0.815500  1.0  0.1432
  H  H24  1  0.834900  0.725300  0.593100  1.0  0.1769
  H  H25  1  0.806400  0.830300  0.531200  1.0  0.1661
  H  H26  1  0.248100  0.321000  0.856100  1.0  0.1509
  H  H27  1  0.143400  0.382000  0.625600  1.0  0.1589
  H  H28  1  0.372200  0.379200  0.710600  1.0  0.1555
  H  H29  1  0.179000  0.522800  0.766700  1.0  0.16
  H  H30  1  0.069600  0.230500  0.815500  1.0  0.1432
  H  H31  1  0.334900  0.225300  0.593100  1.0  0.1769
  H  H32  1  0.306400  0.330300  0.531200  1.0  0.1661
  H  H33  1  0.748100  0.179000  0.143900  1.0  0.1509
  H  H34  1  0.643400  0.118000  0.374400  1.0  0.1601
  H  H35  1  0.872200  0.120800  0.289400  1.0  0.1554
  H  H36  1  0.679000  0.977200  0.233300  1.0  0.1603
  H  H37  1  0.569600  0.269500  0.184500  1.0  0.1441
  H  H38  1  0.834900  0.274700  0.406900  1.0  0.1771
  H  H39  1  0.806400  0.169700  0.468800  1.0  0.1672
  H  H40  1  0.248100  0.679000  0.143900  1.0  0.1509
  H  H41  1  0.143400  0.618000  0.374400  1.0  0.1601
  H  H42  1  0.372200  0.620800  0.289400  1.0  0.1554
  H  H43  1  0.179000  0.477200  0.233300  1.0  0.1603
  H  H44  1  0.069600  0.769500  0.184500  1.0  0.1441
  H  H45  1  0.334900  0.774700  0.406900  1.0  0.1771
  H  H46  1  0.306400  0.669700  0.468800  1.0  0.1672
  H  H47  1  0.251900  0.821000  0.643900  1.0  0.1498
  H  H48  1  0.356600  0.882000  0.874400  1.0  0.1588
  H  H49  1  0.127800  0.879200  0.789400  1.0  0.1567
  H  H50  1  0.321000  0.022800  0.733300  1.0  0.1596
  H  H51  1  0.430400  0.730500  0.684500  1.0  0.1435
  H  H52  1  0.165100  0.725300  0.906900  1.0  0.178
  H  H53  1  0.193600  0.830300  0.968800  1.0  0.166
  H  H54  1  0.751900  0.321000  0.643900  1.0  0.1498
  H  H55  1  0.856600  0.382000  0.874400  1.0  0.1588
  H  H56  1  0.627800  0.379200  0.789400  1.0  0.1567
  H  H57  1  0.821000  0.522800  0.733300  1.0  0.1596
  H  H58  1  0.930400  0.230500  0.684500  1.0  0.1435
  H  H59  1  0.665100  0.225300  0.906900  1.0  0.178
  H  H60  1  0.693600  0.330300  0.968800  1.0  0.166
  C  C61  1  0.316600  0.130300  0.335700  1.0  0.0777
  C  C62  1  0.288900  0.161800  0.147500  1.0  0.1037
  C  C63  1  0.201100  0.078800  0.195900  1.0  0.085
  C  C64  1  0.259600  0.033500  0.281400  1.0  0.0829
  C  C65  1  0.229100  0.225300  0.070800  1.0  0.1293
  C  C66  1  0.400500  0.206300  0.280300  1.0  0.0123
  C  C67  1  0.816600  0.630300  0.335700  1.0  0.0777
  C  C68  1  0.788900  0.661800  0.147500  1.0  0.1037
  C  C69  1  0.701100  0.578800  0.195900  1.0  0.085
  C  C70  1  0.759600  0.533500  0.281400  1.0  0.0829
  C  C71  1  0.729100  0.725300  0.070800  1.0  0.1293
  C  C72  1  0.900500  0.706300  0.280300  1.0  0.0123
  C  C73  1  0.683400  0.869700  0.835700  1.0  0.0782
  C  C74  1  0.711100  0.838200  0.647500  1.0  0.1034
  C  C75  1  0.798900  0.921200  0.695900  1.0  0.0866
  C  C76  1  0.740400  0.966500  0.781400  1.0  0.083
  C  C77  1  0.770900  0.774700  0.570800  1.0  0.1284
  C  C78  1  0.599500  0.793700  0.780300  1.0  0.0119
  C  C79  1  0.183400  0.369700  0.835700  1.0  0.0782
  C  C80  1  0.211100  0.338200  0.647500  1.0  0.1034
  C  C81  1  0.298900  0.421200  0.695900  1.0  0.0866
  C  C82  1  0.240400  0.466500  0.781400  1.0  0.083
  C  C83  1  0.270900  0.274700  0.570800  1.0  0.1284
  C  C84  1  0.099500  0.293700  0.780300  1.0  0.0119
  C  C85  1  0.683400  0.130300  0.164300  1.0  0.0803
  C  C86  1  0.711100  0.161800  0.352500  1.0  0.1046
  C  C87  1  0.798900  0.078800  0.304100  1.0  0.0883
  C  C88  1  0.740400  0.033500  0.218600  1.0  0.0831
  C  C89  1  0.770900  0.225300  0.429200  1.0  0.1288
  C  C90  1  0.599500  0.206300  0.219700  1.0  0.013
  C  C91  1  0.183400  0.630300  0.164300  1.0  0.0803
  C  C92  1  0.211100  0.661800  0.352500  1.0  0.1046
  C  C93  1  0.298900  0.578800  0.304100  1.0  0.0883
  C  C94  1  0.240400  0.533500  0.218600  1.0  0.0831
  C  C95  1  0.270900  0.725300  0.429200  1.0  0.1288
  C  C96  1  0.099500  0.706300  0.219700  1.0  0.013
  C  C97  1  0.316600  0.869700  0.664300  1.0  0.0807
  C  C98  1  0.288900  0.838200  0.852500  1.0  0.1037
  C  C99  1  0.201100  0.921200  0.804100  1.0  0.0865
  C  C100  1  0.259600  0.966500  0.718600  1.0  0.0845
  C  C101  1  0.229100  0.774700  0.929200  1.0  0.1299
  C  C102  1  0.400500  0.793700  0.719700  1.0  0.0122
  C  C103  1  0.816600  0.369700  0.664300  1.0  0.0807
  C  C104  1  0.788900  0.338200  0.852500  1.0  0.1037
  C  C105  1  0.701100  0.421200  0.804100  1.0  0.0865
  C  C106  1  0.759600  0.466500  0.718600  1.0  0.0845
  C  C107  1  0.729100  0.274700  0.929200  1.0  0.1299
  C  C108  1  0.900500  0.293700  0.719700  1.0  0.0122
  O  O109  1  0.332800  0.251300  0.207700  1.0  -0.2663
  O  O110  1  0.375400  0.083700  0.413200  1.0  -0.6002
  O  O111  1  0.170300  0.981100  0.339400  1.0  -0.5549
  O  O112  1  0.169400  0.982300  0.139800  1.0  -0.341
  O  O113  1  0.317000  0.295000  0.024100  1.0  -0.5353
  O  O114  1  0.832800  0.751300  0.207700  1.0  -0.2663
  O  O115  1  0.875400  0.583700  0.413200  1.0  -0.6002
  O  O116  1  0.670300  0.481100  0.339400  1.0  -0.5549
  O  O117  1  0.669400  0.482300  0.139800  1.0  -0.341
  O  O118  1  0.817000  0.795000  0.024100  1.0  -0.5353
  O  O119  1  0.667200  0.748700  0.707700  1.0  -0.2663
  O  O120  1  0.624600  0.916300  0.913200  1.0  -0.6014
  O  O121  1  0.829700  0.018900  0.839400  1.0  -0.5532
  O  O122  1  0.830600  0.017700  0.639800  1.0  -0.3412
  O  O123  1  0.683000  0.705000  0.524100  1.0  -0.5386
  O  O124  1  0.167200  0.248700  0.707700  1.0  -0.2663
  O  O125  1  0.124600  0.416300  0.913200  1.0  -0.6014
  O  O126  1  0.329700  0.518900  0.839400  1.0  -0.5532
  O  O127  1  0.330600  0.517700  0.639800  1.0  -0.3412
  O  O128  1  0.183000  0.205000  0.524100  1.0  -0.5386
  O  O129  1  0.667200  0.251300  0.292300  1.0  -0.2656
  O  O130  1  0.624600  0.083700  0.086800  1.0  -0.5981
  O  O131  1  0.829700  0.981100  0.160600  1.0  -0.5544
  O  O132  1  0.830600  0.982300  0.360200  1.0  -0.3405
  O  O133  1  0.683000  0.295000  0.475900  1.0  -0.5379
  O  O134  1  0.167200  0.751300  0.292300  1.0  -0.2656
  O  O135  1  0.124600  0.583700  0.086800  1.0  -0.5981
  O  O136  1  0.329700  0.481100  0.160600  1.0  -0.5544
  O  O137  1  0.330600  0.482300  0.360200  1.0  -0.3405
  O  O138  1  0.183000  0.795000  0.475900  1.0  -0.5379
  O  O139  1  0.332800  0.748700  0.792300  1.0  -0.2661
  O  O140  1  0.375400  0.916300  0.586800  1.0  -0.5979
  O  O141  1  0.170300  0.018900  0.660600  1.0  -0.5538
  O  O142  1  0.169400  0.017700  0.860200  1.0  -0.3403
  O  O143  1  0.317000  0.705000  0.975900  1.0  -0.538
  O  O144  1  0.832800  0.248700  0.792300  1.0  -0.2661
  O  O145  1  0.875400  0.416300  0.586800  1.0  -0.5979
  O  O146  1  0.670300  0.518900  0.660600  1.0  -0.5538
  O  O147  1  0.669400  0.517700  0.860200  1.0  -0.3403
  O  O148  1  0.817000  0.205000  0.975900  1.0  -0.538
  O  O149  1  0.500000  0.138200  0.250000  1.0  -0.23
  O  O150  1  0.000000  0.638200  0.250000  1.0  -0.23
  O  O151  1  0.500000  0.861800  0.750000  1.0  -0.2285
  O  O152  1  0.000000  0.361800  0.750000  1.0  -0.2285
