# generated using pymatgen
data_Co3H44C60N4(O5F6)2
_symmetry_space_group_name_H-M   'P 1'
_cell_length_a   12.48400000
_cell_length_b   14.27500000
_cell_length_c   22.27200000
_cell_angle_alpha   92.71300000
_cell_angle_beta   90.00000000
_cell_angle_gamma   90.00000000
_symmetry_Int_Tables_number   1
_chemical_formula_structural   Co3H44C60N4(O5F6)2
_chemical_formula_sum   'Co6 H88 C120 N8 O20 F24'
_cell_volume   3964.62438384
_cell_formula_units_Z   2
loop_
 _symmetry_equiv_pos_site_id
 _symmetry_equiv_pos_as_xyz
  1  'x, y, z'
loop_
 _atom_site_type_symbol
 _atom_site_label
 _atom_site_symmetry_multiplicity
 _atom_site_fract_x
 _atom_site_fract_y
 _atom_site_fract_z
 _atom_site_occupancy
 _atom_site_charge
  Co  Co1  1  0.727920  0.189640  0.228350  1.0  0.8485
  Co  Co2  1  0.550400  0.000260  0.248750  1.0  1.0612
  Co  Co3  1  0.877830  0.191520  0.726320  1.0  0.8572
  Co  Co4  1  0.227920  0.810360  0.771650  1.0  0.8467
  Co  Co5  1  0.050400  0.999740  0.751250  1.0  1.0607
  Co  Co6  1  0.377830  0.808480  0.273680  1.0  0.8572
  H  H7  1  0.932600  0.312500  0.905600  1.0  0.0882
  H  H8  1  0.998900  0.401500  0.985800  1.0  0.1152
  H  H9  1  0.265800  0.247400  0.974600  1.0  0.1093
  H  H10  1  0.194700  0.160500  0.893700  1.0  0.1068
  H  H11  1  0.183500  0.225700  0.089200  1.0  0.0915
  H  H12  1  0.286800  0.137800  0.141100  1.0  0.1286
  H  H13  1  0.512800  0.331200  0.135100  1.0  0.0815
  H  H14  1  0.416100  0.419500  0.075300  1.0  0.1152
  H  H15  1  0.672700  0.314500  0.402600  1.0  0.1116
  H  H16  1  0.598000  0.401900  0.483100  1.0  0.1003
  H  H17  1  0.332900  0.238200  0.475000  1.0  0.1233
  H  H18  1  0.413900  0.145400  0.399600  1.0  0.1124
  H  H19  1  0.434500  0.220700  0.586300  1.0  0.1349
  H  H20  1  0.315200  0.132100  0.645800  1.0  0.1051
  H  H21  1  0.098300  0.340800  0.644700  1.0  0.1161
  H  H22  1  0.216600  0.427500  0.588300  1.0  0.1034
  H  H23  1  0.877000  0.270100  0.327500  1.0  0.1003
  H  H24  1  0.051000  0.293700  0.347900  1.0  0.1001
  H  H25  1  0.132300  0.113000  0.221200  1.0  0.1081
  H  H26  1  0.949800  0.090200  0.196800  1.0  0.0956
  H  H27  1  0.263500  0.172300  0.270500  1.0  0.1388
  H  H28  1  0.241000  0.207100  0.337800  1.0  0.1053
  H  H29  1  0.254300  0.339500  0.233900  1.0  0.0949
  H  H30  1  0.193800  0.376600  0.292600  1.0  0.0887
  H  H31  1  0.413200  0.316700  0.289700  1.0  0.1083
  H  H32  1  0.352800  0.345200  0.350400  1.0  0.0933
  H  H33  1  0.290500  0.503300  0.367900  1.0  0.1194
  H  H34  1  0.281200  0.661100  0.349900  1.0  0.0723
  H  H35  1  0.455500  0.623000  0.211400  1.0  0.0633
  H  H36  1  0.425900  0.464500  0.210800  1.0  0.1078
  H  H37  1  0.644300  0.374700  0.287400  1.0  0.0691
  H  H38  1  0.647600  0.532300  0.276900  1.0  0.1183
  H  H39  1  0.875000  0.490000  0.153100  1.0  0.1253
  H  H40  1  0.852800  0.332500  0.162100  1.0  0.078
  H  H41  1  0.725900  0.640700  0.160100  1.0  0.0926
  H  H42  1  0.697300  0.663400  0.228000  1.0  0.0838
  H  H43  1  0.875900  0.671800  0.251300  1.0  0.0587
  H  H44  1  0.905800  0.646100  0.185000  1.0  0.0583
  H  H45  1  0.830300  0.809000  0.226200  1.0  0.0927
  H  H46  1  0.865900  0.782400  0.160200  1.0  0.0968
  H  H47  1  0.985600  0.889800  0.292400  1.0  0.1399
  H  H48  1  0.160800  0.892600  0.313000  1.0  0.0712
  H  H49  1  0.237800  0.730600  0.177600  1.0  0.0639
  H  H50  1  0.063900  0.717700  0.145400  1.0  0.1362
  H  H51  1  0.432600  0.687500  0.094400  1.0  0.0872
  H  H52  1  0.498900  0.598500  0.014200  1.0  0.1153
  H  H53  1  0.765800  0.752600  0.025400  1.0  0.1104
  H  H54  1  0.694700  0.839500  0.106300  1.0  0.1067
  H  H55  1  0.683500  0.774300  0.910800  1.0  0.0919
  H  H56  1  0.786800  0.862200  0.858900  1.0  0.1283
  H  H57  1  0.012800  0.668800  0.864900  1.0  0.0824
  H  H58  1  0.916100  0.580500  0.924700  1.0  0.1153
  H  H59  1  0.172700  0.685500  0.597400  1.0  0.1111
  H  H60  1  0.098000  0.598100  0.516900  1.0  0.1002
  H  H61  1  0.832900  0.761800  0.525000  1.0  0.1233
  H  H62  1  0.913900  0.854600  0.600400  1.0  0.1127
  H  H63  1  0.934500  0.779300  0.413700  1.0  0.1354
  H  H64  1  0.815200  0.867900  0.354200  1.0  0.1054
  H  H65  1  0.598300  0.659200  0.355300  1.0  0.1169
  H  H66  1  0.716600  0.572500  0.411700  1.0  0.1031
  H  H67  1  0.377000  0.729900  0.672500  1.0  0.1001
  H  H68  1  0.551000  0.706300  0.652100  1.0  0.1011
  H  H69  1  0.632300  0.887000  0.778800  1.0  0.1079
  H  H70  1  0.449800  0.909800  0.803200  1.0  0.0963
  H  H71  1  0.763500  0.827700  0.729500  1.0  0.1363
  H  H72  1  0.741000  0.792900  0.662200  1.0  0.1062
  H  H73  1  0.754300  0.660500  0.766100  1.0  0.0936
  H  H74  1  0.693800  0.623400  0.707400  1.0  0.0885
  H  H75  1  0.913200  0.683300  0.710300  1.0  0.1083
  H  H76  1  0.852800  0.654800  0.649600  1.0  0.0935
  H  H77  1  0.790500  0.496700  0.632100  1.0  0.1197
  H  H78  1  0.781200  0.338900  0.650100  1.0  0.0723
  H  H79  1  0.955500  0.377000  0.788600  1.0  0.0635
  H  H80  1  0.925900  0.535500  0.789200  1.0  0.1066
  H  H81  1  0.144300  0.625300  0.712600  1.0  0.0688
  H  H82  1  0.147600  0.467700  0.723100  1.0  0.1185
  H  H83  1  0.375000  0.510000  0.846900  1.0  0.1253
  H  H84  1  0.352800  0.667500  0.837900  1.0  0.0779
  H  H85  1  0.225900  0.359300  0.839900  1.0  0.093
  H  H86  1  0.197300  0.336600  0.772000  1.0  0.084
  H  H87  1  0.375900  0.328200  0.748700  1.0  0.0658
  H  H88  1  0.405800  0.353900  0.815000  1.0  0.0602
  H  H89  1  0.330300  0.191000  0.773800  1.0  0.0918
  H  H90  1  0.365900  0.217600  0.839800  1.0  0.094
  H  H91  1  0.485600  0.110200  0.707600  1.0  0.1403
  H  H92  1  0.660800  0.107400  0.687000  1.0  0.072
  H  H93  1  0.737800  0.269400  0.822400  1.0  0.0641
  H  H94  1  0.563900  0.282300  0.854600  1.0  0.1353
  C  C95  1  0.006100  0.171600  0.838100  1.0  0.6982
  C  C96  1  0.052900  0.225800  0.891600  1.0  -0.1266
  C  C97  1  0.000600  0.298300  0.919700  1.0  -0.0033
  C  C98  1  0.040000  0.353500  0.967900  1.0  -0.2095
  C  C99  1  0.142100  0.335000  0.988400  1.0  0.0694
  C  C100  1  0.197800  0.261800  0.960700  1.0  -0.1449
  C  C101  1  0.154300  0.208400  0.912200  1.0  -0.0272
  C  C102  1  0.200500  0.393800  0.038600  1.0  -0.2441
  C  C103  1  0.277000  0.336800  0.074400  1.0  0.0459
  C  C104  1  0.252000  0.248400  0.097700  1.0  -0.1247
  C  C105  1  0.311700  0.195400  0.129000  1.0  -0.0359
  C  C106  1  0.414700  0.226500  0.144300  1.0  -0.0991
  C  C107  1  0.445000  0.309800  0.124000  1.0  -0.0387
  C  C108  1  0.387100  0.364700  0.089500  1.0  -0.1732
  C  C109  1  0.488800  0.171400  0.181500  1.0  0.6877
  C  C110  1  0.246000  0.475500  0.007000  1.0  0.6887
  C  C111  1  0.116600  0.432300  0.086000  1.0  0.6596
  C  C112  1  0.591900  0.166100  0.337200  1.0  0.6563
  C  C113  1  0.547800  0.225400  0.391900  1.0  -0.1246
  C  C114  1  0.605600  0.299200  0.417500  1.0  -0.0259
  C  C115  1  0.561000  0.350500  0.466300  1.0  -0.1421
  C  C116  1  0.462200  0.326400  0.490500  1.0  0.0421
  C  C117  1  0.402000  0.251300  0.462200  1.0  -0.1551
  C  C118  1  0.448400  0.198700  0.415500  1.0  -0.0201
  C  C119  1  0.414000  0.389200  0.543400  1.0  -0.3083
  C  C120  1  0.330200  0.329800  0.580300  1.0  0.0697
  C  C121  1  0.367100  0.243400  0.597400  1.0  -0.1573
  C  C122  1  0.294400  0.190800  0.633500  1.0  -0.033
  C  C123  1  0.195000  0.225400  0.650400  1.0  -0.1468
  C  C124  1  0.164400  0.315800  0.633200  1.0  -0.0186
  C  C125  1  0.235000  0.367200  0.598700  1.0  -0.1553
  C  C126  1  0.117800  0.166100  0.688300  1.0  0.6685
  C  C127  1  0.501000  0.426300  0.589700  1.0  0.6855
  C  C128  1  0.352000  0.470700  0.511500  1.0  0.6564
  C  C129  1  0.928100  0.239100  0.303500  1.0  0.1483
  C  C130  1  0.032600  0.251900  0.316300  1.0  -0.1986
  C  C131  1  0.111200  0.207600  0.285800  1.0  0.202
  C  C132  1  0.080600  0.147600  0.242600  1.0  -0.2041
  C  C133  1  0.969000  0.133600  0.227400  1.0  0.1507
  C  C134  1  0.223300  0.216600  0.296100  1.0  -0.2222
  C  C135  1  0.249100  0.334400  0.277000  1.0  -0.1359
  C  C136  1  0.356000  0.354400  0.307600  1.0  -0.202
  C  C137  1  0.368100  0.467300  0.292900  1.0  0.1262
  C  C138  1  0.320900  0.525700  0.333333  1.0  -0.2318
  C  C139  1  0.318000  0.622000  0.322400  1.0  0.1737
  C  C140  1  0.412000  0.599300  0.241100  1.0  0.176
  C  C141  1  0.405000  0.503300  0.243400  1.0  -0.1853
  C  C142  1  0.688600  0.398300  0.258200  1.0  0.1968
  C  C143  1  0.692000  0.493100  0.253500  1.0  -0.2331
  C  C144  1  0.762000  0.528900  0.214100  1.0  0.1481
  C  C145  1  0.824800  0.467800  0.179800  1.0  -0.2465
  C  C146  1  0.812000  0.373700  0.186100  1.0  0.1779
  C  C147  1  0.750100  0.634400  0.201100  1.0  -0.1856
  C  C148  1  0.855700  0.682200  0.210100  1.0  -0.0598
  C  C149  1  0.878500  0.769600  0.202000  1.0  -0.1688
  C  C150  1  0.998000  0.797000  0.218700  1.0  0.0904
  C  C151  1  0.033000  0.855000  0.268400  1.0  -0.1925
  C  C152  1  0.138700  0.857100  0.279100  1.0  0.1732
  C  C153  1  0.185400  0.762700  0.199900  1.0  0.2043
  C  C154  1  0.081000  0.751900  0.180700  1.0  -0.237
  C  C155  1  0.506100  0.828400  0.161900  1.0  0.6996
  C  C156  1  0.552900  0.774200  0.108400  1.0  -0.1241
  C  C157  1  0.500600  0.701700  0.080300  1.0  -0.0026
  C  C158  1  0.540000  0.646500  0.032100  1.0  -0.2069
  C  C159  1  0.642100  0.665000  0.011600  1.0  0.0695
  C  C160  1  0.697800  0.738200  0.039300  1.0  -0.1461
  C  C161  1  0.654300  0.791600  0.087800  1.0  -0.0258
  C  C162  1  0.700500  0.606200  0.961400  1.0  -0.2444
  C  C163  1  0.777000  0.663200  0.925600  1.0  0.0457
  C  C164  1  0.752000  0.751600  0.902300  1.0  -0.1278
  C  C165  1  0.811700  0.804600  0.871000  1.0  -0.0363
  C  C166  1  0.914700  0.773500  0.855700  1.0  -0.0937
  C  C167  1  0.945000  0.690200  0.876000  1.0  -0.0403
  C  C168  1  0.887100  0.635300  0.910500  1.0  -0.1737
  C  C169  1  0.988800  0.828600  0.818500  1.0  0.6871
  C  C170  1  0.746000  0.524500  0.993000  1.0  0.6879
  C  C171  1  0.616600  0.567700  0.914000  1.0  0.6589
  C  C172  1  0.091900  0.833900  0.662800  1.0  0.6557
  C  C173  1  0.047800  0.774600  0.608100  1.0  -0.1258
  C  C174  1  0.105600  0.700800  0.582500  1.0  -0.0248
  C  C175  1  0.061000  0.649500  0.533700  1.0  -0.1432
  C  C176  1  0.962200  0.673600  0.509500  1.0  0.0423
  C  C177  1  0.902000  0.748700  0.537800  1.0  -0.1572
  C  C178  1  0.948400  0.801300  0.584500  1.0  -0.0167
  C  C179  1  0.914000  0.610800  0.456600  1.0  -0.3088
  C  C180  1  0.830200  0.670200  0.419700  1.0  0.0693
  C  C181  1  0.867100  0.756600  0.402600  1.0  -0.1568
  C  C182  1  0.794400  0.809200  0.366500  1.0  -0.0314
  C  C183  1  0.695000  0.774600  0.349600  1.0  -0.1516
  C  C184  1  0.664400  0.684200  0.366800  1.0  -0.0198
  C  C185  1  0.735000  0.632800  0.401300  1.0  -0.1557
  C  C186  1  0.617800  0.833900  0.311700  1.0  0.6619
  C  C187  1  0.001000  0.573700  0.410300  1.0  0.6846
  C  C188  1  0.852000  0.529300  0.488500  1.0  0.6598
  C  C189  1  0.428100  0.760900  0.696500  1.0  0.1484
  C  C190  1  0.532600  0.748100  0.683700  1.0  -0.2005
  C  C191  1  0.611200  0.792400  0.714200  1.0  0.2023
  C  C192  1  0.580600  0.852400  0.757400  1.0  -0.1901
  C  C193  1  0.469000  0.866400  0.772600  1.0  0.15
  C  C194  1  0.723300  0.783400  0.703900  1.0  -0.2213
  C  C195  1  0.749100  0.665600  0.723000  1.0  -0.1363
  C  C196  1  0.856000  0.645600  0.692400  1.0  -0.203
  C  C197  1  0.868100  0.532700  0.707100  1.0  0.1268
  C  C198  1  0.820900  0.474300  0.666667  1.0  -0.2319
  C  C199  1  0.818000  0.378000  0.677600  1.0  0.1743
  C  C200  1  0.912000  0.400700  0.758900  1.0  0.1764
  C  C201  1  0.905000  0.496700  0.756600  1.0  -0.1839
  C  C202  1  0.188600  0.601700  0.741800  1.0  0.1955
  C  C203  1  0.192000  0.506900  0.746500  1.0  -0.2332
  C  C204  1  0.262000  0.471100  0.785900  1.0  0.1454
  C  C205  1  0.324800  0.532200  0.820200  1.0  -0.2486
  C  C206  1  0.312000  0.626300  0.813900  1.0  0.1799
  C  C207  1  0.250100  0.365600  0.798900  1.0  -0.1864
  C  C208  1  0.355700  0.317800  0.789900  1.0  -0.0594
  C  C209  1  0.378500  0.230400  0.798000  1.0  -0.1673
  C  C210  1  0.498000  0.203000  0.781300  1.0  0.0789
  C  C211  1  0.533000  0.145000  0.731600  1.0  -0.1924
  C  C212  1  0.638700  0.142900  0.720900  1.0  0.1711
  C  C213  1  0.685400  0.237300  0.800100  1.0  0.2044
  C  C214  1  0.581000  0.248100  0.819300  1.0  -0.2371
  N  N215  1  0.895300  0.181900  0.256500  1.0  -0.3276
  N  N216  1  0.362400  0.660300  0.277300  1.0  -0.3115
  N  N217  1  0.743800  0.338000  0.224000  1.0  -0.333
  N  N218  1  0.217100  0.813400  0.246200  1.0  -0.3312
  N  N219  1  0.395300  0.818100  0.743500  1.0  -0.3259
  N  N220  1  0.862400  0.339700  0.722700  1.0  -0.3112
  N  N221  1  0.243800  0.662000  0.776000  1.0  -0.3328
  N  N222  1  0.717100  0.186600  0.753800  1.0  -0.3316
  O  O223  1  0.053200  0.098800  0.821500  1.0  -0.5544
  O  O224  1  0.922900  0.200800  0.816100  1.0  -0.5725
  O  O225  1  0.571000  0.211400  0.200300  1.0  -0.6303
  O  O226  1  0.465300  0.090100  0.192100  1.0  -0.5448
  O  O227  1  0.535700  0.098900  0.318100  1.0  -0.546
  O  O228  1  0.678100  0.200100  0.317200  1.0  -0.5801
  O  O229  1  0.034900  0.212300  0.703500  1.0  -0.6224
  O  O230  1  0.143300  0.085000  0.697600  1.0  -0.5082
  O  O231  1  0.714600  0.037000  0.223700  1.0  -0.6271
  O  O232  1  0.889500  0.040200  0.724300  1.0  -0.6303
  O  O233  1  0.553200  0.901200  0.178500  1.0  -0.5535
  O  O234  1  0.422900  0.799200  0.183900  1.0  -0.5729
  O  O235  1  0.071000  0.788600  0.799700  1.0  -0.6302
  O  O236  1  0.965300  0.909900  0.807900  1.0  -0.5449
  O  O237  1  0.035700  0.901100  0.681900  1.0  -0.5459
  O  O238  1  0.178100  0.799900  0.682800  1.0  -0.5783
  O  O239  1  0.534900  0.787700  0.296500  1.0  -0.6222
  O  O240  1  0.643300  0.915000  0.302400  1.0  -0.5079
  O  O241  1  0.214600  0.963000  0.776300  1.0  -0.6262
  O  O242  1  0.389500  0.959800  0.275700  1.0  -0.6294
  F  F243  1  0.294900  0.541600  0.045600  1.0  -0.2292
  F  F244  1  0.187300  0.517700  0.971100  1.0  -0.16
  F  F245  1  0.337400  0.442800  0.973200  1.0  -0.2527
  F  F246  1  0.051000  0.371100  0.102300  1.0  -0.16
  F  F247  1  0.162200  0.470800  0.133900  1.0  -0.2089
  F  F248  1  0.056100  0.505400  0.065700  1.0  -0.2382
  F  F249  1  0.558500  0.492700  0.568500  1.0  -0.1891
  F  F250  1  0.450300  0.462300  0.639500  1.0  -0.2256
  F  F251  1  0.565300  0.357000  0.603800  1.0  -0.1946
  F  F252  1  0.329900  0.536900  0.555400  1.0  -0.2168
  F  F253  1  0.273200  0.446500  0.482700  1.0  -0.128
  F  F254  1  0.427500  0.516000  0.478000  1.0  -0.246
  F  F255  1  0.794900  0.458400  0.954400  1.0  -0.2311
  F  F256  1  0.687300  0.482300  0.028900  1.0  -0.1583
  F  F257  1  0.837400  0.557200  0.026800  1.0  -0.2534
  F  F258  1  0.551000  0.628900  0.897700  1.0  -0.1608
  F  F259  1  0.662200  0.529200  0.866100  1.0  -0.2098
  F  F260  1  0.556100  0.494600  0.934300  1.0  -0.2387
  F  F261  1  0.058500  0.507300  0.431500  1.0  -0.1892
  F  F262  1  0.950300  0.537700  0.360500  1.0  -0.2254
  F  F263  1  0.065300  0.643000  0.396200  1.0  -0.1939
  F  F264  1  0.829900  0.463100  0.444600  1.0  -0.2182
  F  F265  1  0.773200  0.553500  0.517300  1.0  -0.129
  F  F266  1  0.927500  0.484000  0.522000  1.0  -0.2468
