# generated using pymatgen
data_LaH3C7NO4
_symmetry_space_group_name_H-M   'P 1'
_cell_length_a   15.64600000
_cell_length_b   17.27620000
_cell_length_c   17.88610000
_cell_angle_alpha   77.90190000
_cell_angle_beta   64.06320000
_cell_angle_gamma   63.07530000
_symmetry_Int_Tables_number   1
_chemical_formula_structural   LaH3C7NO4
_chemical_formula_sum   'La8 H24 C56 N8 O32'
_cell_volume   3876.02897171
_cell_formula_units_Z   8
loop_
 _symmetry_equiv_pos_site_id
 _symmetry_equiv_pos_as_xyz
  1  'x, y, z'
loop_
 _atom_site_type_symbol
 _atom_site_label
 _atom_site_symmetry_multiplicity
 _atom_site_fract_x
 _atom_site_fract_y
 _atom_site_fract_z
 _atom_site_occupancy
 _atom_site_charge
  La  La1  1  0.527140  0.049980  0.171320  1.0  1.9192
  La  La2  1  0.201920  0.324280  0.013380  1.0  1.9709
  La  La3  1  0.748440  0.450020  0.328680  1.0  1.9152
  La  La4  1  0.539580  0.175720  0.486620  1.0  1.9707
  La  La5  1  0.472860  0.950020  0.828680  1.0  1.9197
  La  La6  1  0.798080  0.675720  0.986620  1.0  1.9711
  La  La7  1  0.251560  0.549980  0.671320  1.0  1.9174
  La  La8  1  0.460420  0.824280  0.513380  1.0  1.9698
  H  H9  1  0.194700  0.008200  0.432000  1.0  0.1118
  H  H10  1  0.061800  0.128600  0.403800  1.0  0.0978
  H  H11  1  0.104100  0.205200  0.280600  1.0  0.1151
  H  H12  1  0.875500  0.220500  0.144700  1.0  0.1095
  H  H13  1  0.951400  0.101400  0.060400  1.0  0.0978
  H  H14  1  0.124400  0.060400  0.962800  1.0  0.1108
  H  H15  1  0.634900  0.491800  0.068000  1.0  0.1109
  H  H16  1  0.594200  0.371400  0.096200  1.0  0.0995
  H  H17  1  0.589900  0.294800  0.219400  1.0  0.1151
  H  H18  1  0.240700  0.279500  0.355300  1.0  0.1093
  H  H19  1  0.113200  0.398600  0.439600  1.0  0.099
  H  H20  1  0.147600  0.439600  0.537200  1.0  0.1127
  H  H21  1  0.805300  0.991800  0.568000  1.0  0.1119
  H  H22  1  0.938200  0.871400  0.596200  1.0  0.099
  H  H23  1  0.895900  0.794800  0.719400  1.0  0.1151
  H  H24  1  0.124500  0.779500  0.855300  1.0  0.1092
  H  H25  1  0.048600  0.898600  0.939600  1.0  0.0974
  H  H26  1  0.875600  0.939600  0.037200  1.0  0.1121
  H  H27  1  0.365100  0.508200  0.932000  1.0  0.1115
  H  H28  1  0.405800  0.628600  0.903800  1.0  0.1002
  H  H29  1  0.410100  0.705200  0.780600  1.0  0.1157
  H  H30  1  0.759300  0.720500  0.644700  1.0  0.1098
  H  H31  1  0.886800  0.601400  0.560400  1.0  0.0997
  H  H32  1  0.852400  0.560400  0.462800  1.0  0.1116
  C  C33  1  0.403200  0.955000  0.345600  1.0  0.7004
  C  C34  1  0.311400  0.021600  0.328400  1.0  0.0761
  C  C35  1  0.210000  0.041400  0.383800  1.0  -0.118
  C  C36  1  0.130900  0.112200  0.366400  1.0  -0.1022
  C  C37  1  0.155800  0.157600  0.293400  1.0  -0.1204
  C  C38  1  0.258200  0.131800  0.239600  1.0  0.102
  C  C39  1  0.292900  0.171900  0.154900  1.0  0.6881
  C  C40  1  0.960400  0.326300  0.145300  1.0  0.6836
  C  C41  1  0.001100  0.249900  0.093900  1.0  0.0965
  C  C42  1  0.943300  0.204000  0.104800  1.0  -0.1256
  C  C43  1  0.988900  0.132800  0.054800  1.0  -0.0972
  C  C44  1  0.091700  0.108700  0.995900  1.0  -0.1216
  C  C45  1  0.143100  0.159900  0.988500  1.0  0.0757
  C  C46  1  0.254000  0.138400  0.931000  1.0  0.6858
  C  C47  1  0.703800  0.545000  0.154400  1.0  0.6983
  C  C48  1  0.661400  0.478400  0.171600  1.0  0.0758
  C  C49  1  0.635200  0.458600  0.116200  1.0  -0.1205
  C  C50  1  0.609500  0.387800  0.133600  1.0  -0.0978
  C  C51  1  0.606800  0.342400  0.206600  1.0  -0.1204
  C  C52  1  0.629600  0.368200  0.260400  1.0  0.1019
  C  C53  1  0.619700  0.328100  0.345100  1.0  0.6896
  C  C54  1  0.432000  0.173700  0.354700  1.0  0.685
  C  C55  1  0.344900  0.250100  0.406100  1.0  0.0963
  C  C56  1  0.252100  0.296000  0.395200  1.0  -0.1297
  C  C57  1  0.176500  0.367200  0.445200  1.0  -0.0966
  C  C58  1  0.196300  0.391300  0.504100  1.0  -0.1239
  C  C59  1  0.291500  0.340100  0.511500  1.0  0.0739
  C  C60  1  0.323400  0.361600  0.569000  1.0  0.6908
  C  C61  1  0.596800  0.045000  0.654400  1.0  0.6998
  C  C62  1  0.688600  0.978400  0.671600  1.0  0.0757
  C  C63  1  0.790000  0.958600  0.616200  1.0  -0.1175
  C  C64  1  0.869100  0.887800  0.633600  1.0  -0.1001
  C  C65  1  0.844200  0.842400  0.706600  1.0  -0.1197
  C  C66  1  0.741800  0.868200  0.760400  1.0  0.1021
  C  C67  1  0.707100  0.828100  0.845100  1.0  0.6889
  C  C68  1  0.039600  0.673700  0.854700  1.0  0.6825
  C  C69  1  0.998900  0.750100  0.906100  1.0  0.0964
  C  C70  1  0.056700  0.796000  0.895200  1.0  -0.1247
  C  C71  1  0.011100  0.867200  0.945200  1.0  -0.0941
  C  C72  1  0.908300  0.891300  0.004100  1.0  -0.1219
  C  C73  1  0.856900  0.840100  0.011500  1.0  0.0752
  C  C74  1  0.746000  0.861600  0.069000  1.0  0.6855
  C  C75  1  0.296200  0.455000  0.845600  1.0  0.7001
  C  C76  1  0.338600  0.521600  0.828400  1.0  0.0757
  C  C77  1  0.364800  0.541400  0.883800  1.0  -0.1231
  C  C78  1  0.390500  0.612200  0.866400  1.0  -0.0987
  C  C79  1  0.393200  0.657600  0.793400  1.0  -0.1209
  C  C80  1  0.370400  0.631800  0.739600  1.0  0.1021
  C  C81  1  0.380300  0.671900  0.654900  1.0  0.6892
  C  C82  1  0.568000  0.826300  0.645300  1.0  0.6846
  C  C83  1  0.655100  0.749900  0.593900  1.0  0.0961
  C  C84  1  0.747900  0.704000  0.604800  1.0  -0.1309
  C  C85  1  0.823500  0.632800  0.554800  1.0  -0.0944
  C  C86  1  0.803700  0.608700  0.495900  1.0  -0.1228
  C  C87  1  0.708500  0.659900  0.488500  1.0  0.076
  C  C88  1  0.676600  0.638400  0.431000  1.0  0.6925
  N  N89  1  0.335100  0.066800  0.256800  1.0  -0.5182
  N  N90  1  0.098100  0.230200  0.035800  1.0  -0.5257
  N  N91  1  0.658700  0.433200  0.243200  1.0  -0.5171
  N  N92  1  0.364100  0.269800  0.464200  1.0  -0.524
  N  N93  1  0.664900  0.933200  0.743200  1.0  -0.5168
  N  N94  1  0.901900  0.769800  0.964200  1.0  -0.5243
  N  N95  1  0.341300  0.566800  0.756800  1.0  -0.5222
  N  N96  1  0.635900  0.730200  0.535800  1.0  -0.5255
  O  O97  1  0.491900  0.952100  0.295300  1.0  -0.717
  O  O98  1  0.386200  0.908400  0.409400  1.0  -0.7987
  O  O99  1  0.390400  0.150200  0.116800  1.0  -0.7471
  O  O100  1  0.226900  0.222100  0.127900  1.0  -0.7028
  O  O101  1  0.017300  0.367200  0.125800  1.0  -0.7689
  O  O102  1  0.875600  0.343900  0.205900  1.0  -0.693
  O  O103  1  0.301200  0.070900  0.888300  1.0  -0.7681
  O  O104  1  0.294800  0.186900  0.930300  1.0  -0.7178
  O  O105  1  0.739300  0.547900  0.204700  1.0  -0.7197
  O  O106  1  0.704000  0.591600  0.090600  1.0  -0.7972
  O  O107  1  0.657400  0.349800  0.383200  1.0  -0.7567
  O  O108  1  0.576900  0.277900  0.372100  1.0  -0.698
  O  O109  1  0.510300  0.132800  0.374200  1.0  -0.7695
  O  O110  1  0.425400  0.156100  0.294100  1.0  -0.6938
  O  O111  1  0.260400  0.429100  0.611700  1.0  -0.7706
  O  O112  1  0.412000  0.313100  0.569700  1.0  -0.7195
  O  O113  1  0.508100  0.047900  0.704700  1.0  -0.7185
  O  O114  1  0.613800  0.091600  0.590600  1.0  -0.7982
  O  O115  1  0.609600  0.849800  0.883200  1.0  -0.7436
  O  O116  1  0.773100  0.777900  0.872100  1.0  -0.7012
  O  O117  1  0.982700  0.632800  0.874200  1.0  -0.7689
  O  O118  1  0.124400  0.656100  0.794100  1.0  -0.6939
  O  O119  1  0.698800  0.929100  0.111700  1.0  -0.7689
  O  O120  1  0.705200  0.813100  0.069700  1.0  -0.7178
  O  O121  1  0.260700  0.452100  0.795300  1.0  -0.7198
  O  O122  1  0.296000  0.408400  0.909400  1.0  -0.7956
  O  O123  1  0.342600  0.650200  0.616800  1.0  -0.7469
  O  O124  1  0.423100  0.722100  0.627900  1.0  -0.6993
  O  O125  1  0.489700  0.867200  0.625800  1.0  -0.7692
  O  O126  1  0.574600  0.843900  0.705900  1.0  -0.6945
  O  O127  1  0.739600  0.570900  0.388300  1.0  -0.7696
  O  O128  1  0.588000  0.686900  0.430300  1.0  -0.7175
