# generated using pymatgen
data_Eu2H24C34NO11
_symmetry_space_group_name_H-M   'P 1'
_cell_length_a   13.09430000
_cell_length_b   26.70350000
_cell_length_c   13.13200000
_cell_angle_alpha   90.00000000
_cell_angle_beta   115.87200000
_cell_angle_gamma   90.00000000
_symmetry_Int_Tables_number   1
_chemical_formula_structural   Eu2H24C34NO11
_chemical_formula_sum   'Eu8 H96 C136 N4 O44'
_cell_volume   4131.55372214
_cell_formula_units_Z   4
loop_
 _symmetry_equiv_pos_site_id
 _symmetry_equiv_pos_as_xyz
  1  'x, y, z'
loop_
 _atom_site_type_symbol
 _atom_site_label
 _atom_site_symmetry_multiplicity
 _atom_site_fract_x
 _atom_site_fract_y
 _atom_site_fract_z
 _atom_site_occupancy
 _atom_site_charge
  Eu  Eu1  1  0.178960  0.504560  0.581410  1.0  2.1443
  Eu  Eu2  1  0.548880  0.506550  0.996210  1.0  1.9964
  Eu  Eu3  1  0.821040  0.004560  0.918590  1.0  2.1443
  Eu  Eu4  1  0.451120  0.006550  0.503790  1.0  1.9912
  Eu  Eu5  1  0.821040  0.495440  0.418590  1.0  2.1442
  Eu  Eu6  1  0.451120  0.493450  0.003790  1.0  1.9913
  Eu  Eu7  1  0.178960  0.995440  0.081410  1.0  2.1441
  Eu  Eu8  1  0.548880  0.993450  0.496210  1.0  1.9915
  H  H9  1  0.834800  0.629400  0.338100  1.0  0.0878
  H  H10  1  0.785300  0.709600  0.269500  1.0  0.1069
  H  H11  1  0.130300  0.642700  0.316600  1.0  0.1125
  H  H12  1  0.128500  0.747000  0.083800  1.0  0.1108
  H  H13  1  0.019000  0.714900  0.061800  1.0  0.1122
  H  H14  1  0.143200  0.692000  0.127900  1.0  0.1134
  H  H15  1  0.247500  0.776500  0.289500  1.0  0.0946
  H  H16  1  0.257600  0.720400  0.325600  1.0  0.1013
  H  H17  1  0.213300  0.760100  0.383800  1.0  0.1016
  H  H18  1  0.101100  0.840700  0.156800  1.0  0.1009
  H  H19  1  0.779500  0.807200  0.210600  1.0  0.1133
  H  H20  1  0.806100  0.885000  0.148600  1.0  0.0979
  H  H21  1  0.522700  0.651700  0.914700  1.0  0.1068
  H  H22  1  0.279600  0.629800  0.599500  1.0  0.0966
  H  H23  1  0.307700  0.710500  0.550600  1.0  0.1006
  H  H24  1  0.714200  0.720900  0.863800  1.0  0.1054
  H  H25  1  0.717400  0.705200  0.978700  1.0  0.1089
  H  H26  1  0.755000  0.759100  0.963700  1.0  0.1041
  H  H27  1  0.606800  0.794600  0.023100  1.0  0.0975
  H  H28  1  0.579800  0.739000  0.038300  1.0  0.0992
  H  H29  1  0.479500  0.774500  0.960200  1.0  0.1075
  H  H30  1  0.663400  0.849700  0.885900  1.0  0.116
  H  H31  1  0.363900  0.805700  0.541900  1.0  0.1108
  H  H32  1  0.449200  0.884400  0.565100  1.0  0.0978
  H  H33  1  0.165200  0.129400  0.161900  1.0  0.0875
  H  H34  1  0.214700  0.209600  0.230500  1.0  0.1074
  H  H35  1  0.869700  0.142700  0.183400  1.0  0.1129
  H  H36  1  0.871500  0.247000  0.416200  1.0  0.1115
  H  H37  1  0.981000  0.214900  0.438200  1.0  0.1096
  H  H38  1  0.856800  0.192000  0.372100  1.0  0.1136
  H  H39  1  0.752500  0.276500  0.210500  1.0  0.0948
  H  H40  1  0.742400  0.220400  0.174400  1.0  0.1011
  H  H41  1  0.786700  0.260100  0.116200  1.0  0.1021
  H  H42  1  0.898900  0.340700  0.343200  1.0  0.1004
  H  H43  1  0.220500  0.307200  0.289400  1.0  0.1133
  H  H44  1  0.193900  0.385000  0.351400  1.0  0.0975
  H  H45  1  0.477300  0.151700  0.585300  1.0  0.1067
  H  H46  1  0.720400  0.129800  0.900500  1.0  0.097
  H  H47  1  0.692300  0.210500  0.949400  1.0  0.1014
  H  H48  1  0.285800  0.220900  0.636200  1.0  0.1051
  H  H49  1  0.282600  0.205200  0.521300  1.0  0.1084
  H  H50  1  0.245000  0.259100  0.536300  1.0  0.1037
  H  H51  1  0.393200  0.294600  0.476900  1.0  0.0988
  H  H52  1  0.420200  0.239000  0.461700  1.0  0.0992
  H  H53  1  0.520500  0.274500  0.539800  1.0  0.1052
  H  H54  1  0.336600  0.349700  0.614100  1.0  0.1166
  H  H55  1  0.636100  0.305700  0.958100  1.0  0.1106
  H  H56  1  0.550800  0.384400  0.934900  1.0  0.0975
  H  H57  1  0.165200  0.370600  0.661900  1.0  0.0876
  H  H58  1  0.214700  0.290400  0.730500  1.0  0.1073
  H  H59  1  0.869700  0.357300  0.683400  1.0  0.1122
  H  H60  1  0.871500  0.253000  0.916200  1.0  0.1111
  H  H61  1  0.981000  0.285100  0.938200  1.0  0.1099
  H  H62  1  0.856800  0.308000  0.872100  1.0  0.1162
  H  H63  1  0.752500  0.223500  0.710500  1.0  0.0954
  H  H64  1  0.742400  0.279600  0.674400  1.0  0.1017
  H  H65  1  0.786700  0.239900  0.616200  1.0  0.1018
  H  H66  1  0.898900  0.159300  0.843200  1.0  0.1006
  H  H67  1  0.220500  0.192800  0.789400  1.0  0.1145
  H  H68  1  0.193900  0.115000  0.851400  1.0  0.0977
  H  H69  1  0.477300  0.348300  0.085300  1.0  0.1073
  H  H70  1  0.720400  0.370200  0.400500  1.0  0.0967
  H  H71  1  0.692300  0.289500  0.449400  1.0  0.1028
  H  H72  1  0.285800  0.279100  0.136200  1.0  0.1052
  H  H73  1  0.282600  0.294800  0.021300  1.0  0.1098
  H  H74  1  0.245000  0.240900  0.036300  1.0  0.103
  H  H75  1  0.393200  0.205400  0.976900  1.0  0.0979
  H  H76  1  0.420200  0.261000  0.961700  1.0  0.0999
  H  H77  1  0.520500  0.225500  0.039800  1.0  0.1048
  H  H78  1  0.336600  0.150300  0.114100  1.0  0.1166
  H  H79  1  0.636100  0.194300  0.458100  1.0  0.1102
  H  H80  1  0.550800  0.115600  0.434900  1.0  0.0976
  H  H81  1  0.834800  0.870600  0.838100  1.0  0.0877
  H  H82  1  0.785300  0.790400  0.769500  1.0  0.1066
  H  H83  1  0.130300  0.857300  0.816600  1.0  0.1127
  H  H84  1  0.128500  0.753000  0.583800  1.0  0.1108
  H  H85  1  0.019000  0.785100  0.561800  1.0  0.112
  H  H86  1  0.143200  0.808000  0.627900  1.0  0.1166
  H  H87  1  0.247500  0.723500  0.789500  1.0  0.0947
  H  H88  1  0.257600  0.779600  0.825600  1.0  0.1009
  H  H89  1  0.213300  0.739900  0.883800  1.0  0.1017
  H  H90  1  0.101100  0.659300  0.656800  1.0  0.1008
  H  H91  1  0.779500  0.692800  0.710600  1.0  0.1146
  H  H92  1  0.806100  0.615000  0.648600  1.0  0.0975
  H  H93  1  0.522700  0.848300  0.414700  1.0  0.1069
  H  H94  1  0.279600  0.870200  0.099500  1.0  0.0971
  H  H95  1  0.307700  0.789500  0.050600  1.0  0.1027
  H  H96  1  0.714200  0.779100  0.363800  1.0  0.1056
  H  H97  1  0.717400  0.794800  0.478700  1.0  0.1088
  H  H98  1  0.755000  0.740900  0.463700  1.0  0.1043
  H  H99  1  0.606800  0.705400  0.523100  1.0  0.0983
  H  H100  1  0.579800  0.761000  0.538300  1.0  0.0994
  H  H101  1  0.479500  0.725500  0.460200  1.0  0.1072
  H  H102  1  0.663400  0.650300  0.385900  1.0  0.117
  H  H103  1  0.363900  0.694300  0.041900  1.0  0.1103
  H  H104  1  0.449200  0.615600  0.065100  1.0  0.0977
  C  C105  1  0.022600  0.577600  0.388100  1.0  0.7394
  C  C106  1  0.988000  0.627600  0.334900  1.0  -0.1753
  C  C107  1  0.884400  0.648300  0.320200  1.0  -0.0141
  C  C108  1  0.854700  0.696300  0.279500  1.0  -0.1004
  C  C109  1  0.060800  0.656000  0.306200  1.0  -0.0783
  C  C110  1  0.030500  0.703700  0.262300  1.0  -0.0031
  C  C111  1  0.928300  0.724500  0.253700  1.0  -0.0503
  C  C112  1  0.923300  0.776500  0.215300  1.0  -0.0445
  C  C113  1  0.094300  0.740100  0.222600  1.0  -0.0061
  C  C114  1  0.097900  0.721900  0.114400  1.0  -0.329
  C  C115  1  0.213400  0.750500  0.314300  1.0  -0.3292
  C  C116  1  0.018700  0.786400  0.198500  1.0  0.0064
  C  C117  1  0.036300  0.833900  0.166700  1.0  -0.0692
  C  C118  1  0.843200  0.813500  0.198600  1.0  -0.1436
  C  C119  1  0.860800  0.860300  0.163400  1.0  -0.021
  C  C120  1  0.957000  0.871300  0.149500  1.0  -0.1699
  C  C121  1  0.975700  0.923100  0.116500  1.0  0.7587
  C  C122  1  0.378000  0.581400  0.794400  1.0  0.7281
  C  C123  1  0.397700  0.633400  0.762300  1.0  -0.1448
  C  C124  1  0.479500  0.663600  0.841900  1.0  -0.0797
  C  C125  1  0.333600  0.650500  0.653000  1.0  0.0033
  C  C126  1  0.350300  0.698600  0.623700  1.0  -0.0919
  C  C127  1  0.431300  0.729000  0.704800  1.0  -0.023
  C  C128  1  0.496800  0.711200  0.813300  1.0  0.0167
  C  C129  1  0.583000  0.750400  0.886100  1.0  0.0198
  C  C130  1  0.702700  0.732100  0.926600  1.0  -0.3448
  C  C131  1  0.559800  0.766200  0.986200  1.0  -0.2866
  C  C132  1  0.466800  0.780900  0.696800  1.0  -0.0149
  C  C133  1  0.554400  0.793600  0.801000  1.0  -0.0146
  C  C134  1  0.604400  0.840800  0.816800  1.0  -0.1099
  C  C135  1  0.425000  0.814200  0.609800  1.0  -0.0701
  C  C136  1  0.475400  0.861500  0.624400  1.0  -0.0094
  C  C137  1  0.564000  0.874100  0.726700  1.0  -0.1323
  C  C138  1  0.618100  0.925400  0.739500  1.0  0.724
  C  C139  1  0.977400  0.077600  0.111900  1.0  0.7383
  C  C140  1  0.012000  0.127600  0.165100  1.0  -0.1758
  C  C141  1  0.115600  0.148300  0.179800  1.0  -0.0141
  C  C142  1  0.145300  0.196300  0.220500  1.0  -0.1008
  C  C143  1  0.939200  0.156000  0.193800  1.0  -0.077
  C  C144  1  0.969500  0.203700  0.237700  1.0  -0.0028
  C  C145  1  0.071700  0.224500  0.246300  1.0  -0.0502
  C  C146  1  0.076700  0.276500  0.284700  1.0  -0.0433
  C  C147  1  0.905700  0.240100  0.277400  1.0  -0.0059
  C  C148  1  0.902100  0.221900  0.385600  1.0  -0.3301
  C  C149  1  0.786600  0.250500  0.185700  1.0  -0.3294
  C  C150  1  0.981300  0.286400  0.301500  1.0  0.0059
  C  C151  1  0.963700  0.333900  0.333333  1.0  -0.0708
  C  C152  1  0.156800  0.313500  0.301400  1.0  -0.1432
  C  C153  1  0.139200  0.360300  0.336600  1.0  -0.0182
  C  C154  1  0.043000  0.371300  0.350500  1.0  -0.1708
  C  C155  1  0.024300  0.423100  0.383500  1.0  0.7604
  C  C156  1  0.622000  0.081400  0.705600  1.0  0.7273
  C  C157  1  0.602300  0.133400  0.737700  1.0  -0.1443
  C  C158  1  0.520500  0.163600  0.658100  1.0  -0.0793
  C  C159  1  0.666400  0.150500  0.847000  1.0  0.0048
  C  C160  1  0.649700  0.198600  0.876300  1.0  -0.0921
  C  C161  1  0.568700  0.229000  0.795200  1.0  -0.0253
  C  C162  1  0.503200  0.211200  0.686700  1.0  0.0177
  C  C163  1  0.417000  0.250400  0.613900  1.0  0.019
  C  C164  1  0.297300  0.232100  0.573400  1.0  -0.3455
  C  C165  1  0.440200  0.266200  0.513800  1.0  -0.2876
  C  C166  1  0.533200  0.280900  0.803200  1.0  -0.0146
  C  C167  1  0.445600  0.293600  0.699000  1.0  -0.0143
  C  C168  1  0.395600  0.340800  0.683200  1.0  -0.1107
  C  C169  1  0.575000  0.314200  0.890200  1.0  -0.0706
  C  C170  1  0.524600  0.361500  0.875600  1.0  -0.0107
  C  C171  1  0.436000  0.374100  0.773300  1.0  -0.1323
  C  C172  1  0.381900  0.425400  0.760500  1.0  0.7243
  C  C173  1  0.977400  0.422400  0.611900  1.0  0.7388
  C  C174  1  0.012000  0.372400  0.665100  1.0  -0.1745
  C  C175  1  0.115600  0.351700  0.679800  1.0  -0.0141
  C  C176  1  0.145300  0.303700  0.720500  1.0  -0.1003
  C  C177  1  0.939200  0.344000  0.693800  1.0  -0.0782
  C  C178  1  0.969500  0.296300  0.737700  1.0  -0.0025
  C  C179  1  0.071700  0.275500  0.746300  1.0  -0.0499
  C  C180  1  0.076700  0.223500  0.784700  1.0  -0.0436
  C  C181  1  0.905700  0.259900  0.777400  1.0  -0.0062
  C  C182  1  0.902100  0.278100  0.885600  1.0  -0.3299
  C  C183  1  0.786600  0.249500  0.685700  1.0  -0.3294
  C  C184  1  0.981300  0.213600  0.801500  1.0  0.0062
  C  C185  1  0.963700  0.166100  0.833300  1.0  -0.0683
  C  C186  1  0.156800  0.186500  0.801400  1.0  -0.1436
  C  C187  1  0.139200  0.139700  0.836600  1.0  -0.0198
  C  C188  1  0.043000  0.128700  0.850500  1.0  -0.1714
  C  C189  1  0.024300  0.076900  0.883500  1.0  0.7589
  C  C190  1  0.622000  0.418600  0.205600  1.0  0.7292
  C  C191  1  0.602300  0.366600  0.237700  1.0  -0.1451
  C  C192  1  0.520500  0.336400  0.158100  1.0  -0.0791
  C  C193  1  0.666400  0.349500  0.347000  1.0  0.0046
  C  C194  1  0.649700  0.301400  0.376300  1.0  -0.092
  C  C195  1  0.568700  0.271000  0.295200  1.0  -0.0249
  C  C196  1  0.503200  0.288800  0.186700  1.0  0.0175
  C  C197  1  0.417000  0.249600  0.113900  1.0  0.0189
  C  C198  1  0.297300  0.267900  0.073400  1.0  -0.3454
  C  C199  1  0.440200  0.233800  0.013800  1.0  -0.2876
  C  C200  1  0.533200  0.219100  0.303200  1.0  -0.0142
  C  C201  1  0.445600  0.206400  0.199000  1.0  -0.0144
  C  C202  1  0.395600  0.159200  0.183200  1.0  -0.1098
  C  C203  1  0.575000  0.185800  0.390200  1.0  -0.0708
  C  C204  1  0.524600  0.138500  0.375600  1.0  -0.011
  C  C205  1  0.436000  0.125900  0.273300  1.0  -0.1328
  C  C206  1  0.381900  0.074600  0.260500  1.0  0.7246
  C  C207  1  0.022600  0.922400  0.888100  1.0  0.7405
  C  C208  1  0.988000  0.872400  0.834900  1.0  -0.1737
  C  C209  1  0.884400  0.851700  0.820200  1.0  -0.0141
  C  C210  1  0.854700  0.803700  0.779500  1.0  -0.0998
  C  C211  1  0.060800  0.844000  0.806200  1.0  -0.0761
  C  C212  1  0.030500  0.796300  0.762300  1.0  -0.0024
  C  C213  1  0.928300  0.775500  0.753700  1.0  -0.0499
  C  C214  1  0.923300  0.723500  0.715300  1.0  -0.0451
  C  C215  1  0.094300  0.759900  0.722600  1.0  -0.0064
  C  C216  1  0.097900  0.778100  0.614400  1.0  -0.3293
  C  C217  1  0.213400  0.749500  0.814300  1.0  -0.3295
  C  C218  1  0.018700  0.713600  0.698500  1.0  0.0069
  C  C219  1  0.036300  0.666100  0.666667  1.0  -0.0709
  C  C220  1  0.843200  0.686500  0.698600  1.0  -0.1421
  C  C221  1  0.860800  0.639700  0.663400  1.0  -0.0189
  C  C222  1  0.957000  0.628700  0.649500  1.0  -0.1692
  C  C223  1  0.975700  0.576900  0.616500  1.0  0.758
  C  C224  1  0.378000  0.918600  0.294400  1.0  0.7301
  C  C225  1  0.397700  0.866600  0.262300  1.0  -0.1456
  C  C226  1  0.479500  0.836400  0.341900  1.0  -0.0798
  C  C227  1  0.333600  0.849500  0.153000  1.0  0.0041
  C  C228  1  0.350300  0.801400  0.123700  1.0  -0.0915
  C  C229  1  0.431300  0.771000  0.204800  1.0  -0.023
  C  C230  1  0.496800  0.788800  0.313300  1.0  0.0167
  C  C231  1  0.583000  0.749600  0.386100  1.0  0.0196
  C  C232  1  0.702700  0.767900  0.426600  1.0  -0.3446
  C  C233  1  0.559800  0.733800  0.486200  1.0  -0.2878
  C  C234  1  0.466800  0.719100  0.196800  1.0  -0.0152
  C  C235  1  0.554400  0.706400  0.301000  1.0  -0.0147
  C  C236  1  0.604400  0.659200  0.316800  1.0  -0.1086
  C  C237  1  0.425000  0.685800  0.109800  1.0  -0.0706
  C  C238  1  0.475400  0.638500  0.124400  1.0  -0.0099
  C  C239  1  0.564000  0.625900  0.226700  1.0  -0.1328
  C  C240  1  0.618100  0.574600  0.239500  1.0  0.7244
  N  N241  1  0.684000  0.562400  0.896000  1.0  0.5438
  N  N242  1  0.316000  0.062400  0.604000  1.0  0.5414
  N  N243  1  0.316000  0.437600  0.104000  1.0  0.5428
  N  N244  1  0.684000  0.937600  0.396000  1.0  0.5467
  O  O245  1  0.947200  0.547690  0.387100  1.0  -0.7674
  O  O246  1  0.126000  0.568300  0.437900  1.0  -0.6475
  O  O247  1  0.889700  0.951530  0.074700  1.0  -0.6983
  O  O248  1  0.074000  0.934820  0.131100  1.0  -0.7324
  O  O249  1  0.312300  0.553240  0.717400  1.0  -0.7599
  O  O250  1  0.431200  0.568540  0.895200  1.0  -0.671
  O  O251  1  0.576000  0.953400  0.654600  1.0  -0.6885
  O  O252  1  0.695100  0.936830  0.830500  1.0  -0.7138
  O  O253  1  0.687800  0.574100  0.989200  1.0  -0.6443
  O  O254  1  0.614200  0.530600  0.850900  1.0  -0.559
  O  O255  1  0.731500  0.588000  0.857000  1.0  -0.4484
  O  O256  1  0.052800  0.047690  0.112900  1.0  -0.7658
  O  O257  1  0.874000  0.068300  0.062100  1.0  -0.6488
  O  O258  1  0.110300  0.451530  0.425300  1.0  -0.6986
  O  O259  1  0.926000  0.434820  0.368900  1.0  -0.7315
  O  O260  1  0.687700  0.053240  0.782600  1.0  -0.7594
  O  O261  1  0.568800  0.068540  0.604800  1.0  -0.6709
  O  O262  1  0.424000  0.453400  0.845400  1.0  -0.6888
  O  O263  1  0.304900  0.436830  0.669500  1.0  -0.7122
  O  O264  1  0.312200  0.074100  0.510800  1.0  -0.645
  O  O265  1  0.385800  0.030600  0.649100  1.0  -0.556
  O  O266  1  0.268500  0.088000  0.643000  1.0  -0.4474
  O  O267  1  0.052800  0.452310  0.612900  1.0  -0.7682
  O  O268  1  0.874000  0.431700  0.562100  1.0  -0.6502
  O  O269  1  0.110300  0.048470  0.925300  1.0  -0.697
  O  O270  1  0.926000  0.065180  0.868900  1.0  -0.732
  O  O271  1  0.687700  0.446760  0.282600  1.0  -0.7611
  O  O272  1  0.568800  0.431460  0.104800  1.0  -0.6699
  O  O273  1  0.424000  0.046600  0.345400  1.0  -0.6891
  O  O274  1  0.304900  0.063170  0.169500  1.0  -0.7119
  O  O275  1  0.312200  0.425900  0.010800  1.0  -0.6456
  O  O276  1  0.385800  0.469400  0.149100  1.0  -0.557
  O  O277  1  0.268500  0.412000  0.143000  1.0  -0.4484
  O  O278  1  0.947200  0.952310  0.887100  1.0  -0.767
  O  O279  1  0.126000  0.931700  0.937900  1.0  -0.6477
  O  O280  1  0.889700  0.548470  0.574700  1.0  -0.6974
  O  O281  1  0.074000  0.565180  0.631100  1.0  -0.7316
  O  O282  1  0.312300  0.946760  0.217400  1.0  -0.7606
  O  O283  1  0.431200  0.931460  0.395200  1.0  -0.6717
  O  O284  1  0.576000  0.546600  0.154600  1.0  -0.6885
  O  O285  1  0.695100  0.563170  0.330500  1.0  -0.7134
  O  O286  1  0.687800  0.925900  0.489200  1.0  -0.6445
  O  O287  1  0.614200  0.969400  0.350900  1.0  -0.5584
  O  O288  1  0.731500  0.912000  0.357000  1.0  -0.4482
