# generated using pymatgen
data_Cu6P2H36W18C48N12O47
_symmetry_space_group_name_H-M   'P 1'
_cell_length_a   20.91120000
_cell_length_b   20.91120000
_cell_length_c   38.35020000
_cell_angle_alpha   90.00000000
_cell_angle_beta   90.00000000
_cell_angle_gamma   120.00000000
_symmetry_Int_Tables_number   1
_chemical_formula_structural   Cu6P2H36W18C48N12O47
_chemical_formula_sum   'Cu18 P6 H108 W54 C144 N36 O141'
_cell_volume   14522.99461627
_cell_formula_units_Z   3
loop_
 _symmetry_equiv_pos_site_id
 _symmetry_equiv_pos_as_xyz
  1  'x, y, z'
loop_
 _atom_site_type_symbol
 _atom_site_label
 _atom_site_symmetry_multiplicity
 _atom_site_fract_x
 _atom_site_fract_y
 _atom_site_fract_z
 _atom_site_occupancy
 _atom_site_charge
  Cu  Cu1  1  0.305060  0.009420  0.487900  1.0  0.4646
  Cu  Cu2  1  0.319200  0.044700  0.318230  1.0  0.3993
  Cu  Cu3  1  0.971730  0.342750  0.821230  1.0  0.4646
  Cu  Cu4  1  0.985870  0.378030  0.651560  1.0  0.3901
  Cu  Cu5  1  0.638390  0.676090  0.154570  1.0  0.4646
  Cu  Cu6  1  0.652530  0.711370  0.984900  1.0  0.3995
  Cu  Cu7  1  0.990580  0.295640  0.487900  1.0  0.4646
  Cu  Cu8  1  0.955300  0.274500  0.318230  1.0  0.3967
  Cu  Cu9  1  0.657250  0.628970  0.821230  1.0  0.4646
  Cu  Cu10  1  0.621970  0.607830  0.651560  1.0  0.3967
  Cu  Cu11  1  0.323910  0.962310  0.154570  1.0  0.4646
  Cu  Cu12  1  0.288630  0.941170  0.984900  1.0  0.3887
  Cu  Cu13  1  0.704360  0.694940  0.487900  1.0  0.4657
  Cu  Cu14  1  0.725500  0.680800  0.318230  1.0  0.3978
  Cu  Cu15  1  0.371030  0.028270  0.821230  1.0  0.4657
  Cu  Cu16  1  0.392170  0.014130  0.651560  1.0  0.3904
  Cu  Cu17  1  0.037690  0.361610  0.154570  1.0  0.4657
  Cu  Cu18  1  0.058830  0.347470  0.984900  1.0  0.3905
  P  P19  1  0.000000  0.000000  0.608200  1.0  1.5595
  P  P20  1  0.000000  0.000000  0.504500  1.0  1.6623
  P  P21  1  0.666667  0.333333  0.941530  1.0  1.5596
  P  P22  1  0.666667  0.333333  0.837830  1.0  1.6623
  P  P23  1  0.333333  0.666667  0.274870  1.0  1.5596
  P  P24  1  0.333333  0.666667  0.171170  1.0  1.6623
  H  H25  1  0.443900  0.042400  0.493200  1.0  0.1
  H  H26  1  0.564700  0.091100  0.508200  1.0  0.1114
  H  H27  1  0.594800  0.080200  0.566600  1.0  0.0938
  H  H28  1  0.505400  0.046900  0.610500  1.0  0.116
  H  H29  1  0.265800  0.955200  0.611600  1.0  0.0883
  H  H30  1  0.228600  0.947500  0.551600  1.0  0.0951
  H  H31  1  0.239500  0.877200  0.456200  1.0  0.1002
  H  H32  1  0.187300  0.777500  0.423500  1.0  0.1044
  H  H33  1  0.192000  0.785400  0.360500  1.0  0.1171
  H  H34  1  0.250900  0.916000  0.333900  1.0  0.0914
  H  H35  1  0.340500  0.135100  0.379500  1.0  0.0978
  H  H36  1  0.334800  0.117700  0.440000  1.0  0.0699
  H  H37  1  0.110570  0.375730  0.826530  1.0  0.1
  H  H38  1  0.231370  0.424430  0.841530  1.0  0.1114
  H  H39  1  0.261470  0.413530  0.899930  1.0  0.0935
  H  H40  1  0.172070  0.380230  0.943830  1.0  0.116
  H  H41  1  0.932470  0.288530  0.944930  1.0  0.0883
  H  H42  1  0.895270  0.280830  0.884930  1.0  0.0951
  H  H43  1  0.906170  0.210530  0.789530  1.0  0.1002
  H  H44  1  0.853970  0.110830  0.756830  1.0  0.1044
  H  H45  1  0.858670  0.118730  0.693830  1.0  0.1171
  H  H46  1  0.917570  0.249330  0.667230  1.0  0.0914
  H  H47  1  0.007170  0.468430  0.712830  1.0  0.0978
  H  H48  1  0.001470  0.451030  0.773330  1.0  0.0699
  H  H49  1  0.777230  0.709070  0.159870  1.0  0.1
  H  H50  1  0.898030  0.757770  0.174870  1.0  0.1114
  H  H51  1  0.928130  0.746870  0.233270  1.0  0.0938
  H  H52  1  0.838730  0.713570  0.277170  1.0  0.116
  H  H53  1  0.599130  0.621870  0.278270  1.0  0.0883
  H  H54  1  0.561930  0.614170  0.218270  1.0  0.0951
  H  H55  1  0.572830  0.543870  0.122870  1.0  0.1002
  H  H56  1  0.520630  0.444170  0.090170  1.0  0.1037
  H  H57  1  0.525330  0.452070  0.027170  1.0  0.1171
  H  H58  1  0.584230  0.582670  0.000570  1.0  0.0914
  H  H59  1  0.673830  0.801770  0.046170  1.0  0.0952
  H  H60  1  0.668130  0.784370  0.106670  1.0  0.0699
  H  H61  1  0.957600  0.401500  0.493200  1.0  0.0993
  H  H62  1  0.908900  0.473600  0.508200  1.0  0.1109
  H  H63  1  0.919800  0.514600  0.566600  1.0  0.0968
  H  H64  1  0.953100  0.458500  0.610500  1.0  0.1168
  H  H65  1  0.044800  0.310600  0.611600  1.0  0.0886
  H  H66  1  0.052500  0.281100  0.551600  1.0  0.0936
  H  H67  1  0.122800  0.362300  0.456200  1.0  0.0996
  H  H68  1  0.222500  0.409800  0.423500  1.0  0.1021
  H  H69  1  0.214600  0.406600  0.360500  1.0  0.118
  H  H70  1  0.084000  0.334900  0.333900  1.0  0.0905
  H  H71  1  0.864900  0.205400  0.379500  1.0  0.0979
  H  H72  1  0.882300  0.217100  0.440000  1.0  0.0741
  H  H73  1  0.624270  0.734830  0.826530  1.0  0.0993
  H  H74  1  0.575570  0.806930  0.841530  1.0  0.1109
  H  H75  1  0.586470  0.847930  0.899930  1.0  0.0963
  H  H76  1  0.619770  0.791830  0.943830  1.0  0.1168
  H  H77  1  0.711470  0.643930  0.944930  1.0  0.0886
  H  H78  1  0.719170  0.614430  0.884930  1.0  0.0936
  H  H79  1  0.789470  0.695630  0.789530  1.0  0.0996
  H  H80  1  0.889170  0.743130  0.756830  1.0  0.1021
  H  H81  1  0.881270  0.739930  0.693830  1.0  0.118
  H  H82  1  0.750670  0.668230  0.667230  1.0  0.0905
  H  H83  1  0.531570  0.538730  0.712830  1.0  0.0979
  H  H84  1  0.548970  0.550430  0.773330  1.0  0.0741
  H  H85  1  0.290930  0.068170  0.159870  1.0  0.0994
  H  H86  1  0.242230  0.140270  0.174870  1.0  0.1108
  H  H87  1  0.253130  0.181270  0.233270  1.0  0.0968
  H  H88  1  0.286430  0.125170  0.277170  1.0  0.1168
  H  H89  1  0.378130  0.977270  0.278270  1.0  0.0886
  H  H90  1  0.385830  0.947770  0.218270  1.0  0.0936
  H  H91  1  0.456130  0.028970  0.122870  1.0  0.0997
  H  H92  1  0.555830  0.076470  0.090170  1.0  0.1034
  H  H93  1  0.547930  0.073270  0.027170  1.0  0.118
  H  H94  1  0.417330  0.001570  0.000570  1.0  0.0905
  H  H95  1  0.198230  0.872070  0.046170  1.0  0.0965
  H  H96  1  0.215630  0.883770  0.106670  1.0  0.0741
  H  H97  1  0.598500  0.556100  0.493200  1.0  0.0995
  H  H98  1  0.526400  0.435300  0.508200  1.0  0.1117
  H  H99  1  0.485400  0.405200  0.566600  1.0  0.0971
  H  H100  1  0.541500  0.494600  0.610500  1.0  0.1166
  H  H101  1  0.689400  0.734200  0.611600  1.0  0.0878
  H  H102  1  0.718900  0.771400  0.551600  1.0  0.0941
  H  H103  1  0.637700  0.760500  0.456200  1.0  0.0999
  H  H104  1  0.590200  0.812700  0.423500  1.0  0.1017
  H  H105  1  0.593400  0.808000  0.360500  1.0  0.1171
  H  H106  1  0.665100  0.749100  0.333900  1.0  0.0904
  H  H107  1  0.794600  0.659500  0.379500  1.0  0.0995
  H  H108  1  0.782900  0.665200  0.440000  1.0  0.0735
  H  H109  1  0.265170  0.889430  0.826530  1.0  0.0995
  H  H110  1  0.193070  0.768630  0.841530  1.0  0.1117
  H  H111  1  0.152070  0.738530  0.899930  1.0  0.0971
  H  H112  1  0.208170  0.827930  0.943830  1.0  0.1166
  H  H113  1  0.356070  0.067530  0.944930  1.0  0.0877
  H  H114  1  0.385570  0.104730  0.884930  1.0  0.0941
  H  H115  1  0.304370  0.093830  0.789530  1.0  0.0999
  H  H116  1  0.256870  0.146030  0.756830  1.0  0.1017
  H  H117  1  0.260070  0.141330  0.693830  1.0  0.1171
  H  H118  1  0.331770  0.082430  0.667230  1.0  0.0904
  H  H119  1  0.461270  0.992830  0.712830  1.0  0.0995
  H  H120  1  0.449570  0.998530  0.773330  1.0  0.0735
  H  H121  1  0.931830  0.222770  0.159870  1.0  0.0995
  H  H122  1  0.859730  0.101970  0.174870  1.0  0.1117
  H  H123  1  0.818730  0.071870  0.233270  1.0  0.0971
  H  H124  1  0.874830  0.161270  0.277170  1.0  0.1166
  H  H125  1  0.022730  0.400870  0.278270  1.0  0.0878
  H  H126  1  0.052230  0.438070  0.218270  1.0  0.0941
  H  H127  1  0.971030  0.427170  0.122870  1.0  0.0999
  H  H128  1  0.923530  0.479370  0.090170  1.0  0.1017
  H  H129  1  0.926730  0.474670  0.027170  1.0  0.1171
  H  H130  1  0.998430  0.415770  0.000570  1.0  0.0904
  H  H131  1  0.127930  0.326170  0.046170  1.0  0.0959
  H  H132  1  0.116230  0.331870  0.106670  1.0  0.0735
  W  W133  1  0.083930  0.983440  0.684960  1.0  1.4517
  W  W134  1  0.075740  0.884170  0.603040  1.0  1.3183
  W  W135  1  0.073350  0.881190  0.505130  1.0  1.3829
  W  W136  1  0.091110  0.995460  0.428180  1.0  1.3605
  W  W137  1  0.192940  0.083300  0.509880  1.0  2.5638
  W  W138  1  0.193220  0.085640  0.607820  1.0  1.3097
  W  W139  1  0.750600  0.316770  0.018290  1.0  1.4515
  W  W140  1  0.742410  0.217500  0.936370  1.0  1.3183
  W  W141  1  0.740020  0.214520  0.838460  1.0  1.3829
  W  W142  1  0.757780  0.328790  0.761510  1.0  1.3605
  W  W143  1  0.859610  0.416630  0.843220  1.0  2.5638
  W  W144  1  0.859890  0.418970  0.941150  1.0  1.3097
  W  W145  1  0.417260  0.650110  0.351630  1.0  1.4517
  W  W146  1  0.409070  0.550840  0.269710  1.0  1.3183
  W  W147  1  0.406680  0.547860  0.171800  1.0  1.3829
  W  W148  1  0.424440  0.662130  0.094850  1.0  1.3605
  W  W149  1  0.526270  0.749970  0.176550  1.0  2.5638
  W  W150  1  0.526550  0.752310  0.274490  1.0  1.3097
  W  W151  1  0.016560  0.100490  0.684960  1.0  1.4558
  W  W152  1  0.115830  0.191570  0.603040  1.0  1.3287
  W  W153  1  0.118810  0.192160  0.505130  1.0  1.391
  W  W154  1  0.004540  0.095650  0.428180  1.0  1.3633
  W  W155  1  0.916700  0.109640  0.509880  1.0  2.5635
  W  W156  1  0.914360  0.107580  0.607820  1.0  1.3031
  W  W157  1  0.683230  0.433820  0.018290  1.0  1.4565
  W  W158  1  0.782500  0.524900  0.936370  1.0  1.3287
  W  W159  1  0.785480  0.525490  0.838460  1.0  1.391
  W  W160  1  0.671210  0.428980  0.761510  1.0  1.3633
  W  W161  1  0.583370  0.442970  0.843220  1.0  2.5635
  W  W162  1  0.581030  0.440910  0.941150  1.0  1.3031
  W  W163  1  0.349890  0.767160  0.351630  1.0  1.4558
  W  W164  1  0.449160  0.858240  0.269710  1.0  1.3287
  W  W165  1  0.452140  0.858830  0.171800  1.0  1.391
  W  W166  1  0.337870  0.762320  0.094850  1.0  1.3633
  W  W167  1  0.250030  0.776310  0.176550  1.0  2.5635
  W  W168  1  0.247690  0.774250  0.274490  1.0  1.3031
  W  W169  1  0.899510  0.916070  0.684960  1.0  1.4497
  W  W170  1  0.808430  0.924260  0.603040  1.0  1.3156
  W  W171  1  0.807840  0.926650  0.505130  1.0  1.381
  W  W172  1  0.904350  0.908890  0.428180  1.0  1.3607
  W  W173  1  0.890360  0.807060  0.509880  1.0  2.5645
  W  W174  1  0.892420  0.806780  0.607820  1.0  1.3096
  W  W175  1  0.566180  0.249400  0.018290  1.0  1.4496
  W  W176  1  0.475100  0.257590  0.936370  1.0  1.3156
  W  W177  1  0.474510  0.259980  0.838460  1.0  1.381
  W  W178  1  0.571020  0.242220  0.761510  1.0  1.3607
  W  W179  1  0.557030  0.140390  0.843220  1.0  2.5645
  W  W180  1  0.559090  0.140110  0.941150  1.0  1.3096
  W  W181  1  0.232840  0.582740  0.351630  1.0  1.4497
  W  W182  1  0.141760  0.590930  0.269710  1.0  1.3157
  W  W183  1  0.141170  0.593320  0.171800  1.0  1.381
  W  W184  1  0.237680  0.575560  0.094850  1.0  1.3607
  W  W185  1  0.223690  0.473730  0.176550  1.0  2.5645
  W  W186  1  0.225750  0.473450  0.274490  1.0  1.3096
  C  C187  1  0.398600  0.014500  0.542800  1.0  0.1782
  C  C188  1  0.456500  0.043000  0.517000  1.0  -0.1301
  C  C189  1  0.527300  0.070000  0.525500  1.0  -0.1644
  C  C190  1  0.545500  0.066700  0.560600  1.0  -0.1031
  C  C191  1  0.492500  0.044200  0.586600  1.0  -0.2047
  C  C192  1  0.422500  0.018400  0.576800  1.0  0.2503
  C  C193  1  0.302200  0.971500  0.593800  1.0  0.1279
  C  C194  1  0.279200  0.968000  0.557400  1.0  0.1514
  C  C195  1  0.269000  0.953500  0.418100  1.0  0.1511
  C  C196  1  0.238900  0.882900  0.431600  1.0  -0.1569
  C  C197  1  0.210200  0.824500  0.412500  1.0  -0.1409
  C  C198  1  0.211800  0.828500  0.374600  1.0  -0.1267
  C  C199  1  0.248200  0.908400  0.358400  1.0  -0.1207
  C  C200  1  0.275500  0.965400  0.381100  1.0  0.1903
  C  C201  1  0.324600  0.087200  0.388500  1.0  0.1051
  C  C202  1  0.319500  0.076000  0.425200  1.0  0.1442
  C  C203  1  0.065270  0.347830  0.876130  1.0  0.1782
  C  C204  1  0.123170  0.376330  0.850330  1.0  -0.1301
  C  C205  1  0.193970  0.403330  0.858830  1.0  -0.1644
  C  C206  1  0.212170  0.400030  0.893930  1.0  -0.1031
  C  C207  1  0.159170  0.377530  0.919930  1.0  -0.2047
  C  C208  1  0.089170  0.351730  0.910130  1.0  0.264
  C  C209  1  0.968870  0.304830  0.927130  1.0  0.1279
  C  C210  1  0.945870  0.301330  0.890730  1.0  0.1514
  C  C211  1  0.935670  0.286830  0.751430  1.0  0.1511
  C  C212  1  0.905570  0.216230  0.764930  1.0  -0.1569
  C  C213  1  0.876870  0.157830  0.745830  1.0  -0.1409
  C  C214  1  0.878470  0.161830  0.707930  1.0  -0.1267
  C  C215  1  0.914870  0.241730  0.691730  1.0  -0.1207
  C  C216  1  0.942170  0.298730  0.714430  1.0  0.1903
  C  C217  1  0.991270  0.420530  0.721830  1.0  0.103
  C  C218  1  0.986170  0.409330  0.758530  1.0  0.1442
  C  C219  1  0.731930  0.681170  0.209470  1.0  0.1782
  C  C220  1  0.789830  0.709670  0.183670  1.0  -0.1301
  C  C221  1  0.860630  0.736670  0.192170  1.0  -0.1644
  C  C222  1  0.878830  0.733370  0.227270  1.0  -0.1031
  C  C223  1  0.825830  0.710870  0.253270  1.0  -0.2047
  C  C224  1  0.755830  0.685070  0.243470  1.0  0.2523
  C  C225  1  0.635530  0.638170  0.260470  1.0  0.1279
  C  C226  1  0.612530  0.634670  0.224070  1.0  0.1514
  C  C227  1  0.602330  0.620170  0.084770  1.0  0.1511
  C  C228  1  0.572230  0.549570  0.098270  1.0  -0.1569
  C  C229  1  0.543530  0.491170  0.079170  1.0  -0.1409
  C  C230  1  0.545130  0.495170  0.041270  1.0  -0.1267
  C  C231  1  0.581530  0.575070  0.025070  1.0  -0.1206
  C  C232  1  0.608830  0.632070  0.047770  1.0  0.1904
  C  C233  1  0.657930  0.753870  0.055170  1.0  0.1051
  C  C234  1  0.652830  0.742670  0.091870  1.0  0.1442
  C  C235  1  0.985500  0.384100  0.542800  1.0  0.1772
  C  C236  1  0.957000  0.413500  0.517000  1.0  -0.1316
  C  C237  1  0.930000  0.457300  0.525500  1.0  -0.1627
  C  C238  1  0.933300  0.478800  0.560600  1.0  -0.1088
  C  C239  1  0.955800  0.448300  0.586600  1.0  -0.2046
  C  C240  1  0.981600  0.404100  0.576800  1.0  0.251
  C  C241  1  0.028500  0.330700  0.593800  1.0  0.1296
  C  C242  1  0.032000  0.311200  0.557400  1.0  0.1536
  C  C243  1  0.046500  0.315500  0.418100  1.0  0.1517
  C  C244  1  0.117100  0.356000  0.431600  1.0  -0.1561
  C  C245  1  0.175500  0.385700  0.412500  1.0  -0.1374
  C  C246  1  0.171500  0.383300  0.374600  1.0  -0.1268
  C  C247  1  0.091600  0.339800  0.358400  1.0  -0.1213
  C  C248  1  0.034600  0.310100  0.381100  1.0  0.1899
  C  C249  1  0.912800  0.237400  0.388500  1.0  0.1099
  C  C250  1  0.924000  0.243500  0.425200  1.0  0.1461
  C  C251  1  0.652170  0.717430  0.876130  1.0  0.1772
  C  C252  1  0.623670  0.746830  0.850330  1.0  -0.1316
  C  C253  1  0.596670  0.790630  0.858830  1.0  -0.1627
  C  C254  1  0.599970  0.812130  0.893930  1.0  -0.1088
  C  C255  1  0.622470  0.781630  0.919930  1.0  -0.2046
  C  C256  1  0.648270  0.737430  0.910130  1.0  0.2508
  C  C257  1  0.695170  0.664030  0.927130  1.0  0.1296
  C  C258  1  0.698670  0.644530  0.890730  1.0  0.1536
  C  C259  1  0.713170  0.648830  0.751430  1.0  0.1517
  C  C260  1  0.783770  0.689330  0.764930  1.0  -0.1561
  C  C261  1  0.842170  0.719030  0.745830  1.0  -0.1374
  C  C262  1  0.838170  0.716630  0.707930  1.0  -0.1268
  C  C263  1  0.758270  0.673130  0.691730  1.0  -0.1213
  C  C264  1  0.701270  0.643430  0.714430  1.0  0.1899
  C  C265  1  0.579470  0.570730  0.721830  1.0  0.1099
  C  C266  1  0.590670  0.576830  0.758530  1.0  0.1461
  C  C267  1  0.318830  0.050770  0.209470  1.0  0.1772
  C  C268  1  0.290330  0.080170  0.183670  1.0  -0.1316
  C  C269  1  0.263330  0.123970  0.192170  1.0  -0.1627
  C  C270  1  0.266630  0.145470  0.227270  1.0  -0.1088
  C  C271  1  0.289130  0.114970  0.253270  1.0  -0.2046
  C  C272  1  0.314930  0.070770  0.243470  1.0  0.2521
  C  C273  1  0.361830  0.997370  0.260470  1.0  0.1296
  C  C274  1  0.365330  0.977870  0.224070  1.0  0.1536
  C  C275  1  0.379830  0.982170  0.084770  1.0  0.1517
  C  C276  1  0.450430  0.022670  0.098270  1.0  -0.1562
  C  C277  1  0.508830  0.052370  0.079170  1.0  -0.1374
  C  C278  1  0.504830  0.049970  0.041270  1.0  -0.1268
  C  C279  1  0.424930  0.006470  0.025070  1.0  -0.1213
  C  C280  1  0.367930  0.976770  0.047770  1.0  0.1899
  C  C281  1  0.246130  0.904070  0.055170  1.0  0.1046
  C  C282  1  0.257330  0.910170  0.091870  1.0  0.1461
  C  C283  1  0.615900  0.601400  0.542800  1.0  0.1769
  C  C284  1  0.586500  0.543500  0.517000  1.0  -0.1312
  C  C285  1  0.542700  0.472700  0.525500  1.0  -0.1645
  C  C286  1  0.521200  0.454500  0.560600  1.0  -0.1107
  C  C287  1  0.551700  0.507500  0.586600  1.0  -0.2067
  C  C288  1  0.595900  0.577500  0.576800  1.0  0.2511
  C  C289  1  0.669300  0.697800  0.593800  1.0  0.1301
  C  C290  1  0.688800  0.720800  0.557400  1.0  0.1544
  C  C291  1  0.684500  0.731000  0.418100  1.0  0.1505
  C  C292  1  0.644000  0.761100  0.431600  1.0  -0.1542
  C  C293  1  0.614300  0.789800  0.412500  1.0  -0.1397
  C  C294  1  0.616700  0.788200  0.374600  1.0  -0.1285
  C  C295  1  0.660200  0.751800  0.358400  1.0  -0.1209
  C  C296  1  0.689900  0.724500  0.381100  1.0  0.1903
  C  C297  1  0.762600  0.675400  0.388500  1.0  0.108
  C  C298  1  0.756500  0.680500  0.425200  1.0  0.146
  C  C299  1  0.282570  0.934730  0.876130  1.0  0.1769
  C  C300  1  0.253170  0.876830  0.850330  1.0  -0.1312
  C  C301  1  0.209370  0.806030  0.858830  1.0  -0.1645
  C  C302  1  0.187870  0.787830  0.893930  1.0  -0.1107
  C  C303  1  0.218370  0.840830  0.919930  1.0  -0.2067
  C  C304  1  0.262570  0.910830  0.910130  1.0  0.2473
  C  C305  1  0.335970  0.031130  0.927130  1.0  0.1302
  C  C306  1  0.355470  0.054130  0.890730  1.0  0.1544
  C  C307  1  0.351170  0.064330  0.751430  1.0  0.1505
  C  C308  1  0.310670  0.094430  0.764930  1.0  -0.1542
  C  C309  1  0.280970  0.123130  0.745830  1.0  -0.1397
  C  C310  1  0.283370  0.121530  0.707930  1.0  -0.1285
  C  C311  1  0.326870  0.085130  0.691730  1.0  -0.1209
  C  C312  1  0.356570  0.057830  0.714430  1.0  0.1903
  C  C313  1  0.429270  0.008730  0.721830  1.0  0.1044
  C  C314  1  0.423170  0.013830  0.758530  1.0  0.146
  C  C315  1  0.949230  0.268070  0.209470  1.0  0.1769
  C  C316  1  0.919830  0.210170  0.183670  1.0  -0.1312
  C  C317  1  0.876030  0.139370  0.192170  1.0  -0.1645
  C  C318  1  0.854530  0.121170  0.227270  1.0  -0.1107
  C  C319  1  0.885030  0.174170  0.253270  1.0  -0.2067
  C  C320  1  0.929230  0.244170  0.243470  1.0  0.2511
  C  C321  1  0.002630  0.364470  0.260470  1.0  0.1301
  C  C322  1  0.022130  0.387470  0.224070  1.0  0.1544
  C  C323  1  0.017830  0.397670  0.084770  1.0  0.1505
  C  C324  1  0.977330  0.427770  0.098270  1.0  -0.1542
  C  C325  1  0.947630  0.456470  0.079170  1.0  -0.1397
  C  C326  1  0.950030  0.454870  0.041270  1.0  -0.1285
  C  C327  1  0.993530  0.418470  0.025070  1.0  -0.1209
  C  C328  1  0.023230  0.391170  0.047770  1.0  0.1903
  C  C329  1  0.095930  0.342070  0.055170  1.0  0.1044
  C  C330  1  0.089830  0.347170  0.091870  1.0  0.146
  N  N331  1  0.328900  0.993000  0.533600  1.0  -0.1646
  N  N332  1  0.371000  0.996300  0.602700  1.0  -0.3382
  N  N333  1  0.296200  0.014800  0.439000  1.0  -0.2882
  N  N334  1  0.308000  0.033600  0.367600  1.0  -0.3874
  N  N335  1  0.995570  0.326330  0.866930  1.0  -0.1646
  N  N336  1  0.037670  0.329630  0.936030  1.0  -0.3386
  N  N337  1  0.962870  0.348130  0.772330  1.0  -0.2882
  N  N338  1  0.974670  0.366930  0.700930  1.0  -0.3864
  N  N339  1  0.662230  0.659670  0.200270  1.0  -0.1646
  N  N340  1  0.704330  0.662970  0.269370  1.0  -0.3382
  N  N341  1  0.629530  0.681470  0.105670  1.0  -0.2882
  N  N342  1  0.641330  0.700270  0.034270  1.0  -0.3874
  N  N343  1  0.007000  0.335900  0.533600  1.0  -0.1662
  N  N344  1  0.003700  0.374700  0.602700  1.0  -0.3356
  N  N345  1  0.985200  0.281400  0.439000  1.0  -0.2882
  N  N346  1  0.966400  0.274400  0.367600  1.0  -0.3854
  N  N347  1  0.673670  0.669230  0.866930  1.0  -0.1662
  N  N348  1  0.670370  0.708030  0.936030  1.0  -0.3387
  N  N349  1  0.651870  0.614730  0.772330  1.0  -0.2882
  N  N350  1  0.633070  0.607730  0.700930  1.0  -0.3854
  N  N351  1  0.340330  0.002570  0.200270  1.0  -0.1662
  N  N352  1  0.337030  0.041370  0.269370  1.0  -0.3356
  N  N353  1  0.318530  0.948070  0.105670  1.0  -0.2882
  N  N354  1  0.299730  0.941070  0.034270  1.0  -0.3841
  N  N355  1  0.664100  0.671100  0.533600  1.0  -0.1655
  N  N356  1  0.625300  0.629000  0.602700  1.0  -0.3364
  N  N357  1  0.718600  0.703800  0.439000  1.0  -0.288
  N  N358  1  0.725600  0.692000  0.367600  1.0  -0.3872
  N  N359  1  0.330770  0.004430  0.866930  1.0  -0.1655
  N  N360  1  0.291970  0.962330  0.936030  1.0  -0.3334
  N  N361  1  0.385270  0.037130  0.772330  1.0  -0.288
  N  N362  1  0.392270  0.025330  0.700930  1.0  -0.3865
  N  N363  1  0.997430  0.337770  0.200270  1.0  -0.1655
  N  N364  1  0.958630  0.295670  0.269370  1.0  -0.3364
  N  N365  1  0.051930  0.370470  0.105670  1.0  -0.288
  N  N366  1  0.058930  0.358670  0.034270  1.0  -0.3865
  O  O367  1  0.074900  0.917000  0.652200  1.0  -0.7062
  O  O368  1  0.155800  0.056500  0.652500  1.0  -0.7256
  O  O369  1  0.989000  0.919600  0.704000  1.0  -0.7035
  O  O370  1  0.992700  0.926500  0.597000  1.0  -0.7702
  O  O371  1  0.062200  0.868000  0.555300  1.0  -0.6955
  O  O372  1  0.147700  0.982300  0.597100  1.0  -0.6948
  O  O373  1  0.980700  0.803300  0.612600  1.0  -0.761
  O  O374  1  0.075400  0.916900  0.460500  1.0  -0.7008
  O  O375  1  0.991100  0.925200  0.516300  1.0  -0.8389
  O  O376  1  0.148100  0.979600  0.516300  1.0  -0.7405
  O  O377  1  0.978200  0.801500  0.499900  1.0  -0.7411
  O  O378  1  0.158600  0.057800  0.461200  1.0  -0.7058
  O  O379  1  0.994600  0.925000  0.409700  1.0  -0.6993
  O  O380  1  0.201100  0.098300  0.556900  1.0  -0.7906
  O  O381  1  0.281800  0.102000  0.500900  1.0  -0.7176
  O  O382  1  0.741570  0.250330  0.985530  1.0  -0.7062
  O  O383  1  0.822470  0.389830  0.985830  1.0  -0.7256
  O  O384  1  0.655670  0.252930  0.037330  1.0  -0.7077
  O  O385  1  0.659370  0.259830  0.930330  1.0  -0.7702
  O  O386  1  0.728870  0.201330  0.888630  1.0  -0.6955
  O  O387  1  0.814370  0.315630  0.930430  1.0  -0.6948
  O  O388  1  0.647370  0.136630  0.945930  1.0  -0.761
  O  O389  1  0.742070  0.250230  0.793830  1.0  -0.7008
  O  O390  1  0.657770  0.258530  0.849630  1.0  -0.839
  O  O391  1  0.814770  0.312930  0.849630  1.0  -0.7405
  O  O392  1  0.644870  0.134830  0.833230  1.0  -0.7411
  O  O393  1  0.825270  0.391130  0.794530  1.0  -0.7058
  O  O394  1  0.661270  0.258330  0.743030  1.0  -0.6993
  O  O395  1  0.867770  0.431630  0.890230  1.0  -0.7905
  O  O396  1  0.948470  0.435330  0.834230  1.0  -0.7177
  O  O397  1  0.408230  0.583670  0.318870  1.0  -0.7062
  O  O398  1  0.489130  0.723170  0.319170  1.0  -0.7256
  O  O399  1  0.322330  0.586270  0.370670  1.0  -0.7035
  O  O400  1  0.326030  0.593170  0.263670  1.0  -0.7702
  O  O401  1  0.395530  0.534670  0.221970  1.0  -0.6955
  O  O402  1  0.481030  0.648970  0.263770  1.0  -0.6948
  O  O403  1  0.314030  0.469970  0.279270  1.0  -0.761
  O  O404  1  0.408730  0.583570  0.127170  1.0  -0.7008
  O  O405  1  0.324430  0.591870  0.182970  1.0  -0.8381
  O  O406  1  0.481430  0.646270  0.182970  1.0  -0.7405
  O  O407  1  0.311530  0.468170  0.166570  1.0  -0.7411
  O  O408  1  0.491930  0.724470  0.127870  1.0  -0.7058
  O  O409  1  0.327930  0.591670  0.076370  1.0  -0.6863
  O  O410  1  0.534430  0.764970  0.223570  1.0  -0.7906
  O  O411  1  0.615130  0.768670  0.167570  1.0  -0.7176
  O  O412  1  0.083000  0.157900  0.652200  1.0  -0.7042
  O  O413  1  0.943500  0.099300  0.652500  1.0  -0.727
  O  O414  1  0.080400  0.069400  0.704000  1.0  -0.7143
  O  O415  1  0.073500  0.066200  0.597000  1.0  -0.7689
  O  O416  1  0.132000  0.194200  0.555300  1.0  -0.6929
  O  O417  1  0.017700  0.165400  0.597100  1.0  -0.6971
  O  O418  1  0.196700  0.177400  0.612600  1.0  -0.7595
  O  O419  1  0.083100  0.158500  0.460500  1.0  -0.7017
  O  O420  1  0.074800  0.065900  0.516300  1.0  -0.8386
  O  O421  1  0.020400  0.168500  0.516300  1.0  -0.7417
  O  O422  1  0.198500  0.176700  0.499900  1.0  -0.7355
  O  O423  1  0.942200  0.100800  0.461200  1.0  -0.7065
  O  O424  1  0.075000  0.069600  0.409700  1.0  -0.6836
  O  O425  1  0.901700  0.102800  0.556900  1.0  -0.7888
  O  O426  1  0.898000  0.179800  0.500900  1.0  -0.7141
  O  O427  1  0.749670  0.491230  0.985530  1.0  -0.7042
  O  O428  1  0.610170  0.432630  0.985830  1.0  -0.7269
  O  O429  1  0.747070  0.402730  0.037330  1.0  -0.7093
  O  O430  1  0.740170  0.399530  0.930330  1.0  -0.7689
  O  O431  1  0.798670  0.527530  0.888630  1.0  -0.6929
  O  O432  1  0.684370  0.498730  0.930430  1.0  -0.6971
  O  O433  1  0.863370  0.510730  0.945930  1.0  -0.7595
  O  O434  1  0.749770  0.491830  0.793830  1.0  -0.7017
  O  O435  1  0.741470  0.399230  0.849630  1.0  -0.8386
  O  O436  1  0.687070  0.501830  0.849630  1.0  -0.7417
  O  O437  1  0.865170  0.510030  0.833230  1.0  -0.7355
  O  O438  1  0.608870  0.434130  0.794530  1.0  -0.7065
  O  O439  1  0.741670  0.402930  0.743030  1.0  -0.6836
  O  O440  1  0.568370  0.436130  0.890230  1.0  -0.7887
  O  O441  1  0.564670  0.513130  0.834230  1.0  -0.7141
  O  O442  1  0.416330  0.824570  0.318870  1.0  -0.7042
  O  O443  1  0.276830  0.765970  0.319170  1.0  -0.727
  O  O444  1  0.413730  0.736070  0.370670  1.0  -0.7143
  O  O445  1  0.406830  0.732870  0.263670  1.0  -0.7689
  O  O446  1  0.465330  0.860870  0.221970  1.0  -0.6929
  O  O447  1  0.351030  0.832070  0.263770  1.0  -0.6971
  O  O448  1  0.530030  0.844070  0.279270  1.0  -0.7595
  O  O449  1  0.416430  0.825170  0.127170  1.0  -0.7017
  O  O450  1  0.408130  0.732570  0.182970  1.0  -0.8386
  O  O451  1  0.353730  0.835170  0.182970  1.0  -0.7417
  O  O452  1  0.531830  0.843370  0.166570  1.0  -0.7355
  O  O453  1  0.275530  0.767470  0.127870  1.0  -0.7065
  O  O454  1  0.408330  0.736270  0.076370  1.0  -0.6985
  O  O455  1  0.235030  0.769470  0.223570  1.0  -0.7888
  O  O456  1  0.231330  0.846470  0.167570  1.0  -0.7141
  O  O457  1  0.842100  0.925100  0.652200  1.0  -0.7024
  O  O458  1  0.900700  0.844200  0.652500  1.0  -0.7269
  O  O459  1  0.930600  0.011000  0.704000  1.0  -0.7073
  O  O460  1  0.933800  0.007300  0.597000  1.0  -0.7684
  O  O461  1  0.805800  0.937800  0.555300  1.0  -0.685
  O  O462  1  0.834600  0.852300  0.597100  1.0  -0.6971
  O  O463  1  0.822600  0.019300  0.612600  1.0  -0.7583
  O  O464  1  0.841500  0.924600  0.460500  1.0  -0.6993
  O  O465  1  0.934100  0.008900  0.516300  1.0  -0.8377
  O  O466  1  0.831500  0.851900  0.516300  1.0  -0.741
  O  O467  1  0.823300  0.021800  0.499900  1.0  -0.7371
  O  O468  1  0.899200  0.841400  0.461200  1.0  -0.7051
  O  O469  1  0.930400  0.005400  0.409700  1.0  -0.6898
  O  O470  1  0.897200  0.798900  0.556900  1.0  -0.7936
  O  O471  1  0.820200  0.718200  0.500900  1.0  -0.7172
  O  O472  1  0.508770  0.258430  0.985530  1.0  -0.7024
  O  O473  1  0.567370  0.177530  0.985830  1.0  -0.7269
  O  O474  1  0.597270  0.344330  0.037330  1.0  -0.7004
  O  O475  1  0.600470  0.340630  0.930330  1.0  -0.7683
  O  O476  1  0.472470  0.271130  0.888630  1.0  -0.685
  O  O477  1  0.501270  0.185630  0.930430  1.0  -0.6971
  O  O478  1  0.489270  0.352630  0.945930  1.0  -0.7583
  O  O479  1  0.508170  0.257930  0.793830  1.0  -0.6993
  O  O480  1  0.600770  0.342230  0.849630  1.0  -0.837
  O  O481  1  0.498170  0.185230  0.849630  1.0  -0.741
  O  O482  1  0.489970  0.355130  0.833230  1.0  -0.7371
  O  O483  1  0.565870  0.174730  0.794530  1.0  -0.7051
  O  O484  1  0.597070  0.338730  0.743030  1.0  -0.6898
  O  O485  1  0.563870  0.132230  0.890230  1.0  -0.7936
  O  O486  1  0.486870  0.051530  0.834230  1.0  -0.7172
  O  O487  1  0.175430  0.591770  0.318870  1.0  -0.7024
  O  O488  1  0.234030  0.510870  0.319170  1.0  -0.7269
  O  O489  1  0.263930  0.677670  0.370670  1.0  -0.7073
  O  O490  1  0.267130  0.673970  0.263670  1.0  -0.7684
  O  O491  1  0.139130  0.604470  0.221970  1.0  -0.685
  O  O492  1  0.167930  0.518970  0.263770  1.0  -0.6971
  O  O493  1  0.155930  0.685970  0.279270  1.0  -0.7583
  O  O494  1  0.174830  0.591270  0.127170  1.0  -0.6993
  O  O495  1  0.267430  0.675570  0.182970  1.0  -0.8377
  O  O496  1  0.164830  0.518570  0.182970  1.0  -0.741
  O  O497  1  0.156630  0.688470  0.166570  1.0  -0.7371
  O  O498  1  0.232530  0.508070  0.127870  1.0  -0.7051
  O  O499  1  0.263730  0.672070  0.076370  1.0  -0.7007
  O  O500  1  0.230530  0.465570  0.223570  1.0  -0.7936
  O  O501  1  0.153530  0.384870  0.167570  1.0  -0.7172
  O  O502  1  0.000000  0.000000  0.650200  1.0  -0.7722
  O  O503  1  0.000000  0.000000  0.463600  1.0  -0.7588
  O  O504  1  0.666667  0.333333  0.983530  1.0  -0.7734
  O  O505  1  0.666667  0.333333  0.796930  1.0  -0.7587
  O  O506  1  0.333333  0.666667  0.316870  1.0  -0.7734
  O  O507  1  0.333333  0.666667  0.130270  1.0  -0.7591
