# generated using pymatgen
data_MnH6(C9O4)2
_symmetry_space_group_name_H-M   'P 1'
_cell_length_a   10.91300000
_cell_length_b   23.19500000
_cell_length_c   10.04300000
_cell_angle_alpha   90.00000000
_cell_angle_beta   104.15000000
_cell_angle_gamma   90.00000000
_symmetry_Int_Tables_number   1
_chemical_formula_structural   MnH6(C9O4)2
_chemical_formula_sum   'Mn4 H24 C72 O32'
_cell_volume   2465.02342504
_cell_formula_units_Z   4
loop_
 _symmetry_equiv_pos_site_id
 _symmetry_equiv_pos_as_xyz
  1  'x, y, z'
loop_
 _atom_site_type_symbol
 _atom_site_label
 _atom_site_symmetry_multiplicity
 _atom_site_fract_x
 _atom_site_fract_y
 _atom_site_fract_z
 _atom_site_occupancy
 _atom_site_charge
  Mn  Mn1  1  0.000000  0.845910  0.250000  1.0  1.2015
  Mn  Mn2  1  0.500000  0.345910  0.250000  1.0  1.2015
  Mn  Mn3  1  0.000000  0.154090  0.750000  1.0  1.199
  Mn  Mn4  1  0.500000  0.654090  0.750000  1.0  1.199
  H  H5  1  0.411900  0.758500  0.063700  1.0  0.147
  H  H6  1  0.592900  0.886600  0.923100  1.0  0.161
  H  H7  1  0.341000  0.923100  0.144500  1.0  0.158
  H  H8  1  0.911900  0.258500  0.063700  1.0  0.147
  H  H9  1  0.092900  0.386600  0.923100  1.0  0.161
  H  H10  1  0.841000  0.423100  0.144500  1.0  0.158
  H  H11  1  0.588100  0.758500  0.436300  1.0  0.1467
  H  H12  1  0.407100  0.886600  0.576900  1.0  0.1621
  H  H13  1  0.659000  0.923100  0.355500  1.0  0.158
  H  H14  1  0.088100  0.258500  0.436300  1.0  0.1467
  H  H15  1  0.907100  0.386600  0.576900  1.0  0.1621
  H  H16  1  0.159000  0.423100  0.355500  1.0  0.158
  H  H17  1  0.588100  0.241500  0.936300  1.0  0.146
  H  H18  1  0.407100  0.113400  0.076900  1.0  0.1618
  H  H19  1  0.659000  0.076900  0.855500  1.0  0.159
  H  H20  1  0.088100  0.741500  0.936300  1.0  0.146
  H  H21  1  0.907100  0.613400  0.076900  1.0  0.1618
  H  H22  1  0.159000  0.576900  0.855500  1.0  0.159
  H  H23  1  0.411900  0.241500  0.563700  1.0  0.1461
  H  H24  1  0.592900  0.113400  0.423100  1.0  0.1611
  H  H25  1  0.341000  0.076900  0.644500  1.0  0.1584
  H  H26  1  0.911900  0.741500  0.563700  1.0  0.1461
  H  H27  1  0.092900  0.613400  0.423100  1.0  0.1611
  H  H28  1  0.841000  0.576900  0.644500  1.0  0.1584
  C  C29  1  0.362530  0.837710  0.116610  1.0  -0.117
  C  C30  1  0.426190  0.797730  0.055170  1.0  0.0666
  C  C31  1  0.511040  0.816100  0.981230  1.0  -0.1029
  C  C32  1  0.534460  0.874450  0.970800  1.0  -0.0289
  C  C33  1  0.470800  0.915100  0.031400  1.0  0.0059
  C  C34  1  0.384230  0.896360  0.104210  1.0  -0.0029
  C  C35  1  0.268230  0.817430  0.193010  1.0  0.7423
  C  C36  1  0.572730  0.772790  0.907300  1.0  0.7472
  C  C37  1  0.491700  0.975390  0.012000  1.0  -0.0915
  C  C38  1  0.862530  0.337710  0.116610  1.0  -0.117
  C  C39  1  0.926190  0.297730  0.055170  1.0  0.0666
  C  C40  1  0.011040  0.316100  0.981230  1.0  -0.1029
  C  C41  1  0.034460  0.374450  0.970800  1.0  -0.0289
  C  C42  1  0.970800  0.415100  0.031400  1.0  0.0059
  C  C43  1  0.884230  0.396360  0.104210  1.0  -0.0029
  C  C44  1  0.768230  0.317430  0.193010  1.0  0.7423
  C  C45  1  0.072730  0.272790  0.907300  1.0  0.7472
  C  C46  1  0.991700  0.475390  0.012000  1.0  -0.0915
  C  C47  1  0.637470  0.837710  0.383390  1.0  -0.1171
  C  C48  1  0.573810  0.797730  0.444830  1.0  0.0678
  C  C49  1  0.488960  0.816100  0.518770  1.0  -0.1015
  C  C50  1  0.465540  0.874450  0.529200  1.0  -0.0295
  C  C51  1  0.529200  0.915100  0.468600  1.0  0.005
  C  C52  1  0.615770  0.896360  0.395790  1.0  -0.001
  C  C53  1  0.731770  0.817430  0.306990  1.0  0.7418
  C  C54  1  0.427270  0.772790  0.592700  1.0  0.7484
  C  C55  1  0.508300  0.975390  0.488000  1.0  -0.0906
  C  C56  1  0.137470  0.337710  0.383390  1.0  -0.1171
  C  C57  1  0.073810  0.297730  0.444830  1.0  0.0678
  C  C58  1  0.988960  0.316100  0.518770  1.0  -0.1015
  C  C59  1  0.965540  0.374450  0.529200  1.0  -0.0295
  C  C60  1  0.029200  0.415100  0.468600  1.0  0.005
  C  C61  1  0.115770  0.396360  0.395790  1.0  -0.001
  C  C62  1  0.231770  0.317430  0.306990  1.0  0.7418
  C  C63  1  0.927270  0.272790  0.592700  1.0  0.7484
  C  C64  1  0.008300  0.475390  0.488000  1.0  -0.0906
  C  C65  1  0.637470  0.162290  0.883390  1.0  -0.117
  C  C66  1  0.573810  0.202270  0.944830  1.0  0.0669
  C  C67  1  0.488960  0.183900  0.018770  1.0  -0.102
  C  C68  1  0.465540  0.125550  0.029200  1.0  -0.0283
  C  C69  1  0.529200  0.084900  0.968600  1.0  0.0043
  C  C70  1  0.615770  0.103640  0.895790  1.0  -0.0021
  C  C71  1  0.731770  0.182570  0.806990  1.0  0.7426
  C  C72  1  0.427270  0.227210  0.092700  1.0  0.7471
  C  C73  1  0.508300  0.024610  0.988000  1.0  -0.0882
  C  C74  1  0.137470  0.662290  0.883390  1.0  -0.117
  C  C75  1  0.073810  0.702270  0.944830  1.0  0.0669
  C  C76  1  0.988960  0.683900  0.018770  1.0  -0.102
  C  C77  1  0.965540  0.625550  0.029200  1.0  -0.0283
  C  C78  1  0.029200  0.584900  0.968600  1.0  0.0043
  C  C79  1  0.115770  0.603640  0.895790  1.0  -0.0021
  C  C80  1  0.231770  0.682570  0.806990  1.0  0.7426
  C  C81  1  0.927270  0.727210  0.092700  1.0  0.7471
  C  C82  1  0.008300  0.524610  0.988000  1.0  -0.0882
  C  C83  1  0.362530  0.162290  0.616610  1.0  -0.1169
  C  C84  1  0.426190  0.202270  0.555170  1.0  0.0664
  C  C85  1  0.511040  0.183900  0.481230  1.0  -0.1028
  C  C86  1  0.534460  0.125550  0.470800  1.0  -0.0281
  C  C87  1  0.470800  0.084900  0.531400  1.0  0.0041
  C  C88  1  0.384230  0.103640  0.604210  1.0  -0.0028
  C  C89  1  0.268230  0.182570  0.693010  1.0  0.7427
  C  C90  1  0.572730  0.227210  0.407300  1.0  0.7459
  C  C91  1  0.491700  0.024610  0.512000  1.0  -0.0893
  C  C92  1  0.862530  0.662290  0.616610  1.0  -0.1169
  C  C93  1  0.926190  0.702270  0.555170  1.0  0.0664
  C  C94  1  0.011040  0.683900  0.481230  1.0  -0.1028
  C  C95  1  0.034460  0.625550  0.470800  1.0  -0.0281
  C  C96  1  0.970800  0.584900  0.531400  1.0  0.0041
  C  C97  1  0.884230  0.603640  0.604210  1.0  -0.0028
  C  C98  1  0.768230  0.682570  0.693010  1.0  0.7427
  C  C99  1  0.072730  0.727210  0.407300  1.0  0.7459
  C  C100  1  0.991700  0.524610  0.512000  1.0  -0.0893
  O  O101  1  0.190700  0.851930  0.218120  1.0  -0.6207
  O  O102  1  0.277340  0.764100  0.225320  1.0  -0.5383
  O  O103  1  0.537760  0.721760  0.903740  1.0  -0.5931
  O  O104  1  0.656220  0.792420  0.851000  1.0  -0.5363
  O  O105  1  0.690700  0.351930  0.218120  1.0  -0.6207
  O  O106  1  0.777340  0.264100  0.225320  1.0  -0.5383
  O  O107  1  0.037760  0.221760  0.903740  1.0  -0.5931
  O  O108  1  0.156220  0.292420  0.851000  1.0  -0.5363
  O  O109  1  0.809300  0.851930  0.281880  1.0  -0.6205
  O  O110  1  0.722660  0.764100  0.274680  1.0  -0.5389
  O  O111  1  0.462240  0.721760  0.596260  1.0  -0.5931
  O  O112  1  0.343780  0.792420  0.649000  1.0  -0.5362
  O  O113  1  0.309300  0.351930  0.281880  1.0  -0.6205
  O  O114  1  0.222660  0.264100  0.274680  1.0  -0.5389
  O  O115  1  0.962240  0.221760  0.596260  1.0  -0.5931
  O  O116  1  0.843780  0.292420  0.649000  1.0  -0.5362
  O  O117  1  0.809300  0.148070  0.781880  1.0  -0.6218
  O  O118  1  0.722660  0.235900  0.774680  1.0  -0.5393
  O  O119  1  0.462240  0.278240  0.096260  1.0  -0.5896
  O  O120  1  0.343780  0.207580  0.149000  1.0  -0.5347
  O  O121  1  0.309300  0.648070  0.781880  1.0  -0.6218
  O  O122  1  0.222660  0.735900  0.774680  1.0  -0.5393
  O  O123  1  0.962240  0.778240  0.096260  1.0  -0.5896
  O  O124  1  0.843780  0.707580  0.149000  1.0  -0.5347
  O  O125  1  0.190700  0.148070  0.718120  1.0  -0.6224
  O  O126  1  0.277340  0.235900  0.725320  1.0  -0.5398
  O  O127  1  0.537760  0.278240  0.403740  1.0  -0.5899
  O  O128  1  0.656220  0.207580  0.351000  1.0  -0.5356
  O  O129  1  0.690700  0.648070  0.718120  1.0  -0.6224
  O  O130  1  0.777340  0.735900  0.725320  1.0  -0.5398
  O  O131  1  0.037760  0.778240  0.403740  1.0  -0.5899
  O  O132  1  0.156220  0.707580  0.351000  1.0  -0.5356
