# generated using pymatgen
data_CdNiC7N6
_symmetry_space_group_name_H-M   'P 1'
_cell_length_a   13.91600000
_cell_length_b   26.63800000
_cell_length_c   7.63100000
_cell_angle_alpha   90.00000000
_cell_angle_beta   90.00000000
_cell_angle_gamma   90.00000000
_symmetry_Int_Tables_number   1
_chemical_formula_structural   CdNiC7N6
_chemical_formula_sum   'Cd8 Ni8 C56 N48'
_cell_volume   2828.76902745
_cell_formula_units_Z   8
loop_
 _symmetry_equiv_pos_site_id
 _symmetry_equiv_pos_as_xyz
  1  'x, y, z'
loop_
 _atom_site_type_symbol
 _atom_site_label
 _atom_site_symmetry_multiplicity
 _atom_site_fract_x
 _atom_site_fract_y
 _atom_site_fract_z
 _atom_site_occupancy
 _atom_site_charge
  Cd  Cd1  1  0.218150  0.114770  0.133660  1.0  1.0346
  Cd  Cd2  1  0.281850  0.885230  0.633660  1.0  1.0364
  Cd  Cd3  1  0.781850  0.614770  0.866340  1.0  1.036
  Cd  Cd4  1  0.718150  0.385230  0.366340  1.0  1.0357
  Cd  Cd5  1  0.781850  0.885230  0.866340  1.0  1.0366
  Cd  Cd6  1  0.718150  0.114770  0.366340  1.0  1.035
  Cd  Cd7  1  0.218150  0.385230  0.133660  1.0  1.0353
  Cd  Cd8  1  0.281850  0.614770  0.633660  1.0  1.0358
  Ni  Ni9  1  0.243600  0.250000  0.629100  1.0  0.0935
  Ni  Ni10  1  0.256400  0.750000  0.129100  1.0  0.0941
  Ni  Ni11  1  0.756400  0.750000  0.370900  1.0  0.094
  Ni  Ni12  1  0.743600  0.250000  0.870900  1.0  0.0934
  Ni  Ni13  1  0.000000  0.000000  0.500000  1.0  0.3205
  Ni  Ni14  1  0.500000  0.000000  0.000000  1.0  0.3205
  Ni  Ni15  1  0.000000  0.500000  0.500000  1.0  0.3205
  Ni  Ni16  1  0.500000  0.500000  0.000000  1.0  0.3205
  C  C17  1  0.246500  0.201200  0.804000  1.0  0.1781
  C  C18  1  0.238500  0.201200  0.458000  1.0  0.1825
  C  C19  1  0.107600  0.030000  0.402000  1.0  0.1702
  C  C20  1  0.423600  0.052000  0.080000  1.0  0.1667
  C  C21  1  0.077000  0.060300  0.874000  1.0  0.1221
  C  C22  1  0.023000  0.095800  0.939000  1.0  0.2214
  C  C23  1  0.913700  0.097300  0.896000  1.0  0.0013
  C  C24  1  0.253500  0.798800  0.304000  1.0  0.1769
  C  C25  1  0.261500  0.798800  0.958000  1.0  0.1823
  C  C26  1  0.392400  0.970000  0.902000  1.0  0.1703
  C  C27  1  0.076400  0.948000  0.580000  1.0  0.1677
  C  C28  1  0.423000  0.939700  0.374000  1.0  0.1208
  C  C29  1  0.477000  0.904200  0.439000  1.0  0.22
  C  C30  1  0.586300  0.902700  0.396000  1.0  -0.0019
  C  C31  1  0.753500  0.701200  0.196000  1.0  0.1781
  C  C32  1  0.761500  0.701200  0.542000  1.0  0.1824
  C  C33  1  0.892400  0.530000  0.598000  1.0  0.1703
  C  C34  1  0.576400  0.552000  0.920000  1.0  0.1662
  C  C35  1  0.923000  0.560300  0.126000  1.0  0.1226
  C  C36  1  0.977000  0.595800  0.061000  1.0  0.2202
  C  C37  1  0.086300  0.597300  0.104000  1.0  -0.0024
  C  C38  1  0.746500  0.298800  0.696000  1.0  0.1772
  C  C39  1  0.738500  0.298800  0.042000  1.0  0.1819
  C  C40  1  0.607600  0.470000  0.098000  1.0  0.1702
  C  C41  1  0.923600  0.448000  0.420000  1.0  0.1677
  C  C42  1  0.577000  0.439700  0.626000  1.0  0.1214
  C  C43  1  0.523000  0.404200  0.561000  1.0  0.2208
  C  C44  1  0.413700  0.402700  0.604000  1.0  0.0012
  C  C45  1  0.753500  0.798800  0.196000  1.0  0.1771
  C  C46  1  0.761500  0.798800  0.542000  1.0  0.1818
  C  C47  1  0.892400  0.970000  0.598000  1.0  0.1706
  C  C48  1  0.576400  0.948000  0.920000  1.0  0.1674
  C  C49  1  0.923000  0.939700  0.126000  1.0  0.1215
  C  C50  1  0.977000  0.904200  0.061000  1.0  0.2198
  C  C51  1  0.086300  0.902700  0.104000  1.0  -0.0023
  C  C52  1  0.746500  0.201200  0.696000  1.0  0.1783
  C  C53  1  0.738500  0.201200  0.042000  1.0  0.1819
  C  C54  1  0.607600  0.030000  0.098000  1.0  0.1699
  C  C55  1  0.923600  0.052000  0.420000  1.0  0.1664
  C  C56  1  0.577000  0.060300  0.626000  1.0  0.1226
  C  C57  1  0.523000  0.095800  0.561000  1.0  0.2213
  C  C58  1  0.413700  0.097300  0.604000  1.0  0.0011
  C  C59  1  0.246500  0.298800  0.804000  1.0  0.177
  C  C60  1  0.238500  0.298800  0.458000  1.0  0.1817
  C  C61  1  0.107600  0.470000  0.402000  1.0  0.1706
  C  C62  1  0.423600  0.448000  0.080000  1.0  0.1675
  C  C63  1  0.077000  0.439700  0.874000  1.0  0.1207
  C  C64  1  0.023000  0.404200  0.939000  1.0  0.221
  C  C65  1  0.913700  0.402700  0.896000  1.0  0.0013
  C  C66  1  0.253500  0.701200  0.304000  1.0  0.178
  C  C67  1  0.261500  0.701200  0.958000  1.0  0.1823
  C  C68  1  0.392400  0.530000  0.902000  1.0  0.17
  C  C69  1  0.076400  0.552000  0.580000  1.0  0.1662
  C  C70  1  0.423000  0.560300  0.374000  1.0  0.122
  C  C71  1  0.477000  0.595800  0.439000  1.0  0.2204
  C  C72  1  0.586300  0.597300  0.396000  1.0  -0.0018
  N  N73  1  0.247400  0.172300  0.912000  1.0  -0.4128
  N  N74  1  0.234400  0.170400  0.353000  1.0  -0.4279
  N  N75  1  0.171800  0.048900  0.337000  1.0  -0.4255
  N  N76  1  0.374500  0.083000  0.129000  1.0  -0.434
  N  N77  1  0.179600  0.058100  0.903000  1.0  -0.2967
  N  N78  1  0.052500  0.127800  0.081000  1.0  -0.2875
  N  N79  1  0.252600  0.827700  0.412000  1.0  -0.4123
  N  N80  1  0.265600  0.829600  0.853000  1.0  -0.4291
  N  N81  1  0.328200  0.951100  0.837000  1.0  -0.4256
  N  N82  1  0.125500  0.917000  0.629000  1.0  -0.4303
  N  N83  1  0.320400  0.941900  0.403000  1.0  -0.298
  N  N84  1  0.447500  0.872200  0.581000  1.0  -0.2846
  N  N85  1  0.752600  0.672300  0.088000  1.0  -0.4121
  N  N86  1  0.765600  0.670400  0.647000  1.0  -0.4284
  N  N87  1  0.828200  0.548900  0.663000  1.0  -0.4261
  N  N88  1  0.625500  0.583000  0.871000  1.0  -0.4323
  N  N89  1  0.820400  0.558100  0.097000  1.0  -0.2978
  N  N90  1  0.947500  0.627800  0.919000  1.0  -0.2865
  N  N91  1  0.747400  0.327700  0.588000  1.0  -0.4115
  N  N92  1  0.734400  0.329600  0.147000  1.0  -0.4294
  N  N93  1  0.671800  0.451100  0.163000  1.0  -0.4258
  N  N94  1  0.874500  0.417000  0.371000  1.0  -0.431
  N  N95  1  0.679600  0.441900  0.597000  1.0  -0.2961
  N  N96  1  0.552500  0.372200  0.419000  1.0  -0.2858
  N  N97  1  0.752600  0.827700  0.088000  1.0  -0.412
  N  N98  1  0.765600  0.829600  0.647000  1.0  -0.4293
  N  N99  1  0.828200  0.951100  0.663000  1.0  -0.4259
  N  N100  1  0.625500  0.917000  0.871000  1.0  -0.4297
  N  N101  1  0.820400  0.941900  0.097000  1.0  -0.2979
  N  N102  1  0.947500  0.872200  0.919000  1.0  -0.2846
  N  N103  1  0.747400  0.172300  0.588000  1.0  -0.4118
  N  N104  1  0.734400  0.170400  0.147000  1.0  -0.4284
  N  N105  1  0.671800  0.048900  0.163000  1.0  -0.4258
  N  N106  1  0.874500  0.083000  0.371000  1.0  -0.4333
  N  N107  1  0.679600  0.058100  0.597000  1.0  -0.2957
  N  N108  1  0.552500  0.127800  0.419000  1.0  -0.2879
  N  N109  1  0.247400  0.327700  0.912000  1.0  -0.412
  N  N110  1  0.234400  0.329600  0.353000  1.0  -0.4292
  N  N111  1  0.171800  0.451100  0.337000  1.0  -0.4254
  N  N112  1  0.374500  0.417000  0.129000  1.0  -0.4315
  N  N113  1  0.179600  0.441900  0.903000  1.0  -0.2971
  N  N114  1  0.052500  0.372200  0.081000  1.0  -0.2858
  N  N115  1  0.252600  0.672300  0.412000  1.0  -0.4128
  N  N116  1  0.265600  0.670400  0.853000  1.0  -0.4278
  N  N117  1  0.328200  0.548900  0.837000  1.0  -0.4258
  N  N118  1  0.125500  0.583000  0.629000  1.0  -0.4328
  N  N119  1  0.320400  0.558100  0.403000  1.0  -0.2977
  N  N120  1  0.447500  0.627800  0.581000  1.0  -0.2861
