# generated using pymatgen
data_CdNiC7N6
_symmetry_space_group_name_H-M   'P 1'
_cell_length_a   13.91600000
_cell_length_b   26.63800000
_cell_length_c   7.63100000
_cell_angle_alpha   90.00000000
_cell_angle_beta   90.00000000
_cell_angle_gamma   90.00000000
_symmetry_Int_Tables_number   1
_chemical_formula_structural   CdNiC7N6
_chemical_formula_sum   'Cd8 Ni8 C56 N48'
_cell_volume   2828.76902745
_cell_formula_units_Z   8
loop_
 _symmetry_equiv_pos_site_id
 _symmetry_equiv_pos_as_xyz
  1  'x, y, z'
loop_
 _atom_site_type_symbol
 _atom_site_label
 _atom_site_symmetry_multiplicity
 _atom_site_fract_x
 _atom_site_fract_y
 _atom_site_fract_z
 _atom_site_occupancy
 _atom_site_charge
  Cd  Cd1  1  0.218200  0.114770  0.133640  1.0  1.0394
  Cd  Cd2  1  0.281800  0.885230  0.633640  1.0  1.0412
  Cd  Cd3  1  0.781800  0.614770  0.866360  1.0  1.0406
  Cd  Cd4  1  0.718200  0.385230  0.366360  1.0  1.0404
  Cd  Cd5  1  0.781800  0.885230  0.866360  1.0  1.0413
  Cd  Cd6  1  0.718200  0.114770  0.366360  1.0  1.0396
  Cd  Cd7  1  0.218200  0.385230  0.133640  1.0  1.0401
  Cd  Cd8  1  0.281800  0.614770  0.633640  1.0  1.0406
  Ni  Ni9  1  0.243670  0.250000  0.629100  1.0  0.0633
  Ni  Ni10  1  0.256330  0.750000  0.129100  1.0  0.0634
  Ni  Ni11  1  0.756330  0.750000  0.370900  1.0  0.0635
  Ni  Ni12  1  0.743670  0.250000  0.870900  1.0  0.0633
  Ni  Ni13  1  0.000000  0.000000  0.500000  1.0  0.3305
  Ni  Ni14  1  0.500000  0.000000  0.000000  1.0  0.3305
  Ni  Ni15  1  0.000000  0.500000  0.500000  1.0  0.3305
  Ni  Ni16  1  0.500000  0.500000  0.000000  1.0  0.3305
  C  C17  1  0.246300  0.201200  0.804000  1.0  0.1749
  C  C18  1  0.238600  0.200600  0.458500  1.0  0.1775
  C  C19  1  0.107400  0.029900  0.401700  1.0  0.1512
  C  C20  1  0.423700  0.052000  0.079900  1.0  0.1684
  C  C21  1  0.076600  0.059000  0.881400  1.0  0.141
  C  C22  1  0.021700  0.095000  0.944600  1.0  0.2087
  C  C23  1  0.913900  0.097200  0.896600  1.0  -0.0006
  C  C24  1  0.253700  0.798800  0.304000  1.0  0.1741
  C  C25  1  0.261400  0.799400  0.958500  1.0  0.1771
  C  C26  1  0.392600  0.970100  0.901700  1.0  0.1509
  C  C27  1  0.076300  0.948000  0.579900  1.0  0.1702
  C  C28  1  0.423400  0.941000  0.381400  1.0  0.1402
  C  C29  1  0.478300  0.905000  0.444600  1.0  0.2074
  C  C30  1  0.586100  0.902800  0.396600  1.0  -0.0038
  C  C31  1  0.753700  0.701200  0.196000  1.0  0.1754
  C  C32  1  0.761400  0.700600  0.541500  1.0  0.1761
  C  C33  1  0.892600  0.529900  0.598300  1.0  0.1517
  C  C34  1  0.576300  0.552000  0.920100  1.0  0.1686
  C  C35  1  0.923400  0.559000  0.118600  1.0  0.1413
  C  C36  1  0.978300  0.595000  0.055400  1.0  0.208
  C  C37  1  0.086100  0.597200  0.103400  1.0  -0.005
  C  C38  1  0.746300  0.298800  0.696000  1.0  0.1747
  C  C39  1  0.738600  0.299400  0.041500  1.0  0.1751
  C  C40  1  0.607400  0.470100  0.098300  1.0  0.1524
  C  C41  1  0.923700  0.448000  0.420100  1.0  0.1696
  C  C42  1  0.576600  0.441000  0.618600  1.0  0.1399
  C  C43  1  0.521700  0.405000  0.555400  1.0  0.2083
  C  C44  1  0.413900  0.402800  0.603400  1.0  -0.0011
  C  C45  1  0.753700  0.798800  0.196000  1.0  0.1747
  C  C46  1  0.761400  0.799400  0.541500  1.0  0.1753
  C  C47  1  0.892600  0.970100  0.598300  1.0  0.1517
  C  C48  1  0.576300  0.948000  0.920100  1.0  0.1697
  C  C49  1  0.923400  0.941000  0.118600  1.0  0.1403
  C  C50  1  0.978300  0.905000  0.055400  1.0  0.2075
  C  C51  1  0.086100  0.902800  0.103400  1.0  -0.0048
  C  C52  1  0.746300  0.201200  0.696000  1.0  0.1753
  C  C53  1  0.738600  0.200600  0.041500  1.0  0.1758
  C  C54  1  0.607400  0.029900  0.098300  1.0  0.152
  C  C55  1  0.923700  0.052000  0.420100  1.0  0.1684
  C  C56  1  0.576600  0.059000  0.618600  1.0  0.141
  C  C57  1  0.521700  0.095000  0.555400  1.0  0.2089
  C  C58  1  0.413900  0.097200  0.603400  1.0  -0.0015
  C  C59  1  0.246300  0.298800  0.804000  1.0  0.1739
  C  C60  1  0.238600  0.299400  0.458500  1.0  0.1768
  C  C61  1  0.107400  0.470100  0.401700  1.0  0.1515
  C  C62  1  0.423700  0.448000  0.079900  1.0  0.1691
  C  C63  1  0.076600  0.441000  0.881400  1.0  0.1399
  C  C64  1  0.021700  0.405000  0.944600  1.0  0.208
  C  C65  1  0.913900  0.402800  0.896600  1.0  -0.0004
  C  C66  1  0.253700  0.701200  0.304000  1.0  0.1749
  C  C67  1  0.261400  0.700600  0.958500  1.0  0.1776
  C  C68  1  0.392600  0.529900  0.901700  1.0  0.1508
  C  C69  1  0.076300  0.552000  0.579900  1.0  0.1686
  C  C70  1  0.423400  0.559000  0.381400  1.0  0.1414
  C  C71  1  0.478300  0.595000  0.444600  1.0  0.208
  C  C72  1  0.586100  0.597200  0.396600  1.0  -0.0037
  N  N73  1  0.247400  0.172200  0.913400  1.0  -0.3997
  N  N74  1  0.234400  0.170300  0.352700  1.0  -0.4029
  N  N75  1  0.172300  0.048900  0.339100  1.0  -0.4314
  N  N76  1  0.373800  0.082900  0.127700  1.0  -0.4277
  N  N77  1  0.179000  0.057700  0.904300  1.0  -0.3031
  N  N78  1  0.053100  0.127800  0.081500  1.0  -0.2923
  N  N79  1  0.252600  0.827800  0.413400  1.0  -0.4001
  N  N80  1  0.265600  0.829700  0.852700  1.0  -0.4053
  N  N81  1  0.327700  0.951100  0.839100  1.0  -0.4317
  N  N82  1  0.126200  0.917100  0.627700  1.0  -0.4224
  N  N83  1  0.321000  0.942300  0.404300  1.0  -0.3044
  N  N84  1  0.446900  0.872200  0.581500  1.0  -0.2912
  N  N85  1  0.752600  0.672200  0.086600  1.0  -0.3989
  N  N86  1  0.765600  0.670300  0.647300  1.0  -0.4039
  N  N87  1  0.827700  0.548900  0.660900  1.0  -0.4314
  N  N88  1  0.626200  0.582900  0.872300  1.0  -0.4251
  N  N89  1  0.821000  0.557700  0.095700  1.0  -0.3037
  N  N90  1  0.946900  0.627800  0.918500  1.0  -0.2928
  N  N91  1  0.747400  0.327800  0.586600  1.0  -0.3984
  N  N92  1  0.734400  0.329700  0.147300  1.0  -0.4061
  N  N93  1  0.672300  0.451100  0.160900  1.0  -0.4313
  N  N94  1  0.873800  0.417100  0.372300  1.0  -0.4233
  N  N95  1  0.679000  0.442300  0.595700  1.0  -0.3026
  N  N96  1  0.553100  0.372200  0.418500  1.0  -0.2912
  N  N97  1  0.752600  0.827800  0.086600  1.0  -0.3991
  N  N98  1  0.765600  0.829700  0.647300  1.0  -0.406
  N  N99  1  0.827700  0.951100  0.660900  1.0  -0.4315
  N  N100  1  0.626200  0.917100  0.872300  1.0  -0.4215
  N  N101  1  0.821000  0.942300  0.095700  1.0  -0.3036
  N  N102  1  0.946900  0.872200  0.918500  1.0  -0.2913
  N  N103  1  0.747400  0.172200  0.586600  1.0  -0.3983
  N  N104  1  0.734400  0.170300  0.147300  1.0  -0.404
  N  N105  1  0.672300  0.048900  0.160900  1.0  -0.4312
  N  N106  1  0.873800  0.082900  0.372300  1.0  -0.4264
  N  N107  1  0.679000  0.057700  0.595700  1.0  -0.3027
  N  N108  1  0.553100  0.127800  0.418500  1.0  -0.2933
  N  N109  1  0.247400  0.327800  0.913400  1.0  -0.3995
  N  N110  1  0.234400  0.329700  0.352700  1.0  -0.4055
  N  N111  1  0.172300  0.451100  0.339100  1.0  -0.4313
  N  N112  1  0.373800  0.417100  0.127700  1.0  -0.4243
  N  N113  1  0.179000  0.442300  0.904300  1.0  -0.303
  N  N114  1  0.053100  0.372200  0.081500  1.0  -0.2906
  N  N115  1  0.252600  0.672200  0.413400  1.0  -0.4002
  N  N116  1  0.265600  0.670300  0.852700  1.0  -0.4028
  N  N117  1  0.327700  0.548900  0.839100  1.0  -0.4317
  N  N118  1  0.126200  0.582900  0.627700  1.0  -0.4263
  N  N119  1  0.321000  0.557700  0.404300  1.0  -0.3045
  N  N120  1  0.446900  0.627800  0.581500  1.0  -0.2922
