# generated using pymatgen
data_CdNiH44(C11N4)2
_symmetry_space_group_name_H-M   'P 1'
_cell_length_a   9.08700000
_cell_length_b   14.99970000
_cell_length_c   17.23900000
_cell_angle_alpha   105.30600000
_cell_angle_beta   90.00000000
_cell_angle_gamma   107.63200000
_symmetry_Int_Tables_number   1
_chemical_formula_structural   CdNiH44(C11N4)2
_chemical_formula_sum   'Cd2 Ni2 H88 C44 N16'
_cell_volume   2151.71278792
_cell_formula_units_Z   2
loop_
 _symmetry_equiv_pos_site_id
 _symmetry_equiv_pos_as_xyz
  1  'x, y, z'
loop_
 _atom_site_type_symbol
 _atom_site_label
 _atom_site_symmetry_multiplicity
 _atom_site_fract_x
 _atom_site_fract_y
 _atom_site_fract_z
 _atom_site_occupancy
 _atom_site_charge
  Cd  Cd1  1  0.000000  0.000000  0.000000  1.0  0.8395
  Cd  Cd2  1  0.000000  0.000000  0.500000  1.0  0.8385
  Ni  Ni3  1  0.342540  0.000000  0.750000  1.0  -0.0005
  Ni  Ni4  1  0.657460  0.000000  0.250000  1.0  -0.0015
  H  H5  1  0.044000  0.848000  0.049000  1.0  0.2258
  H  H6  1  0.179000  0.916000  0.065000  1.0  0.2378
  H  H7  1  0.238000  0.860000  0.941000  1.0  0.0576
  H  H8  1  0.215000  0.788000  0.994000  1.0  0.0724
  H  H9  1  0.990000  0.774000  0.876000  1.0  0.0507
  H  H10  1  0.965000  0.716000  0.940000  1.0  0.0864
  H  H11  1  0.157000  0.694000  0.818000  1.0  0.1576
  H  H12  1  0.152000  0.642000  0.880000  1.0  0.16
  H  H13  1  0.897000  0.558000  0.830000  1.0  0.1869
  H  H14  1  0.912000  0.612000  0.763000  1.0  0.0589
  H  H15  1  0.089000  0.530000  0.709000  1.0  0.0583
  H  H16  1  0.059000  0.478000  0.771000  1.0  0.1385
  H  H17  1  0.834000  0.448000  0.656000  1.0  0.1276
  H  H18  1  0.806000  0.398000  0.724000  1.0  0.0561
  H  H19  1  0.979000  0.310000  0.669000  1.0  0.0603
  H  H20  1  0.011000  0.364000  0.610000  1.0  0.1663
  H  H21  1  0.721000  0.236000  0.607000  1.0  0.0677
  H  H22  1  0.762000  0.300000  0.539000  1.0  0.067
  H  H23  1  0.766000  0.140000  0.480000  1.0  0.0707
  H  H24  1  0.936000  0.208000  0.489000  1.0  0.0713
  H  H25  1  0.946000  0.150000  0.606000  1.0  0.2363
  H  H26  1  0.798000  0.088000  0.580000  1.0  0.244
  H  H27  1  0.196000  0.152000  0.451000  1.0  0.2306
  H  H28  1  0.263000  0.084000  0.435000  1.0  0.2385
  H  H29  1  0.378000  0.140000  0.559000  1.0  0.0585
  H  H30  1  0.427000  0.212000  0.506000  1.0  0.0731
  H  H31  1  0.216000  0.226000  0.624000  1.0  0.0511
  H  H32  1  0.249000  0.284000  0.560000  1.0  0.0851
  H  H33  1  0.463000  0.306000  0.682000  1.0  0.156
  H  H34  1  0.510000  0.358000  0.620000  1.0  0.1609
  H  H35  1  0.339000  0.442000  0.670000  1.0  0.1892
  H  H36  1  0.300000  0.388000  0.737000  1.0  0.0584
  H  H37  1  0.559000  0.470000  0.791000  1.0  0.0584
  H  H38  1  0.581000  0.522000  0.729000  1.0  0.1388
  H  H39  1  0.386000  0.552000  0.844000  1.0  0.1286
  H  H40  1  0.408000  0.602000  0.776000  1.0  0.0544
  H  H41  1  0.669000  0.690000  0.831000  1.0  0.0594
  H  H42  1  0.647000  0.636000  0.890000  1.0  0.1635
  H  H43  1  0.485000  0.764000  0.893000  1.0  0.0664
  H  H44  1  0.462000  0.700000  0.961000  1.0  0.0654
  H  H45  1  0.626000  0.860000  0.020000  1.0  0.0693
  H  H46  1  0.728000  0.792000  0.011000  1.0  0.0726
  H  H47  1  0.796000  0.850000  0.894000  1.0  0.2398
  H  H48  1  0.710000  0.912000  0.920000  1.0  0.2449
  H  H49  1  0.956000  0.152000  0.951000  1.0  0.2304
  H  H50  1  0.821000  0.084000  0.935000  1.0  0.2384
  H  H51  1  0.762000  0.140000  0.059000  1.0  0.058
  H  H52  1  0.785000  0.212000  0.006000  1.0  0.0713
  H  H53  1  0.010000  0.226000  0.124000  1.0  0.0505
  H  H54  1  0.035000  0.284000  0.060000  1.0  0.0845
  H  H55  1  0.843000  0.306000  0.182000  1.0  0.1561
  H  H56  1  0.848000  0.358000  0.120000  1.0  0.1602
  H  H57  1  0.103000  0.442000  0.170000  1.0  0.1884
  H  H58  1  0.088000  0.388000  0.237000  1.0  0.0591
  H  H59  1  0.911000  0.470000  0.291000  1.0  0.0579
  H  H60  1  0.941000  0.522000  0.229000  1.0  0.1393
  H  H61  1  0.166000  0.552000  0.344000  1.0  0.1281
  H  H62  1  0.194000  0.602000  0.276000  1.0  0.0537
  H  H63  1  0.021000  0.690000  0.331000  1.0  0.06
  H  H64  1  0.989000  0.636000  0.390000  1.0  0.1647
  H  H65  1  0.279000  0.764000  0.393000  1.0  0.0668
  H  H66  1  0.238000  0.700000  0.461000  1.0  0.065
  H  H67  1  0.234000  0.860000  0.520000  1.0  0.0692
  H  H68  1  0.064000  0.792000  0.511000  1.0  0.0716
  H  H69  1  0.054000  0.850000  0.394000  1.0  0.2404
  H  H70  1  0.202000  0.912000  0.420000  1.0  0.2448
  H  H71  1  0.804000  0.848000  0.549000  1.0  0.2255
  H  H72  1  0.737000  0.916000  0.565000  1.0  0.2382
  H  H73  1  0.622000  0.860000  0.441000  1.0  0.0576
  H  H74  1  0.573000  0.788000  0.494000  1.0  0.0713
  H  H75  1  0.784000  0.774000  0.376000  1.0  0.0495
  H  H76  1  0.751000  0.716000  0.440000  1.0  0.0855
  H  H77  1  0.537000  0.694000  0.318000  1.0  0.1569
  H  H78  1  0.490000  0.642000  0.380000  1.0  0.1599
  H  H79  1  0.661000  0.558000  0.330000  1.0  0.1862
  H  H80  1  0.700000  0.612000  0.263000  1.0  0.0589
  H  H81  1  0.441000  0.530000  0.209000  1.0  0.0581
  H  H82  1  0.419000  0.478000  0.271000  1.0  0.139
  H  H83  1  0.614000  0.448000  0.156000  1.0  0.1282
  H  H84  1  0.592000  0.398000  0.224000  1.0  0.0559
  H  H85  1  0.331000  0.310000  0.169000  1.0  0.0614
  H  H86  1  0.353000  0.364000  0.110000  1.0  0.1637
  H  H87  1  0.515000  0.236000  0.107000  1.0  0.0672
  H  H88  1  0.538000  0.300000  0.039000  1.0  0.067
  H  H89  1  0.374000  0.140000  0.980000  1.0  0.0708
  H  H90  1  0.272000  0.208000  0.989000  1.0  0.0716
  H  H91  1  0.204000  0.150000  0.106000  1.0  0.2364
  H  H92  1  0.290000  0.088000  0.080000  1.0  0.2453
  C  C93  1  0.167100  0.819800  0.967200  1.0  -0.0275
  C  C94  1  0.039200  0.742800  0.908600  1.0  -0.1307
  C  C95  1  0.093400  0.665200  0.851600  1.0  -0.1435
  C  C96  1  0.962600  0.583200  0.798000  1.0  -0.1452
  C  C97  1  0.014000  0.503800  0.742200  1.0  -0.1471
  C  C98  1  0.881100  0.423200  0.688800  1.0  -0.1493
  C  C99  1  0.929500  0.341000  0.634300  1.0  -0.1032
  C  C100  1  0.799900  0.265000  0.575200  1.0  -0.1398
  C  C101  1  0.848500  0.182600  0.521300  1.0  0.003
  C  C102  1  0.195700  0.993200  0.825500  1.0  0.0805
  C  C103  1  0.485000  0.993200  0.823600  1.0  0.0844
  C  C104  1  0.347300  0.180200  0.532800  1.0  -0.029
  C  C105  1  0.296400  0.257200  0.591400  1.0  -0.1308
  C  C106  1  0.428200  0.334800  0.648400  1.0  -0.1427
  C  C107  1  0.379400  0.416800  0.702000  1.0  -0.1456
  C  C108  1  0.510200  0.496200  0.757800  1.0  -0.1478
  C  C109  1  0.457900  0.576800  0.811200  1.0  -0.1489
  C  C110  1  0.588500  0.659000  0.865700  1.0  -0.1035
  C  C111  1  0.534900  0.735000  0.924800  1.0  -0.1406
  C  C112  1  0.665900  0.817400  0.978700  1.0  0.0039
  C  C113  1  0.202500  0.006800  0.674500  1.0  0.0784
  C  C114  1  0.491800  0.006800  0.676400  1.0  0.0813
  C  C115  1  0.832900  0.180200  0.032800  1.0  -0.0317
  C  C116  1  0.960800  0.257200  0.091400  1.0  -0.1262
  C  C117  1  0.906600  0.334800  0.148400  1.0  -0.1449
  C  C118  1  0.037400  0.416800  0.202000  1.0  -0.1442
  C  C119  1  0.986000  0.496200  0.257800  1.0  -0.1503
  C  C120  1  0.118900  0.576800  0.311200  1.0  -0.1472
  C  C121  1  0.070500  0.659000  0.365700  1.0  -0.1034
  C  C122  1  0.200100  0.735000  0.424800  1.0  -0.1411
  C  C123  1  0.151500  0.817400  0.478700  1.0  0.0047
  C  C124  1  0.804300  0.006800  0.174500  1.0  0.0799
  C  C125  1  0.515000  0.006800  0.176400  1.0  0.0805
  C  C126  1  0.652700  0.819800  0.467200  1.0  -0.0302
  C  C127  1  0.703600  0.742800  0.408600  1.0  -0.1264
  C  C128  1  0.571800  0.665200  0.351600  1.0  -0.1451
  C  C129  1  0.620600  0.583200  0.298000  1.0  -0.1437
  C  C130  1  0.489800  0.503800  0.242200  1.0  -0.1501
  C  C131  1  0.542100  0.423200  0.188800  1.0  -0.1473
  C  C132  1  0.411500  0.341000  0.134300  1.0  -0.103
  C  C133  1  0.465100  0.265000  0.075200  1.0  -0.1415
  C  C134  1  0.334100  0.182600  0.021300  1.0  0.0037
  C  C135  1  0.797500  0.993200  0.325500  1.0  0.0816
  C  C136  1  0.508200  0.993200  0.323600  1.0  0.0836
  N  N137  1  0.105500  0.885400  0.028400  1.0  -0.6183
  N  N138  1  0.885200  0.118600  0.563600  1.0  -0.6584
  N  N139  1  0.106900  0.988800  0.872100  1.0  -0.47
  N  N140  1  0.576700  0.990400  0.867900  1.0  -0.5067
  N  N141  1  0.220100  0.114600  0.471600  1.0  -0.6229
  N  N142  1  0.766600  0.881400  0.936400  1.0  -0.6584
  N  N143  1  0.118100  0.011200  0.627900  1.0  -0.4732
  N  N144  1  0.586300  0.009600  0.632100  1.0  -0.5069
  N  N145  1  0.894500  0.114600  0.971600  1.0  -0.6212
  N  N146  1  0.114800  0.881400  0.436400  1.0  -0.6572
  N  N147  1  0.893100  0.011200  0.127900  1.0  -0.4718
  N  N148  1  0.423300  0.009600  0.132100  1.0  -0.5056
  N  N149  1  0.779900  0.885400  0.528400  1.0  -0.6193
  N  N150  1  0.233400  0.118600  0.063600  1.0  -0.6569
  N  N151  1  0.881900  0.988800  0.372100  1.0  -0.4713
  N  N152  1  0.413700  0.990400  0.367900  1.0  -0.506
