# generated using pymatgen
data_ZnH6C8NO4
_symmetry_space_group_name_H-M   'P 1'
_cell_length_a   7.31900000
_cell_length_b   14.61000000
_cell_length_c   20.56400000
_cell_angle_alpha   90.00000000
_cell_angle_beta   90.00000000
_cell_angle_gamma   90.00000000
_symmetry_Int_Tables_number   1
_chemical_formula_structural   ZnH6C8NO4
_chemical_formula_sum   'Zn8 H48 C64 N8 O32'
_cell_volume   2198.92065276
_cell_formula_units_Z   8
loop_
 _symmetry_equiv_pos_site_id
 _symmetry_equiv_pos_as_xyz
  1  'x, y, z'
loop_
 _atom_site_type_symbol
 _atom_site_label
 _atom_site_symmetry_multiplicity
 _atom_site_fract_x
 _atom_site_fract_y
 _atom_site_fract_z
 _atom_site_occupancy
 _atom_site_charge
  Zn  Zn1  1  0.249900  0.125160  0.121560  1.0  1.0007
  Zn  Zn2  1  0.762600  0.374380  0.045370  1.0  0.9929
  Zn  Zn3  1  0.750100  0.874840  0.621560  1.0  1.0007
  Zn  Zn4  1  0.237400  0.625620  0.545370  1.0  0.9929
  Zn  Zn5  1  0.250100  0.625160  0.121560  1.0  1.0007
  Zn  Zn6  1  0.737400  0.874380  0.045370  1.0  0.993
  Zn  Zn7  1  0.749900  0.374840  0.621560  1.0  1.0006
  Zn  Zn8  1  0.262600  0.125620  0.545370  1.0  0.993
  H  H9  1  0.259000  0.272400  0.943200  1.0  0.1637
  H  H10  1  0.261800  0.169300  0.964400  1.0  0.1712
  H  H11  1  0.748300  0.523800  0.222500  1.0  0.161
  H  H12  1  0.754100  0.420900  0.200800  1.0  0.1802
  H  H13  1  0.114300  0.135000  0.263700  1.0  0.0729
  H  H14  1  0.093200  0.232300  0.350900  1.0  0.1299
  H  H15  1  0.288800  0.430300  0.235300  1.0  0.1201
  H  H16  1  0.309700  0.325300  0.154100  1.0  0.0792
  H  H17  1  0.119100  0.522900  0.312100  1.0  0.125
  H  H18  1  0.138200  0.619800  0.398600  1.0  0.082
  H  H19  1  0.281600  0.418100  0.513900  1.0  0.092
  H  H20  1  0.264500  0.316700  0.429200  1.0  0.1196
  H  H21  1  0.741000  0.727600  0.443200  1.0  0.1637
  H  H22  1  0.738200  0.830700  0.464400  1.0  0.1688
  H  H23  1  0.251700  0.476200  0.722500  1.0  0.1619
  H  H24  1  0.245900  0.579100  0.700800  1.0  0.1781
  H  H25  1  0.885700  0.865000  0.763700  1.0  0.0727
  H  H26  1  0.906800  0.767700  0.850900  1.0  0.1291
  H  H27  1  0.711200  0.569700  0.735300  1.0  0.12
  H  H28  1  0.690300  0.674700  0.654100  1.0  0.0794
  H  H29  1  0.880900  0.477100  0.812100  1.0  0.1244
  H  H30  1  0.861800  0.380200  0.898600  1.0  0.0822
  H  H31  1  0.718400  0.581900  0.013900  1.0  0.0916
  H  H32  1  0.735500  0.683300  0.929200  1.0  0.1197
  H  H33  1  0.241000  0.772400  0.943200  1.0  0.1637
  H  H34  1  0.238200  0.669300  0.964400  1.0  0.1709
  H  H35  1  0.751700  0.023800  0.222500  1.0  0.1612
  H  H36  1  0.745900  0.920900  0.200800  1.0  0.1803
  H  H37  1  0.385700  0.635000  0.263700  1.0  0.0728
  H  H38  1  0.406800  0.732300  0.350900  1.0  0.1293
  H  H39  1  0.211200  0.930300  0.235300  1.0  0.1202
  H  H40  1  0.190300  0.825300  0.154100  1.0  0.0793
  H  H41  1  0.380900  0.022900  0.312100  1.0  0.1246
  H  H42  1  0.361800  0.119800  0.398600  1.0  0.0823
  H  H43  1  0.218400  0.918100  0.513900  1.0  0.0916
  H  H44  1  0.235500  0.816700  0.429200  1.0  0.1197
  H  H45  1  0.759000  0.227600  0.443200  1.0  0.1636
  H  H46  1  0.761800  0.330700  0.464400  1.0  0.1688
  H  H47  1  0.248300  0.976200  0.722500  1.0  0.1618
  H  H48  1  0.254100  0.079100  0.700800  1.0  0.1779
  H  H49  1  0.614300  0.365000  0.763700  1.0  0.0732
  H  H50  1  0.593200  0.267700  0.850900  1.0  0.1296
  H  H51  1  0.788800  0.069700  0.735300  1.0  0.1202
  H  H52  1  0.809700  0.174700  0.654100  1.0  0.0793
  H  H53  1  0.619100  0.977100  0.812100  1.0  0.1248
  H  H54  1  0.638200  0.880200  0.898600  1.0  0.0817
  H  H55  1  0.781600  0.081900  0.013900  1.0  0.0919
  H  H56  1  0.764500  0.183300  0.929200  1.0  0.1195
  C  C57  1  0.433700  0.249500  0.021000  1.0  0.7668
  C  C58  1  0.259400  0.231700  0.980500  1.0  -0.5546
  C  C59  1  0.082700  0.246600  0.019900  1.0  0.7791
  C  C60  1  0.584400  0.497800  0.145000  1.0  0.7746
  C  C61  1  0.752200  0.483500  0.185000  1.0  -0.5656
  C  C62  1  0.922900  0.501500  0.147600  1.0  0.7761
  C  C63  1  0.153100  0.195200  0.258600  1.0  0.1833
  C  C64  1  0.138700  0.253300  0.311400  1.0  -0.2265
  C  C65  1  0.193500  0.343900  0.304300  1.0  0.1058
  C  C66  1  0.255200  0.369900  0.243100  1.0  -0.204
  C  C67  1  0.266300  0.306600  0.194500  1.0  0.1856
  C  C68  1  0.194000  0.407900  0.360200  1.0  0.102
  C  C69  1  0.153900  0.500400  0.352500  1.0  -0.2041
  C  C70  1  0.165800  0.558300  0.404900  1.0  0.1727
  C  C71  1  0.250100  0.439800  0.472900  1.0  0.1847
  C  C72  1  0.240100  0.378300  0.421900  1.0  -0.188
  C  C73  1  0.566300  0.750500  0.521000  1.0  0.7662
  C  C74  1  0.740600  0.768300  0.480500  1.0  -0.5548
  C  C75  1  0.917300  0.753400  0.519900  1.0  0.7798
  C  C76  1  0.415600  0.502200  0.645000  1.0  0.775
  C  C77  1  0.247800  0.516500  0.685000  1.0  -0.5657
  C  C78  1  0.077100  0.498500  0.647600  1.0  0.7756
  C  C79  1  0.846900  0.804800  0.758600  1.0  0.1832
  C  C80  1  0.861300  0.746700  0.811400  1.0  -0.2262
  C  C81  1  0.806500  0.656100  0.804300  1.0  0.1064
  C  C82  1  0.744800  0.630100  0.743100  1.0  -0.2057
  C  C83  1  0.733700  0.693400  0.694500  1.0  0.1852
  C  C84  1  0.806000  0.592100  0.860200  1.0  0.1026
  C  C85  1  0.846100  0.499600  0.852500  1.0  -0.2045
  C  C86  1  0.834200  0.441700  0.904900  1.0  0.1728
  C  C87  1  0.749900  0.560200  0.972900  1.0  0.1844
  C  C88  1  0.759900  0.621700  0.921900  1.0  -0.1869
  C  C89  1  0.066300  0.749500  0.021000  1.0  0.7661
  C  C90  1  0.240600  0.731700  0.980500  1.0  -0.5544
  C  C91  1  0.417300  0.746600  0.019900  1.0  0.7798
  C  C92  1  0.915600  0.997800  0.145000  1.0  0.7752
  C  C93  1  0.747800  0.983500  0.185000  1.0  -0.5656
  C  C94  1  0.577100  0.001500  0.147600  1.0  0.7762
  C  C95  1  0.346900  0.695200  0.258600  1.0  0.1833
  C  C96  1  0.361300  0.753300  0.311400  1.0  -0.2261
  C  C97  1  0.306500  0.843900  0.304300  1.0  0.1065
  C  C98  1  0.244800  0.869900  0.243100  1.0  -0.2043
  C  C99  1  0.233700  0.806600  0.194500  1.0  0.185
  C  C100  1  0.306000  0.907900  0.360200  1.0  0.1028
  C  C101  1  0.346100  0.000400  0.352500  1.0  -0.2041
  C  C102  1  0.334200  0.058300  0.404900  1.0  0.173
  C  C103  1  0.249900  0.939800  0.472900  1.0  0.1843
  C  C104  1  0.259900  0.878300  0.421900  1.0  -0.188
  C  C105  1  0.933700  0.250500  0.521000  1.0  0.7668
  C  C106  1  0.759400  0.268300  0.480500  1.0  -0.555
  C  C107  1  0.582700  0.253400  0.519900  1.0  0.7792
  C  C108  1  0.084400  0.002200  0.645000  1.0  0.7746
  C  C109  1  0.252200  0.016500  0.685000  1.0  -0.5657
  C  C110  1  0.422900  0.998500  0.647600  1.0  0.7754
  C  C111  1  0.653100  0.304800  0.758600  1.0  0.1831
  C  C112  1  0.638700  0.246700  0.811400  1.0  -0.2263
  C  C113  1  0.693500  0.156100  0.804300  1.0  0.1057
  C  C114  1  0.755200  0.130100  0.743100  1.0  -0.2051
  C  C115  1  0.766300  0.193400  0.694500  1.0  0.1858
  C  C116  1  0.694000  0.092100  0.860200  1.0  0.1019
  C  C117  1  0.653900  0.999600  0.852500  1.0  -0.2048
  C  C118  1  0.665800  0.941700  0.904900  1.0  0.1722
  C  C119  1  0.750100  0.060200  0.972900  1.0  0.1847
  C  C120  1  0.740100  0.121700  0.921900  1.0  -0.1872
  N  N121  1  0.218300  0.219900  0.202000  1.0  -0.315
  N  N122  1  0.215700  0.530800  0.465600  1.0  -0.3211
  N  N123  1  0.781700  0.780100  0.702000  1.0  -0.3133
  N  N124  1  0.784300  0.469200  0.965600  1.0  -0.3214
  N  N125  1  0.281700  0.719900  0.202000  1.0  -0.3146
  N  N126  1  0.284300  0.030800  0.465600  1.0  -0.321
  N  N127  1  0.718300  0.280100  0.702000  1.0  -0.3138
  N  N128  1  0.715700  0.969200  0.965600  1.0  -0.3214
  O  O129  1  0.448700  0.208200  0.074600  1.0  -0.6377
  O  O130  1  0.546500  0.304600  0.998800  1.0  -0.6028
  O  O131  1  0.057400  0.201100  0.070300  1.0  -0.6285
  O  O132  1  0.975300  0.305300  0.998900  1.0  -0.5953
  O  O133  1  0.565000  0.455800  0.091200  1.0  -0.6244
  O  O134  1  0.461600  0.550000  0.167900  1.0  -0.6075
  O  O135  1  0.955100  0.455900  0.096700  1.0  -0.626
  O  O136  1  0.033500  0.561000  0.170600  1.0  -0.6173
  O  O137  1  0.551300  0.791800  0.574600  1.0  -0.6369
  O  O138  1  0.453500  0.695400  0.498800  1.0  -0.6029
  O  O139  1  0.942600  0.798900  0.570300  1.0  -0.6288
  O  O140  1  0.024700  0.694700  0.498900  1.0  -0.5964
  O  O141  1  0.435000  0.544200  0.591200  1.0  -0.6233
  O  O142  1  0.538400  0.450000  0.667900  1.0  -0.6087
  O  O143  1  0.044900  0.544100  0.596700  1.0  -0.6253
  O  O144  1  0.966500  0.439000  0.670600  1.0  -0.618
  O  O145  1  0.051300  0.708200  0.074600  1.0  -0.637
  O  O146  1  0.953500  0.804600  0.998800  1.0  -0.6022
  O  O147  1  0.442600  0.701100  0.070300  1.0  -0.6292
  O  O148  1  0.524700  0.805300  0.998900  1.0  -0.5961
  O  O149  1  0.935000  0.955800  0.091200  1.0  -0.6243
  O  O150  1  0.038400  0.050000  0.167900  1.0  -0.6088
  O  O151  1  0.544900  0.955900  0.096700  1.0  -0.626
  O  O152  1  0.466500  0.061000  0.170600  1.0  -0.6167
  O  O153  1  0.948700  0.291800  0.574600  1.0  -0.6375
  O  O154  1  0.046500  0.195400  0.498800  1.0  -0.6031
  O  O155  1  0.557400  0.298900  0.570300  1.0  -0.6283
  O  O156  1  0.475300  0.194700  0.498900  1.0  -0.5959
  O  O157  1  0.065000  0.044200  0.591200  1.0  -0.6235
  O  O158  1  0.961600  0.950000  0.667900  1.0  -0.6076
  O  O159  1  0.455100  0.044100  0.596700  1.0  -0.6253
  O  O160  1  0.533500  0.939000  0.670600  1.0  -0.6183
