# generated using pymatgen
data_Zn2H18C19(NO4)2
_symmetry_space_group_name_H-M   'P 1'
_cell_length_a   7.27760000
_cell_length_b   7.27760000
_cell_length_c   26.93100000
_cell_angle_alpha   90.00000000
_cell_angle_beta   90.00000000
_cell_angle_gamma   90.48990000
_symmetry_Int_Tables_number   1
_chemical_formula_structural   Zn2H18C19(NO4)2
_chemical_formula_sum   'Zn4 H36 C38 N4 O16'
_cell_volume   1426.30684928
_cell_formula_units_Z   2
loop_
 _symmetry_equiv_pos_site_id
 _symmetry_equiv_pos_as_xyz
  1  'x, y, z'
loop_
 _atom_site_type_symbol
 _atom_site_label
 _atom_site_symmetry_multiplicity
 _atom_site_fract_x
 _atom_site_fract_y
 _atom_site_fract_z
 _atom_site_occupancy
 _atom_site_charge
  Zn  Zn1  1  0.039710  0.687850  0.720950  1.0  0.9911
  Zn  Zn2  1  0.687850  0.039710  0.279050  1.0  0.9893
  Zn  Zn3  1  0.187850  0.539710  0.220950  1.0  0.9887
  Zn  Zn4  1  0.539710  0.187850  0.779050  1.0  0.9916
  H  H5  1  0.322600  0.686200  0.859500  1.0  0.1584
  H  H6  1  0.115700  0.685500  0.839200  1.0  0.167
  H  H7  1  0.665300  0.685700  0.637200  1.0  0.1284
  H  H8  1  0.454200  0.662000  0.700200  1.0  0.0748
  H  H9  1  0.044900  0.731500  0.607700  1.0  0.076
  H  H10  1  0.243900  0.755900  0.541500  1.0  0.1262
  H  H11  1  0.596200  0.867400  0.523200  1.0  0.1017
  H  H12  1  0.740700  0.744900  0.552900  1.0  0.1026
  H  H13  1  0.474400  0.604600  0.483900  1.0  0.0758
  H  H14  1  0.686200  0.322600  0.140500  1.0  0.158
  H  H15  1  0.685500  0.115700  0.160800  1.0  0.1685
  H  H16  1  0.685700  0.665300  0.362800  1.0  0.1283
  H  H17  1  0.662000  0.454200  0.299800  1.0  0.0745
  H  H18  1  0.731500  0.044900  0.392300  1.0  0.0767
  H  H19  1  0.755900  0.243900  0.458500  1.0  0.1256
  H  H20  1  0.867400  0.596200  0.476800  1.0  0.1015
  H  H21  1  0.744900  0.740700  0.447100  1.0  0.1043
  H  H22  1  0.604600  0.474400  0.516100  1.0  0.0733
  H  H23  1  0.186200  0.822600  0.359500  1.0  0.158
  H  H24  1  0.185500  0.615700  0.339200  1.0  0.1689
  H  H25  1  0.185700  0.165300  0.137200  1.0  0.1282
  H  H26  1  0.162000  0.954200  0.200200  1.0  0.0739
  H  H27  1  0.231500  0.544900  0.107700  1.0  0.0762
  H  H28  1  0.255900  0.743900  0.041500  1.0  0.126
  H  H29  1  0.367400  0.096200  0.023200  1.0  0.1012
  H  H30  1  0.244900  0.240700  0.052900  1.0  0.1044
  H  H31  1  0.104600  0.974400  0.983900  1.0  0.0737
  H  H32  1  0.822600  0.186200  0.640500  1.0  0.1581
  H  H33  1  0.615700  0.185500  0.660800  1.0  0.1674
  H  H34  1  0.165300  0.185700  0.862800  1.0  0.1284
  H  H35  1  0.954200  0.162000  0.799800  1.0  0.075
  H  H36  1  0.544900  0.231500  0.892300  1.0  0.0761
  H  H37  1  0.743900  0.255900  0.958500  1.0  0.1258
  H  H38  1  0.096200  0.367400  0.976800  1.0  0.1013
  H  H39  1  0.240700  0.244900  0.947100  1.0  0.1027
  H  H40  1  0.974400  0.104600  0.016100  1.0  0.0752
  C  C41  1  0.286400  0.860800  0.799870  1.0  0.7718
  C  C42  1  0.246500  0.686700  0.829010  1.0  -0.5628
  C  C43  1  0.286100  0.514300  0.798800  1.0  0.7731
  C  C44  1  0.538000  0.696400  0.630070  1.0  -0.2347
  C  C45  1  0.410600  0.682600  0.667480  1.0  0.1876
  C  C46  1  0.173100  0.722700  0.613760  1.0  0.1777
  C  C47  1  0.291100  0.737700  0.574060  1.0  -0.2483
  C  C48  1  0.478800  0.726200  0.581650  1.0  0.1567
  C  C49  1  0.614500  0.746500  0.539250  1.0  -0.2003
  C  C50  1  0.860800  0.286400  0.200130  1.0  0.7688
  C  C51  1  0.686700  0.246500  0.170990  1.0  -0.5588
  C  C52  1  0.514300  0.286100  0.201200  1.0  0.7712
  C  C53  1  0.696400  0.538000  0.369930  1.0  -0.2324
  C  C54  1  0.682600  0.410600  0.332520  1.0  0.1866
  C  C55  1  0.722700  0.173100  0.386240  1.0  0.1776
  C  C56  1  0.737700  0.291100  0.425940  1.0  -0.25
  C  C57  1  0.726200  0.478800  0.418350  1.0  0.1578
  C  C58  1  0.746500  0.614500  0.460750  1.0  -0.1946
  C  C59  1  0.360800  0.786400  0.299870  1.0  0.7691
  C  C60  1  0.186700  0.746500  0.329010  1.0  -0.5611
  C  C61  1  0.014300  0.786100  0.298800  1.0  0.7714
  C  C62  1  0.196400  0.038000  0.130070  1.0  -0.2321
  C  C63  1  0.182600  0.910600  0.167480  1.0  0.1878
  C  C64  1  0.222700  0.673100  0.113760  1.0  0.1774
  C  C65  1  0.237700  0.791100  0.074060  1.0  -0.2506
  C  C66  1  0.226200  0.978800  0.081650  1.0  0.1575
  C  C67  1  0.246500  0.114500  0.039250  1.0  -0.1948
  C  C68  1  0.786400  0.360800  0.700130  1.0  0.7714
  C  C69  1  0.746500  0.186700  0.670990  1.0  -0.5603
  C  C70  1  0.786100  0.014300  0.701200  1.0  0.7734
  C  C71  1  0.038000  0.196400  0.869930  1.0  -0.2347
  C  C72  1  0.910600  0.182600  0.832520  1.0  0.1866
  C  C73  1  0.673100  0.222700  0.886240  1.0  0.1777
  C  C74  1  0.791100  0.237700  0.925940  1.0  -0.2498
  C  C75  1  0.978800  0.226200  0.918350  1.0  0.1569
  C  C76  1  0.114500  0.246500  0.960750  1.0  -0.2
  C  C77  1  0.596200  0.596200  0.500000  1.0  -0.0836
  C  C78  1  0.096200  0.096200  0.000000  1.0  -0.0836
  N  N79  1  0.229700  0.696300  0.660890  1.0  -0.3192
  N  N80  1  0.696300  0.229700  0.339110  1.0  -0.3213
  N  N81  1  0.196300  0.729700  0.160890  1.0  -0.3211
  N  N82  1  0.729700  0.196300  0.839110  1.0  -0.3183
  O  O83  1  0.198700  0.884500  0.759070  1.0  -0.6313
  O  O84  1  0.403000  0.971400  0.816650  1.0  -0.6
  O  O85  1  0.198970  0.491030  0.758330  1.0  -0.6313
  O  O86  1  0.403350  0.405750  0.815310  1.0  -0.597
  O  O87  1  0.884500  0.198700  0.240930  1.0  -0.6335
  O  O88  1  0.971400  0.403000  0.183350  1.0  -0.6005
  O  O89  1  0.491030  0.198970  0.241670  1.0  -0.6338
  O  O90  1  0.405750  0.403350  0.184690  1.0  -0.5967
  O  O91  1  0.384500  0.698700  0.259070  1.0  -0.6341
  O  O92  1  0.471400  0.903000  0.316650  1.0  -0.6004
  O  O93  1  0.991030  0.698970  0.258330  1.0  -0.6328
  O  O94  1  0.905750  0.903350  0.315310  1.0  -0.5966
  O  O95  1  0.698700  0.384500  0.740930  1.0  -0.6311
  O  O96  1  0.903000  0.471400  0.683350  1.0  -0.6003
  O  O97  1  0.698970  0.991030  0.741670  1.0  -0.632
  O  O98  1  0.903350  0.905750  0.684690  1.0  -0.5969
