# generated using pymatgen
data_ZnH8C9NO4
_symmetry_space_group_name_H-M   'P 1'
_cell_length_a   7.24900000
_cell_length_b   7.41900000
_cell_length_c   23.93000000
_cell_angle_alpha   90.00000000
_cell_angle_beta   90.00000000
_cell_angle_gamma   90.37000000
_symmetry_Int_Tables_number   1
_chemical_formula_structural   ZnH8C9NO4
_chemical_formula_sum   'Zn4 H32 C36 N4 O16'
_cell_volume   1286.93648637
_cell_formula_units_Z   4
loop_
 _symmetry_equiv_pos_site_id
 _symmetry_equiv_pos_as_xyz
  1  'x, y, z'
loop_
 _atom_site_type_symbol
 _atom_site_label
 _atom_site_symmetry_multiplicity
 _atom_site_fract_x
 _atom_site_fract_y
 _atom_site_fract_z
 _atom_site_occupancy
 _atom_site_charge
  Zn  Zn1  1  0.428560  0.422950  0.781960  1.0  0.9948
  Zn  Zn2  1  0.071440  0.077050  0.281960  1.0  0.9949
  Zn  Zn3  1  0.571440  0.577050  0.218040  1.0  0.9941
  Zn  Zn4  1  0.928560  0.922950  0.718040  1.0  0.9941
  H  H5  1  0.427100  0.502900  0.649000  1.0  0.1717
  H  H6  1  0.429800  0.706700  0.626800  1.0  0.1573
  H  H7  1  0.380100  0.608900  0.984900  1.0  0.1228
  H  H8  1  0.392300  0.419500  0.908600  1.0  0.0757
  H  H9  1  0.451700  0.830900  0.806500  1.0  0.0816
  H  H10  1  0.441600  0.032900  0.879900  1.0  0.1333
  H  H11  1  0.335300  0.081200  0.979700  1.0  0.1087
  H  H12  1  0.339000  0.913800  0.021800  1.0  0.1073
  H  H13  1  0.072900  0.997100  0.149000  1.0  0.1681
  H  H14  1  0.070200  0.793300  0.126800  1.0  0.1568
  H  H15  1  0.119900  0.891100  0.484900  1.0  0.122
  H  H16  1  0.107700  0.080500  0.408600  1.0  0.0754
  H  H17  1  0.048300  0.669100  0.306500  1.0  0.0821
  H  H18  1  0.058400  0.467100  0.379900  1.0  0.1336
  H  H19  1  0.164700  0.418800  0.479700  1.0  0.1093
  H  H20  1  0.161000  0.586200  0.521800  1.0  0.1065
  H  H21  1  0.572900  0.497100  0.351000  1.0  0.1685
  H  H22  1  0.570200  0.293300  0.373200  1.0  0.1581
  H  H23  1  0.619900  0.391100  0.015100  1.0  0.1219
  H  H24  1  0.607700  0.580500  0.091400  1.0  0.0755
  H  H25  1  0.548300  0.169100  0.193500  1.0  0.082
  H  H26  1  0.558400  0.967100  0.120100  1.0  0.1337
  H  H27  1  0.664700  0.918800  0.020300  1.0  0.1093
  H  H28  1  0.661000  0.086200  0.978200  1.0  0.1063
  H  H29  1  0.927100  0.002900  0.851000  1.0  0.1728
  H  H30  1  0.929800  0.206700  0.873200  1.0  0.1579
  H  H31  1  0.880100  0.108900  0.515100  1.0  0.1222
  H  H32  1  0.892300  0.919500  0.591400  1.0  0.0755
  H  H33  1  0.951700  0.330900  0.693500  1.0  0.0817
  H  H34  1  0.941600  0.532900  0.620100  1.0  0.1331
  H  H35  1  0.835300  0.581200  0.520300  1.0  0.1087
  H  H36  1  0.839000  0.413800  0.478200  1.0  0.1064
  C  C37  1  0.601500  0.668600  0.695110  1.0  0.7748
  C  C38  1  0.428400  0.630800  0.660810  1.0  -0.5598
  C  C39  1  0.254800  0.670200  0.694640  1.0  0.7655
  C  C40  1  0.395400  0.658300  0.948500  1.0  -0.2403
  C  C41  1  0.402800  0.545800  0.902710  1.0  0.1767
  C  C42  1  0.437400  0.785400  0.843330  1.0  0.1849
  C  C43  1  0.431400  0.907200  0.887000  1.0  -0.2321
  C  C44  1  0.410200  0.844400  0.941530  1.0  0.1507
  C  C45  1  0.405100  0.972300  0.990420  1.0  -0.1883
  C  C46  1  0.898500  0.831400  0.195110  1.0  0.7741
  C  C47  1  0.071600  0.869200  0.160810  1.0  -0.5457
  C  C48  1  0.245200  0.829800  0.194640  1.0  0.7663
  C  C49  1  0.104600  0.841700  0.448500  1.0  -0.2435
  C  C50  1  0.097200  0.954200  0.402710  1.0  0.1768
  C  C51  1  0.062600  0.714600  0.343330  1.0  0.1875
  C  C52  1  0.068600  0.592800  0.387000  1.0  -0.2344
  C  C53  1  0.089800  0.655600  0.441530  1.0  0.1506
  C  C54  1  0.094900  0.527700  0.490420  1.0  -0.1893
  C  C55  1  0.398500  0.331400  0.304890  1.0  0.7734
  C  C56  1  0.571600  0.369200  0.339190  1.0  -0.5483
  C  C57  1  0.745200  0.329800  0.305360  1.0  0.7665
  C  C58  1  0.604600  0.341700  0.051500  1.0  -0.2415
  C  C59  1  0.597200  0.454200  0.097290  1.0  0.177
  C  C60  1  0.562600  0.214600  0.156670  1.0  0.1908
  C  C61  1  0.568600  0.092800  0.113000  1.0  -0.2348
  C  C62  1  0.589800  0.155600  0.058470  1.0  0.1507
  C  C63  1  0.594900  0.027700  0.009580  1.0  -0.1888
  C  C64  1  0.101500  0.168600  0.804890  1.0  0.774
  C  C65  1  0.928400  0.130800  0.839190  1.0  -0.5625
  C  C66  1  0.754800  0.170200  0.805360  1.0  0.7659
  C  C67  1  0.895400  0.158300  0.551500  1.0  -0.2412
  C  C68  1  0.902800  0.045800  0.597290  1.0  0.1767
  C  C69  1  0.937400  0.285400  0.656670  1.0  0.1864
  C  C70  1  0.931400  0.407200  0.613000  1.0  -0.2352
  C  C71  1  0.910200  0.344400  0.558470  1.0  0.1508
  C  C72  1  0.905100  0.472300  0.509580  1.0  -0.1874
  N  N73  1  0.424000  0.606200  0.850300  1.0  -0.3206
  N  N74  1  0.076000  0.893800  0.350300  1.0  -0.3186
  N  N75  1  0.576000  0.393800  0.149700  1.0  -0.3186
  N  N76  1  0.924000  0.106200  0.649700  1.0  -0.3204
  O  O77  1  0.625500  0.582000  0.739800  1.0  -0.6266
  O  O78  1  0.712300  0.785800  0.676740  1.0  -0.6032
  O  O79  1  0.230400  0.582900  0.739750  1.0  -0.6369
  O  O80  1  0.145900  0.786000  0.675930  1.0  -0.602
  O  O81  1  0.874500  0.918000  0.239800  1.0  -0.6266
  O  O82  1  0.787700  0.714200  0.176740  1.0  -0.603
  O  O83  1  0.269600  0.917100  0.239750  1.0  -0.6361
  O  O84  1  0.354100  0.714000  0.175930  1.0  -0.6024
  O  O85  1  0.374500  0.418000  0.260200  1.0  -0.6276
  O  O86  1  0.287700  0.214200  0.323260  1.0  -0.6031
  O  O87  1  0.769600  0.417100  0.260250  1.0  -0.6342
  O  O88  1  0.854100  0.214000  0.324070  1.0  -0.6026
  O  O89  1  0.125500  0.082000  0.760200  1.0  -0.6275
  O  O90  1  0.212300  0.285800  0.823260  1.0  -0.6033
  O  O91  1  0.730400  0.082900  0.760250  1.0  -0.635
  O  O92  1  0.645900  0.286000  0.824070  1.0  -0.6022
