# generated using pymatgen
data_CuH7C9NO3
_symmetry_space_group_name_H-M   'P 1'
_cell_length_a   26.95600000
_cell_length_b   26.95600000
_cell_length_c   6.96500000
_cell_angle_alpha   90.00000000
_cell_angle_beta   90.00000000
_cell_angle_gamma   120.00000000
_symmetry_Int_Tables_number   1
_chemical_formula_structural   CuH7C9NO3
_chemical_formula_sum   'Cu18 H126 C162 N18 O54'
_cell_volume   4382.91095919
_cell_formula_units_Z   18
loop_
 _symmetry_equiv_pos_site_id
 _symmetry_equiv_pos_as_xyz
  1  'x, y, z'
loop_
 _atom_site_type_symbol
 _atom_site_label
 _atom_site_symmetry_multiplicity
 _atom_site_fract_x
 _atom_site_fract_y
 _atom_site_fract_z
 _atom_site_occupancy
 _atom_site_charge
  Cu  Cu1  1  0.790430  0.679120  0.072190  1.0  0.8694
  Cu  Cu2  1  0.457100  0.012450  0.405520  1.0  0.8693
  Cu  Cu3  1  0.123760  0.345790  0.738860  1.0  0.8694
  Cu  Cu4  1  0.320880  0.111310  0.072190  1.0  0.8684
  Cu  Cu5  1  0.987550  0.444640  0.405520  1.0  0.8689
  Cu  Cu6  1  0.654210  0.777980  0.738860  1.0  0.8684
  Cu  Cu7  1  0.888690  0.209570  0.072190  1.0  0.8711
  Cu  Cu8  1  0.555360  0.542900  0.405520  1.0  0.8712
  Cu  Cu9  1  0.222020  0.876240  0.738860  1.0  0.8711
  Cu  Cu10  1  0.209570  0.320880  0.927810  1.0  0.8694
  Cu  Cu11  1  0.876240  0.654210  0.261140  1.0  0.8694
  Cu  Cu12  1  0.542900  0.987550  0.594480  1.0  0.8693
  Cu  Cu13  1  0.679120  0.888690  0.927810  1.0  0.8688
  Cu  Cu14  1  0.345790  0.222020  0.261140  1.0  0.8688
  Cu  Cu15  1  0.012450  0.555360  0.594480  1.0  0.8694
  Cu  Cu16  1  0.111310  0.790430  0.927810  1.0  0.8704
  Cu  Cu17  1  0.777980  0.123760  0.261140  1.0  0.8704
  Cu  Cu18  1  0.444640  0.457100  0.594480  1.0  0.8705
  H  H19  1  0.835300  0.541000  0.041500  1.0  0.1079
  H  H20  1  0.815700  0.475300  0.803500  1.0  0.0963
  H  H21  1  0.776700  0.481400  0.516100  1.0  0.1167
  H  H22  1  0.751300  0.550000  0.476400  1.0  0.1091
  H  H23  1  0.744200  0.627500  0.575500  1.0  0.1063
  H  H24  1  0.696500  0.677700  0.722500  1.0  0.0962
  H  H25  1  0.757600  0.725200  0.653700  1.0  0.0895
  H  H26  1  0.501970  0.874330  0.374830  1.0  0.1079
  H  H27  1  0.482370  0.808630  0.136830  1.0  0.0963
  H  H28  1  0.443370  0.814730  0.849430  1.0  0.1167
  H  H29  1  0.417970  0.883330  0.809730  1.0  0.1091
  H  H30  1  0.410870  0.960830  0.908830  1.0  0.1063
  H  H31  1  0.363170  0.011030  0.055830  1.0  0.0962
  H  H32  1  0.424270  0.058530  0.987030  1.0  0.0895
  H  H33  1  0.168630  0.207670  0.708170  1.0  0.1079
  H  H34  1  0.149030  0.141970  0.470170  1.0  0.0963
  H  H35  1  0.110030  0.148070  0.182770  1.0  0.1167
  H  H36  1  0.084630  0.216670  0.143070  1.0  0.1091
  H  H37  1  0.077530  0.294170  0.242170  1.0  0.1063
  H  H38  1  0.029830  0.344370  0.389170  1.0  0.0962
  H  H39  1  0.090930  0.391870  0.320370  1.0  0.0895
  H  H40  1  0.459000  0.294300  0.041500  1.0  0.1071
  H  H41  1  0.524700  0.340400  0.803500  1.0  0.0986
  H  H42  1  0.518600  0.295300  0.516100  1.0  0.1163
  H  H43  1  0.450000  0.201300  0.476400  1.0  0.109
  H  H44  1  0.372500  0.116700  0.575500  1.0  0.1062
  H  H45  1  0.322300  0.018800  0.722500  1.0  0.0981
  H  H46  1  0.274800  0.032400  0.653700  1.0  0.0894
  H  H47  1  0.125670  0.627630  0.374830  1.0  0.1071
  H  H48  1  0.191370  0.673730  0.136830  1.0  0.0986
  H  H49  1  0.185270  0.628630  0.849430  1.0  0.1163
  H  H50  1  0.116670  0.534630  0.809730  1.0  0.1089
  H  H51  1  0.039170  0.450030  0.908830  1.0  0.1062
  H  H52  1  0.988970  0.352130  0.055830  1.0  0.0981
  H  H53  1  0.941470  0.365730  0.987030  1.0  0.0895
  H  H54  1  0.792330  0.960970  0.708170  1.0  0.1071
  H  H55  1  0.858030  0.007070  0.470170  1.0  0.0978
  H  H56  1  0.851930  0.961970  0.182770  1.0  0.1156
  H  H57  1  0.783330  0.867970  0.143070  1.0  0.109
  H  H58  1  0.705830  0.783370  0.242170  1.0  0.1062
  H  H59  1  0.655630  0.685470  0.389170  1.0  0.0981
  H  H60  1  0.608130  0.699070  0.320370  1.0  0.0894
  H  H61  1  0.705700  0.164700  0.041500  1.0  0.1063
  H  H62  1  0.659600  0.184300  0.803500  1.0  0.1
  H  H63  1  0.704700  0.223300  0.516100  1.0  0.1158
  H  H64  1  0.798700  0.248700  0.476400  1.0  0.1079
  H  H65  1  0.883300  0.255800  0.575500  1.0  0.1059
  H  H66  1  0.981200  0.303500  0.722500  1.0  0.0962
  H  H67  1  0.967600  0.242400  0.653700  1.0  0.0905
  H  H68  1  0.372370  0.498030  0.374830  1.0  0.1063
  H  H69  1  0.326270  0.517630  0.136830  1.0  0.1
  H  H70  1  0.371370  0.556630  0.849430  1.0  0.1158
  H  H71  1  0.465370  0.582030  0.809730  1.0  0.1079
  H  H72  1  0.549970  0.589130  0.908830  1.0  0.1058
  H  H73  1  0.647870  0.636830  0.055830  1.0  0.0962
  H  H74  1  0.634270  0.575730  0.987030  1.0  0.0904
  H  H75  1  0.039030  0.831370  0.708170  1.0  0.1063
  H  H76  1  0.992930  0.850970  0.470170  1.0  0.1016
  H  H77  1  0.038030  0.889970  0.182770  1.0  0.1168
  H  H78  1  0.132030  0.915370  0.143070  1.0  0.1079
  H  H79  1  0.216630  0.922470  0.242170  1.0  0.1059
  H  H80  1  0.314530  0.970170  0.389170  1.0  0.0962
  H  H81  1  0.300930  0.909070  0.320370  1.0  0.0905
  H  H82  1  0.164700  0.459000  0.958500  1.0  0.108
  H  H83  1  0.184300  0.524700  0.196500  1.0  0.0967
  H  H84  1  0.223300  0.518600  0.483900  1.0  0.1165
  H  H85  1  0.248700  0.450000  0.523600  1.0  0.1091
  H  H86  1  0.255800  0.372500  0.424500  1.0  0.1061
  H  H87  1  0.303500  0.322300  0.277500  1.0  0.0958
  H  H88  1  0.242400  0.274800  0.346300  1.0  0.0888
  H  H89  1  0.831370  0.792330  0.291830  1.0  0.108
  H  H90  1  0.850970  0.858030  0.529830  1.0  0.0968
  H  H91  1  0.889970  0.851930  0.817230  1.0  0.1165
  H  H92  1  0.915370  0.783330  0.856930  1.0  0.1091
  H  H93  1  0.922470  0.705830  0.757830  1.0  0.1061
  H  H94  1  0.970170  0.655630  0.610830  1.0  0.0958
  H  H95  1  0.909070  0.608130  0.679630  1.0  0.0888
  H  H96  1  0.498030  0.125670  0.625170  1.0  0.108
  H  H97  1  0.517630  0.191370  0.863170  1.0  0.0967
  H  H98  1  0.556630  0.185270  0.150570  1.0  0.1165
  H  H99  1  0.582030  0.116670  0.190270  1.0  0.1091
  H  H100  1  0.589130  0.039170  0.091170  1.0  0.1061
  H  H101  1  0.636830  0.988970  0.944170  1.0  0.0958
  H  H102  1  0.575730  0.941470  0.012970  1.0  0.0888
  H  H103  1  0.541000  0.705700  0.958500  1.0  0.1077
  H  H104  1  0.475300  0.659600  0.196500  1.0  0.0988
  H  H105  1  0.481400  0.704700  0.483900  1.0  0.1171
  H  H106  1  0.550000  0.798700  0.523600  1.0  0.1085
  H  H107  1  0.627500  0.883300  0.424500  1.0  0.1061
  H  H108  1  0.677700  0.981200  0.277500  1.0  0.0975
  H  H109  1  0.725200  0.967600  0.346300  1.0  0.089
  H  H110  1  0.207670  0.039030  0.291830  1.0  0.1077
  H  H111  1  0.141970  0.992930  0.529830  1.0  0.0979
  H  H112  1  0.148070  0.038030  0.817230  1.0  0.1171
  H  H113  1  0.216670  0.132030  0.856930  1.0  0.1085
  H  H114  1  0.294170  0.216630  0.757830  1.0  0.1062
  H  H115  1  0.344370  0.314530  0.610830  1.0  0.0975
  H  H116  1  0.391870  0.300930  0.679630  1.0  0.089
  H  H117  1  0.874330  0.372370  0.625170  1.0  0.1077
  H  H118  1  0.808630  0.326270  0.863170  1.0  0.0988
  H  H119  1  0.814730  0.371370  0.150570  1.0  0.1171
  H  H120  1  0.883330  0.465370  0.190270  1.0  0.1085
  H  H121  1  0.960830  0.549970  0.091170  1.0  0.1062
  H  H122  1  0.011030  0.647870  0.944170  1.0  0.0975
  H  H123  1  0.058530  0.634270  0.012970  1.0  0.0891
  H  H124  1  0.294300  0.835300  0.958500  1.0  0.1063
  H  H125  1  0.340400  0.815700  0.196500  1.0  0.0989
  H  H126  1  0.295300  0.776700  0.483900  1.0  0.1166
  H  H127  1  0.201300  0.751300  0.523600  1.0  0.1078
  H  H128  1  0.116700  0.744200  0.424500  1.0  0.105
  H  H129  1  0.018800  0.696500  0.277500  1.0  0.0979
  H  H130  1  0.032400  0.757600  0.346300  1.0  0.088
  H  H131  1  0.960970  0.168630  0.291830  1.0  0.1063
  H  H132  1  0.007070  0.149030  0.529830  1.0  0.0999
  H  H133  1  0.961970  0.110030  0.817230  1.0  0.1173
  H  H134  1  0.867970  0.084630  0.856930  1.0  0.1078
  H  H135  1  0.783370  0.077530  0.757830  1.0  0.105
  H  H136  1  0.685470  0.029830  0.610830  1.0  0.0979
  H  H137  1  0.699070  0.090930  0.679630  1.0  0.088
  H  H138  1  0.627630  0.501970  0.625170  1.0  0.1063
  H  H139  1  0.673730  0.482370  0.863170  1.0  0.0989
  H  H140  1  0.628630  0.443370  0.150570  1.0  0.1166
  H  H141  1  0.534630  0.417970  0.190270  1.0  0.1078
  H  H142  1  0.450030  0.410870  0.091170  1.0  0.105
  H  H143  1  0.352130  0.363170  0.944170  1.0  0.0979
  H  H144  1  0.365730  0.424270  0.012970  1.0  0.0879
  C  C145  1  0.779300  0.589600  0.734300  1.0  -0.0259
  C  C146  1  0.806700  0.588200  0.906600  1.0  0.3162
  C  C147  1  0.818900  0.543800  0.927700  1.0  -0.1228
  C  C148  1  0.807200  0.504400  0.784800  1.0  -0.065
  C  C149  1  0.783000  0.507400  0.614200  1.0  -0.1298
  C  C150  1  0.768600  0.548700  0.590300  1.0  -0.1313
  C  C151  1  0.759000  0.628600  0.696900  1.0  0.0956
  C  C152  1  0.736200  0.701200  0.761400  1.0  -0.0963
  C  C153  1  0.740200  0.738100  0.929800  1.0  0.7455
  C  C154  1  0.445970  0.922930  0.067630  1.0  -0.0258
  C  C155  1  0.473370  0.921530  0.239930  1.0  0.3162
  C  C156  1  0.485570  0.877130  0.261030  1.0  -0.123
  C  C157  1  0.473870  0.837730  0.118130  1.0  -0.065
  C  C158  1  0.449670  0.840730  0.947530  1.0  -0.1299
  C  C159  1  0.435270  0.882030  0.923630  1.0  -0.1313
  C  C160  1  0.425670  0.961930  0.030230  1.0  0.0956
  C  C161  1  0.402870  0.034530  0.094730  1.0  -0.0963
  C  C162  1  0.406870  0.071430  0.263130  1.0  0.7454
  C  C163  1  0.112630  0.256270  0.400970  1.0  -0.0259
  C  C164  1  0.140030  0.254870  0.573270  1.0  0.3162
  C  C165  1  0.152230  0.210470  0.594370  1.0  -0.1228
  C  C166  1  0.140530  0.171070  0.451470  1.0  -0.065
  C  C167  1  0.116330  0.174070  0.280870  1.0  -0.1298
  C  C168  1  0.101930  0.215370  0.256970  1.0  -0.1313
  C  C169  1  0.092330  0.295270  0.363570  1.0  0.0956
  C  C170  1  0.069530  0.367870  0.428070  1.0  -0.0963
  C  C171  1  0.073530  0.404770  0.596470  1.0  0.7454
  C  C172  1  0.410400  0.189700  0.734300  1.0  -0.0269
  C  C173  1  0.411800  0.218500  0.906600  1.0  0.316
  C  C174  1  0.456200  0.275100  0.927700  1.0  -0.1176
  C  C175  1  0.495600  0.302800  0.784800  1.0  -0.0627
  C  C176  1  0.492600  0.275600  0.614200  1.0  -0.1294
  C  C177  1  0.451300  0.219900  0.590300  1.0  -0.1274
  C  C178  1  0.371400  0.130400  0.696900  1.0  0.0959
  C  C179  1  0.298800  0.035000  0.761400  1.0  -0.0967
  C  C180  1  0.261900  0.002100  0.929800  1.0  0.7454
  C  C181  1  0.077070  0.523030  0.067630  1.0  -0.027
  C  C182  1  0.078470  0.551830  0.239930  1.0  0.3161
  C  C183  1  0.122870  0.608430  0.261030  1.0  -0.1174
  C  C184  1  0.162270  0.636130  0.118130  1.0  -0.0627
  C  C185  1  0.159270  0.608930  0.947530  1.0  -0.1291
  C  C186  1  0.117970  0.553230  0.923630  1.0  -0.1274
  C  C187  1  0.038070  0.463730  0.030230  1.0  0.0959
  C  C188  1  0.965470  0.368330  0.094730  1.0  -0.0967
  C  C189  1  0.928570  0.335430  0.263130  1.0  0.7454
  C  C190  1  0.743730  0.856370  0.400970  1.0  -0.0269
  C  C191  1  0.745130  0.885170  0.573270  1.0  0.3161
  C  C192  1  0.789530  0.941770  0.594370  1.0  -0.1176
  C  C193  1  0.828930  0.969470  0.451470  1.0  -0.0627
  C  C194  1  0.825930  0.942270  0.280870  1.0  -0.1294
  C  C195  1  0.784630  0.886570  0.256970  1.0  -0.1274
  C  C196  1  0.704730  0.797070  0.363570  1.0  0.0958
  C  C197  1  0.632130  0.701670  0.428070  1.0  -0.0967
  C  C198  1  0.595230  0.668770  0.596470  1.0  0.7454
  C  C199  1  0.810300  0.220700  0.734300  1.0  -0.0262
  C  C200  1  0.781500  0.193300  0.906600  1.0  0.3165
  C  C201  1  0.724900  0.181100  0.927700  1.0  -0.1227
  C  C202  1  0.697200  0.192800  0.784800  1.0  -0.0619
  C  C203  1  0.724400  0.217000  0.614200  1.0  -0.1309
  C  C204  1  0.780100  0.231400  0.590300  1.0  -0.1268
  C  C205  1  0.869600  0.241000  0.696900  1.0  0.0947
  C  C206  1  0.965000  0.263800  0.761400  1.0  -0.0959
  C  C207  1  0.997900  0.259800  0.929800  1.0  0.7428
  C  C208  1  0.476970  0.554030  0.067630  1.0  -0.0263
  C  C209  1  0.448170  0.526630  0.239930  1.0  0.3165
  C  C210  1  0.391570  0.514430  0.261030  1.0  -0.1229
  C  C211  1  0.363870  0.526130  0.118130  1.0  -0.0619
  C  C212  1  0.391070  0.550330  0.947530  1.0  -0.131
  C  C213  1  0.446770  0.564730  0.923630  1.0  -0.1268
  C  C214  1  0.536270  0.574330  0.030230  1.0  0.0946
  C  C215  1  0.631670  0.597130  0.094730  1.0  -0.0959
  C  C216  1  0.664570  0.593130  0.263130  1.0  0.7428
  C  C217  1  0.143630  0.887370  0.400970  1.0  -0.0263
  C  C218  1  0.114830  0.859970  0.573270  1.0  0.3165
  C  C219  1  0.058230  0.847770  0.594370  1.0  -0.1227
  C  C220  1  0.030530  0.859470  0.451470  1.0  -0.0619
  C  C221  1  0.057730  0.883670  0.280870  1.0  -0.1309
  C  C222  1  0.113430  0.898070  0.256970  1.0  -0.1268
  C  C223  1  0.202930  0.907670  0.363570  1.0  0.0948
  C  C224  1  0.298330  0.930470  0.428070  1.0  -0.0959
  C  C225  1  0.331230  0.926470  0.596470  1.0  0.7428
  C  C226  1  0.220700  0.410400  0.265700  1.0  -0.0248
  C  C227  1  0.193300  0.411800  0.093400  1.0  0.3147
  C  C228  1  0.181100  0.456200  0.072300  1.0  -0.1228
  C  C229  1  0.192800  0.495600  0.215200  1.0  -0.0592
  C  C230  1  0.217000  0.492600  0.385800  1.0  -0.1301
  C  C231  1  0.231400  0.451300  0.409700  1.0  -0.1294
  C  C232  1  0.241000  0.371400  0.303100  1.0  0.096
  C  C233  1  0.263800  0.298800  0.238600  1.0  -0.098
  C  C234  1  0.259800  0.261900  0.070200  1.0  0.7448
  C  C235  1  0.887370  0.743730  0.599030  1.0  -0.025
  C  C236  1  0.859970  0.745130  0.426730  1.0  0.3147
  C  C237  1  0.847770  0.789530  0.405630  1.0  -0.1228
  C  C238  1  0.859470  0.828930  0.548530  1.0  -0.0592
  C  C239  1  0.883670  0.825930  0.719130  1.0  -0.1301
  C  C240  1  0.898070  0.784630  0.743030  1.0  -0.1294
  C  C241  1  0.907670  0.704730  0.636430  1.0  0.096
  C  C242  1  0.930470  0.632130  0.571930  1.0  -0.098
  C  C243  1  0.926470  0.595230  0.403530  1.0  0.7448
  C  C244  1  0.554030  0.077070  0.932370  1.0  -0.0247
  C  C245  1  0.526630  0.078470  0.760070  1.0  0.3147
  C  C246  1  0.514430  0.122870  0.738970  1.0  -0.123
  C  C247  1  0.526130  0.162270  0.881870  1.0  -0.0592
  C  C248  1  0.550330  0.159270  0.052470  1.0  -0.1302
  C  C249  1  0.564730  0.117970  0.076370  1.0  -0.1295
  C  C250  1  0.574330  0.038070  0.969770  1.0  0.096
  C  C251  1  0.597130  0.965470  0.905270  1.0  -0.098
  C  C252  1  0.593130  0.928570  0.736870  1.0  0.7448
  C  C253  1  0.589600  0.810300  0.265700  1.0  -0.0259
  C  C254  1  0.588200  0.781500  0.093400  1.0  0.3159
  C  C255  1  0.543800  0.724900  0.072300  1.0  -0.1192
  C  C256  1  0.504400  0.697200  0.215200  1.0  -0.0644
  C  C257  1  0.507400  0.724400  0.385800  1.0  -0.1313
  C  C258  1  0.548700  0.780100  0.409700  1.0  -0.1287
  C  C259  1  0.628600  0.869600  0.303100  1.0  0.0947
  C  C260  1  0.701200  0.965000  0.238600  1.0  -0.099
  C  C261  1  0.738100  0.997900  0.070200  1.0  0.7466
  C  C262  1  0.256270  0.143630  0.599030  1.0  -0.0259
  C  C263  1  0.254870  0.114830  0.426730  1.0  0.3159
  C  C264  1  0.210470  0.058230  0.405630  1.0  -0.1192
  C  C265  1  0.171070  0.030530  0.548530  1.0  -0.0644
  C  C266  1  0.174070  0.057730  0.719130  1.0  -0.1313
  C  C267  1  0.215370  0.113430  0.743030  1.0  -0.1288
  C  C268  1  0.295270  0.202930  0.636430  1.0  0.0946
  C  C269  1  0.367870  0.298330  0.571930  1.0  -0.099
  C  C270  1  0.404770  0.331230  0.403530  1.0  0.7466
  C  C271  1  0.922930  0.476970  0.932370  1.0  -0.026
  C  C272  1  0.921530  0.448170  0.760070  1.0  0.3159
  C  C273  1  0.877130  0.391570  0.738970  1.0  -0.119
  C  C274  1  0.837730  0.363870  0.881870  1.0  -0.0644
  C  C275  1  0.840730  0.391070  0.052470  1.0  -0.1311
  C  C276  1  0.882030  0.446770  0.076370  1.0  -0.1287
  C  C277  1  0.961930  0.536270  0.969770  1.0  0.0946
  C  C278  1  0.034530  0.631670  0.905270  1.0  -0.099
  C  C279  1  0.071430  0.664570  0.736870  1.0  0.7466
  C  C280  1  0.189700  0.779300  0.265700  1.0  -0.0262
  C  C281  1  0.218500  0.806700  0.093400  1.0  0.3148
  C  C282  1  0.275100  0.818900  0.072300  1.0  -0.1233
  C  C283  1  0.302800  0.807200  0.215200  1.0  -0.0613
  C  C284  1  0.275600  0.783000  0.385800  1.0  -0.128
  C  C285  1  0.219900  0.768600  0.409700  1.0  -0.1227
  C  C286  1  0.130400  0.759000  0.303100  1.0  0.0941
  C  C287  1  0.035000  0.736200  0.238600  1.0  -0.0984
  C  C288  1  0.002100  0.740200  0.070200  1.0  0.7421
  C  C289  1  0.856370  0.112630  0.599030  1.0  -0.0262
  C  C290  1  0.885170  0.140030  0.426730  1.0  0.3148
  C  C291  1  0.941770  0.152230  0.405630  1.0  -0.1233
  C  C292  1  0.969470  0.140530  0.548530  1.0  -0.0613
  C  C293  1  0.942270  0.116330  0.719130  1.0  -0.128
  C  C294  1  0.886570  0.101930  0.743030  1.0  -0.1227
  C  C295  1  0.797070  0.092330  0.636430  1.0  0.0943
  C  C296  1  0.701670  0.069530  0.571930  1.0  -0.0984
  C  C297  1  0.668770  0.073530  0.403530  1.0  0.7421
  C  C298  1  0.523030  0.445970  0.932370  1.0  -0.0262
  C  C299  1  0.551830  0.473370  0.760070  1.0  0.3148
  C  C300  1  0.608430  0.485570  0.738970  1.0  -0.1235
  C  C301  1  0.636130  0.473870  0.881870  1.0  -0.0613
  C  C302  1  0.608930  0.449670  0.052470  1.0  -0.1281
  C  C303  1  0.553230  0.435270  0.076370  1.0  -0.1227
  C  C304  1  0.463730  0.425670  0.969770  1.0  0.0941
  C  C305  1  0.368330  0.402870  0.905270  1.0  -0.0984
  C  C306  1  0.335430  0.406870  0.736870  1.0  0.7421
  N  N307  1  0.759600  0.664700  0.816600  1.0  -0.3351
  N  N308  1  0.426270  0.998030  0.149930  1.0  -0.3351
  N  N309  1  0.092930  0.331370  0.483270  1.0  -0.3351
  N  N310  1  0.335300  0.094900  0.816600  1.0  -0.335
  N  N311  1  0.001970  0.428230  0.149930  1.0  -0.335
  N  N312  1  0.668630  0.761570  0.483270  1.0  -0.335
  N  N313  1  0.905100  0.240400  0.816600  1.0  -0.3351
  N  N314  1  0.571770  0.573730  0.149930  1.0  -0.3351
  N  N315  1  0.238430  0.907070  0.483270  1.0  -0.3351
  N  N316  1  0.240400  0.335300  0.183400  1.0  -0.3351
  N  N317  1  0.907070  0.668630  0.516730  1.0  -0.3351
  N  N318  1  0.573730  0.001970  0.850070  1.0  -0.3351
  N  N319  1  0.664700  0.905100  0.183400  1.0  -0.3344
  N  N320  1  0.331370  0.238430  0.516730  1.0  -0.3344
  N  N321  1  0.998030  0.571770  0.850070  1.0  -0.3345
  N  N322  1  0.094900  0.759600  0.183400  1.0  -0.3338
  N  N323  1  0.761570  0.092930  0.516730  1.0  -0.3338
  N  N324  1  0.428230  0.426270  0.850070  1.0  -0.3338
  O  O325  1  0.821510  0.628110  0.042600  1.0  -0.6443
  O  O326  1  0.763000  0.733100  0.080700  1.0  -0.5696
  O  O327  1  0.720500  0.770600  0.914700  1.0  -0.6328
  O  O328  1  0.488180  0.961440  0.375930  1.0  -0.6443
  O  O329  1  0.429670  0.066430  0.414030  1.0  -0.5696
  O  O330  1  0.387170  0.103930  0.248030  1.0  -0.6328
  O  O331  1  0.154840  0.294780  0.709270  1.0  -0.6443
  O  O332  1  0.096330  0.399770  0.747370  1.0  -0.5696
  O  O333  1  0.053830  0.437270  0.581370  1.0  -0.6326
  O  O334  1  0.371890  0.193400  0.042600  1.0  -0.6451
  O  O335  1  0.266900  0.029900  0.080700  1.0  -0.5692
  O  O336  1  0.229400  0.949900  0.914700  1.0  -0.6325
  O  O337  1  0.038560  0.526730  0.375930  1.0  -0.645
  O  O338  1  0.933570  0.363230  0.414030  1.0  -0.5693
  O  O339  1  0.896070  0.283230  0.248030  1.0  -0.6325
  O  O340  1  0.705220  0.860070  0.709270  1.0  -0.6451
  O  O341  1  0.600230  0.696570  0.747370  1.0  -0.5692
  O  O342  1  0.562730  0.616570  0.581370  1.0  -0.6325
  O  O343  1  0.806600  0.178490  0.042600  1.0  -0.6465
  O  O344  1  0.970100  0.237000  0.080700  1.0  -0.5701
  O  O345  1  0.050100  0.279500  0.914700  1.0  -0.6321
  O  O346  1  0.473270  0.511820  0.375930  1.0  -0.6466
  O  O347  1  0.636770  0.570330  0.414030  1.0  -0.5701
  O  O348  1  0.716770  0.612830  0.248030  1.0  -0.6321
  O  O349  1  0.139930  0.845160  0.709270  1.0  -0.6465
  O  O350  1  0.303430  0.903670  0.747370  1.0  -0.5701
  O  O351  1  0.383430  0.946170  0.581370  1.0  -0.6324
  O  O352  1  0.178490  0.371890  0.957400  1.0  -0.6456
  O  O353  1  0.237000  0.266900  0.919300  1.0  -0.5701
  O  O354  1  0.279500  0.229400  0.085300  1.0  -0.6331
  O  O355  1  0.845160  0.705220  0.290730  1.0  -0.6456
  O  O356  1  0.903670  0.600230  0.252630  1.0  -0.5701
  O  O357  1  0.946170  0.562730  0.418630  1.0  -0.633
  O  O358  1  0.511820  0.038560  0.624070  1.0  -0.6456
  O  O359  1  0.570330  0.933570  0.585970  1.0  -0.5701
  O  O360  1  0.612830  0.896070  0.751970  1.0  -0.6331
  O  O361  1  0.628110  0.806600  0.957400  1.0  -0.6467
  O  O362  1  0.733100  0.970100  0.919300  1.0  -0.5697
  O  O363  1  0.770600  0.050100  0.085300  1.0  -0.6327
  O  O364  1  0.294780  0.139930  0.290730  1.0  -0.6467
  O  O365  1  0.399770  0.303430  0.252630  1.0  -0.5696
  O  O366  1  0.437270  0.383430  0.418630  1.0  -0.6326
  O  O367  1  0.961440  0.473270  0.624070  1.0  -0.6466
  O  O368  1  0.066430  0.636770  0.585970  1.0  -0.5697
  O  O369  1  0.103930  0.716770  0.751970  1.0  -0.6327
  O  O370  1  0.193400  0.821510  0.957400  1.0  -0.6462
  O  O371  1  0.029900  0.763000  0.919300  1.0  -0.5698
  O  O372  1  0.949900  0.720500  0.085300  1.0  -0.6324
  O  O373  1  0.860070  0.154840  0.290730  1.0  -0.6462
  O  O374  1  0.696570  0.096330  0.252630  1.0  -0.5698
  O  O375  1  0.616570  0.053830  0.418630  1.0  -0.6328
  O  O376  1  0.526730  0.488180  0.624070  1.0  -0.6464
  O  O377  1  0.363230  0.429670  0.585970  1.0  -0.5698
  O  O378  1  0.283230  0.387170  0.751970  1.0  -0.6324
