# generated using pymatgen
data_NaCdH8(C8O5)2
_symmetry_space_group_name_H-M   'P 1'
_cell_length_a   18.62940000
_cell_length_b   9.93450000
_cell_length_c   14.74240000
_cell_angle_alpha   90.00000000
_cell_angle_beta   90.00000000
_cell_angle_gamma   90.00000000
_symmetry_Int_Tables_number   1
_chemical_formula_structural   NaCdH8(C8O5)2
_chemical_formula_sum   'Na4 Cd4 H32 C64 O40'
_cell_volume   2728.43161024
_cell_formula_units_Z   4
loop_
 _symmetry_equiv_pos_site_id
 _symmetry_equiv_pos_as_xyz
  1  'x, y, z'
loop_
 _atom_site_type_symbol
 _atom_site_label
 _atom_site_symmetry_multiplicity
 _atom_site_fract_x
 _atom_site_fract_y
 _atom_site_fract_z
 _atom_site_occupancy
 _atom_site_charge
  Na  Na1  1  0.559670  0.945200  0.875700  1.0  0.9814
  Na  Na2  1  0.440330  0.054800  0.375700  1.0  0.9869
  Na  Na3  1  0.059670  0.054800  0.875700  1.0  0.9813
  Na  Na4  1  0.940330  0.945200  0.375700  1.0  0.9863
  Cd  Cd5  1  0.468450  0.959310  0.103020  1.0  1.0626
  Cd  Cd6  1  0.531550  0.040690  0.603020  1.0  1.062
  Cd  Cd7  1  0.968450  0.040690  0.103020  1.0  1.0614
  Cd  Cd8  1  0.031550  0.959310  0.603020  1.0  1.0617
  H  H9  1  0.539100  0.582400  0.731600  1.0  0.4017
  H  H10  1  0.710300  0.176000  0.514400  1.0  0.3984
  H  H11  1  0.471100  0.430100  0.070900  1.0  0.1148
  H  H12  1  0.504800  0.274100  0.821400  1.0  0.123
  H  H13  1  0.498600  0.676400  0.855900  1.0  0.1013
  H  H14  1  0.705900  0.055600  0.156400  1.0  0.1146
  H  H15  1  0.829300  0.188300  0.361800  1.0  0.1164
  H  H16  1  0.616000  0.153400  0.394300  1.0  0.1042
  H  H17  1  0.460900  0.417600  0.231600  1.0  0.3998
  H  H18  1  0.289700  0.824000  0.014400  1.0  0.3993
  H  H19  1  0.528900  0.569900  0.570900  1.0  0.1146
  H  H20  1  0.495200  0.725900  0.321400  1.0  0.123
  H  H21  1  0.501400  0.323600  0.355900  1.0  0.1016
  H  H22  1  0.294100  0.944400  0.656400  1.0  0.1143
  H  H23  1  0.170700  0.811700  0.861800  1.0  0.1163
  H  H24  1  0.384000  0.846600  0.894300  1.0  0.1051
  H  H25  1  0.039100  0.417600  0.731600  1.0  0.3998
  H  H26  1  0.210300  0.824000  0.514400  1.0  0.3983
  H  H27  1  0.971100  0.569900  0.070900  1.0  0.1146
  H  H28  1  0.004800  0.725900  0.821400  1.0  0.123
  H  H29  1  0.998600  0.323600  0.855900  1.0  0.1016
  H  H30  1  0.205900  0.944400  0.156400  1.0  0.1145
  H  H31  1  0.329300  0.811700  0.361800  1.0  0.1164
  H  H32  1  0.116000  0.846600  0.394300  1.0  0.1042
  H  H33  1  0.960900  0.582400  0.231600  1.0  0.4013
  H  H34  1  0.789700  0.176000  0.014400  1.0  0.3994
  H  H35  1  0.028900  0.430100  0.570900  1.0  0.1148
  H  H36  1  0.995200  0.274100  0.321400  1.0  0.123
  H  H37  1  0.001400  0.676400  0.355900  1.0  0.1014
  H  H38  1  0.794100  0.055600  0.656400  1.0  0.1144
  H  H39  1  0.670700  0.188300  0.861800  1.0  0.1163
  H  H40  1  0.884000  0.153400  0.894300  1.0  0.105
  C  C41  1  0.484200  0.696800  0.033000  1.0  0.7223
  C  C42  1  0.486600  0.573500  0.974200  1.0  -0.1453
  C  C43  1  0.479500  0.443100  0.009400  1.0  0.0177
  C  C44  1  0.485300  0.333200  0.951500  1.0  -0.1125
  C  C45  1  0.475100  0.192900  0.990200  1.0  0.7307
  C  C46  1  0.499600  0.348600  0.859100  1.0  -0.0617
  C  C47  1  0.506000  0.480000  0.824500  1.0  0.2879
  C  C48  1  0.497300  0.590200  0.880400  1.0  -0.0789
  C  C49  1  0.576300  0.072800  0.231500  1.0  0.7069
  C  C50  1  0.650100  0.102900  0.269600  1.0  -0.0945
  C  C51  1  0.710600  0.086900  0.215600  1.0  0.0273
  C  C52  1  0.778600  0.118100  0.250300  1.0  -0.1296
  C  C53  1  0.845300  0.091000  0.194000  1.0  0.7045
  C  C54  1  0.784400  0.165100  0.339100  1.0  -0.1117
  C  C55  1  0.724800  0.178000  0.393700  1.0  0.3159
  C  C56  1  0.656600  0.145700  0.358000  1.0  -0.1444
  C  C57  1  0.515800  0.303200  0.533000  1.0  0.7221
  C  C58  1  0.513400  0.426500  0.474200  1.0  -0.1436
  C  C59  1  0.520500  0.556900  0.509400  1.0  0.0182
  C  C60  1  0.514700  0.666800  0.451500  1.0  -0.1131
  C  C61  1  0.524900  0.807100  0.490200  1.0  0.7318
  C  C62  1  0.500400  0.651400  0.359100  1.0  -0.0613
  C  C63  1  0.494000  0.520000  0.324500  1.0  0.2883
  C  C64  1  0.502700  0.409800  0.380400  1.0  -0.0794
  C  C65  1  0.423700  0.927200  0.731500  1.0  0.706
  C  C66  1  0.349900  0.897100  0.769600  1.0  -0.0943
  C  C67  1  0.289400  0.913100  0.715600  1.0  0.0274
  C  C68  1  0.221400  0.881900  0.750300  1.0  -0.1297
  C  C69  1  0.154700  0.909000  0.694000  1.0  0.705
  C  C70  1  0.215600  0.834900  0.839100  1.0  -0.1117
  C  C71  1  0.275200  0.822000  0.893700  1.0  0.3167
  C  C72  1  0.343400  0.854300  0.858000  1.0  -0.1425
  C  C73  1  0.984200  0.303200  0.033000  1.0  0.7223
  C  C74  1  0.986600  0.426500  0.974200  1.0  -0.1445
  C  C75  1  0.979500  0.556900  0.009400  1.0  0.0178
  C  C76  1  0.985300  0.666800  0.951500  1.0  -0.1123
  C  C77  1  0.975100  0.807100  0.990200  1.0  0.7314
  C  C78  1  0.999600  0.651400  0.859100  1.0  -0.0615
  C  C79  1  0.006000  0.520000  0.824500  1.0  0.2881
  C  C80  1  0.997300  0.409800  0.880400  1.0  -0.0785
  C  C81  1  0.076300  0.927200  0.231500  1.0  0.7066
  C  C82  1  0.150100  0.897100  0.269600  1.0  -0.0943
  C  C83  1  0.210600  0.913100  0.215600  1.0  0.0272
  C  C84  1  0.278600  0.881900  0.250300  1.0  -0.1295
  C  C85  1  0.345300  0.909000  0.194000  1.0  0.7047
  C  C86  1  0.284400  0.834900  0.339100  1.0  -0.1114
  C  C87  1  0.224800  0.822000  0.393700  1.0  0.3163
  C  C88  1  0.156600  0.854300  0.358000  1.0  -0.1444
  C  C89  1  0.015800  0.696800  0.533000  1.0  0.7218
  C  C90  1  0.013400  0.573500  0.474200  1.0  -0.1442
  C  C91  1  0.020500  0.443100  0.509400  1.0  0.018
  C  C92  1  0.014700  0.333200  0.451500  1.0  -0.1127
  C  C93  1  0.024900  0.192900  0.490200  1.0  0.731
  C  C94  1  0.000400  0.348600  0.359100  1.0  -0.0615
  C  C95  1  0.994000  0.480000  0.324500  1.0  0.2878
  C  C96  1  0.002700  0.590200  0.380400  1.0  -0.0796
  C  C97  1  0.923700  0.072800  0.731500  1.0  0.7061
  C  C98  1  0.849900  0.102900  0.769600  1.0  -0.0942
  C  C99  1  0.789400  0.086900  0.715600  1.0  0.0275
  C  C100  1  0.721400  0.118100  0.750300  1.0  -0.1298
  C  C101  1  0.654700  0.091000  0.694000  1.0  0.7049
  C  C102  1  0.715600  0.165100  0.839100  1.0  -0.1123
  C  C103  1  0.775200  0.178000  0.893700  1.0  0.3163
  C  C104  1  0.843400  0.145700  0.858000  1.0  -0.1425
  O  O105  1  0.493000  0.810000  0.994800  1.0  -0.6617
  O  O106  1  0.472900  0.686500  0.116200  1.0  -0.658
  O  O107  1  0.457000  0.181700  0.070900  1.0  -0.6009
  O  O108  1  0.482300  0.094300  0.940100  1.0  -0.687
  O  O109  1  0.520600  0.507700  0.735500  1.0  -0.5231
  O  O110  1  0.575800  0.988800  0.165500  1.0  -0.6049
  O  O111  1  0.522800  0.128000  0.263200  1.0  -0.6496
  O  O112  1  0.842700  0.094200  0.109600  1.0  -0.6483
  O  O113  1  0.902400  0.067200  0.235300  1.0  -0.6114
  O  O114  1  0.736500  0.218500  0.480000  1.0  -0.5158
  O  O115  1  0.507000  0.190000  0.494800  1.0  -0.6614
  O  O116  1  0.527100  0.313500  0.616200  1.0  -0.6584
  O  O117  1  0.543000  0.818300  0.570900  1.0  -0.6
  O  O118  1  0.517700  0.905700  0.440100  1.0  -0.6856
  O  O119  1  0.479400  0.492300  0.235500  1.0  -0.5216
  O  O120  1  0.424200  0.011200  0.665500  1.0  -0.6049
  O  O121  1  0.477200  0.872000  0.763200  1.0  -0.6491
  O  O122  1  0.157300  0.905800  0.609600  1.0  -0.6469
  O  O123  1  0.097600  0.932800  0.735300  1.0  -0.6108
  O  O124  1  0.263500  0.781500  0.980000  1.0  -0.5159
  O  O125  1  0.993000  0.190000  0.994800  1.0  -0.6613
  O  O126  1  0.972900  0.313500  0.116200  1.0  -0.6586
  O  O127  1  0.957000  0.818300  0.070900  1.0  -0.6007
  O  O128  1  0.982300  0.905700  0.940100  1.0  -0.6863
  O  O129  1  0.020600  0.492300  0.735500  1.0  -0.5217
  O  O130  1  0.075800  0.011200  0.165500  1.0  -0.6044
  O  O131  1  0.022800  0.872000  0.263200  1.0  -0.6504
  O  O132  1  0.342700  0.905800  0.109600  1.0  -0.6481
  O  O133  1  0.402400  0.932800  0.235300  1.0  -0.6119
  O  O134  1  0.236500  0.781500  0.480000  1.0  -0.5158
  O  O135  1  0.007000  0.810000  0.494800  1.0  -0.6621
  O  O136  1  0.027100  0.686500  0.616200  1.0  -0.6578
  O  O137  1  0.043000  0.181700  0.570900  1.0  -0.6002
  O  O138  1  0.017700  0.094300  0.440100  1.0  -0.6862
  O  O139  1  0.979400  0.507700  0.235500  1.0  -0.5229
  O  O140  1  0.924200  0.988800  0.665500  1.0  -0.6047
  O  O141  1  0.977200  0.128000  0.763200  1.0  -0.6485
  O  O142  1  0.657300  0.094200  0.609600  1.0  -0.6471
  O  O143  1  0.597600  0.067200  0.735300  1.0  -0.6104
  O  O144  1  0.763500  0.218500  0.980000  1.0  -0.5148
