# generated using pymatgen
data_ZnH10(CN)6
_symmetry_space_group_name_H-M   'P 1'
_cell_length_a   16.99580000
_cell_length_b   16.99580000
_cell_length_c   16.99580000
_cell_angle_alpha   90.00000000
_cell_angle_beta   90.00000000
_cell_angle_gamma   90.00000000
_symmetry_Int_Tables_number   1
_chemical_formula_structural   ZnH10(CN)6
_chemical_formula_sum   'Zn12 H120 C72 N72'
_cell_volume   4909.35949957
_cell_formula_units_Z   12
loop_
 _symmetry_equiv_pos_site_id
 _symmetry_equiv_pos_as_xyz
  1  'x, y, z'
loop_
 _atom_site_type_symbol
 _atom_site_label
 _atom_site_symmetry_multiplicity
 _atom_site_fract_x
 _atom_site_fract_y
 _atom_site_fract_z
 _atom_site_occupancy
 _atom_site_charge
  Zn  Zn1  1  0.000000  0.500000  0.250000  1.0  0.773
  Zn  Zn2  1  0.000000  0.500000  0.750000  1.0  0.773
  Zn  Zn3  1  0.250000  0.000000  0.500000  1.0  0.773
  Zn  Zn4  1  0.750000  0.000000  0.500000  1.0  0.773
  Zn  Zn5  1  0.500000  0.250000  0.000000  1.0  0.773
  Zn  Zn6  1  0.500000  0.750000  0.000000  1.0  0.773
  Zn  Zn7  1  0.500000  0.000000  0.250000  1.0  0.773
  Zn  Zn8  1  0.500000  0.000000  0.750000  1.0  0.773
  Zn  Zn9  1  0.000000  0.250000  0.500000  1.0  0.773
  Zn  Zn10  1  0.000000  0.750000  0.500000  1.0  0.773
  Zn  Zn11  1  0.250000  0.500000  0.000000  1.0  0.773
  Zn  Zn12  1  0.750000  0.500000  0.000000  1.0  0.773
  H  H13  1  0.957300  0.401000  0.106800  1.0  0.1184
  H  H14  1  0.881800  0.638300  0.219200  1.0  0.0951
  H  H15  1  0.457300  0.901000  0.606800  1.0  0.1184
  H  H16  1  0.381800  0.138300  0.719200  1.0  0.0948
  H  H17  1  0.042700  0.599000  0.106800  1.0  0.1207
  H  H18  1  0.118200  0.361700  0.219200  1.0  0.0947
  H  H19  1  0.542700  0.099000  0.606800  1.0  0.1207
  H  H20  1  0.618200  0.861700  0.719200  1.0  0.0948
  H  H21  1  0.042700  0.401000  0.893200  1.0  0.1204
  H  H22  1  0.118200  0.638300  0.780800  1.0  0.0944
  H  H23  1  0.542700  0.901000  0.393200  1.0  0.1204
  H  H24  1  0.618200  0.138300  0.280800  1.0  0.0944
  H  H25  1  0.957300  0.599000  0.893200  1.0  0.1185
  H  H26  1  0.881800  0.361700  0.780800  1.0  0.0951
  H  H27  1  0.457300  0.099000  0.393200  1.0  0.1185
  H  H28  1  0.381800  0.861700  0.280800  1.0  0.0951
  H  H29  1  0.106800  0.957300  0.401000  1.0  0.1214
  H  H30  1  0.219200  0.881800  0.638300  1.0  0.0954
  H  H31  1  0.606800  0.457300  0.901000  1.0  0.1214
  H  H32  1  0.719200  0.381800  0.138300  1.0  0.0955
  H  H33  1  0.106800  0.042700  0.599000  1.0  0.1191
  H  H34  1  0.219200  0.118200  0.361700  1.0  0.0949
  H  H35  1  0.606800  0.542700  0.099000  1.0  0.1191
  H  H36  1  0.719200  0.618200  0.861700  1.0  0.095
  H  H37  1  0.893200  0.042700  0.401000  1.0  0.1181
  H  H38  1  0.780800  0.118200  0.638300  1.0  0.0954
  H  H39  1  0.393200  0.542700  0.901000  1.0  0.1181
  H  H40  1  0.280800  0.618200  0.138300  1.0  0.0953
  H  H41  1  0.893200  0.957300  0.599000  1.0  0.1217
  H  H42  1  0.780800  0.881800  0.361700  1.0  0.0953
  H  H43  1  0.393200  0.457300  0.099000  1.0  0.1217
  H  H44  1  0.280800  0.381800  0.861700  1.0  0.0953
  H  H45  1  0.401000  0.106800  0.957300  1.0  0.1211
  H  H46  1  0.638300  0.219200  0.881800  1.0  0.0949
  H  H47  1  0.901000  0.606800  0.457300  1.0  0.1211
  H  H48  1  0.138300  0.719200  0.381800  1.0  0.0946
  H  H49  1  0.599000  0.106800  0.042700  1.0  0.1214
  H  H50  1  0.361700  0.219200  0.118200  1.0  0.0942
  H  H51  1  0.099000  0.606800  0.542700  1.0  0.1214
  H  H52  1  0.861700  0.719200  0.618200  1.0  0.0943
  H  H53  1  0.401000  0.893200  0.042700  1.0  0.1218
  H  H54  1  0.638300  0.780800  0.118200  1.0  0.0949
  H  H55  1  0.901000  0.393200  0.542700  1.0  0.1218
  H  H56  1  0.138300  0.280800  0.618200  1.0  0.0947
  H  H57  1  0.599000  0.893200  0.957300  1.0  0.121
  H  H58  1  0.361700  0.780800  0.881800  1.0  0.0947
  H  H59  1  0.099000  0.393200  0.457300  1.0  0.121
  H  H60  1  0.861700  0.280800  0.381800  1.0  0.0947
  H  H61  1  0.401000  0.957300  0.106800  1.0  0.1215
  H  H62  1  0.638300  0.881800  0.219200  1.0  0.0941
  H  H63  1  0.901000  0.457300  0.606800  1.0  0.1215
  H  H64  1  0.138300  0.381800  0.719200  1.0  0.0941
  H  H65  1  0.599000  0.042700  0.106800  1.0  0.1197
  H  H66  1  0.361700  0.118200  0.219200  1.0  0.093
  H  H67  1  0.099000  0.542700  0.606800  1.0  0.1197
  H  H68  1  0.861700  0.618200  0.719200  1.0  0.0932
  H  H69  1  0.401000  0.042700  0.893200  1.0  0.1191
  H  H70  1  0.638300  0.118200  0.780800  1.0  0.0938
  H  H71  1  0.901000  0.542700  0.393200  1.0  0.1191
  H  H72  1  0.138300  0.618200  0.280800  1.0  0.0939
  H  H73  1  0.599000  0.957300  0.893200  1.0  0.1219
  H  H74  1  0.361700  0.881800  0.780800  1.0  0.0936
  H  H75  1  0.099000  0.457300  0.393200  1.0  0.1219
  H  H76  1  0.861700  0.381800  0.280800  1.0  0.094
  H  H77  1  0.957300  0.106800  0.401000  1.0  0.118
  H  H78  1  0.881800  0.219200  0.638300  1.0  0.0958
  H  H79  1  0.457300  0.606800  0.901000  1.0  0.118
  H  H80  1  0.381800  0.719200  0.138300  1.0  0.0958
  H  H81  1  0.042700  0.106800  0.599000  1.0  0.1205
  H  H82  1  0.118200  0.219200  0.361700  1.0  0.0947
  H  H83  1  0.542700  0.606800  0.099000  1.0  0.1205
  H  H84  1  0.618200  0.719200  0.861700  1.0  0.0948
  H  H85  1  0.042700  0.893200  0.401000  1.0  0.1197
  H  H86  1  0.118200  0.780800  0.638300  1.0  0.095
  H  H87  1  0.542700  0.393200  0.901000  1.0  0.1197
  H  H88  1  0.618200  0.280800  0.138300  1.0  0.0951
  H  H89  1  0.957300  0.893200  0.599000  1.0  0.1184
  H  H90  1  0.881800  0.780800  0.361700  1.0  0.0953
  H  H91  1  0.457300  0.393200  0.099000  1.0  0.1184
  H  H92  1  0.381800  0.280800  0.861700  1.0  0.0956
  H  H93  1  0.106800  0.401000  0.957300  1.0  0.1208
  H  H94  1  0.219200  0.638300  0.881800  1.0  0.0955
  H  H95  1  0.606800  0.901000  0.457300  1.0  0.1208
  H  H96  1  0.719200  0.138300  0.381800  1.0  0.0954
  H  H97  1  0.106800  0.599000  0.042700  1.0  0.1211
  H  H98  1  0.219200  0.361700  0.118200  1.0  0.0954
  H  H99  1  0.606800  0.099000  0.542700  1.0  0.1211
  H  H100  1  0.719200  0.861700  0.618200  1.0  0.0958
  H  H101  1  0.893200  0.401000  0.042700  1.0  0.1211
  H  H102  1  0.780800  0.638300  0.118200  1.0  0.0955
  H  H103  1  0.393200  0.901000  0.542700  1.0  0.1211
  H  H104  1  0.280800  0.138300  0.618200  1.0  0.0955
  H  H105  1  0.893200  0.599000  0.957300  1.0  0.1209
  H  H106  1  0.780800  0.361700  0.881800  1.0  0.0964
  H  H107  1  0.393200  0.099000  0.457300  1.0  0.1209
  H  H108  1  0.280800  0.861700  0.381800  1.0  0.0964
  H  H109  1  0.873400  0.367400  0.126600  1.0  0.1216
  H  H110  1  0.373400  0.867400  0.626600  1.0  0.1216
  H  H111  1  0.126600  0.632600  0.126600  1.0  0.122
  H  H112  1  0.626600  0.132600  0.626600  1.0  0.122
  H  H113  1  0.126600  0.367400  0.873400  1.0  0.1221
  H  H114  1  0.626600  0.867400  0.373400  1.0  0.1221
  H  H115  1  0.873400  0.632600  0.873400  1.0  0.1224
  H  H116  1  0.373400  0.132600  0.373400  1.0  0.1224
  H  H117  1  0.126600  0.873400  0.367400  1.0  0.1228
  H  H118  1  0.626600  0.373400  0.867400  1.0  0.1228
  H  H119  1  0.126600  0.126600  0.632600  1.0  0.1237
  H  H120  1  0.626600  0.626600  0.132600  1.0  0.1237
  H  H121  1  0.873400  0.126600  0.367400  1.0  0.1225
  H  H122  1  0.373400  0.626600  0.867400  1.0  0.1225
  H  H123  1  0.873400  0.873400  0.632600  1.0  0.1232
  H  H124  1  0.373400  0.373400  0.132600  1.0  0.1232
  H  H125  1  0.367400  0.126600  0.873400  1.0  0.1234
  H  H126  1  0.867400  0.626600  0.373400  1.0  0.1234
  H  H127  1  0.632600  0.126600  0.126600  1.0  0.1236
  H  H128  1  0.132600  0.626600  0.626600  1.0  0.1236
  H  H129  1  0.367400  0.873400  0.126600  1.0  0.1216
  H  H130  1  0.867400  0.373400  0.626600  1.0  0.1216
  H  H131  1  0.632600  0.873400  0.873400  1.0  0.1222
  H  H132  1  0.132600  0.373400  0.373400  1.0  0.1222
  C  C133  1  0.871200  0.597300  0.184600  1.0  0.0927
  C  C134  1  0.371200  0.097300  0.684600  1.0  0.0927
  C  C135  1  0.128800  0.402700  0.184600  1.0  0.0933
  C  C136  1  0.628800  0.902700  0.684600  1.0  0.0933
  C  C137  1  0.128800  0.597300  0.815400  1.0  0.0927
  C  C138  1  0.628800  0.097300  0.315400  1.0  0.0927
  C  C139  1  0.871200  0.402700  0.815400  1.0  0.093
  C  C140  1  0.371200  0.902700  0.315400  1.0  0.0944
  C  C141  1  0.184600  0.871200  0.597300  1.0  0.0966
  C  C142  1  0.684600  0.371200  0.097300  1.0  0.0966
  C  C143  1  0.184600  0.128800  0.402700  1.0  0.095
  C  C144  1  0.684600  0.628800  0.902700  1.0  0.095
  C  C145  1  0.815400  0.128800  0.597300  1.0  0.0929
  C  C146  1  0.315400  0.628800  0.097300  1.0  0.0929
  C  C147  1  0.815400  0.871200  0.402700  1.0  0.0933
  C  C148  1  0.315400  0.371200  0.902700  1.0  0.0933
  C  C149  1  0.597300  0.184600  0.871200  1.0  0.0937
  C  C150  1  0.097300  0.684600  0.371200  1.0  0.0937
  C  C151  1  0.402700  0.184600  0.128800  1.0  0.0865
  C  C152  1  0.902700  0.684600  0.628800  1.0  0.0931
  C  C153  1  0.597300  0.815400  0.128800  1.0  0.0934
  C  C154  1  0.097300  0.315400  0.628800  1.0  0.0934
  C  C155  1  0.402700  0.815400  0.871200  1.0  0.0918
  C  C156  1  0.902700  0.315400  0.371200  1.0  0.093
  C  C157  1  0.875940  0.488400  0.124060  1.0  0.4211
  C  C158  1  0.901800  0.406900  0.098200  1.0  -0.4645
  C  C159  1  0.375940  0.988400  0.624060  1.0  0.4211
  C  C160  1  0.401800  0.906900  0.598200  1.0  -0.4645
  C  C161  1  0.124060  0.511600  0.124060  1.0  0.4197
  C  C162  1  0.098200  0.593100  0.098200  1.0  -0.4651
  C  C163  1  0.624060  0.011600  0.624060  1.0  0.4197
  C  C164  1  0.598200  0.093100  0.598200  1.0  -0.4651
  C  C165  1  0.124060  0.488400  0.875940  1.0  0.424
  C  C166  1  0.098200  0.406900  0.901800  1.0  -0.4637
  C  C167  1  0.624060  0.988400  0.375940  1.0  0.424
  C  C168  1  0.598200  0.906900  0.401800  1.0  -0.4637
  C  C169  1  0.875940  0.511600  0.875940  1.0  0.4224
  C  C170  1  0.901800  0.593100  0.901800  1.0  -0.4649
  C  C171  1  0.375940  0.011600  0.375940  1.0  0.4224
  C  C172  1  0.401800  0.093100  0.401800  1.0  -0.4649
  C  C173  1  0.124060  0.875940  0.488400  1.0  0.4226
  C  C174  1  0.098200  0.901800  0.406900  1.0  -0.4655
  C  C175  1  0.624060  0.375940  0.988400  1.0  0.4226
  C  C176  1  0.598200  0.401800  0.906900  1.0  -0.4655
  C  C177  1  0.124060  0.124060  0.511600  1.0  0.422
  C  C178  1  0.098200  0.098200  0.593100  1.0  -0.4651
  C  C179  1  0.624060  0.624060  0.011600  1.0  0.422
  C  C180  1  0.598200  0.598200  0.093100  1.0  -0.4651
  C  C181  1  0.875940  0.124060  0.488400  1.0  0.4212
  C  C182  1  0.901800  0.098200  0.406900  1.0  -0.4652
  C  C183  1  0.375940  0.624060  0.988400  1.0  0.4212
  C  C184  1  0.401800  0.598200  0.906900  1.0  -0.4652
  C  C185  1  0.875940  0.875940  0.511600  1.0  0.4214
  C  C186  1  0.901800  0.901800  0.593100  1.0  -0.4653
  C  C187  1  0.375940  0.375940  0.011600  1.0  0.4214
  C  C188  1  0.401800  0.401800  0.093100  1.0  -0.4653
  C  C189  1  0.488400  0.124060  0.875940  1.0  0.423
  C  C190  1  0.406900  0.098200  0.901800  1.0  -0.4651
  C  C191  1  0.988400  0.624060  0.375940  1.0  0.423
  C  C192  1  0.906900  0.598200  0.401800  1.0  -0.4651
  C  C193  1  0.511600  0.124060  0.124060  1.0  0.4188
  C  C194  1  0.593100  0.098200  0.098200  1.0  -0.4656
  C  C195  1  0.011600  0.624060  0.624060  1.0  0.4188
  C  C196  1  0.093100  0.598200  0.598200  1.0  -0.4656
  C  C197  1  0.488400  0.875940  0.124060  1.0  0.4226
  C  C198  1  0.406900  0.901800  0.098200  1.0  -0.4648
  C  C199  1  0.988400  0.375940  0.624060  1.0  0.4226
  C  C200  1  0.906900  0.401800  0.598200  1.0  -0.4648
  C  C201  1  0.511600  0.875940  0.875940  1.0  0.4225
  C  C202  1  0.593100  0.901800  0.901800  1.0  -0.4658
  C  C203  1  0.011600  0.375940  0.375940  1.0  0.4225
  C  C204  1  0.093100  0.401800  0.401800  1.0  -0.4658
  N  N205  1  0.909420  0.527340  0.182040  1.0  -0.4277
  N  N206  1  0.815400  0.597300  0.128800  1.0  -0.212
  N  N207  1  0.409420  0.027340  0.682040  1.0  -0.4277
  N  N208  1  0.315400  0.097300  0.628800  1.0  -0.212
  N  N209  1  0.090580  0.472660  0.182040  1.0  -0.424
  N  N210  1  0.184600  0.402700  0.128800  1.0  -0.211
  N  N211  1  0.590580  0.972660  0.682040  1.0  -0.4233
  N  N212  1  0.684600  0.902700  0.628800  1.0  -0.211
  N  N213  1  0.090580  0.527340  0.817960  1.0  -0.4234
  N  N214  1  0.184600  0.597300  0.871200  1.0  -0.2107
  N  N215  1  0.590580  0.027340  0.317960  1.0  -0.4234
  N  N216  1  0.684600  0.097300  0.371200  1.0  -0.2107
  N  N217  1  0.909420  0.472660  0.817960  1.0  -0.4303
  N  N218  1  0.815400  0.402700  0.871200  1.0  -0.2117
  N  N219  1  0.409420  0.972660  0.317960  1.0  -0.4253
  N  N220  1  0.315400  0.902700  0.371200  1.0  -0.2117
  N  N221  1  0.182040  0.909420  0.527340  1.0  -0.4267
  N  N222  1  0.128800  0.815400  0.597300  1.0  -0.2059
  N  N223  1  0.682040  0.409420  0.027340  1.0  -0.4267
  N  N224  1  0.628800  0.315400  0.097300  1.0  -0.2059
  N  N225  1  0.182040  0.090580  0.472660  1.0  -0.4274
  N  N226  1  0.128800  0.184600  0.402700  1.0  -0.2063
  N  N227  1  0.682040  0.590580  0.972660  1.0  -0.4274
  N  N228  1  0.628800  0.684600  0.902700  1.0  -0.2063
  N  N229  1  0.817960  0.090580  0.527340  1.0  -0.4268
  N  N230  1  0.871200  0.184600  0.597300  1.0  -0.205
  N  N231  1  0.317960  0.590580  0.027340  1.0  -0.4268
  N  N232  1  0.371200  0.684600  0.097300  1.0  -0.205
  N  N233  1  0.817960  0.909420  0.472660  1.0  -0.4254
  N  N234  1  0.871200  0.815400  0.402700  1.0  -0.2063
  N  N235  1  0.317960  0.409420  0.972660  1.0  -0.4247
  N  N236  1  0.371200  0.315400  0.902700  1.0  -0.2063
  N  N237  1  0.527340  0.182040  0.909420  1.0  -0.4254
  N  N238  1  0.597300  0.128800  0.815400  1.0  -0.2085
  N  N239  1  0.027340  0.682040  0.409420  1.0  -0.4254
  N  N240  1  0.097300  0.628800  0.315400  1.0  -0.2085
  N  N241  1  0.472660  0.182040  0.090580  1.0  -0.4257
  N  N242  1  0.402700  0.128800  0.184600  1.0  -0.2098
  N  N243  1  0.972660  0.682040  0.590580  1.0  -0.4255
  N  N244  1  0.902700  0.628800  0.684600  1.0  -0.2084
  N  N245  1  0.527340  0.817960  0.090580  1.0  -0.4241
  N  N246  1  0.597300  0.871200  0.184600  1.0  -0.2088
  N  N247  1  0.027340  0.317960  0.590580  1.0  -0.4241
  N  N248  1  0.097300  0.371200  0.684600  1.0  -0.2088
  N  N249  1  0.472660  0.817960  0.909420  1.0  -0.4244
  N  N250  1  0.402700  0.871200  0.815400  1.0  -0.2141
  N  N251  1  0.972660  0.317960  0.409420  1.0  -0.4238
  N  N252  1  0.902700  0.371200  0.315400  1.0  -0.208
  N  N253  1  0.527340  0.909420  0.182040  1.0  -0.3541
  N  N254  1  0.027340  0.409420  0.682040  1.0  -0.3541
  N  N255  1  0.472660  0.090580  0.182040  1.0  -0.3534
  N  N256  1  0.972660  0.590580  0.682040  1.0  -0.3535
  N  N257  1  0.527340  0.090580  0.817960  1.0  -0.3539
  N  N258  1  0.027340  0.590580  0.317960  1.0  -0.3539
  N  N259  1  0.472660  0.909420  0.817960  1.0  -0.3577
  N  N260  1  0.972660  0.409420  0.317960  1.0  -0.3528
  N  N261  1  0.909420  0.182040  0.527340  1.0  -0.3566
  N  N262  1  0.409420  0.682040  0.027340  1.0  -0.3566
  N  N263  1  0.090580  0.182040  0.472660  1.0  -0.355
  N  N264  1  0.590580  0.682040  0.972660  1.0  -0.3543
  N  N265  1  0.090580  0.817960  0.527340  1.0  -0.3555
  N  N266  1  0.590580  0.317960  0.027340  1.0  -0.3555
  N  N267  1  0.909420  0.817960  0.472660  1.0  -0.3592
  N  N268  1  0.409420  0.317960  0.972660  1.0  -0.3546
  N  N269  1  0.182040  0.527340  0.909420  1.0  -0.3536
  N  N270  1  0.682040  0.027340  0.409420  1.0  -0.3536
  N  N271  1  0.182040  0.472660  0.090580  1.0  -0.3559
  N  N272  1  0.682040  0.972660  0.590580  1.0  -0.3559
  N  N273  1  0.817960  0.527340  0.090580  1.0  -0.3553
  N  N274  1  0.317960  0.027340  0.590580  1.0  -0.3553
  N  N275  1  0.817960  0.472660  0.909420  1.0  -0.3532
  N  N276  1  0.317960  0.972660  0.409420  1.0  -0.3533
