# generated using pymatgen
data_MnRe3C3Se4N3
_symmetry_space_group_name_H-M   'P 1'
_cell_length_a   16.98390000
_cell_length_b   16.98390000
_cell_length_c   16.98390000
_cell_angle_alpha   90.00000000
_cell_angle_beta   90.00000000
_cell_angle_gamma   90.00000000
_symmetry_Int_Tables_number   1
_chemical_formula_structural   MnRe3C3Se4N3
_chemical_formula_sum   'Mn8 Re24 C24 Se32 N24'
_cell_volume   4899.05451554
_cell_formula_units_Z   8
loop_
 _symmetry_equiv_pos_site_id
 _symmetry_equiv_pos_as_xyz
  1  'x, y, z'
loop_
 _atom_site_type_symbol
 _atom_site_label
 _atom_site_symmetry_multiplicity
 _atom_site_fract_x
 _atom_site_fract_y
 _atom_site_fract_z
 _atom_site_occupancy
 _atom_site_charge
  Mn  Mn1  1  0.602140  0.897860  0.102140  1.0  1.0596
  Mn  Mn2  1  0.897860  0.102140  0.602140  1.0  1.0575
  Mn  Mn3  1  0.397860  0.397860  0.397860  1.0  1.0581
  Mn  Mn4  1  0.102140  0.602140  0.897860  1.0  1.0585
  Mn  Mn5  1  0.397860  0.102140  0.897860  1.0  1.0574
  Mn  Mn6  1  0.102140  0.897860  0.397860  1.0  1.0594
  Mn  Mn7  1  0.602140  0.602140  0.602140  1.0  1.0586
  Mn  Mn8  1  0.897860  0.397860  0.102140  1.0  1.0583
  Re  Re9  1  0.540320  0.971590  0.402000  1.0  -0.1414
  Re  Re10  1  0.959680  0.028410  0.902000  1.0  -0.1406
  Re  Re11  1  0.459680  0.471590  0.098000  1.0  -0.14
  Re  Re12  1  0.040320  0.528410  0.598000  1.0  -0.1405
  Re  Re13  1  0.402000  0.540320  0.971590  1.0  -0.1392
  Re  Re14  1  0.902000  0.959680  0.028410  1.0  -0.1389
  Re  Re15  1  0.098000  0.459680  0.471590  1.0  -0.1397
  Re  Re16  1  0.598000  0.040320  0.528410  1.0  -0.1399
  Re  Re17  1  0.971590  0.402000  0.540320  1.0  -0.1396
  Re  Re18  1  0.028410  0.902000  0.959680  1.0  -0.1404
  Re  Re19  1  0.471590  0.098000  0.459680  1.0  -0.1398
  Re  Re20  1  0.528410  0.598000  0.040320  1.0  -0.1404
  Re  Re21  1  0.459680  0.028410  0.598000  1.0  -0.1399
  Re  Re22  1  0.040320  0.971590  0.098000  1.0  -0.1407
  Re  Re23  1  0.540320  0.528410  0.902000  1.0  -0.1412
  Re  Re24  1  0.959680  0.471590  0.402000  1.0  -0.1407
  Re  Re25  1  0.598000  0.459680  0.028410  1.0  -0.1397
  Re  Re26  1  0.098000  0.040320  0.971590  1.0  -0.1399
  Re  Re27  1  0.902000  0.540320  0.528410  1.0  -0.1392
  Re  Re28  1  0.402000  0.959680  0.471590  1.0  -0.139
  Re  Re29  1  0.028410  0.598000  0.459680  1.0  -0.1404
  Re  Re30  1  0.971590  0.098000  0.040320  1.0  -0.1398
  Re  Re31  1  0.528410  0.902000  0.540320  1.0  -0.1402
  Re  Re32  1  0.471590  0.402000  0.959680  1.0  -0.1398
  C  C33  1  0.586500  0.939000  0.290000  1.0  0.2155
  C  C34  1  0.913500  0.061000  0.790000  1.0  0.2159
  C  C35  1  0.413500  0.439000  0.210000  1.0  0.2162
  C  C36  1  0.086500  0.561000  0.710000  1.0  0.216
  C  C37  1  0.290000  0.586500  0.939000  1.0  0.2169
  C  C38  1  0.790000  0.913500  0.061000  1.0  0.2168
  C  C39  1  0.210000  0.413500  0.439000  1.0  0.2162
  C  C40  1  0.710000  0.086500  0.561000  1.0  0.2166
  C  C41  1  0.939000  0.290000  0.586500  1.0  0.2167
  C  C42  1  0.061000  0.790000  0.913500  1.0  0.2172
  C  C43  1  0.439000  0.210000  0.413500  1.0  0.2165
  C  C44  1  0.561000  0.710000  0.086500  1.0  0.2164
  C  C45  1  0.413500  0.061000  0.710000  1.0  0.216
  C  C46  1  0.086500  0.939000  0.210000  1.0  0.2161
  C  C47  1  0.586500  0.561000  0.790000  1.0  0.215
  C  C48  1  0.913500  0.439000  0.290000  1.0  0.2157
  C  C49  1  0.710000  0.413500  0.061000  1.0  0.2166
  C  C50  1  0.210000  0.086500  0.939000  1.0  0.2162
  C  C51  1  0.790000  0.586500  0.561000  1.0  0.2169
  C  C52  1  0.290000  0.913500  0.439000  1.0  0.2168
  C  C53  1  0.061000  0.710000  0.413500  1.0  0.2163
  C  C54  1  0.939000  0.210000  0.086500  1.0  0.2159
  C  C55  1  0.561000  0.790000  0.586500  1.0  0.2165
  C  C56  1  0.439000  0.290000  0.913500  1.0  0.2169
  Se  Se57  1  0.417100  0.027650  0.341080  1.0  0.0415
  Se  Se58  1  0.082900  0.972350  0.841080  1.0  0.041
  Se  Se59  1  0.582900  0.527650  0.158920  1.0  0.0425
  Se  Se60  1  0.917100  0.472350  0.658920  1.0  0.042
  Se  Se61  1  0.341080  0.417100  0.027650  1.0  0.0413
  Se  Se62  1  0.841080  0.082900  0.972350  1.0  0.0409
  Se  Se63  1  0.158920  0.582900  0.527650  1.0  0.0418
  Se  Se64  1  0.658920  0.917100  0.472350  1.0  0.042
  Se  Se65  1  0.027650  0.341080  0.417100  1.0  0.0397
  Se  Se66  1  0.972350  0.841080  0.082900  1.0  0.0403
  Se  Se67  1  0.527650  0.158920  0.582900  1.0  0.0404
  Se  Se68  1  0.472350  0.658920  0.917100  1.0  0.0401
  Se  Se69  1  0.582900  0.972350  0.658920  1.0  0.0422
  Se  Se70  1  0.917100  0.027650  0.158920  1.0  0.0423
  Se  Se71  1  0.417100  0.472350  0.841080  1.0  0.0414
  Se  Se72  1  0.082900  0.527650  0.341080  1.0  0.0409
  Se  Se73  1  0.658920  0.582900  0.972350  1.0  0.0419
  Se  Se74  1  0.158920  0.917100  0.027650  1.0  0.0421
  Se  Se75  1  0.841080  0.417100  0.472350  1.0  0.0413
  Se  Se76  1  0.341080  0.082900  0.527650  1.0  0.0411
  Se  Se77  1  0.972350  0.658920  0.582900  1.0  0.0402
  Se  Se78  1  0.027650  0.158920  0.917100  1.0  0.0401
  Se  Se79  1  0.472350  0.841080  0.417100  1.0  0.04
  Se  Se80  1  0.527650  0.341080  0.082900  1.0  0.04
  Se  Se81  1  0.605190  0.105190  0.394810  1.0  0.0436
  Se  Se82  1  0.894810  0.894810  0.894810  1.0  0.0438
  Se  Se83  1  0.394810  0.605190  0.105190  1.0  0.0433
  Se  Se84  1  0.105190  0.394810  0.605190  1.0  0.0439
  Se  Se85  1  0.394810  0.894810  0.605190  1.0  0.0437
  Se  Se86  1  0.105190  0.105190  0.105190  1.0  0.0441
  Se  Se87  1  0.605190  0.394810  0.894810  1.0  0.0438
  Se  Se88  1  0.894810  0.605190  0.394810  1.0  0.0433
  N  N89  1  0.609100  0.919800  0.230700  1.0  -0.4843
  N  N90  1  0.890900  0.080200  0.730700  1.0  -0.4844
  N  N91  1  0.390900  0.419800  0.269300  1.0  -0.4848
  N  N92  1  0.109100  0.580200  0.769300  1.0  -0.4846
  N  N93  1  0.230700  0.609100  0.919800  1.0  -0.4841
  N  N94  1  0.730700  0.890900  0.080200  1.0  -0.4842
  N  N95  1  0.269300  0.390900  0.419800  1.0  -0.4843
  N  N96  1  0.769300  0.109100  0.580200  1.0  -0.4844
  N  N97  1  0.919800  0.230700  0.609100  1.0  -0.4853
  N  N98  1  0.080200  0.730700  0.890900  1.0  -0.4854
  N  N99  1  0.419800  0.269300  0.390900  1.0  -0.4857
  N  N100  1  0.580200  0.769300  0.109100  1.0  -0.486
  N  N101  1  0.390900  0.080200  0.769300  1.0  -0.4849
  N  N102  1  0.109100  0.919800  0.269300  1.0  -0.4846
  N  N103  1  0.609100  0.580200  0.730700  1.0  -0.4843
  N  N104  1  0.890900  0.419800  0.230700  1.0  -0.4843
  N  N105  1  0.769300  0.390900  0.080200  1.0  -0.4843
  N  N106  1  0.269300  0.109100  0.919800  1.0  -0.4845
  N  N107  1  0.730700  0.609100  0.580200  1.0  -0.4841
  N  N108  1  0.230700  0.890900  0.419800  1.0  -0.484
  N  N109  1  0.080200  0.769300  0.390900  1.0  -0.4858
  N  N110  1  0.919800  0.269300  0.109100  1.0  -0.4857
  N  N111  1  0.580200  0.730700  0.609100  1.0  -0.4857
  N  N112  1  0.419800  0.230700  0.890900  1.0  -0.4851
