# generated using pymatgen
data_TbH2C5O6
_symmetry_space_group_name_H-M   'P 1'
_cell_length_a   9.12650000
_cell_length_b   9.12650000
_cell_length_c   14.40020000
_cell_angle_alpha   100.23500000
_cell_angle_beta   100.23500000
_cell_angle_gamma   116.05800000
_symmetry_Int_Tables_number   1
_chemical_formula_structural   TbH2C5O6
_chemical_formula_sum   'Tb4 H8 C20 O24'
_cell_volume   1015.03012218
_cell_formula_units_Z   4
loop_
 _symmetry_equiv_pos_site_id
 _symmetry_equiv_pos_as_xyz
  1  'x, y, z'
loop_
 _atom_site_type_symbol
 _atom_site_label
 _atom_site_symmetry_multiplicity
 _atom_site_fract_x
 _atom_site_fract_y
 _atom_site_fract_z
 _atom_site_occupancy
 _atom_site_charge
  Tb  Tb1  1  0.740700  0.990700  0.981400  1.0  2.2478
  Tb  Tb2  1  0.509300  0.759300  0.518600  1.0  2.2453
  Tb  Tb3  1  0.259300  0.009300  0.018600  1.0  2.2453
  Tb  Tb4  1  0.490700  0.240700  0.481400  1.0  2.2478
  H  H5  1  0.882600  0.457000  0.068000  1.0  0.0857
  H  H6  1  0.685400  0.611000  0.068000  1.0  0.0861
  H  H7  1  0.043000  0.617400  0.432000  1.0  0.0855
  H  H8  1  0.889000  0.814600  0.432000  1.0  0.0862
  H  H9  1  0.117400  0.543000  0.932000  1.0  0.0858
  H  H10  1  0.314600  0.389000  0.932000  1.0  0.0853
  H  H11  1  0.957000  0.382600  0.568000  1.0  0.0853
  H  H12  1  0.111000  0.185400  0.568000  1.0  0.0859
  C  C13  1  0.625640  0.302040  0.058080  1.0  0.7154
  C  C14  1  0.781460  0.460660  0.064120  1.0  -0.1641
  C  C15  1  0.932440  0.756040  0.058080  1.0  0.7147
  C  C16  1  0.782660  0.603460  0.064120  1.0  -0.1633
  C  C17  1  0.197960  0.874360  0.441920  1.0  0.7125
  C  C18  1  0.039340  0.718540  0.435880  1.0  -0.1646
  C  C19  1  0.743960  0.567560  0.441920  1.0  0.7147
  C  C20  1  0.896540  0.717340  0.435880  1.0  -0.1629
  C  C21  1  0.374360  0.697960  0.941920  1.0  0.7152
  C  C22  1  0.218540  0.539340  0.935880  1.0  -0.1645
  C  C23  1  0.067560  0.243960  0.941920  1.0  0.717
  C  C24  1  0.217340  0.396540  0.935880  1.0  -0.1631
  C  C25  1  0.802040  0.125640  0.558080  1.0  0.7138
  C  C26  1  0.960660  0.281460  0.564120  1.0  -0.1652
  C  C27  1  0.256040  0.432440  0.558080  1.0  0.7148
  C  C28  1  0.103460  0.282660  0.564120  1.0  -0.1625
  C  C29  1  0.674900  0.825100  0.750000  1.0  0.5535
  C  C30  1  0.575100  0.924900  0.750000  1.0  0.5539
  C  C31  1  0.325100  0.174900  0.250000  1.0  0.5539
  C  C32  1  0.424900  0.075100  0.250000  1.0  0.5535
  O  O33  1  0.630830  0.167410  0.033440  1.0  -0.7879
  O  O34  1  0.495700  0.303400  0.075900  1.0  -0.6491
  O  O35  1  0.761690  0.839530  0.831820  1.0  -0.5991
  O  O36  1  0.902610  0.866030  0.033440  1.0  -0.7883
  O  O37  1  0.080200  0.772500  0.075900  1.0  -0.6515
  O  O38  1  0.570130  0.992290  0.831820  1.0  -0.5976
  O  O39  1  0.332590  0.869170  0.466560  1.0  -0.786
  O  O40  1  0.196600  0.004300  0.424100  1.0  -0.6519
  O  O41  1  0.660470  0.738310  0.668180  1.0  -0.5996
  O  O42  1  0.633970  0.597390  0.466560  1.0  -0.7874
  O  O43  1  0.727500  0.419800  0.424100  1.0  -0.6498
  O  O44  1  0.507710  0.929870  0.668180  1.0  -0.599
  O  O45  1  0.369170  0.832590  0.966560  1.0  -0.788
  O  O46  1  0.504300  0.696600  0.924100  1.0  -0.6512
  O  O47  1  0.238310  0.160470  0.168180  1.0  -0.5993
  O  O48  1  0.097390  0.133970  0.966560  1.0  -0.7856
  O  O49  1  0.919800  0.227500  0.924100  1.0  -0.6502
  O  O50  1  0.429870  0.007710  0.168180  1.0  -0.5999
  O  O51  1  0.667410  0.130830  0.533440  1.0  -0.7869
  O  O52  1  0.803400  0.995700  0.575900  1.0  -0.652
  O  O53  1  0.339530  0.261690  0.331820  1.0  -0.599
  O  O54  1  0.366030  0.402610  0.533440  1.0  -0.7856
  O  O55  1  0.272500  0.580200  0.575900  1.0  -0.6508
  O  O56  1  0.492290  0.070130  0.331820  1.0  -0.5989
