# generated using pymatgen
data_EuH2C5O6
_symmetry_space_group_name_H-M   'P 1'
_cell_length_a   9.11760000
_cell_length_b   9.11760000
_cell_length_c   14.54240000
_cell_angle_alpha   79.78650000
_cell_angle_beta   79.78640000
_cell_angle_gamma   115.74500000
_symmetry_Int_Tables_number   1
_chemical_formula_structural   EuH2C5O6
_chemical_formula_sum   'Eu4 H8 C20 O24'
_cell_volume   1026.60515868
_cell_formula_units_Z   4
loop_
 _symmetry_equiv_pos_site_id
 _symmetry_equiv_pos_as_xyz
  1  'x, y, z'
loop_
 _atom_site_type_symbol
 _atom_site_label
 _atom_site_symmetry_multiplicity
 _atom_site_fract_x
 _atom_site_fract_y
 _atom_site_fract_z
 _atom_site_occupancy
 _atom_site_charge
  Eu  Eu1  1  0.990510  0.240510  0.018980  1.0  2.1364
  Eu  Eu2  1  0.759490  0.009490  0.481020  1.0  2.14
  Eu  Eu3  1  0.009490  0.759490  0.981020  1.0  2.14
  Eu  Eu4  1  0.240510  0.990510  0.518980  1.0  2.1364
  H  H5  1  0.614200  0.189800  0.933400  1.0  0.0876
  H  H6  1  0.452400  0.376800  0.933400  1.0  0.0889
  H  H7  1  0.810200  0.385800  0.566600  1.0  0.0877
  H  H8  1  0.623200  0.547600  0.566600  1.0  0.0866
  H  H9  1  0.385800  0.810200  0.066600  1.0  0.0889
  H  H10  1  0.547600  0.623200  0.066600  1.0  0.0876
  H  H11  1  0.189800  0.614200  0.433400  1.0  0.0882
  H  H12  1  0.376800  0.452400  0.433400  1.0  0.0875
  C  C13  1  0.754030  0.435630  0.941540  1.0  0.7321
  C  C14  1  0.603400  0.285800  0.936600  1.0  -0.122
  C  C15  1  0.304430  0.122830  0.941540  1.0  0.7327
  C  C16  1  0.460000  0.277600  0.936600  1.0  -0.1246
  C  C17  1  0.564370  0.245970  0.558460  1.0  0.7338
  C  C18  1  0.714200  0.396600  0.563400  1.0  -0.1223
  C  C19  1  0.877170  0.695570  0.558460  1.0  0.7328
  C  C20  1  0.722400  0.540000  0.563400  1.0  -0.1232
  C  C21  1  0.245970  0.564370  0.058460  1.0  0.7336
  C  C22  1  0.396600  0.714200  0.063400  1.0  -0.1235
  C  C23  1  0.695570  0.877170  0.058460  1.0  0.7324
  C  C24  1  0.540000  0.722400  0.063400  1.0  -0.1227
  C  C25  1  0.435630  0.754030  0.441540  1.0  0.7332
  C  C26  1  0.285800  0.603400  0.436600  1.0  -0.1226
  C  C27  1  0.122830  0.304430  0.441540  1.0  0.7338
  C  C28  1  0.277600  0.460000  0.436600  1.0  -0.1227
  C  C29  1  0.924600  0.075400  0.250000  1.0  0.5725
  C  C30  1  0.825400  0.174600  0.250000  1.0  0.5717
  C  C31  1  0.075400  0.924600  0.750000  1.0  0.5717
  C  C32  1  0.174600  0.825400  0.750000  1.0  0.5725
  O  O33  1  0.865950  0.408750  0.967100  1.0  -0.8004
  O  O34  1  0.767670  0.581670  0.924260  1.0  -0.6418
  O  O35  1  0.991200  0.068800  0.169200  1.0  -0.6124
  O  O36  1  0.166950  0.124150  0.967100  1.0  -0.8016
  O  O37  1  0.308070  0.994070  0.924260  1.0  -0.6407
  O  O38  1  0.839600  0.262000  0.169200  1.0  -0.6125
  O  O39  1  0.591250  0.134050  0.532900  1.0  -0.7997
  O  O40  1  0.418330  0.232330  0.575740  1.0  -0.6417
  O  O41  1  0.931200  0.008800  0.330800  1.0  -0.6109
  O  O42  1  0.875850  0.833050  0.532900  1.0  -0.8026
  O  O43  1  0.005930  0.691930  0.575740  1.0  -0.6398
  O  O44  1  0.738000  0.160400  0.330800  1.0  -0.6094
  O  O45  1  0.134050  0.591250  0.032900  1.0  -0.8015
  O  O46  1  0.232330  0.418330  0.075740  1.0  -0.6391
  O  O47  1  0.008800  0.931200  0.830800  1.0  -0.6095
  O  O48  1  0.833050  0.875850  0.032900  1.0  -0.8005
  O  O49  1  0.691930  0.005930  0.075740  1.0  -0.6414
  O  O50  1  0.160400  0.738000  0.830800  1.0  -0.6109
  O  O51  1  0.408750  0.865950  0.467100  1.0  -0.8025
  O  O52  1  0.581670  0.767670  0.424260  1.0  -0.642
  O  O53  1  0.068800  0.991200  0.669200  1.0  -0.6116
  O  O54  1  0.124150  0.166950  0.467100  1.0  -0.8016
  O  O55  1  0.994070  0.308070  0.424260  1.0  -0.6389
  O  O56  1  0.262000  0.839600  0.669200  1.0  -0.612
