# generated using pymatgen
data_AgH17C17S2N2ClO4
_symmetry_space_group_name_H-M   'P 1'
_cell_length_a   12.48900000
_cell_length_b   14.08500000
_cell_length_c   16.29300000
_cell_angle_alpha   90.00000000
_cell_angle_beta   90.00000000
_cell_angle_gamma   112.42500000
_symmetry_Int_Tables_number   1
_chemical_formula_structural   AgH17C17S2N2ClO4
_chemical_formula_sum   'Ag4 H68 C68 S8 N8 Cl4 O16'
_cell_volume   2649.32941215
_cell_formula_units_Z   4
loop_
 _symmetry_equiv_pos_site_id
 _symmetry_equiv_pos_as_xyz
  1  'x, y, z'
loop_
 _atom_site_type_symbol
 _atom_site_label
 _atom_site_symmetry_multiplicity
 _atom_site_fract_x
 _atom_site_fract_y
 _atom_site_fract_z
 _atom_site_occupancy
 _atom_site_charge
  Ag  Ag1  1  0.331840  0.229470  0.963080  1.0  0.4243
  Ag  Ag2  1  0.168160  0.770530  0.463080  1.0  0.4245
  Ag  Ag3  1  0.668160  0.770530  0.036920  1.0  0.4248
  Ag  Ag4  1  0.831840  0.229470  0.536920  1.0  0.4246
  H  H5  1  0.076000  0.885900  0.950900  1.0  0.1157
  H  H6  1  0.940700  0.805700  0.140200  1.0  0.1477
  H  H7  1  0.027800  0.788200  0.077800  1.0  0.1167
  H  H8  1  0.881000  0.573500  0.079700  1.0  0.1343
  H  H9  1  0.808000  0.606000  0.144500  1.0  0.1244
  H  H10  1  0.605400  0.501400  0.154300  1.0  0.1122
  H  H11  1  0.441100  0.374700  0.104200  1.0  0.0746
  H  H12  1  0.766000  0.489700  0.944300  1.0  0.1151
  H  H13  1  0.595100  0.365300  0.898400  1.0  0.0733
  H  H14  1  0.889500  0.019100  0.185700  1.0  0.1124
  H  H15  1  0.863900  0.900800  0.180400  1.0  0.1479
  H  H16  1  0.552000  0.891800  0.207200  1.0  0.1383
  H  H17  1  0.633400  0.837000  0.236700  1.0  0.1615
  H  H18  1  0.776200  0.914600  0.340300  1.0  0.1223
  H  H19  1  0.852900  0.039800  0.438200  1.0  0.0775
  H  H20  1  0.609000  0.081600  0.244500  1.0  0.1325
  H  H21  1  0.688000  0.201200  0.347300  1.0  0.0717
  H  H22  1  0.424000  0.114100  0.450900  1.0  0.1154
  H  H23  1  0.559300  0.194300  0.640200  1.0  0.1478
  H  H24  1  0.472200  0.211800  0.577800  1.0  0.1184
  H  H25  1  0.619000  0.426500  0.579700  1.0  0.1362
  H  H26  1  0.692000  0.394000  0.644500  1.0  0.1244
  H  H27  1  0.894600  0.498600  0.654300  1.0  0.1117
  H  H28  1  0.058900  0.625300  0.604200  1.0  0.0744
  H  H29  1  0.734000  0.510300  0.444300  1.0  0.115
  H  H30  1  0.904900  0.634700  0.398400  1.0  0.0736
  H  H31  1  0.610500  0.980900  0.685700  1.0  0.1136
  H  H32  1  0.636100  0.099200  0.680400  1.0  0.1465
  H  H33  1  0.948000  0.108200  0.707200  1.0  0.1405
  H  H34  1  0.866600  0.163000  0.736700  1.0  0.1614
  H  H35  1  0.723800  0.085400  0.840300  1.0  0.1224
  H  H36  1  0.647100  0.960200  0.938200  1.0  0.0783
  H  H37  1  0.891000  0.918400  0.744500  1.0  0.1321
  H  H38  1  0.812000  0.798800  0.847300  1.0  0.0712
  H  H39  1  0.924000  0.114100  0.049100  1.0  0.1149
  H  H40  1  0.059300  0.194300  0.859800  1.0  0.1481
  H  H41  1  0.972200  0.211800  0.922200  1.0  0.1183
  H  H42  1  0.119000  0.426500  0.920300  1.0  0.1357
  H  H43  1  0.192000  0.394000  0.855500  1.0  0.1238
  H  H44  1  0.394600  0.498600  0.845700  1.0  0.112
  H  H45  1  0.558900  0.625300  0.895800  1.0  0.0738
  H  H46  1  0.234000  0.510300  0.055700  1.0  0.1153
  H  H47  1  0.404900  0.634700  0.101600  1.0  0.0734
  H  H48  1  0.110500  0.980900  0.814300  1.0  0.1131
  H  H49  1  0.136100  0.099200  0.819600  1.0  0.1473
  H  H50  1  0.448000  0.108200  0.792800  1.0  0.14
  H  H51  1  0.366600  0.163000  0.763300  1.0  0.1618
  H  H52  1  0.223800  0.085400  0.659700  1.0  0.1224
  H  H53  1  0.147100  0.960200  0.561800  1.0  0.078
  H  H54  1  0.391000  0.918400  0.755500  1.0  0.1329
  H  H55  1  0.312000  0.798800  0.652700  1.0  0.0717
  H  H56  1  0.576000  0.885900  0.549100  1.0  0.1156
  H  H57  1  0.440700  0.805700  0.359800  1.0  0.1476
  H  H58  1  0.527800  0.788200  0.422200  1.0  0.1171
  H  H59  1  0.381000  0.573500  0.420300  1.0  0.1342
  H  H60  1  0.308000  0.606000  0.355500  1.0  0.1244
  H  H61  1  0.105400  0.501400  0.345700  1.0  0.1124
  H  H62  1  0.941100  0.374700  0.395800  1.0  0.0746
  H  H63  1  0.266000  0.489700  0.555700  1.0  0.1152
  H  H64  1  0.095100  0.365300  0.601600  1.0  0.0734
  H  H65  1  0.389500  0.019100  0.314300  1.0  0.1129
  H  H66  1  0.363900  0.900800  0.319600  1.0  0.1479
  H  H67  1  0.052000  0.891800  0.292800  1.0  0.1383
  H  H68  1  0.133400  0.837000  0.263300  1.0  0.1619
  H  H69  1  0.276200  0.914600  0.159700  1.0  0.1223
  H  H70  1  0.352900  0.039800  0.061800  1.0  0.0773
  H  H71  1  0.109000  0.081600  0.255500  1.0  0.1323
  H  H72  1  0.188000  0.201200  0.152700  1.0  0.072
  C  C73  1  0.980300  0.907700  0.043200  1.0  0.0261
  C  C74  1  0.933800  0.977400  0.073200  1.0  -0.0141
  C  C75  1  0.045300  0.932100  0.970700  1.0  -0.0992
  C  C76  1  0.959300  0.804600  0.082500  1.0  -0.2275
  C  C77  1  0.815500  0.593700  0.086700  1.0  -0.2845
  C  C78  1  0.705800  0.509800  0.055400  1.0  0.0843
  C  C79  1  0.606100  0.474300  0.102300  1.0  -0.177
  C  C80  1  0.507200  0.397900  0.071600  1.0  0.1494
  C  C81  1  0.701000  0.467700  0.978000  1.0  -0.1311
  C  C82  1  0.597600  0.391900  0.950900  1.0  0.1616
  C  C83  1  0.860800  0.959200  0.150400  1.0  -0.2193
  C  C84  1  0.632100  0.901400  0.216600  1.0  -0.2792
  C  C85  1  0.682900  0.983000  0.280500  1.0  0.1308
  C  C86  1  0.757100  0.972200  0.340100  1.0  -0.185
  C  C87  1  0.802700  0.048100  0.399200  1.0  0.1634
  C  C88  1  0.657700  0.070900  0.283400  1.0  -0.1359
  C  C89  1  0.706400  0.143100  0.345700  1.0  0.17
  C  C90  1  0.519700  0.092300  0.543200  1.0  0.0264
  C  C91  1  0.566200  0.022600  0.573200  1.0  -0.0138
  C  C92  1  0.454700  0.067900  0.470700  1.0  -0.1017
  C  C93  1  0.540700  0.195400  0.582500  1.0  -0.2283
  C  C94  1  0.684500  0.406300  0.586700  1.0  -0.2855
  C  C95  1  0.794200  0.490200  0.555400  1.0  0.0851
  C  C96  1  0.893900  0.525700  0.602300  1.0  -0.177
  C  C97  1  0.992800  0.602100  0.571600  1.0  0.1485
  C  C98  1  0.799000  0.532300  0.478000  1.0  -0.1314
  C  C99  1  0.902400  0.608100  0.450900  1.0  0.1624
  C  C100  1  0.639200  0.040800  0.650400  1.0  -0.2199
  C  C101  1  0.867900  0.098600  0.716600  1.0  -0.2782
  C  C102  1  0.817100  0.017000  0.780500  1.0  0.1303
  C  C103  1  0.742900  0.027800  0.840100  1.0  -0.182
  C  C104  1  0.697300  0.951900  0.899200  1.0  0.1631
  C  C105  1  0.842300  0.929100  0.783400  1.0  -0.1346
  C  C106  1  0.793600  0.856900  0.845700  1.0  0.1685
  C  C107  1  0.019700  0.092300  0.956800  1.0  0.0265
  C  C108  1  0.066200  0.022600  0.926800  1.0  -0.0135
  C  C109  1  0.954700  0.067900  0.029300  1.0  -0.0946
  C  C110  1  0.040700  0.195400  0.917500  1.0  -0.2245
  C  C111  1  0.184500  0.406300  0.913300  1.0  -0.2848
  C  C112  1  0.294200  0.490200  0.944600  1.0  0.0854
  C  C113  1  0.393900  0.525700  0.897700  1.0  -0.1782
  C  C114  1  0.492800  0.602100  0.928400  1.0  0.149
  C  C115  1  0.299000  0.532300  0.022000  1.0  -0.1319
  C  C116  1  0.402400  0.608100  0.049100  1.0  0.161
  C  C117  1  0.139200  0.040800  0.849600  1.0  -0.2196
  C  C118  1  0.367900  0.098600  0.783400  1.0  -0.2782
  C  C119  1  0.317100  0.017000  0.719500  1.0  0.1311
  C  C120  1  0.242900  0.027800  0.659900  1.0  -0.1832
  C  C121  1  0.197300  0.951900  0.600800  1.0  0.1625
  C  C122  1  0.342300  0.929100  0.716600  1.0  -0.1332
  C  C123  1  0.293600  0.856900  0.654300  1.0  0.1692
  C  C124  1  0.480300  0.907700  0.456800  1.0  0.0263
  C  C125  1  0.433800  0.977400  0.426800  1.0  -0.0138
  C  C126  1  0.545300  0.932100  0.529300  1.0  -0.0917
  C  C127  1  0.459300  0.804600  0.417500  1.0  -0.2257
  C  C128  1  0.315500  0.593700  0.413300  1.0  -0.2841
  C  C129  1  0.205800  0.509800  0.444600  1.0  0.0849
  C  C130  1  0.106100  0.474300  0.397700  1.0  -0.1782
  C  C131  1  0.007200  0.397900  0.428400  1.0  0.1478
  C  C132  1  0.201000  0.467700  0.522000  1.0  -0.1322
  C  C133  1  0.097600  0.391900  0.549100  1.0  0.1612
  C  C134  1  0.360800  0.959200  0.349600  1.0  -0.2192
  C  C135  1  0.132100  0.901400  0.283400  1.0  -0.2789
  C  C136  1  0.182900  0.983000  0.219500  1.0  0.1309
  C  C137  1  0.257100  0.972200  0.159900  1.0  -0.1848
  C  C138  1  0.302700  0.048100  0.100800  1.0  0.1644
  C  C139  1  0.157700  0.070900  0.216600  1.0  -0.1348
  C  C140  1  0.206400  0.143100  0.154300  1.0  0.1689
  S  S141  1  0.837650  0.709830  0.027460  1.0  -0.0308
  S  S142  1  0.711490  0.934110  0.118880  1.0  -0.0128
  S  S143  1  0.662350  0.290170  0.527460  1.0  -0.0306
  S  S144  1  0.788510  0.065890  0.618880  1.0  -0.014
  S  S145  1  0.162350  0.290170  0.972540  1.0  -0.0318
  S  S146  1  0.288510  0.065890  0.881120  1.0  -0.0147
  S  S147  1  0.337650  0.709830  0.472540  1.0  -0.031
  S  S148  1  0.211490  0.934110  0.381120  1.0  -0.0136
  N  N149  1  0.501900  0.355600  0.997000  1.0  -0.3282
  N  N150  1  0.777900  0.132800  0.402800  1.0  -0.3774
  N  N151  1  0.998100  0.644400  0.497000  1.0  -0.3257
  N  N152  1  0.722100  0.867200  0.902800  1.0  -0.3762
  N  N153  1  0.498100  0.644400  0.003000  1.0  -0.3266
  N  N154  1  0.222100  0.867200  0.597200  1.0  -0.3757
  N  N155  1  0.001900  0.355600  0.503000  1.0  -0.3288
  N  N156  1  0.277900  0.132800  0.097200  1.0  -0.3754
  Cl  Cl157  1  0.814360  0.338950  0.800270  1.0  1.5957
  Cl  Cl158  1  0.685640  0.661050  0.300270  1.0  1.5957
  Cl  Cl159  1  0.185640  0.661050  0.199730  1.0  1.5951
  Cl  Cl160  1  0.314360  0.338950  0.699730  1.0  1.5951
  O  O161  1  0.718000  0.260800  0.769700  1.0  -0.5639
  O  O162  1  0.835000  0.313400  0.881200  1.0  -0.58
  O  O163  1  0.796600  0.434800  0.799400  1.0  -0.6377
  O  O164  1  0.911000  0.348600  0.750700  1.0  -0.6095
  O  O165  1  0.782000  0.739200  0.269700  1.0  -0.5636
  O  O166  1  0.665000  0.686600  0.381200  1.0  -0.5793
  O  O167  1  0.703400  0.565200  0.299400  1.0  -0.6389
  O  O168  1  0.589000  0.651400  0.250700  1.0  -0.6083
  O  O169  1  0.282000  0.739200  0.230300  1.0  -0.5635
  O  O170  1  0.165000  0.686600  0.118800  1.0  -0.5774
  O  O171  1  0.203400  0.565200  0.200600  1.0  -0.6392
  O  O172  1  0.089000  0.651400  0.249300  1.0  -0.6074
  O  O173  1  0.218000  0.260800  0.730300  1.0  -0.563
  O  O174  1  0.335000  0.313400  0.618800  1.0  -0.5782
  O  O175  1  0.296600  0.434800  0.700600  1.0  -0.6384
  O  O176  1  0.411000  0.348600  0.749300  1.0  -0.61
