# generated using pymatgen
data_AgPH17C17S2(NF3)2
_symmetry_space_group_name_H-M   'P 1'
_cell_length_a   13.62700000
_cell_length_b   14.04400000
_cell_length_c   16.32100000
_cell_angle_alpha   90.00000000
_cell_angle_beta   90.00000000
_cell_angle_gamma   115.18600000
_symmetry_Int_Tables_number   1
_chemical_formula_structural   AgPH17C17S2(NF3)2
_chemical_formula_sum   'Ag4 P4 H68 C68 S8 N8 F24'
_cell_volume   2826.52829742
_cell_formula_units_Z   4
loop_
 _symmetry_equiv_pos_site_id
 _symmetry_equiv_pos_as_xyz
  1  'x, y, z'
loop_
 _atom_site_type_symbol
 _atom_site_label
 _atom_site_symmetry_multiplicity
 _atom_site_fract_x
 _atom_site_fract_y
 _atom_site_fract_z
 _atom_site_occupancy
 _atom_site_charge
  Ag  Ag1  1  0.409880  0.728970  0.930720  1.0  0.3448
  Ag  Ag2  1  0.090120  0.271030  0.430720  1.0  0.3466
  Ag  Ag3  1  0.590120  0.271030  0.069280  1.0  0.3499
  Ag  Ag4  1  0.909880  0.728970  0.569280  1.0  0.3486
  P  P5  1  0.738910  0.811140  0.248220  1.0  1.7731
  P  P6  1  0.761090  0.188860  0.748220  1.0  1.7753
  P  P7  1  0.261090  0.188860  0.751780  1.0  1.7764
  P  P8  1  0.238910  0.811140  0.251780  1.0  1.7742
  H  H9  1  0.182300  0.571600  0.001900  1.0  0.0824
  H  H10  1  0.095400  0.445100  0.098700  1.0  0.1362
  H  H11  1  0.373700  0.550400  0.224200  1.0  0.1305
  H  H12  1  0.451000  0.675400  0.125200  1.0  0.0759
  H  H13  1  0.098700  0.349700  0.216000  1.0  0.1599
  H  H14  1  0.210900  0.347000  0.230800  1.0  0.1562
  H  H15  1  0.006800  0.434200  0.300700  1.0  0.1546
  H  H16  1  0.096300  0.550500  0.307800  1.0  0.1432
  H  H17  1  0.161300  0.620800  0.447100  1.0  0.1164
  H  H18  1  0.781500  0.300600  0.423900  1.0  0.1647
  H  H19  1  0.856600  0.339700  0.346900  1.0  0.1639
  H  H20  1  0.751100  0.136300  0.512600  1.0  0.1237
  H  H21  1  0.863900  0.206200  0.553100  1.0  0.1239
  H  H22  1  0.742400  0.962700  0.441900  1.0  0.1252
  H  H23  1  0.958100  0.114800  0.617200  1.0  0.127
  H  H24  1  0.983000  0.964900  0.637000  1.0  0.0907
  H  H25  1  0.773100  0.817200  0.466800  1.0  0.0794
  H  H26  1  0.317700  0.428400  0.501900  1.0  0.0825
  H  H27  1  0.404600  0.554900  0.598700  1.0  0.1366
  H  H28  1  0.126300  0.449600  0.724200  1.0  0.1309
  H  H29  1  0.049000  0.324600  0.625200  1.0  0.0768
  H  H30  1  0.401300  0.650300  0.716000  1.0  0.161
  H  H31  1  0.289100  0.653000  0.730800  1.0  0.1555
  H  H32  1  0.493200  0.565800  0.800700  1.0  0.1548
  H  H33  1  0.403700  0.449500  0.807800  1.0  0.1435
  H  H34  1  0.338700  0.379200  0.947100  1.0  0.1166
  H  H35  1  0.718500  0.699400  0.923900  1.0  0.1649
  H  H36  1  0.643400  0.660300  0.846900  1.0  0.1645
  H  H37  1  0.748900  0.863700  0.012600  1.0  0.1259
  H  H38  1  0.636100  0.793800  0.053100  1.0  0.1244
  H  H39  1  0.757600  0.037300  0.941900  1.0  0.1254
  H  H40  1  0.541900  0.885200  0.117200  1.0  0.128
  H  H41  1  0.517000  0.035100  0.137000  1.0  0.0904
  H  H42  1  0.726900  0.182800  0.966800  1.0  0.0792
  H  H43  1  0.817700  0.428400  0.998100  1.0  0.0826
  H  H44  1  0.904600  0.554900  0.901300  1.0  0.1363
  H  H45  1  0.626300  0.449600  0.775800  1.0  0.1314
  H  H46  1  0.549000  0.324600  0.874800  1.0  0.0766
  H  H47  1  0.901300  0.650300  0.784000  1.0  0.1611
  H  H48  1  0.789100  0.653000  0.769200  1.0  0.1559
  H  H49  1  0.993200  0.565800  0.699300  1.0  0.1539
  H  H50  1  0.903700  0.449500  0.692200  1.0  0.1442
  H  H51  1  0.838700  0.379200  0.552900  1.0  0.1168
  H  H52  1  0.218500  0.699400  0.576100  1.0  0.1653
  H  H53  1  0.143400  0.660300  0.653100  1.0  0.1648
  H  H54  1  0.248900  0.863700  0.487400  1.0  0.1256
  H  H55  1  0.136100  0.793800  0.446900  1.0  0.1253
  H  H56  1  0.257600  0.037300  0.558100  1.0  0.1252
  H  H57  1  0.041900  0.885200  0.382800  1.0  0.1281
  H  H58  1  0.017000  0.035100  0.363000  1.0  0.091
  H  H59  1  0.226900  0.182800  0.533200  1.0  0.0798
  H  H60  1  0.682300  0.571600  0.498100  1.0  0.0826
  H  H61  1  0.595400  0.445100  0.401300  1.0  0.1363
  H  H62  1  0.873700  0.550400  0.275800  1.0  0.1313
  H  H63  1  0.951000  0.675400  0.374800  1.0  0.0759
  H  H64  1  0.598700  0.349700  0.284000  1.0  0.1603
  H  H65  1  0.710900  0.347000  0.269200  1.0  0.1564
  H  H66  1  0.506800  0.434200  0.199300  1.0  0.156
  H  H67  1  0.596300  0.550500  0.192200  1.0  0.1429
  H  H68  1  0.661300  0.620800  0.052900  1.0  0.116
  H  H69  1  0.281500  0.300600  0.076100  1.0  0.1655
  H  H70  1  0.356600  0.339700  0.153100  1.0  0.1654
  H  H71  1  0.251100  0.136300  0.987400  1.0  0.124
  H  H72  1  0.363900  0.206200  0.946900  1.0  0.1231
  H  H73  1  0.242400  0.962700  0.058100  1.0  0.1255
  H  H74  1  0.458100  0.114800  0.882800  1.0  0.127
  H  H75  1  0.483000  0.964900  0.863000  1.0  0.0905
  H  H76  1  0.273100  0.817200  0.033200  1.0  0.0797
  C  C77  1  0.221500  0.567000  0.047200  1.0  0.1727
  C  C78  1  0.168500  0.490000  0.105100  1.0  -0.2442
  C  C79  1  0.225100  0.480500  0.172400  1.0  0.1416
  C  C80  1  0.332800  0.552600  0.179300  1.0  -0.18
  C  C81  1  0.378900  0.627500  0.119100  1.0  0.182
  C  C82  1  0.173000  0.391800  0.232900  1.0  -0.3152
  C  C83  1  0.067400  0.481600  0.333380  1.0  -0.2912
  C  C84  1  0.029800  0.488400  0.419290  1.0  0.0262
  C  C85  1  0.931800  0.413900  0.451820  1.0  0.0597
  C  C86  1  0.095900  0.572100  0.468430  1.0  -0.11
  C  C87  1  0.854500  0.319800  0.404000  1.0  -0.3225
  C  C88  1  0.828000  0.153600  0.511300  1.0  -0.2848
  C  C89  1  0.846100  0.056200  0.527280  1.0  0.1027
  C  C90  1  0.791500  0.964900  0.482300  1.0  -0.1723
  C  C91  1  0.919200  0.055200  0.586000  1.0  -0.1973
  C  C92  1  0.933400  0.964400  0.597600  1.0  0.186
  C  C93  1  0.810300  0.877600  0.497700  1.0  0.1909
  C  C94  1  0.278500  0.433000  0.547200  1.0  0.1722
  C  C95  1  0.331500  0.510000  0.605100  1.0  -0.243
  C  C96  1  0.274900  0.519500  0.672400  1.0  0.1429
  C  C97  1  0.167200  0.447400  0.679300  1.0  -0.179
  C  C98  1  0.121100  0.372500  0.619100  1.0  0.1816
  C  C99  1  0.327000  0.608200  0.732900  1.0  -0.316
  C  C100  1  0.432600  0.518400  0.833380  1.0  -0.2892
  C  C101  1  0.470200  0.511600  0.919290  1.0  0.0255
  C  C102  1  0.568200  0.586100  0.951820  1.0  0.0607
  C  C103  1  0.404100  0.427900  0.968430  1.0  -0.1101
  C  C104  1  0.645500  0.680200  0.904000  1.0  -0.3204
  C  C105  1  0.672000  0.846400  0.011300  1.0  -0.2819
  C  C106  1  0.653900  0.943800  0.027280  1.0  0.1048
  C  C107  1  0.708500  0.035100  0.982300  1.0  -0.1704
  C  C108  1  0.580800  0.944800  0.086000  1.0  -0.1984
  C  C109  1  0.566600  0.035600  0.097600  1.0  0.1852
  C  C110  1  0.689700  0.122400  0.997700  1.0  0.191
  C  C111  1  0.778500  0.433000  0.952800  1.0  0.1719
  C  C112  1  0.831500  0.510000  0.894900  1.0  -0.2425
  C  C113  1  0.774900  0.519500  0.827600  1.0  0.1431
  C  C114  1  0.667200  0.447400  0.820700  1.0  -0.1788
  C  C115  1  0.621100  0.372500  0.880900  1.0  0.1817
  C  C116  1  0.827000  0.608200  0.767100  1.0  -0.3177
  C  C117  1  0.932600  0.518400  0.666667  1.0  -0.286
  C  C118  1  0.970200  0.511600  0.580710  1.0  0.0252
  C  C119  1  0.068200  0.586100  0.548180  1.0  0.0611
  C  C120  1  0.904100  0.427900  0.531570  1.0  -0.1108
  C  C121  1  0.145500  0.680200  0.596000  1.0  -0.3207
  C  C122  1  0.172000  0.846400  0.488700  1.0  -0.2803
  C  C123  1  0.153900  0.943800  0.472720  1.0  0.1048
  C  C124  1  0.208500  0.035100  0.517700  1.0  -0.1711
  C  C125  1  0.080800  0.944800  0.414000  1.0  -0.1999
  C  C126  1  0.066600  0.035600  0.402400  1.0  0.1859
  C  C127  1  0.189700  0.122400  0.502300  1.0  0.1918
  C  C128  1  0.721500  0.567000  0.452800  1.0  0.1728
  C  C129  1  0.668500  0.490000  0.394900  1.0  -0.2431
  C  C130  1  0.725100  0.480500  0.327600  1.0  0.1415
  C  C131  1  0.832800  0.552600  0.320700  1.0  -0.1798
  C  C132  1  0.878900  0.627500  0.380900  1.0  0.1821
  C  C133  1  0.673000  0.391800  0.267100  1.0  -0.3151
  C  C134  1  0.567400  0.481600  0.166620  1.0  -0.29
  C  C135  1  0.529800  0.488400  0.080710  1.0  0.0267
  C  C136  1  0.431800  0.413900  0.048180  1.0  0.0601
  C  C137  1  0.595900  0.572100  0.031570  1.0  -0.111
  C  C138  1  0.354500  0.319800  0.096000  1.0  -0.3208
  C  C139  1  0.328000  0.153600  0.988700  1.0  -0.2815
  C  C140  1  0.346100  0.056200  0.972720  1.0  0.1027
  C  C141  1  0.291500  0.964900  0.017700  1.0  -0.172
  C  C142  1  0.419200  0.055200  0.914000  1.0  -0.1988
  C  C143  1  0.433400  0.964400  0.902400  1.0  0.1848
  C  C144  1  0.310300  0.877600  0.002300  1.0  0.1912
  S  S145  1  0.172430  0.433150  0.338150  1.0  -0.0188
  S  S146  1  0.883950  0.204400  0.410590  1.0  -0.0254
  S  S147  1  0.327570  0.566850  0.838150  1.0  -0.0181
  S  S148  1  0.616050  0.795600  0.910590  1.0  -0.0238
  S  S149  1  0.827570  0.566850  0.661850  1.0  -0.0169
  S  S150  1  0.116050  0.795600  0.589410  1.0  -0.026
  S  S151  1  0.672430  0.433150  0.161850  1.0  -0.0183
  S  S152  1  0.383950  0.204400  0.089410  1.0  -0.0267
  N  N153  1  0.325900  0.635100  0.052670  1.0  -0.3561
  N  N154  1  0.879500  0.875700  0.555070  1.0  -0.3218
  N  N155  1  0.174100  0.364900  0.552670  1.0  -0.3553
  N  N156  1  0.620500  0.124300  0.055070  1.0  -0.3201
  N  N157  1  0.674100  0.364900  0.947330  1.0  -0.3534
  N  N158  1  0.120500  0.124300  0.444930  1.0  -0.3208
  N  N159  1  0.825900  0.635100  0.447330  1.0  -0.3563
  N  N160  1  0.379500  0.875700  0.944930  1.0  -0.3196
  F  F161  1  0.777800  0.745800  0.189100  1.0  -0.4636
  F  F162  1  0.694600  0.872000  0.306000  1.0  -0.3766
  F  F163  1  0.854400  0.862800  0.288800  1.0  -0.3841
  F  F164  1  0.776200  0.900700  0.181000  1.0  -0.4124
  F  F165  1  0.701500  0.719500  0.313000  1.0  -0.4167
  F  F166  1  0.621300  0.756700  0.206740  1.0  -0.4622
  F  F167  1  0.722200  0.254200  0.689100  1.0  -0.4627
  F  F168  1  0.805400  0.128000  0.806000  1.0  -0.3807
  F  F169  1  0.645600  0.137200  0.788800  1.0  -0.3823
  F  F170  1  0.723800  0.099300  0.681000  1.0  -0.4099
  F  F171  1  0.798500  0.280500  0.813000  1.0  -0.4184
  F  F172  1  0.878700  0.243300  0.706740  1.0  -0.4619
  F  F173  1  0.222200  0.254200  0.810900  1.0  -0.4618
  F  F174  1  0.305400  0.128000  0.694000  1.0  -0.381
  F  F175  1  0.145600  0.137200  0.711200  1.0  -0.3812
  F  F176  1  0.223800  0.099300  0.819000  1.0  -0.4095
  F  F177  1  0.298500  0.280500  0.687000  1.0  -0.4181
  F  F178  1  0.378700  0.243300  0.793260  1.0  -0.4612
  F  F179  1  0.277800  0.745800  0.310900  1.0  -0.4634
  F  F180  1  0.194600  0.872000  0.194000  1.0  -0.3771
  F  F181  1  0.354400  0.862800  0.211200  1.0  -0.3835
  F  F182  1  0.276200  0.900700  0.319000  1.0  -0.4112
  F  F183  1  0.201500  0.719500  0.187000  1.0  -0.4159
  F  F184  1  0.121300  0.756700  0.293260  1.0  -0.4609
