# generated using pymatgen
data_CoAsH24W9C16(NO2)12
_symmetry_space_group_name_H-M   'P 1'
_cell_length_a   14.84000000
_cell_length_b   14.90700000
_cell_length_c   22.11800000
_cell_angle_alpha   88.76700000
_cell_angle_beta   87.16900000
_cell_angle_gamma   75.79600000
_symmetry_Int_Tables_number   1
_chemical_formula_structural   CoAsH24W9C16(NO2)12
_chemical_formula_sum   'Co4 As4 H96 W36 C64 N48 O96'
_cell_volume   4737.34318943
_cell_formula_units_Z   4
loop_
 _symmetry_equiv_pos_site_id
 _symmetry_equiv_pos_as_xyz
  1  'x, y, z'
loop_
 _atom_site_type_symbol
 _atom_site_label
 _atom_site_symmetry_multiplicity
 _atom_site_fract_x
 _atom_site_fract_y
 _atom_site_fract_z
 _atom_site_occupancy
 _atom_site_charge
  Co  Co1  1  0.277300  0.752500  0.980400  1.0  0.9217
  Co  Co2  1  0.722700  0.247500  0.019600  1.0  0.9203
  Co  Co3  1  0.500000  0.000000  0.500000  1.0  1.1005
  Co  Co4  1  0.000000  0.500000  0.500000  1.0  1.0421
  As  As5  1  0.217700  0.122200  0.774200  1.0  1.5758
  As  As6  1  0.250900  0.371400  0.775100  1.0  1.5689
  As  As7  1  0.782300  0.877800  0.225800  1.0  1.5754
  As  As8  1  0.749100  0.628600  0.224900  1.0  1.5692
  H  H9  1  0.268700  0.676300  0.122700  1.0  0.1105
  H  H10  1  0.440900  0.556100  0.994500  1.0  0.0919
  H  H11  1  0.411100  0.491600  0.195700  1.0  0.0999
  H  H12  1  0.328100  0.455100  0.172600  1.0  0.0848
  H  H13  1  0.411700  0.691200  0.856400  1.0  0.122
  H  H14  1  0.443500  0.860000  0.978200  1.0  0.0783
  H  H15  1  0.604500  0.883200  0.864700  1.0  0.0782
  H  H16  1  0.581600  0.912500  0.932400  1.0  0.0852
  H  H17  1  0.685900  0.775000  0.964100  1.0  0.1048
  H  H18  1  0.737500  0.834800  0.922800  1.0  0.0931
  H  H19  1  0.147500  0.956700  0.011300  1.0  0.0859
  H  H20  1  0.232000  0.463700  0.502600  1.0  0.123
  H  H21  1  0.058600  0.632000  0.388000  1.0  0.1525
  H  H22  1  0.422900  0.213100  0.277600  1.0  0.0847
  H  H23  1  0.424200  0.311100  0.302300  1.0  0.0998
  H  H24  1  0.268100  0.334000  0.334600  1.0  0.0724
  H  H25  1  0.280800  0.321900  0.264200  1.0  0.0715
  H  H26  1  0.267000  0.173500  0.342300  1.0  0.0702
  H  H27  1  0.264700  0.172500  0.271700  1.0  0.0756
  H  H28  1  0.734600  0.738100  0.840900  1.0  0.0855
  H  H29  1  0.684600  0.677800  0.882900  1.0  0.0741
  H  H30  1  0.833600  0.600700  0.872100  1.0  0.1014
  H  H31  1  0.817800  0.635900  0.939000  1.0  0.0943
  H  H32  1  0.973200  0.677000  0.960200  1.0  0.1035
  H  H33  1  0.113800  0.188800  0.306100  1.0  0.0935
  H  H34  1  0.117500  0.287800  0.281100  1.0  0.1051
  H  H35  1  0.184500  0.655300  0.303200  1.0  0.0988
  H  H36  1  0.280600  0.654100  0.330200  1.0  0.1003
  H  H37  1  0.344800  0.513200  0.297000  1.0  0.061
  H  H38  1  0.247600  0.491900  0.287700  1.0  0.0711
  H  H39  1  0.341100  0.930100  0.190900  1.0  0.079
  H  H40  1  0.279700  0.030100  0.179100  1.0  0.0839
  H  H41  1  0.149800  0.991000  0.223300  1.0  0.0866
  H  H42  1  0.205000  0.887200  0.230000  1.0  0.0762
  H  H43  1  0.994200  0.822700  0.809500  1.0  0.1123
  H  H44  1  0.190500  0.014600  0.314800  1.0  0.0721
  H  H45  1  0.293000  0.001100  0.288400  1.0  0.0646
  H  H46  1  0.215800  0.866100  0.339000  1.0  0.0823
  H  H47  1  0.315200  0.845200  0.306000  1.0  0.0922
  H  H48  1  0.301300  0.635600  0.218900  1.0  0.0651
  H  H49  1  0.221500  0.588600  0.203800  1.0  0.0867
  H  H50  1  0.339700  0.812200  0.110800  1.0  0.1113
  H  H51  1  0.122300  0.276500  0.517800  1.0  0.1405
  H  H52  1  0.034900  0.415300  0.362800  1.0  0.1387
  H  H53  1  0.400900  0.224800  0.514300  1.0  0.1308
  H  H54  1  0.484500  0.079400  0.359500  1.0  0.1453
  H  H55  1  0.280400  0.016900  0.512600  1.0  0.1053
  H  H56  1  0.454700  0.883400  0.377600  1.0  0.1406
  H  H57  1  0.731300  0.323700  0.877300  1.0  0.111
  H  H58  1  0.559100  0.443900  0.005500  1.0  0.0926
  H  H59  1  0.588900  0.508400  0.804300  1.0  0.1015
  H  H60  1  0.671900  0.544900  0.827400  1.0  0.0854
  H  H61  1  0.588300  0.308800  0.143600  1.0  0.1192
  H  H62  1  0.556500  0.140000  0.021800  1.0  0.0757
  H  H63  1  0.395500  0.116800  0.135300  1.0  0.0761
  H  H64  1  0.418400  0.087500  0.067600  1.0  0.0848
  H  H65  1  0.314100  0.225000  0.035900  1.0  0.1067
  H  H66  1  0.262500  0.165200  0.077200  1.0  0.0914
  H  H67  1  0.852500  0.043300  0.988700  1.0  0.0862
  H  H68  1  0.768000  0.536300  0.497400  1.0  0.1242
  H  H69  1  0.941400  0.368000  0.612000  1.0  0.1524
  H  H70  1  0.577100  0.786900  0.722400  1.0  0.0853
  H  H71  1  0.575800  0.688900  0.697700  1.0  0.1005
  H  H72  1  0.731900  0.666000  0.665400  1.0  0.0741
  H  H73  1  0.719200  0.678100  0.735800  1.0  0.0701
  H  H74  1  0.733000  0.826500  0.657700  1.0  0.0718
  H  H75  1  0.735300  0.827500  0.728300  1.0  0.0765
  H  H76  1  0.265400  0.261900  0.159100  1.0  0.084
  H  H77  1  0.315400  0.322200  0.117100  1.0  0.0786
  H  H78  1  0.166400  0.399300  0.127900  1.0  0.1021
  H  H79  1  0.182200  0.364100  0.061000  1.0  0.0946
  H  H80  1  0.026800  0.323000  0.039800  1.0  0.106
  H  H81  1  0.886200  0.811200  0.693900  1.0  0.0932
  H  H82  1  0.882500  0.712200  0.718900  1.0  0.1033
  H  H83  1  0.815500  0.344700  0.696800  1.0  0.0993
  H  H84  1  0.719400  0.345900  0.669800  1.0  0.0978
  H  H85  1  0.655200  0.486800  0.703000  1.0  0.0614
  H  H86  1  0.752400  0.508100  0.712300  1.0  0.0705
  H  H87  1  0.658900  0.069900  0.809100  1.0  0.0771
  H  H88  1  0.720300  0.969900  0.820900  1.0  0.0858
  H  H89  1  0.850200  0.009000  0.776700  1.0  0.087
  H  H90  1  0.795000  0.112800  0.770000  1.0  0.0758
  H  H91  1  0.005800  0.177300  0.190500  1.0  0.1123
  H  H92  1  0.809500  0.985400  0.685200  1.0  0.0671
  H  H93  1  0.707000  0.998900  0.711600  1.0  0.0637
  H  H94  1  0.784200  0.133900  0.661000  1.0  0.0821
  H  H95  1  0.684800  0.154800  0.694000  1.0  0.0922
  H  H96  1  0.698700  0.364400  0.781100  1.0  0.0663
  H  H97  1  0.778500  0.411400  0.796200  1.0  0.0805
  H  H98  1  0.660300  0.187800  0.889200  1.0  0.1143
  H  H99  1  0.877700  0.723500  0.482200  1.0  0.1408
  H  H100  1  0.965100  0.584700  0.637200  1.0  0.1373
  H  H101  1  0.599100  0.775200  0.485700  1.0  0.1291
  H  H102  1  0.515500  0.920600  0.640500  1.0  0.1462
  H  H103  1  0.719600  0.983100  0.487400  1.0  0.1061
  H  H104  1  0.545300  0.116600  0.622400  1.0  0.1442
  W  W105  1  0.203060  0.922240  0.858820  1.0  2.2666
  W  W106  1  0.495430  0.276980  0.774570  1.0  1.4548
  W  W107  1  0.120310  0.402880  0.912450  1.0  1.323
  W  W108  1  0.091130  0.158200  0.912950  1.0  1.4792
  W  W109  1  0.460400  0.034500  0.771060  1.0  1.2714
  W  W110  1  0.162350  0.608430  0.729270  1.0  1.3323
  W  W111  1  0.395820  0.525100  0.731240  1.0  1.3256
  W  W112  1  0.267040  0.564900  0.862050  1.0  2.3682
  W  W113  1  0.349060  0.080180  0.906640  1.0  1.1122
  W  W114  1  0.378260  0.324330  0.907970  1.0  1.2385
  W  W115  1  0.074990  0.972690  0.735340  1.0  1.4513
  W  W116  1  0.141850  0.408740  0.635710  1.0  2.0629
  W  W117  1  0.007370  0.459670  0.782680  1.0  1.2398
  W  W118  1  0.099820  0.169370  0.637080  1.0  1.3018
  W  W119  1  0.307850  0.889890  0.720580  1.0  1.2613
  W  W120  1  0.373830  0.336520  0.631940  1.0  1.5012
  W  W121  1  0.332200  0.097840  0.630160  1.0  1.8965
  W  W122  1  0.973880  0.217090  0.786470  1.0  1.3327
  W  W123  1  0.796940  0.077760  0.141180  1.0  2.2643
  W  W124  1  0.504570  0.723020  0.225430  1.0  1.4569
  W  W125  1  0.879690  0.597120  0.087550  1.0  1.3214
  W  W126  1  0.908870  0.841800  0.087050  1.0  1.4807
  W  W127  1  0.539600  0.965500  0.228940  1.0  1.2708
  W  W128  1  0.837650  0.391570  0.270730  1.0  1.3229
  W  W129  1  0.604180  0.474900  0.268760  1.0  1.3252
  W  W130  1  0.732960  0.435100  0.137950  1.0  2.3686
  W  W131  1  0.650940  0.919820  0.093360  1.0  1.111
  W  W132  1  0.621740  0.675670  0.092030  1.0  1.2405
  W  W133  1  0.925010  0.027310  0.264660  1.0  1.4513
  W  W134  1  0.858150  0.591260  0.364290  1.0  2.0503
  W  W135  1  0.992630  0.540330  0.217320  1.0  1.2411
  W  W136  1  0.900180  0.830630  0.362920  1.0  1.3028
  W  W137  1  0.692150  0.110110  0.279420  1.0  1.2676
  W  W138  1  0.626170  0.663480  0.368060  1.0  1.5
  W  W139  1  0.667800  0.902160  0.369840  1.0  1.8933
  W  W140  1  0.026120  0.782910  0.213530  1.0  1.3332
  C  C141  1  0.312000  0.635000  0.099000  1.0  0.1584
  C  C142  1  0.406000  0.568000  0.031000  1.0  0.2411
  C  C143  1  0.351000  0.510000  0.178000  1.0  -0.0864
  C  C144  1  0.435000  0.731000  0.879000  1.0  0.2076
  C  C145  1  0.455000  0.821000  0.945000  1.0  0.2144
  C  C146  1  0.598000  0.860000  0.906000  1.0  0.0021
  C  C147  1  0.692000  0.798000  0.923000  1.0  -0.1153
  C  C148  1  0.188000  0.940000  0.043000  1.0  0.236
  C  C149  1  0.210000  0.502000  0.469900  1.0  0.1889
  C  C150  1  0.112000  0.597000  0.405200  1.0  0.1646
  C  C151  1  0.396000  0.259000  0.308000  1.0  0.0305
  C  C152  1  0.294000  0.290000  0.303000  1.0  -0.1294
  C  C153  1  0.246000  0.211000  0.307000  1.0  -0.152
  C  C154  1  0.730000  0.715000  0.882000  1.0  -0.1297
  C  C155  1  0.820000  0.656000  0.897000  1.0  0.0213
  C  C156  1  0.964000  0.704000  0.922000  1.0  0.0668
  C  C157  1  0.141000  0.241000  0.312000  1.0  -0.0198
  C  C158  1  0.237000  0.617000  0.323000  1.0  0.0168
  C  C159  1  0.282000  0.540000  0.285000  1.0  -0.1046
  C  C160  1  0.279000  0.965000  0.181000  1.0  -0.0123
  C  C161  1  0.210000  0.951000  0.231000  1.0  -0.1208
  C  C162  1  0.976000  0.782000  0.837000  1.0  0.132
  C  C163  1  0.242000  0.972000  0.294000  1.0  -0.117
  C  C164  1  0.269000  0.891000  0.328300  1.0  0.0622
  C  C165  1  0.283000  0.577000  0.219000  1.0  -0.1042
  C  C166  1  0.294000  0.861000  0.096000  1.0  0.1383
  C  C167  1  0.113000  0.291000  0.477100  1.0  0.2042
  C  C168  1  0.063000  0.369000  0.389500  1.0  0.1409
  C  C169  1  0.411000  0.209000  0.473600  1.0  0.2333
  C  C170  1  0.458000  0.127000  0.386100  1.0  0.1533
  C  C171  1  0.303000  0.986000  0.476600  1.0  0.1806
  C  C172  1  0.401000  0.911000  0.400300  1.0  0.1684
  C  C173  1  0.688000  0.365000  0.901000  1.0  0.1544
  C  C174  1  0.594000  0.432000  0.969000  1.0  0.2397
  C  C175  1  0.649000  0.490000  0.822000  1.0  -0.0861
  C  C176  1  0.565000  0.269000  0.121000  1.0  0.207
  C  C177  1  0.545000  0.179000  0.055000  1.0  0.2116
  C  C178  1  0.402000  0.140000  0.094000  1.0  0.0009
  C  C179  1  0.308000  0.202000  0.077000  1.0  -0.1111
  C  C180  1  0.812000  0.060000  0.957000  1.0  0.2389
  C  C181  1  0.790000  0.498000  0.530100  1.0  0.188
  C  C182  1  0.888000  0.403000  0.594800  1.0  0.1663
  C  C183  1  0.604000  0.741000  0.692000  1.0  0.0287
  C  C184  1  0.706000  0.710000  0.697000  1.0  -0.1314
  C  C185  1  0.754000  0.789000  0.693000  1.0  -0.1485
  C  C186  1  0.270000  0.285000  0.118000  1.0  -0.1318
  C  C187  1  0.180000  0.344000  0.103000  1.0  0.0193
  C  C188  1  0.036000  0.296000  0.078000  1.0  0.0654
  C  C189  1  0.859000  0.759000  0.688000  1.0  -0.0132
  C  C190  1  0.763000  0.383000  0.677000  1.0  0.0159
  C  C191  1  0.718000  0.460000  0.715000  1.0  -0.1034
  C  C192  1  0.721000  0.035000  0.819000  1.0  -0.0154
  C  C193  1  0.790000  0.049000  0.769000  1.0  -0.1211
  C  C194  1  0.024000  0.218000  0.163000  1.0  0.132
  C  C195  1  0.758000  0.028000  0.706000  1.0  -0.1158
  C  C196  1  0.731000  0.109000  0.671700  1.0  0.0632
  C  C197  1  0.717000  0.423000  0.781000  1.0  -0.1072
  C  C198  1  0.706000  0.139000  0.904000  1.0  0.1376
  C  C199  1  0.887000  0.709000  0.522900  1.0  0.2049
  C  C200  1  0.937000  0.631000  0.610500  1.0  0.1446
  C  C201  1  0.589000  0.791000  0.526400  1.0  0.2326
  C  C202  1  0.542000  0.873000  0.613900  1.0  0.1548
  C  C203  1  0.697000  0.014000  0.523400  1.0  0.1768
  C  C204  1  0.599000  0.089000  0.599700  1.0  0.1696
  N  N205  1  0.265200  0.527000  0.421300  1.0  -0.2544
  N  N206  1  0.205000  0.586000  0.381300  1.0  -0.0922
  N  N207  1  0.115000  0.545000  0.460000  1.0  -0.3885
  N  N208  1  0.331000  0.650000  0.039000  1.0  -0.452
  N  N209  1  0.256000  0.862000  0.044000  1.0  -0.3383
  N  N210  1  0.061000  0.376000  0.453600  1.0  -0.3878
  N  N211  1  0.148000  0.231100  0.427700  1.0  -0.28
  N  N212  1  0.117000  0.280000  0.373500  1.0  -0.0819
  N  N213  1  0.399000  0.768000  0.934000  1.0  -0.4175
  N  N214  1  0.458000  0.121000  0.450300  1.0  -0.3815
  N  N215  1  0.383000  0.269600  0.423800  1.0  -0.2591
  N  N216  1  0.412000  0.219000  0.369700  1.0  -0.053
  N  N217  1  0.398000  0.953000  0.457700  1.0  -0.3668
  N  N218  1  0.247300  0.965000  0.430900  1.0  -0.2706
  N  N219  1  0.308000  0.919000  0.383700  1.0  -0.0616
  N  N220  1  0.359000  0.557000  0.117000  1.0  0.1253
  N  N221  1  0.420000  0.514000  0.076000  1.0  -0.308
  N  N222  1  0.526000  0.816000  0.908000  1.0  0.0985
  N  N223  1  0.513000  0.765000  0.864000  1.0  -0.2619
  N  N224  1  0.257000  0.937000  0.124000  1.0  0.157
  N  N225  1  0.895000  0.703000  0.887000  1.0  0.16
  N  N226  1  0.912000  0.741000  0.834000  1.0  -0.2409
  N  N227  1  0.014000  0.749000  0.894000  1.0  -0.2518
  N  N228  1  0.183000  0.993000  0.093000  1.0  -0.3848
  N  N229  1  0.734800  0.473000  0.578700  1.0  -0.2496
  N  N230  1  0.795000  0.414000  0.618700  1.0  -0.1001
  N  N231  1  0.885000  0.455000  0.540000  1.0  -0.3883
  N  N232  1  0.669000  0.350000  0.961000  1.0  -0.4598
  N  N233  1  0.744000  0.138000  0.956000  1.0  -0.3365
  N  N234  1  0.939000  0.624000  0.546400  1.0  -0.3896
  N  N235  1  0.852000  0.768900  0.572300  1.0  -0.2806
  N  N236  1  0.883000  0.720000  0.626500  1.0  -0.078
  N  N237  1  0.601000  0.232000  0.066000  1.0  -0.4221
  N  N238  1  0.542000  0.879000  0.549700  1.0  -0.3803
  N  N239  1  0.617000  0.730400  0.576200  1.0  -0.2581
  N  N240  1  0.588000  0.781000  0.630300  1.0  -0.0587
  N  N241  1  0.602000  0.047000  0.542300  1.0  -0.3662
  N  N242  1  0.752700  0.035000  0.569100  1.0  -0.2749
  N  N243  1  0.692000  0.081000  0.616300  1.0  -0.0604
  N  N244  1  0.641000  0.443000  0.883000  1.0  0.1263
  N  N245  1  0.580000  0.486000  0.924000  1.0  -0.3075
  N  N246  1  0.474000  0.184000  0.092000  1.0  0.0987
  N  N247  1  0.487000  0.235000  0.136000  1.0  -0.2599
  N  N248  1  0.743000  0.063000  0.876000  1.0  0.1582
  N  N249  1  0.105000  0.297000  0.113000  1.0  0.1595
  N  N250  1  0.088000  0.259000  0.166000  1.0  -0.2439
  N  N251  1  0.986000  0.251000  0.106000  1.0  -0.2516
  N  N252  1  0.817000  0.007000  0.907000  1.0  -0.3851
  O  O253  1  0.073000  0.457000  0.577400  1.0  -0.6854
  O  O254  1  0.246000  0.341000  0.922000  1.0  -0.5869
  O  O255  1  0.184000  0.885000  0.702800  1.0  -0.6216
  O  O256  1  0.292000  0.622000  0.713600  1.0  -0.6115
  O  O257  1  0.205000  0.187000  0.910400  1.0  -0.7054
  O  O258  1  0.276000  0.643000  0.917200  1.0  -0.7145
  O  O259  1  0.024000  0.220000  0.706300  1.0  -0.6766
  O  O260  1  0.095000  0.053000  0.669300  1.0  -0.6794
  O  O261  1  0.250000  0.344000  0.704100  1.0  -0.845
  O  O262  1  0.282000  0.847000  0.804200  1.0  -0.7348
  O  O263  1  0.133000  0.289000  0.623300  1.0  -0.6835
  O  O264  1  0.259000  0.390000  0.593200  1.0  -0.7166
  O  O265  1  0.055000  0.424000  0.702200  1.0  -0.6631
  O  O266  1  0.341000  0.305000  0.810200  1.0  -0.7793
  O  O267  1  0.463000  0.413000  0.764200  1.0  -0.6794
  O  O268  1  0.147000  0.372000  0.810500  1.0  -0.7978
  O  O269  1  0.446000  0.279000  0.692100  1.0  -0.6798
  O  O270  1  0.313000  0.123000  0.807800  1.0  -0.8442
  O  O271  1  0.070000  0.557000  0.769900  1.0  -0.6937
  O  O272  1  0.419000  0.082000  0.694600  1.0  -0.6858
  O  O273  1  0.489000  0.156000  0.781400  1.0  -0.7026
  O  O274  1  0.978000  0.192000  0.871700  1.0  -0.6716
  O  O275  1  0.160000  0.524000  0.668600  1.0  -0.6971
  O  O276  1  0.222000  0.154000  0.701200  1.0  -0.841
  O  O277  1  0.374000  0.450000  0.661300  1.0  -0.7056
  O  O278  1  0.174000  0.509000  0.892400  1.0  -0.6728
  O  O279  1  0.402000  0.935000  0.757300  1.0  -0.6621
  O  O280  1  0.352000  0.453000  0.888200  1.0  -0.6497
  O  O281  1  0.385000  0.190000  0.909600  1.0  -0.6645
  O  O282  1  0.085000  0.292000  0.918500  1.0  -0.7196
  O  O283  1  0.452000  0.019000  0.857000  1.0  -0.7049
  O  O284  1  0.374000  0.578000  0.807100  1.0  -0.676
  O  O285  1  0.117000  0.037000  0.889900  1.0  -0.7132
  O  O286  1  0.314000  0.979000  0.658700  1.0  -0.685
  O  O287  1  0.013000  0.465000  0.869600  1.0  -0.6748
  O  O288  1  0.493000  0.294000  0.859500  1.0  -0.6618
  O  O289  1  0.189000  0.645000  0.807300  1.0  -0.6963
  O  O290  1  0.214000  0.120000  0.591700  1.0  -0.6894
  O  O291  1  0.010000  0.083000  0.768400  1.0  -0.6519
  O  O292  1  0.097000  0.910000  0.811600  1.0  -0.6939
  O  O293  1  0.340000  0.220000  0.617400  1.0  -0.6969
  O  O294  1  0.126000  0.190000  0.813700  1.0  -0.8192
  O  O295  1  0.306000  0.962000  0.871300  1.0  -0.7445
  O  O296  1  0.979000  0.338000  0.796100  1.0  -0.6385
  O  O297  1  0.264000  0.480000  0.776100  1.0  -0.7643
  O  O298  1  0.193000  0.845000  0.914500  1.0  -0.7475
  O  O299  1  0.202000  0.015000  0.773200  1.0  -0.7898
  O  O300  1  0.406000  0.052000  0.571800  1.0  -0.6792
  O  O301  1  0.927000  0.543000  0.422600  1.0  -0.6867
  O  O302  1  0.754000  0.659000  0.078000  1.0  -0.5864
  O  O303  1  0.816000  0.115000  0.297200  1.0  -0.6189
  O  O304  1  0.708000  0.378000  0.286400  1.0  -0.6127
  O  O305  1  0.795000  0.813000  0.089600  1.0  -0.7072
  O  O306  1  0.724000  0.357000  0.082800  1.0  -0.7124
  O  O307  1  0.976000  0.780000  0.293700  1.0  -0.678
  O  O308  1  0.905000  0.947000  0.330700  1.0  -0.6804
  O  O309  1  0.750000  0.656000  0.295900  1.0  -0.8468
  O  O310  1  0.718000  0.153000  0.195800  1.0  -0.7335
  O  O311  1  0.867000  0.711000  0.376700  1.0  -0.6828
  O  O312  1  0.741000  0.610000  0.406800  1.0  -0.7152
  O  O313  1  0.945000  0.576000  0.297800  1.0  -0.6628
  O  O314  1  0.659000  0.695000  0.189800  1.0  -0.7787
  O  O315  1  0.537000  0.587000  0.235800  1.0  -0.6803
  O  O316  1  0.853000  0.628000  0.189500  1.0  -0.797
  O  O317  1  0.554000  0.721000  0.307900  1.0  -0.68
  O  O318  1  0.687000  0.877000  0.192200  1.0  -0.8439
  O  O319  1  0.930000  0.443000  0.230100  1.0  -0.6944
  O  O320  1  0.581000  0.918000  0.305400  1.0  -0.6859
  O  O321  1  0.511000  0.844000  0.218600  1.0  -0.7019
  O  O322  1  0.022000  0.808000  0.128300  1.0  -0.673
  O  O323  1  0.840000  0.476000  0.331400  1.0  -0.6958
  O  O324  1  0.778000  0.846000  0.298800  1.0  -0.8404
  O  O325  1  0.626000  0.550000  0.338700  1.0  -0.7098
  O  O326  1  0.826000  0.491000  0.107600  1.0  -0.6734
  O  O327  1  0.598000  0.065000  0.242700  1.0  -0.6623
  O  O328  1  0.648000  0.547000  0.111800  1.0  -0.6514
  O  O329  1  0.615000  0.810000  0.090400  1.0  -0.6654
  O  O330  1  0.915000  0.708000  0.081500  1.0  -0.7212
  O  O331  1  0.548000  0.981000  0.143000  1.0  -0.7063
  O  O332  1  0.626000  0.422000  0.192900  1.0  -0.6769
  O  O333  1  0.883000  0.963000  0.110100  1.0  -0.712
  O  O334  1  0.686000  0.021000  0.341300  1.0  -0.6832
  O  O335  1  0.987000  0.535000  0.130400  1.0  -0.6744
  O  O336  1  0.507000  0.706000  0.140500  1.0  -0.6625
  O  O337  1  0.811000  0.355000  0.192700  1.0  -0.6971
  O  O338  1  0.786000  0.880000  0.408300  1.0  -0.6875
  O  O339  1  0.990000  0.917000  0.231600  1.0  -0.6532
  O  O340  1  0.903000  0.090000  0.188400  1.0  -0.6938
  O  O341  1  0.660000  0.780000  0.382600  1.0  -0.6982
  O  O342  1  0.874000  0.810000  0.186300  1.0  -0.8192
  O  O343  1  0.694000  0.038000  0.128700  1.0  -0.7448
  O  O344  1  0.021000  0.662000  0.203900  1.0  -0.6398
  O  O345  1  0.736000  0.520000  0.223900  1.0  -0.7642
  O  O346  1  0.807000  0.155000  0.085500  1.0  -0.746
  O  O347  1  0.798000  0.985000  0.226800  1.0  -0.7896
  O  O348  1  0.594000  0.948000  0.428200  1.0  -0.6779
