# generated using pymatgen
data_Co2P2H47W18C32N24O47
_symmetry_space_group_name_H-M   'P 1'
_cell_length_a   14.86800000
_cell_length_b   14.94300000
_cell_length_c   22.11700000
_cell_angle_alpha   88.54300000
_cell_angle_beta   86.82200000
_cell_angle_gamma   75.61500000
_symmetry_Int_Tables_number   1
_chemical_formula_structural   Co2P2H47W18C32N24O47
_chemical_formula_sum   'Co4 P4 H94 W36 C64 N48 O94'
_cell_volume   4752.06883388
_cell_formula_units_Z   2
loop_
 _symmetry_equiv_pos_site_id
 _symmetry_equiv_pos_as_xyz
  1  'x, y, z'
loop_
 _atom_site_type_symbol
 _atom_site_label
 _atom_site_symmetry_multiplicity
 _atom_site_fract_x
 _atom_site_fract_y
 _atom_site_fract_z
 _atom_site_occupancy
 _atom_site_charge
  Co  Co1  1  0.222300  0.748800  0.520300  1.0  0.8451
  Co  Co2  1  0.777700  0.251200  0.479700  1.0  0.8469
  Co  Co3  1  0.500000  0.000000  0.000000  1.0  0.9863
  Co  Co4  1  0.000000  0.500000  0.000000  1.0  0.8643
  P  P5  1  0.281700  0.380200  0.725800  1.0  1.6495
  P  P6  1  0.248200  0.123800  0.725500  1.0  1.6175
  P  P7  1  0.718300  0.619800  0.274200  1.0  1.6492
  P  P8  1  0.751800  0.876200  0.274500  1.0  1.6181
  H  H9  1  0.217900  0.491400  0.213000  1.0  0.0903
  H  H10  1  0.319000  0.490400  0.188800  1.0  0.0818
  H  H11  1  0.434900  0.871400  0.111100  1.0  0.1003
  H  H12  1  0.918200  0.588700  0.567600  1.0  0.0867
  H  H13  1  0.894900  0.614100  0.635800  1.0  0.0974
  H  H14  1  0.272900  0.026600  0.998400  1.0  0.0852
  H  H15  1  0.632800  0.780100  0.010100  1.0  0.0484
  H  H16  1  0.172400  0.045800  0.326300  1.0  0.1122
  H  H17  1  0.086800  0.011500  0.306900  1.0  0.1092
  H  H18  1  0.761700  0.660200  0.584600  1.0  0.1192
  H  H19  1  0.809000  0.715900  0.537300  1.0  0.1357
  H  H20  1  0.806200  0.797800  0.646300  1.0  0.1125
  H  H21  1  0.668400  0.895600  0.629200  1.0  0.1242
  H  H22  1  0.681700  0.862700  0.561900  1.0  0.146
  H  H23  1  0.221600  0.846100  0.168400  1.0  0.1004
  H  H24  1  0.316800  0.846400  0.195700  1.0  0.1153
  H  H25  1  0.251400  0.011300  0.212300  1.0  0.0721
  H  H26  1  0.154600  0.992000  0.200200  1.0  0.0735
  H  H27  1  0.271300  0.911200  0.294500  1.0  0.0774
  H  H28  1  0.187400  0.872200  0.278400  1.0  0.0723
  H  H29  1  0.632000  0.743200  0.696400  1.0  0.1161
  H  H30  1  0.426300  0.743100  0.594300  1.0  0.1218
  H  H31  1  0.226700  0.481400  0.991700  1.0  0.0994
  H  H32  1  0.286600  0.616700  0.269000  1.0  0.0778
  H  H33  1  0.347100  0.515800  0.277800  1.0  0.0878
  H  H34  1  0.177200  0.651600  0.190700  1.0  0.0999
  H  H35  1  0.275300  0.638100  0.157400  1.0  0.1062
  H  H36  1  0.158900  0.571800  0.308500  1.0  0.0843
  H  H37  1  0.221100  0.472000  0.318700  1.0  0.0927
  H  H38  1  0.354100  0.539600  0.489300  1.0  0.0919
  H  H39  1  0.929900  0.804700  0.802000  1.0  0.1092
  H  H40  1  0.925300  0.707700  0.778200  1.0  0.1024
  H  H41  1  0.779500  0.823100  0.764300  1.0  0.0817
  H  H42  1  0.766300  0.834000  0.835000  1.0  0.0769
  H  H43  1  0.760700  0.675000  0.769800  1.0  0.0815
  H  H44  1  0.769900  0.669900  0.840200  1.0  0.0916
  H  H45  1  0.609900  0.693300  0.811900  1.0  0.106
  H  H46  1  0.614300  0.791300  0.786100  1.0  0.0883
  H  H47  1  0.157400  0.683000  0.391300  1.0  0.1063
  H  H48  1  0.069800  0.942700  0.508100  1.0  0.0921
  H  H49  1  0.231600  0.823800  0.377800  1.0  0.1134
  H  H50  1  0.897700  0.724300  0.004200  1.0  0.0994
  H  H51  1  0.053300  0.640100  0.518700  1.0  0.1083
  H  H52  1  0.084000  0.811900  0.639300  1.0  0.0815
  H  H53  1  0.978500  0.579500  0.859500  1.0  0.1192
  H  H54  1  0.535500  0.911800  0.867800  1.0  0.1112
  H  H55  1  0.050400  0.602400  0.124700  1.0  0.1289
  H  H56  1  0.782100  0.508600  0.787000  1.0  0.0902
  H  H57  1  0.681000  0.509600  0.811200  1.0  0.0808
  H  H58  1  0.565100  0.128600  0.888900  1.0  0.1003
  H  H59  1  0.081800  0.411300  0.432400  1.0  0.0878
  H  H60  1  0.105100  0.385900  0.364200  1.0  0.0959
  H  H61  1  0.727100  0.973400  0.001600  1.0  0.0853
  H  H62  1  0.367200  0.219900  0.989900  1.0  0.0491
  H  H63  1  0.827600  0.954200  0.673700  1.0  0.1114
  H  H64  1  0.913200  0.988500  0.693100  1.0  0.1057
  H  H65  1  0.238300  0.339800  0.415400  1.0  0.1203
  H  H66  1  0.191000  0.284100  0.462700  1.0  0.1366
  H  H67  1  0.193800  0.202200  0.353700  1.0  0.113
  H  H68  1  0.331600  0.104400  0.370800  1.0  0.1259
  H  H69  1  0.318300  0.137300  0.438100  1.0  0.1474
  H  H70  1  0.778400  0.153900  0.831600  1.0  0.1027
  H  H71  1  0.683200  0.153600  0.804300  1.0  0.1155
  H  H72  1  0.748600  0.988700  0.787700  1.0  0.0731
  H  H73  1  0.845400  0.008000  0.799800  1.0  0.0757
  H  H74  1  0.728700  0.088800  0.705500  1.0  0.0816
  H  H75  1  0.812600  0.127800  0.721600  1.0  0.0736
  H  H76  1  0.368000  0.256800  0.303600  1.0  0.1176
  H  H77  1  0.573700  0.256900  0.405700  1.0  0.1225
  H  H78  1  0.773300  0.518600  0.008300  1.0  0.0977
  H  H79  1  0.713400  0.383300  0.731000  1.0  0.0771
  H  H80  1  0.652900  0.484200  0.722200  1.0  0.0878
  H  H81  1  0.822800  0.348400  0.809300  1.0  0.0996
  H  H82  1  0.724700  0.361900  0.842600  1.0  0.1057
  H  H83  1  0.841100  0.428200  0.691500  1.0  0.0871
  H  H84  1  0.778900  0.528000  0.681300  1.0  0.0925
  H  H85  1  0.645900  0.460400  0.510700  1.0  0.0919
  H  H86  1  0.070100  0.195300  0.198000  1.0  0.1098
  H  H87  1  0.074700  0.292300  0.221800  1.0  0.1029
  H  H88  1  0.220500  0.176900  0.235700  1.0  0.08
  H  H89  1  0.233700  0.166000  0.165000  1.0  0.0782
  H  H90  1  0.239300  0.325000  0.230200  1.0  0.0797
  H  H91  1  0.230100  0.330100  0.159800  1.0  0.0912
  H  H92  1  0.390100  0.306700  0.188100  1.0  0.1065
  H  H93  1  0.385700  0.208700  0.213900  1.0  0.0892
  H  H94  1  0.842600  0.317000  0.608700  1.0  0.1062
  H  H95  1  0.930200  0.057300  0.491900  1.0  0.092
  H  H96  1  0.768400  0.176200  0.622200  1.0  0.1136
  H  H97  1  0.102300  0.275700  0.995800  1.0  0.1002
  H  H98  1  0.946700  0.359900  0.481300  1.0  0.1084
  H  H99  1  0.916000  0.188100  0.360700  1.0  0.0814
  H  H100  1  0.021500  0.420500  0.140500  1.0  0.1194
  H  H101  1  0.464500  0.088200  0.132200  1.0  0.1102
  H  H102  1  0.949600  0.397600  0.875300  1.0  0.1281
  W  W103  1  0.405490  0.340270  0.586810  1.0  1.3545
  W  W104  1  0.338600  0.889450  0.770410  1.0  1.3265
  W  W105  1  0.126940  0.161830  0.868510  1.0  1.3534
  W  W106  1  0.399810  0.327130  0.861210  1.0  1.2798
  W  W107  1  0.358410  0.088170  0.862810  1.0  2.165
  W  W108  1  0.039580  0.463370  0.730720  1.0  1.3266
  W  W109  1  0.424040  0.524380  0.763980  1.0  1.3392
  W  W110  1  0.190350  0.608310  0.779490  1.0  1.3809
  W  W111  1  0.104330  0.973610  0.770810  1.0  1.2809
  W  W112  1  0.231050  0.934830  0.638450  1.0  2.3573
  W  W113  1  0.295920  0.575580  0.640620  1.0  1.5193
  W  W114  1  0.150030  0.419320  0.594710  1.0  1.2802
  W  W115  1  0.005820  0.220900  0.727480  1.0  1.3396
  W  W116  1  0.523360  0.281750  0.712620  1.0  1.3016
  W  W117  1  0.168150  0.400220  0.869580  1.0  2.0574
  W  W118  1  0.376810  0.095890  0.588320  1.0  1.3285
  W  W119  1  0.491410  0.038840  0.716740  1.0  1.3087
  W  W120  1  0.121460  0.175410  0.593330  1.0  1.2675
  W  W121  1  0.594510  0.659730  0.413190  1.0  1.3494
  W  W122  1  0.661400  0.110550  0.229590  1.0  1.3356
  W  W123  1  0.873060  0.838170  0.131490  1.0  1.3552
  W  W124  1  0.600190  0.672870  0.138790  1.0  1.2817
  W  W125  1  0.641590  0.911830  0.137190  1.0  2.1638
  W  W126  1  0.960420  0.536630  0.269280  1.0  1.326
  W  W127  1  0.575960  0.475620  0.236020  1.0  1.3389
  W  W128  1  0.809650  0.391690  0.220510  1.0  1.3732
  W  W129  1  0.895670  0.026390  0.229190  1.0  1.28
  W  W130  1  0.768950  0.065170  0.361550  1.0  2.36
  W  W131  1  0.704080  0.424420  0.359380  1.0  1.5152
  W  W132  1  0.849970  0.580680  0.405290  1.0  1.2773
  W  W133  1  0.994180  0.779100  0.272520  1.0  1.3414
  W  W134  1  0.476640  0.718250  0.287380  1.0  1.3025
  W  W135  1  0.831850  0.599780  0.130420  1.0  2.0584
  W  W136  1  0.623190  0.904110  0.411680  1.0  1.3282
  W  W137  1  0.508590  0.961160  0.283260  1.0  1.3071
  W  W138  1  0.878540  0.824590  0.406670  1.0  1.2656
  C  C139  1  0.263000  0.528000  0.208400  1.0  -0.1326
  C  C140  1  0.382000  0.907000  0.093600  1.0  0.1774
  C  C141  1  0.901000  0.640000  0.595000  1.0  -0.0021
  C  C142  1  0.294000  0.992000  0.033000  1.0  0.2636
  C  C143  1  0.617000  0.792000  0.970000  1.0  0.2298
  C  C144  1  0.149000  0.992000  0.322300  1.0  -0.0435
  C  C145  1  0.806000  0.698000  0.579700  1.0  -0.2894
  C  C146  1  0.771000  0.783000  0.616300  1.0  -0.1293
  C  C147  1  0.681000  0.842000  0.604000  1.0  -0.0838
  C  C148  1  0.264000  0.884000  0.175000  1.0  -0.0173
  C  C149  1  0.216000  0.965000  0.214200  1.0  -0.0816
  C  C150  1  0.209000  0.928000  0.279300  1.0  -0.1083
  C  C151  1  0.593000  0.750000  0.664400  1.0  0.1771
  C  C152  1  0.481000  0.752000  0.607600  1.0  0.135
  C  C153  1  0.202000  0.513000  0.026800  1.0  0.0983
  C  C154  1  0.285000  0.552000  0.269300  1.0  -0.1217
  C  C155  1  0.226000  0.608000  0.168600  1.0  -0.0234
  C  C156  1  0.221000  0.537000  0.317500  1.0  0.0173
  C  C157  1  0.312000  0.558000  0.458900  1.0  0.1634
  C  C158  1  0.900000  0.754000  0.808500  1.0  -0.0221
  C  C159  1  0.792000  0.791000  0.803000  1.0  -0.1182
  C  C160  1  0.746000  0.710000  0.807000  1.0  -0.1189
  C  C161  1  0.638000  0.744000  0.816200  1.0  -0.0012
  C  C162  1  0.205000  0.637000  0.405900  1.0  0.1817
  C  C163  1  0.101000  0.931000  0.470000  1.0  0.2013
  C  C164  1  0.189000  0.866000  0.401700  1.0  0.1289
  C  C165  1  0.917000  0.708000  0.964000  1.0  0.211
  C  C166  1  0.044000  0.678000  0.552500  1.0  0.1557
  C  C167  1  0.061000  0.769000  0.618400  1.0  0.2365
  C  C168  1  0.956000  0.628000  0.885900  1.0  0.1502
  C  C169  1  0.565000  0.866000  0.894200  1.0  0.1459
  C  C170  1  0.103000  0.583000  0.098900  1.0  0.0704
  C  C171  1  0.737000  0.472000  0.791600  1.0  -0.1311
  C  C172  1  0.618000  0.093000  0.906400  1.0  0.1768
  C  C173  1  0.099000  0.360000  0.405000  1.0  -0.0011
  C  C174  1  0.706000  0.008000  0.967000  1.0  0.2605
  C  C175  1  0.383000  0.208000  0.030000  1.0  0.2282
  C  C176  1  0.851000  0.008000  0.677700  1.0  -0.0443
  C  C177  1  0.194000  0.302000  0.420300  1.0  -0.2885
  C  C178  1  0.229000  0.217000  0.383700  1.0  -0.1279
  C  C179  1  0.319000  0.158000  0.396000  1.0  -0.0832
  C  C180  1  0.736000  0.116000  0.825000  1.0  -0.0176
  C  C181  1  0.784000  0.035000  0.785800  1.0  -0.0813
  C  C182  1  0.791000  0.072000  0.720700  1.0  -0.1078
  C  C183  1  0.407000  0.250000  0.335600  1.0  0.1751
  C  C184  1  0.519000  0.248000  0.392400  1.0  0.1344
  C  C185  1  0.798000  0.487000  0.973200  1.0  0.0959
  C  C186  1  0.715000  0.448000  0.730700  1.0  -0.1225
  C  C187  1  0.774000  0.392000  0.831400  1.0  -0.0271
  C  C188  1  0.779000  0.463000  0.682500  1.0  0.0187
  C  C189  1  0.688000  0.442000  0.541100  1.0  0.163
  C  C190  1  0.100000  0.246000  0.191500  1.0  -0.023
  C  C191  1  0.208000  0.209000  0.197000  1.0  -0.1196
  C  C192  1  0.254000  0.290000  0.193000  1.0  -0.1198
  C  C193  1  0.362000  0.256000  0.183800  1.0  -0.0027
  C  C194  1  0.795000  0.363000  0.594100  1.0  0.1806
  C  C195  1  0.899000  0.069000  0.530000  1.0  0.2017
  C  C196  1  0.811000  0.134000  0.598300  1.0  0.1297
  C  C197  1  0.083000  0.292000  0.036000  1.0  0.211
  C  C198  1  0.956000  0.322000  0.447500  1.0  0.1541
  C  C199  1  0.939000  0.231000  0.381600  1.0  0.2367
  C  C200  1  0.044000  0.372000  0.114100  1.0  0.1503
  C  C201  1  0.435000  0.134000  0.105800  1.0  0.1455
  C  C202  1  0.897000  0.417000  0.901100  1.0  0.0688
  N  N203  1  0.143000  0.946000  0.383300  1.0  0.1529
  N  N204  1  0.100000  0.732000  0.566100  1.0  -0.4031
  N  N205  1  0.959000  0.622000  0.945000  1.0  -0.375
  N  N206  1  0.242000  0.640000  0.459100  1.0  -0.4173
  N  N207  1  0.385000  0.956000  0.042800  1.0  -0.4421
  N  N208  1  0.562000  0.872000  0.954500  1.0  -0.4413
  N  N209  1  0.297000  0.916000  0.116000  1.0  0.1574
  N  N210  1  0.984000  0.738000  0.638400  1.0  -0.3801
  N  N211  1  0.081000  0.988000  0.425900  1.0  -0.3593
  N  N212  1  0.236000  0.973000  0.077800  1.0  -0.4159
  N  N213  1  0.601000  0.794000  0.614400  1.0  0.1277
  N  N214  1  0.648000  0.735000  0.930400  1.0  -0.3263
  N  N215  1  0.534000  0.799000  0.577700  1.0  -0.3534
  N  N216  1  0.909000  0.767000  0.916200  1.0  -0.3575
  N  N217  1  0.187000  0.580000  0.110100  1.0  0.1133
  N  N218  1  0.243000  0.564000  0.377200  1.0  0.1737
  N  N219  1  0.311000  0.509000  0.409200  1.0  -0.3569
  N  N220  1  0.917000  0.714000  0.869300  1.0  0.1883
  N  N221  1  0.250000  0.532000  0.073100  1.0  -0.3412
  N  N222  1  0.520000  0.719000  0.661800  1.0  -0.3106
  N  N223  1  0.616000  0.783000  0.877800  1.0  0.1126
  N  N224  1  0.972000  0.685000  0.594200  1.0  0.1713
  N  N225  1  0.105000  0.551000  0.041800  1.0  -0.4212
  N  N226  1  0.167000  0.853000  0.460500  1.0  -0.4302
  N  N227  1  0.857000  0.054000  0.616700  1.0  0.1522
  N  N228  1  0.900000  0.268000  0.433900  1.0  -0.4053
  N  N229  1  0.041000  0.378000  0.055000  1.0  -0.3767
  N  N230  1  0.758000  0.360000  0.540900  1.0  -0.4189
  N  N231  1  0.615000  0.044000  0.957200  1.0  -0.4404
  N  N232  1  0.438000  0.128000  0.045500  1.0  -0.4396
  N  N233  1  0.703000  0.084000  0.884000  1.0  0.1592
  N  N234  1  0.016000  0.262000  0.361600  1.0  -0.3809
  N  N235  1  0.919000  0.012000  0.574100  1.0  -0.3601
  N  N236  1  0.764000  0.027000  0.922200  1.0  -0.4178
  N  N237  1  0.399000  0.206000  0.385600  1.0  0.1312
  N  N238  1  0.352000  0.265000  0.069600  1.0  -0.3289
  N  N239  1  0.466000  0.201000  0.422300  1.0  -0.357
  N  N240  1  0.091000  0.233000  0.083800  1.0  -0.3579
  N  N241  1  0.813000  0.420000  0.889900  1.0  0.1153
  N  N242  1  0.757000  0.436000  0.622800  1.0  0.1739
  N  N243  1  0.689000  0.491000  0.590800  1.0  -0.3581
  N  N244  1  0.083000  0.286000  0.130700  1.0  0.189
  N  N245  1  0.750000  0.468000  0.926900  1.0  -0.341
  N  N246  1  0.480000  0.281000  0.338200  1.0  -0.3142
  N  N247  1  0.384000  0.217000  0.122200  1.0  0.1136
  N  N248  1  0.028000  0.315000  0.405800  1.0  0.1727
  N  N249  1  0.895000  0.449000  0.958200  1.0  -0.4188
  N  N250  1  0.833000  0.147000  0.539500  1.0  -0.4316
  O  O251  1  0.276600  0.355600  0.577400  1.0  -0.6593
  O  O252  1  0.293600  0.482100  0.726900  1.0  -0.7375
  O  O253  1  0.236500  0.020000  0.726000  1.0  -0.7368
  O  O254  1  0.162300  0.277700  0.878800  1.0  -0.7114
  O  O255  1  0.115700  0.307600  0.594600  1.0  -0.6568
  O  O256  1  0.341200  0.122300  0.691300  1.0  -0.7872
  O  O257  1  0.217600  0.649100  0.697300  1.0  -0.675
  O  O258  1  0.127700  0.922000  0.692700  1.0  -0.707
  O  O259  1  0.490700  0.415900  0.728100  1.0  -0.644
  O  O260  1  0.015100  0.342500  0.718900  1.0  -0.6927
  O  O261  1  0.095900  0.560500  0.743200  1.0  -0.6446
  O  O262  1  0.283700  0.379200  0.906200  1.0  -0.716
  O  O263  1  0.314600  0.608700  0.798800  1.0  -0.6277
  O  O264  1  0.341700  0.971500  0.832900  1.0  -0.6808
  O  O265  1  0.450400  0.073700  0.795700  1.0  -0.6914
  O  O266  1  0.248600  0.148800  0.790700  1.0  -0.7195
  O  O267  1  0.514800  0.159500  0.702500  1.0  -0.6609
  O  O268  1  0.186700  0.520500  0.839900  1.0  -0.6889
  O  O269  1  0.409500  0.209200  0.586000  1.0  -0.6798
  O  O270  1  0.365900  0.209200  0.871200  1.0  -0.7053
  O  O271  1  0.519600  0.306400  0.628200  1.0  -0.6656
  O  O272  1  0.249400  0.160000  0.576700  1.0  -0.6617
  O  O273  1  0.485300  0.033500  0.631000  1.0  -0.6615
  O  O274  1  0.146500  0.048800  0.611600  1.0  -0.6699
  O  O275  1  0.203100  0.527400  0.616900  1.0  -0.7711
  O  O276  1  0.212800  0.882900  0.793200  1.0  -0.621
  O  O277  1  0.383800  0.463300  0.606900  1.0  -0.6933
  O  O278  1  0.407900  0.443700  0.831400  1.0  -0.6565
  O  O279  1  0.432100  0.942000  0.729500  1.0  -0.6587
  O  O280  1  0.324200  0.990300  0.608400  1.0  -0.6815
  O  O281  1  0.123300  0.048600  0.839000  1.0  -0.7043
  O  O282  1  0.242300  0.105200  0.905700  1.0  -0.7074
  O  O283  1  0.164600  0.185100  0.696000  1.0  -0.8301
  O  O284  1  0.277600  0.349700  0.792200  1.0  -0.8002
  O  O285  1  0.190200  0.382500  0.695800  1.0  -0.7753
  O  O286  1  0.045600  0.479700  0.644200  1.0  -0.6949
  O  O287  1  0.080000  0.415400  0.807600  1.0  -0.6789
  O  O288  1  0.478700  0.276700  0.793500  1.0  -0.6734
  O  O289  1  0.035300  0.087000  0.739800  1.0  -0.6851
  O  O290  1  0.400900  0.581900  0.688200  1.0  -0.6743
  O  O291  1  0.051100  0.221000  0.808600  1.0  -0.6805
  O  O292  1  0.009000  0.201600  0.643200  1.0  -0.6628
  O  O293  1  0.365100  0.317700  0.691100  1.0  -0.8177
  O  O294  1  0.425600  0.042400  0.922500  1.0  -0.6692
  O  O295  1  0.095600  0.443100  0.930000  1.0  -0.6939
  O  O296  1  0.223100  0.857700  0.583600  1.0  -0.7215
  O  O297  1  0.312300  0.854000  0.690900  1.0  -0.7188
  O  O298  1  0.723400  0.644400  0.422600  1.0  -0.6619
  O  O299  1  0.706400  0.517900  0.273100  1.0  -0.7364
  O  O300  1  0.763500  0.980000  0.274000  1.0  -0.7359
  O  O301  1  0.837700  0.722300  0.121200  1.0  -0.7106
  O  O302  1  0.884300  0.692400  0.405400  1.0  -0.6572
  O  O303  1  0.658800  0.877700  0.308700  1.0  -0.7852
  O  O304  1  0.782400  0.350900  0.302700  1.0  -0.6748
  O  O305  1  0.872300  0.078000  0.307300  1.0  -0.707
  O  O306  1  0.509300  0.584100  0.271900  1.0  -0.645
  O  O307  1  0.984900  0.657500  0.281100  1.0  -0.6947
  O  O308  1  0.904100  0.439500  0.256800  1.0  -0.6467
  O  O309  1  0.716300  0.620800  0.093800  1.0  -0.717
  O  O310  1  0.685400  0.391300  0.201200  1.0  -0.6274
  O  O311  1  0.658300  0.028500  0.167100  1.0  -0.6812
  O  O312  1  0.549600  0.926300  0.204300  1.0  -0.6917
  O  O313  1  0.751400  0.851200  0.209300  1.0  -0.7189
  O  O314  1  0.485200  0.840500  0.297500  1.0  -0.661
  O  O315  1  0.813300  0.479500  0.160100  1.0  -0.6889
  O  O316  1  0.590500  0.790800  0.414000  1.0  -0.6799
  O  O317  1  0.634100  0.790800  0.128800  1.0  -0.706
  O  O318  1  0.480400  0.693600  0.371800  1.0  -0.666
  O  O319  1  0.750600  0.840000  0.423300  1.0  -0.6624
  O  O320  1  0.514700  0.966500  0.369000  1.0  -0.6631
  O  O321  1  0.853500  0.951200  0.388400  1.0  -0.67
  O  O322  1  0.796900  0.472600  0.383100  1.0  -0.7692
  O  O323  1  0.787200  0.117100  0.206800  1.0  -0.6195
  O  O324  1  0.616200  0.536700  0.393100  1.0  -0.6958
  O  O325  1  0.592100  0.556300  0.168600  1.0  -0.6537
  O  O326  1  0.567900  0.058000  0.270500  1.0  -0.6576
  O  O327  1  0.675800  0.009700  0.391600  1.0  -0.6805
  O  O328  1  0.876700  0.951400  0.161000  1.0  -0.696
  O  O329  1  0.757700  0.894800  0.094300  1.0  -0.7102
  O  O330  1  0.835400  0.814900  0.304000  1.0  -0.8305
  O  O331  1  0.722400  0.650300  0.207800  1.0  -0.8013
  O  O332  1  0.809800  0.617500  0.304200  1.0  -0.7759
  O  O333  1  0.954400  0.520300  0.355800  1.0  -0.6949
  O  O334  1  0.920000  0.584600  0.192400  1.0  -0.6792
  O  O335  1  0.521300  0.723300  0.206500  1.0  -0.6732
  O  O336  1  0.964700  0.913000  0.260200  1.0  -0.6848
  O  O337  1  0.599100  0.418100  0.311800  1.0  -0.674
  O  O338  1  0.948900  0.779000  0.191400  1.0  -0.6787
  O  O339  1  0.991000  0.798400  0.356800  1.0  -0.6634
  O  O340  1  0.634900  0.682300  0.308900  1.0  -0.8184
  O  O341  1  0.574400  0.957600  0.077500  1.0  -0.6675
  O  O342  1  0.904400  0.556900  0.070000  1.0  -0.6947
  O  O343  1  0.776900  0.142300  0.416400  1.0  -0.7213
  O  O344  1  0.687700  0.146000  0.309100  1.0  -0.7159
