# generated using pymatgen
data_Zn6H42C48S6N8O27
_symmetry_space_group_name_H-M   'P 1'
_cell_length_a   15.95310000
_cell_length_b   15.95310000
_cell_length_c   21.63980000
_cell_angle_alpha   68.37030000
_cell_angle_beta   68.37030000
_cell_angle_gamma   60.00000000
_symmetry_Int_Tables_number   1
_chemical_formula_structural   Zn6H42C48S6N8O27
_chemical_formula_sum   'Zn12 H84 C96 S12 N16 O54'
_cell_volume   4315.91931941
_cell_formula_units_Z   2
loop_
 _symmetry_equiv_pos_site_id
 _symmetry_equiv_pos_as_xyz
  1  'x, y, z'
loop_
 _atom_site_type_symbol
 _atom_site_label
 _atom_site_symmetry_multiplicity
 _atom_site_fract_x
 _atom_site_fract_y
 _atom_site_fract_z
 _atom_site_occupancy
 _atom_site_charge
  Zn  Zn1  1  0.635680  0.450200  0.719200  1.0  1.0048
  Zn  Zn2  1  0.450200  0.194920  0.719200  1.0  1.0033
  Zn  Zn3  1  0.194920  0.635680  0.719200  1.0  1.0021
  Zn  Zn4  1  0.864320  0.305080  0.780800  1.0  1.0047
  Zn  Zn5  1  0.049800  0.864320  0.780800  1.0  1.0042
  Zn  Zn6  1  0.305080  0.049800  0.780800  1.0  1.0038
  Zn  Zn7  1  0.364320  0.549800  0.280800  1.0  1.0044
  Zn  Zn8  1  0.549800  0.805080  0.280800  1.0  1.0054
  Zn  Zn9  1  0.805080  0.364320  0.280800  1.0  1.0022
  Zn  Zn10  1  0.135680  0.694920  0.219200  1.0  1.0037
  Zn  Zn11  1  0.950200  0.135680  0.219200  1.0  1.0039
  Zn  Zn12  1  0.694920  0.950200  0.219200  1.0  1.0034
  H  H13  1  0.766800  0.494800  0.712600  1.0  0.3987
  H  H14  1  0.823500  0.712400  0.533800  1.0  0.1213
  H  H15  1  0.809100  0.806500  0.415300  1.0  0.1045
  H  H16  1  0.541000  0.543500  0.590800  1.0  0.0858
  H  H17  1  0.611000  0.428500  0.590500  1.0  0.0749
  H  H18  1  0.416400  0.590100  0.693400  1.0  0.1035
  H  H19  1  0.401900  0.506400  0.760300  1.0  0.0911
  H  H20  1  0.494800  0.025800  0.712600  1.0  0.3986
  H  H21  1  0.712400  0.930300  0.533800  1.0  0.1193
  H  H22  1  0.806500  0.969100  0.415300  1.0  0.1056
  H  H23  1  0.543500  0.324700  0.590800  1.0  0.0849
  H  H24  1  0.428500  0.370000  0.590500  1.0  0.0753
  H  H25  1  0.590100  0.300100  0.693400  1.0  0.103
  H  H26  1  0.506400  0.331400  0.760300  1.0  0.0937
  H  H27  1  0.025800  0.766800  0.712600  1.0  0.4012
  H  H28  1  0.930300  0.823500  0.533800  1.0  0.1225
  H  H29  1  0.969100  0.809100  0.415300  1.0  0.1043
  H  H30  1  0.324700  0.541000  0.590800  1.0  0.0851
  H  H31  1  0.370000  0.611000  0.590500  1.0  0.0745
  H  H32  1  0.300100  0.416400  0.693400  1.0  0.1033
  H  H33  1  0.331400  0.401900  0.760300  1.0  0.0939
  H  H34  1  0.733200  0.474200  0.787400  1.0  0.3982
  H  H35  1  0.676500  0.569700  0.966200  1.0  0.1217
  H  H36  1  0.690900  0.530900  0.084700  1.0  0.1033
  H  H37  1  0.959000  0.175300  0.909200  1.0  0.0837
  H  H38  1  0.889000  0.130000  0.909500  1.0  0.0724
  H  H39  1  0.083600  0.199900  0.806600  1.0  0.1042
  H  H40  1  0.098100  0.168600  0.739700  1.0  0.0931
  H  H41  1  0.005200  0.733200  0.787400  1.0  0.3997
  H  H42  1  0.787600  0.676500  0.966200  1.0  0.1203
  H  H43  1  0.693500  0.690900  0.084700  1.0  0.1053
  H  H44  1  0.956500  0.959000  0.909200  1.0  0.0858
  H  H45  1  0.071500  0.889000  0.909500  1.0  0.0737
  H  H46  1  0.909900  0.083600  0.806600  1.0  0.1028
  H  H47  1  0.993600  0.098100  0.739700  1.0  0.0924
  H  H48  1  0.474200  0.005200  0.787400  1.0  0.3977
  H  H49  1  0.569700  0.787600  0.966200  1.0  0.1197
  H  H50  1  0.530900  0.693500  0.084700  1.0  0.1055
  H  H51  1  0.175300  0.956500  0.909200  1.0  0.0857
  H  H52  1  0.130000  0.071500  0.909500  1.0  0.0761
  H  H53  1  0.199900  0.909900  0.806600  1.0  0.105
  H  H54  1  0.168600  0.993600  0.739700  1.0  0.0924
  H  H55  1  0.233200  0.505200  0.287400  1.0  0.3993
  H  H56  1  0.176500  0.287600  0.466200  1.0  0.1207
  H  H57  1  0.190900  0.193500  0.584700  1.0  0.1049
  H  H58  1  0.459000  0.456500  0.409200  1.0  0.0872
  H  H59  1  0.389000  0.571500  0.409500  1.0  0.0743
  H  H60  1  0.583600  0.409900  0.306600  1.0  0.1022
  H  H61  1  0.598100  0.493600  0.239700  1.0  0.0909
  H  H62  1  0.505200  0.974200  0.287400  1.0  0.3998
  H  H63  1  0.287600  0.069700  0.466200  1.0  0.1189
  H  H64  1  0.193500  0.030900  0.584700  1.0  0.1051
  H  H65  1  0.456500  0.675300  0.409200  1.0  0.0844
  H  H66  1  0.571500  0.630000  0.409500  1.0  0.0752
  H  H67  1  0.409900  0.699900  0.306600  1.0  0.1035
  H  H68  1  0.493600  0.668600  0.239700  1.0  0.0938
  H  H69  1  0.974200  0.233200  0.287400  1.0  0.3991
  H  H70  1  0.069700  0.176500  0.466200  1.0  0.1219
  H  H71  1  0.030900  0.190900  0.584700  1.0  0.1045
  H  H72  1  0.675300  0.459000  0.409200  1.0  0.0836
  H  H73  1  0.630000  0.389000  0.409500  1.0  0.0734
  H  H74  1  0.699900  0.583600  0.306600  1.0  0.1028
  H  H75  1  0.668600  0.598100  0.239700  1.0  0.0925
  H  H76  1  0.266800  0.525800  0.212600  1.0  0.3997
  H  H77  1  0.323500  0.430300  0.033800  1.0  0.1218
  H  H78  1  0.309100  0.469100  0.915300  1.0  0.1038
  H  H79  1  0.041000  0.824700  0.090800  1.0  0.0845
  H  H80  1  0.111000  0.870000  0.090500  1.0  0.0732
  H  H81  1  0.916400  0.800100  0.193400  1.0  0.1033
  H  H82  1  0.901900  0.831400  0.260300  1.0  0.0936
  H  H83  1  0.994800  0.266800  0.212600  1.0  0.399
  H  H84  1  0.212400  0.323500  0.033800  1.0  0.1212
  H  H85  1  0.306500  0.309100  0.915300  1.0  0.1038
  H  H86  1  0.043500  0.041000  0.090800  1.0  0.0846
  H  H87  1  0.928500  0.111000  0.090500  1.0  0.0744
  H  H88  1  0.090100  0.916400  0.193400  1.0  0.1029
  H  H89  1  0.006400  0.901900  0.260300  1.0  0.0909
  H  H90  1  0.525800  0.994800  0.212600  1.0  0.4003
  H  H91  1  0.430300  0.212400  0.033800  1.0  0.1206
  H  H92  1  0.469100  0.306500  0.915300  1.0  0.1053
  H  H93  1  0.824700  0.043500  0.090800  1.0  0.0862
  H  H94  1  0.870000  0.928500  0.090500  1.0  0.0756
  H  H95  1  0.800100  0.090100  0.193400  1.0  0.1038
  H  H96  1  0.831400  0.006400  0.260300  1.0  0.0939
  C  C97  1  0.723960  0.588560  0.608320  1.0  0.7008
  C  C98  1  0.731810  0.654410  0.538270  1.0  -0.1709
  C  C99  1  0.785260  0.709760  0.510220  1.0  -0.0677
  C  C100  1  0.777750  0.763050  0.442150  1.0  -0.0601
  C  C101  1  0.720100  0.745000  0.419500  1.0  -0.2153
  C  C102  1  0.698540  0.784940  0.350080  1.0  0.7391
  C  C103  1  0.543160  0.475860  0.608320  1.0  0.1234
  C  C104  1  0.418790  0.522490  0.709630  1.0  0.0946
  C  C105  1  0.588560  0.079160  0.608320  1.0  0.7007
  C  C106  1  0.654410  0.075510  0.538270  1.0  -0.1726
  C  C107  1  0.709760  0.994760  0.510220  1.0  -0.0657
  C  C108  1  0.763050  0.017050  0.442150  1.0  -0.0608
  C  C109  1  0.745000  0.115400  0.419500  1.0  -0.214
  C  C110  1  0.784940  0.166440  0.350080  1.0  0.7398
  C  C111  1  0.475860  0.372660  0.608320  1.0  0.1261
  C  C112  1  0.522490  0.349090  0.709630  1.0  0.0917
  C  C113  1  0.079160  0.723960  0.608320  1.0  0.7013
  C  C114  1  0.075510  0.731810  0.538270  1.0  -0.1712
  C  C115  1  0.994760  0.785260  0.510220  1.0  -0.0683
  C  C116  1  0.017050  0.777750  0.442150  1.0  -0.0607
  C  C117  1  0.115400  0.720100  0.419500  1.0  -0.2141
  C  C118  1  0.166440  0.698540  0.350080  1.0  0.7394
  C  C119  1  0.372660  0.543160  0.608320  1.0  0.125
  C  C120  1  0.349090  0.418790  0.709630  1.0  0.0946
  C  C121  1  0.776040  0.420840  0.891680  1.0  0.7002
  C  C122  1  0.768190  0.424490  0.961730  1.0  -0.1728
  C  C123  1  0.714740  0.505240  0.989780  1.0  -0.0663
  C  C124  1  0.722250  0.482950  0.057850  1.0  -0.06
  C  C125  1  0.779900  0.384600  0.080500  1.0  -0.2148
  C  C126  1  0.801460  0.333560  0.149920  1.0  0.7403
  C  C127  1  0.956840  0.127340  0.891680  1.0  0.1234
  C  C128  1  0.081210  0.150910  0.790370  1.0  0.095
  C  C129  1  0.911440  0.776040  0.891680  1.0  0.7016
  C  C130  1  0.845590  0.768190  0.961730  1.0  -0.1706
  C  C131  1  0.790240  0.714740  0.989780  1.0  -0.0672
  C  C132  1  0.736950  0.722250  0.057850  1.0  -0.0612
  C  C133  1  0.755000  0.779900  0.080500  1.0  -0.2142
  C  C134  1  0.715060  0.801460  0.149920  1.0  0.7405
  C  C135  1  0.024140  0.956840  0.891680  1.0  0.1225
  C  C136  1  0.977510  0.081210  0.790370  1.0  0.0935
  C  C137  1  0.420840  0.911440  0.891680  1.0  0.7018
  C  C138  1  0.424490  0.845590  0.961730  1.0  -0.1707
  C  C139  1  0.505240  0.790240  0.989780  1.0  -0.0676
  C  C140  1  0.482950  0.736950  0.057850  1.0  -0.0604
  C  C141  1  0.384600  0.755000  0.080500  1.0  -0.2143
  C  C142  1  0.333560  0.715060  0.149920  1.0  0.7392
  C  C143  1  0.127340  0.024140  0.891680  1.0  0.124
  C  C144  1  0.150910  0.977510  0.790370  1.0  0.0903
  C  C145  1  0.276040  0.411440  0.391680  1.0  0.7008
  C  C146  1  0.268190  0.345590  0.461730  1.0  -0.1705
  C  C147  1  0.214740  0.290240  0.489780  1.0  -0.0673
  C  C148  1  0.222250  0.236950  0.557850  1.0  -0.0611
  C  C149  1  0.279900  0.255000  0.580500  1.0  -0.2144
  C  C150  1  0.301460  0.215060  0.649920  1.0  0.7396
  C  C151  1  0.456840  0.524140  0.391680  1.0  0.1217
  C  C152  1  0.581210  0.477510  0.290370  1.0  0.0941
  C  C153  1  0.411440  0.920840  0.391680  1.0  0.7011
  C  C154  1  0.345590  0.924490  0.461730  1.0  -0.1729
  C  C155  1  0.290240  0.005240  0.489780  1.0  -0.0663
  C  C156  1  0.236950  0.982950  0.557850  1.0  -0.0604
  C  C157  1  0.255000  0.884600  0.580500  1.0  -0.2147
  C  C158  1  0.215060  0.833560  0.649920  1.0  0.7391
  C  C159  1  0.524140  0.627340  0.391680  1.0  0.1269
  C  C160  1  0.477510  0.650910  0.290370  1.0  0.0926
  C  C161  1  0.920840  0.276040  0.391680  1.0  0.7018
  C  C162  1  0.924490  0.268190  0.461730  1.0  -0.1713
  C  C163  1  0.005240  0.214740  0.489780  1.0  -0.0682
  C  C164  1  0.982950  0.222250  0.557850  1.0  -0.0605
  C  C165  1  0.884600  0.279900  0.580500  1.0  -0.2142
  C  C166  1  0.833560  0.301460  0.649920  1.0  0.7396
  C  C167  1  0.627340  0.456840  0.391680  1.0  0.1237
  C  C168  1  0.650910  0.581210  0.290370  1.0  0.093
  C  C169  1  0.223960  0.579160  0.108320  1.0  0.6999
  C  C170  1  0.231810  0.575510  0.038270  1.0  -0.1729
  C  C171  1  0.285260  0.494760  0.010220  1.0  -0.0668
  C  C172  1  0.277750  0.517050  0.942150  1.0  -0.0603
  C  C173  1  0.220100  0.615400  0.919500  1.0  -0.215
  C  C174  1  0.198540  0.666440  0.850080  1.0  0.7415
  C  C175  1  0.043160  0.872660  0.108320  1.0  0.122
  C  C176  1  0.918790  0.849090  0.209630  1.0  0.0958
  C  C177  1  0.088560  0.223960  0.108320  1.0  0.7014
  C  C178  1  0.154410  0.231810  0.038270  1.0  -0.1718
  C  C179  1  0.209760  0.285260  0.010220  1.0  -0.0674
  C  C180  1  0.263050  0.277750  0.942150  1.0  -0.0602
  C  C181  1  0.245000  0.220100  0.919500  1.0  -0.2148
  C  C182  1  0.284940  0.198540  0.850080  1.0  0.7398
  C  C183  1  0.975860  0.043160  0.108320  1.0  0.1219
  C  C184  1  0.022490  0.918790  0.209630  1.0  0.0935
  C  C185  1  0.579160  0.088560  0.108320  1.0  0.7016
  C  C186  1  0.575510  0.154410  0.038270  1.0  -0.1714
  C  C187  1  0.494760  0.209760  0.010220  1.0  -0.0667
  C  C188  1  0.517050  0.263050  0.942150  1.0  -0.0602
  C  C189  1  0.615400  0.245000  0.919500  1.0  -0.2129
  C  C190  1  0.666440  0.284940  0.850080  1.0  0.7394
  C  C191  1  0.872660  0.975860  0.108320  1.0  0.1237
  C  C192  1  0.849090  0.022490  0.209630  1.0  0.0919
  S  S193  1  0.672030  0.665610  0.481780  1.0  0.1381
  S  S194  1  0.665610  0.180580  0.481780  1.0  0.1389
  S  S195  1  0.180580  0.672030  0.481780  1.0  0.1379
  S  S196  1  0.827970  0.319420  0.018220  1.0  0.1399
  S  S197  1  0.834390  0.827970  0.018220  1.0  0.1374
  S  S198  1  0.319420  0.834390  0.018220  1.0  0.1384
  S  S199  1  0.327970  0.334390  0.518220  1.0  0.1373
  S  S200  1  0.334390  0.819420  0.518220  1.0  0.1395
  S  S201  1  0.819420  0.327970  0.518220  1.0  0.138
  S  S202  1  0.172030  0.680580  0.981780  1.0  0.1397
  S  S203  1  0.165610  0.172030  0.981780  1.0  0.1379
  S  S204  1  0.680580  0.165610  0.981780  1.0  0.1369
  N  N205  1  0.520950  0.450250  0.685150  1.0  -0.3094
  N  N206  1  0.450250  0.343650  0.685150  1.0  -0.3106
  N  N207  1  0.343650  0.520950  0.685150  1.0  -0.3108
  N  N208  1  0.979050  0.156350  0.814850  1.0  -0.311
  N  N209  1  0.049750  0.979050  0.814850  1.0  -0.3099
  N  N210  1  0.156350  0.049750  0.814850  1.0  -0.3116
  N  N211  1  0.479050  0.549750  0.314850  1.0  -0.3112
  N  N212  1  0.549750  0.656350  0.314850  1.0  -0.3123
  N  N213  1  0.656350  0.479050  0.314850  1.0  -0.3093
  N  N214  1  0.020950  0.843650  0.185150  1.0  -0.309
  N  N215  1  0.950250  0.020950  0.185150  1.0  -0.3091
  N  N216  1  0.843650  0.950250  0.185150  1.0  -0.3124
  N  N217  1  0.472020  0.472020  0.583940  1.0  -0.3237
  N  N218  1  0.027980  0.027980  0.916060  1.0  -0.3251
  N  N219  1  0.527980  0.527980  0.416060  1.0  -0.3251
  N  N220  1  0.972020  0.972020  0.083940  1.0  -0.3237
  O  O221  1  0.655630  0.559530  0.630220  1.0  -0.6393
  O  O222  1  0.785980  0.568380  0.639460  1.0  -0.5761
  O  O223  1  0.727040  0.851310  0.311110  1.0  -0.628
  O  O224  1  0.653960  0.748650  0.337810  1.0  -0.616
  O  O225  1  0.559530  0.154620  0.630220  1.0  -0.6394
  O  O226  1  0.568380  0.006180  0.639460  1.0  -0.5751
  O  O227  1  0.851310  0.110540  0.311110  1.0  -0.6282
  O  O228  1  0.748650  0.259580  0.337810  1.0  -0.6177
  O  O229  1  0.154620  0.655630  0.630220  1.0  -0.6389
  O  O230  1  0.006180  0.785980  0.639460  1.0  -0.576
  O  O231  1  0.110540  0.727040  0.311110  1.0  -0.6275
  O  O232  1  0.259580  0.653960  0.337810  1.0  -0.6151
  O  O233  1  0.844370  0.345380  0.869780  1.0  -0.6369
  O  O234  1  0.714020  0.493820  0.860540  1.0  -0.5749
  O  O235  1  0.772960  0.389460  0.188890  1.0  -0.6281
  O  O236  1  0.846040  0.240420  0.162190  1.0  -0.618
  O  O237  1  0.940470  0.844370  0.869780  1.0  -0.642
  O  O238  1  0.931620  0.714020  0.860540  1.0  -0.5765
  O  O239  1  0.648690  0.772960  0.188890  1.0  -0.6262
  O  O240  1  0.751350  0.846040  0.162190  1.0  -0.616
  O  O241  1  0.345380  0.940470  0.869780  1.0  -0.6368
  O  O242  1  0.493820  0.931620  0.860540  1.0  -0.5752
  O  O243  1  0.389460  0.648690  0.188890  1.0  -0.6269
  O  O244  1  0.240420  0.751350  0.162190  1.0  -0.6163
  O  O245  1  0.344370  0.440470  0.369780  1.0  -0.6394
  O  O246  1  0.214020  0.431620  0.360540  1.0  -0.5753
  O  O247  1  0.272960  0.148690  0.688890  1.0  -0.6272
  O  O248  1  0.346040  0.251350  0.662190  1.0  -0.6161
  O  O249  1  0.440470  0.845380  0.369780  1.0  -0.6372
  O  O250  1  0.431620  0.993820  0.360540  1.0  -0.5751
  O  O251  1  0.148690  0.889460  0.688890  1.0  -0.6267
  O  O252  1  0.251350  0.740420  0.662190  1.0  -0.6179
  O  O253  1  0.845380  0.344370  0.369780  1.0  -0.6397
  O  O254  1  0.993820  0.214020  0.360540  1.0  -0.5767
  O  O255  1  0.889460  0.272960  0.688890  1.0  -0.6276
  O  O256  1  0.740420  0.346040  0.662190  1.0  -0.6163
  O  O257  1  0.155630  0.654620  0.130220  1.0  -0.6382
  O  O258  1  0.285980  0.506180  0.139460  1.0  -0.5733
  O  O259  1  0.227040  0.610540  0.811110  1.0  -0.6284
  O  O260  1  0.153960  0.759580  0.837810  1.0  -0.6176
  O  O261  1  0.059530  0.155630  0.130220  1.0  -0.6394
  O  O262  1  0.068380  0.285980  0.139460  1.0  -0.5761
  O  O263  1  0.351310  0.227040  0.811110  1.0  -0.6268
  O  O264  1  0.248650  0.153960  0.837810  1.0  -0.615
  O  O265  1  0.654620  0.059530  0.130220  1.0  -0.6399
  O  O266  1  0.506180  0.068380  0.139460  1.0  -0.5746
  O  O267  1  0.610540  0.351310  0.811110  1.0  -0.6276
  O  O268  1  0.759580  0.248650  0.837810  1.0  -0.6165
  O  O269  1  0.750000  0.447650  0.750000  1.0  -0.7802
  O  O270  1  0.447650  0.052350  0.750000  1.0  -0.7812
  O  O271  1  0.052350  0.750000  0.750000  1.0  -0.7789
  O  O272  1  0.250000  0.552350  0.250000  1.0  -0.7807
  O  O273  1  0.552350  0.947650  0.250000  1.0  -0.7786
  O  O274  1  0.947650  0.250000  0.250000  1.0  -0.7782
