# generated using pymatgen
data_Cd6H42C48S6N8O27
_symmetry_space_group_name_H-M   'P 1'
_cell_length_a   16.26360000
_cell_length_b   16.26360000
_cell_length_c   22.19930000
_cell_angle_alpha   68.51190000
_cell_angle_beta   68.51180000
_cell_angle_gamma   60.00000000
_symmetry_Int_Tables_number   1
_chemical_formula_structural   Cd6H42C48S6N8O27
_chemical_formula_sum   'Cd12 H84 C96 S12 N16 O54'
_cell_volume   4607.85488224
_cell_formula_units_Z   2
loop_
 _symmetry_equiv_pos_site_id
 _symmetry_equiv_pos_as_xyz
  1  'x, y, z'
loop_
 _atom_site_type_symbol
 _atom_site_label
 _atom_site_symmetry_multiplicity
 _atom_site_fract_x
 _atom_site_fract_y
 _atom_site_fract_z
 _atom_site_occupancy
 _atom_site_charge
  Cd  Cd1  1  0.364450  0.545080  0.281140  1.0  1.0746
  Cd  Cd2  1  0.545080  0.809330  0.281140  1.0  1.0741
  Cd  Cd3  1  0.809330  0.364450  0.281140  1.0  1.0733
  Cd  Cd4  1  0.135550  0.690670  0.218860  1.0  1.0711
  Cd  Cd5  1  0.954920  0.135550  0.218860  1.0  1.0731
  Cd  Cd6  1  0.690670  0.954920  0.218860  1.0  1.0738
  Cd  Cd7  1  0.635550  0.454920  0.718860  1.0  1.0724
  Cd  Cd8  1  0.454920  0.190670  0.718860  1.0  1.0728
  Cd  Cd9  1  0.190670  0.635550  0.718860  1.0  1.0722
  Cd  Cd10  1  0.864450  0.309330  0.781140  1.0  1.0731
  Cd  Cd11  1  0.045080  0.864450  0.781140  1.0  1.0749
  Cd  Cd12  1  0.309330  0.045080  0.781140  1.0  1.0739
  H  H13  1  0.237100  0.493100  0.284700  1.0  0.4236
  H  H14  1  0.170300  0.288600  0.470100  1.0  0.1226
  H  H15  1  0.184200  0.199300  0.585600  1.0  0.1034
  H  H16  1  0.391800  0.568400  0.410700  1.0  0.083
  H  H17  1  0.461500  0.455700  0.410700  1.0  0.0904
  H  H18  1  0.584900  0.410200  0.311400  1.0  0.0984
  H  H19  1  0.598100  0.492000  0.246000  1.0  0.0916
  H  H20  1  0.493100  0.985100  0.284700  1.0  0.4227
  H  H21  1  0.288600  0.071000  0.470100  1.0  0.1216
  H  H22  1  0.199300  0.030900  0.585600  1.0  0.1034
  H  H23  1  0.568400  0.629100  0.410700  1.0  0.0832
  H  H24  1  0.455700  0.672100  0.410700  1.0  0.0885
  H  H25  1  0.410200  0.693500  0.311400  1.0  0.1011
  H  H26  1  0.492000  0.663900  0.246000  1.0  0.0937
  H  H27  1  0.985100  0.237100  0.284700  1.0  0.4241
  H  H28  1  0.071000  0.170300  0.470100  1.0  0.1189
  H  H29  1  0.030900  0.184200  0.585600  1.0  0.1043
  H  H30  1  0.629100  0.391800  0.410700  1.0  0.0822
  H  H31  1  0.672100  0.461500  0.410700  1.0  0.0864
  H  H32  1  0.693500  0.584900  0.311400  1.0  0.0998
  H  H33  1  0.663900  0.598100  0.246000  1.0  0.0926
  H  H34  1  0.262900  0.514900  0.215300  1.0  0.4235
  H  H35  1  0.329700  0.429000  0.029900  1.0  0.1201
  H  H36  1  0.315800  0.469100  0.914400  1.0  0.1048
  H  H37  1  0.108200  0.870900  0.089300  1.0  0.0823
  H  H38  1  0.038500  0.827900  0.089300  1.0  0.0872
  H  H39  1  0.915100  0.806500  0.188600  1.0  0.1003
  H  H40  1  0.901900  0.836100  0.254000  1.0  0.0965
  H  H41  1  0.006900  0.262900  0.215300  1.0  0.4233
  H  H42  1  0.211400  0.329700  0.029900  1.0  0.1209
  H  H43  1  0.300700  0.315800  0.914400  1.0  0.1033
  H  H44  1  0.931600  0.108200  0.089300  1.0  0.0823
  H  H45  1  0.044300  0.038500  0.089300  1.0  0.0871
  H  H46  1  0.089800  0.915100  0.188600  1.0  0.0981
  H  H47  1  0.008000  0.901900  0.254000  1.0  0.0929
  H  H48  1  0.514900  0.006900  0.215300  1.0  0.4242
  H  H49  1  0.429000  0.211400  0.029900  1.0  0.1231
  H  H50  1  0.469100  0.300700  0.914400  1.0  0.1031
  H  H51  1  0.870900  0.931600  0.089300  1.0  0.0828
  H  H52  1  0.827900  0.044300  0.089300  1.0  0.0895
  H  H53  1  0.806500  0.089800  0.188600  1.0  0.1011
  H  H54  1  0.836100  0.008000  0.254000  1.0  0.094
  H  H55  1  0.762900  0.506900  0.715300  1.0  0.4241
  H  H56  1  0.829700  0.711400  0.529900  1.0  0.1232
  H  H57  1  0.815800  0.800700  0.414400  1.0  0.1036
  H  H58  1  0.608200  0.431600  0.589300  1.0  0.0832
  H  H59  1  0.538500  0.544300  0.589300  1.0  0.0893
  H  H60  1  0.415100  0.589800  0.688600  1.0  0.0995
  H  H61  1  0.401900  0.508000  0.754000  1.0  0.0918
  H  H62  1  0.506900  0.014900  0.715300  1.0  0.4234
  H  H63  1  0.711400  0.929000  0.529900  1.0  0.1215
  H  H64  1  0.800700  0.969100  0.414400  1.0  0.1036
  H  H65  1  0.431600  0.370900  0.589300  1.0  0.0825
  H  H66  1  0.544300  0.327900  0.589300  1.0  0.0882
  H  H67  1  0.589800  0.306500  0.688600  1.0  0.1006
  H  H68  1  0.508000  0.336100  0.754000  1.0  0.094
  H  H69  1  0.014900  0.762900  0.715300  1.0  0.4248
  H  H70  1  0.929000  0.829700  0.529900  1.0  0.1192
  H  H71  1  0.969100  0.815800  0.414400  1.0  0.104
  H  H72  1  0.370900  0.608200  0.589300  1.0  0.0832
  H  H73  1  0.327900  0.538500  0.589300  1.0  0.0876
  H  H74  1  0.306500  0.415100  0.688600  1.0  0.1014
  H  H75  1  0.336100  0.401900  0.754000  1.0  0.094
  H  H76  1  0.737100  0.485100  0.784700  1.0  0.4227
  H  H77  1  0.670300  0.571000  0.970100  1.0  0.12
  H  H78  1  0.684200  0.530900  0.085600  1.0  0.1043
  H  H79  1  0.891800  0.129100  0.910700  1.0  0.0823
  H  H80  1  0.961500  0.172100  0.910700  1.0  0.0873
  H  H81  1  0.084900  0.193500  0.811400  1.0  0.1009
  H  H82  1  0.098100  0.163900  0.746000  1.0  0.0958
  H  H83  1  0.993100  0.737100  0.784700  1.0  0.4226
  H  H84  1  0.788600  0.670300  0.970100  1.0  0.1204
  H  H85  1  0.699300  0.684200  0.085600  1.0  0.1037
  H  H86  1  0.068400  0.891800  0.910700  1.0  0.0822
  H  H87  1  0.955700  0.961500  0.910700  1.0  0.0889
  H  H88  1  0.910200  0.084900  0.811400  1.0  0.1012
  H  H89  1  0.992000  0.098100  0.746000  1.0  0.0938
  H  H90  1  0.485100  0.993100  0.784700  1.0  0.4233
  H  H91  1  0.571000  0.788600  0.970100  1.0  0.1224
  H  H92  1  0.530900  0.699300  0.085600  1.0  0.1041
  H  H93  1  0.129100  0.068400  0.910700  1.0  0.0833
  H  H94  1  0.172100  0.955700  0.910700  1.0  0.0888
  H  H95  1  0.193500  0.910200  0.811400  1.0  0.1018
  H  H96  1  0.163900  0.992000  0.746000  1.0  0.0924
  C  C97  1  0.273110  0.405610  0.395370  1.0  0.6988
  C  C98  1  0.262270  0.344970  0.464190  1.0  -0.1663
  C  C99  1  0.208470  0.291370  0.492390  1.0  -0.0683
  C  C100  1  0.216150  0.240450  0.558750  1.0  -0.0636
  C  C101  1  0.274520  0.256920  0.579840  1.0  -0.2079
  C  C102  1  0.298800  0.216300  0.646500  1.0  0.7412
  C  C103  1  0.458690  0.522390  0.393630  1.0  0.1194
  C  C104  1  0.581390  0.476990  0.295230  1.0  0.091
  C  C105  1  0.405610  0.925910  0.395370  1.0  0.6983
  C  C106  1  0.344970  0.928570  0.464190  1.0  -0.1686
  C  C107  1  0.291370  0.007770  0.492390  1.0  -0.0678
  C  C108  1  0.240450  0.984650  0.558750  1.0  -0.0629
  C  C109  1  0.256920  0.888720  0.579840  1.0  -0.2093
  C  C110  1  0.216300  0.838400  0.646500  1.0  0.7396
  C  C111  1  0.522390  0.625290  0.393630  1.0  0.1214
  C  C112  1  0.476990  0.646390  0.295230  1.0  0.0922
  C  C113  1  0.925910  0.273110  0.395370  1.0  0.6995
  C  C114  1  0.928570  0.262270  0.464190  1.0  -0.1674
  C  C115  1  0.007770  0.208470  0.492390  1.0  -0.0685
  C  C116  1  0.984650  0.216150  0.558750  1.0  -0.0629
  C  C117  1  0.888720  0.274520  0.579840  1.0  -0.2088
  C  C118  1  0.838400  0.298800  0.646500  1.0  0.7409
  C  C119  1  0.625290  0.458690  0.393630  1.0  0.1207
  C  C120  1  0.646390  0.581390  0.295230  1.0  0.0958
  C  C121  1  0.226890  0.574090  0.104630  1.0  0.6995
  C  C122  1  0.237730  0.571430  0.035810  1.0  -0.168
  C  C123  1  0.291530  0.492230  0.007610  1.0  -0.068
  C  C124  1  0.283850  0.515350  0.941250  1.0  -0.0629
  C  C125  1  0.225480  0.611280  0.920160  1.0  -0.2093
  C  C126  1  0.201200  0.661600  0.853500  1.0  0.7399
  C  C127  1  0.041310  0.874710  0.106370  1.0  0.1209
  C  C128  1  0.918610  0.853610  0.204770  1.0  0.0896
  C  C129  1  0.094390  0.226890  0.104630  1.0  0.7005
  C  C130  1  0.155030  0.237730  0.035810  1.0  -0.1686
  C  C131  1  0.208630  0.291530  0.007610  1.0  -0.0686
  C  C132  1  0.259550  0.283850  0.941250  1.0  -0.0639
  C  C133  1  0.243080  0.225480  0.920160  1.0  -0.2088
  C  C134  1  0.283700  0.201200  0.853500  1.0  0.7405
  C  C135  1  0.977610  0.041310  0.106370  1.0  0.1203
  C  C136  1  0.023010  0.918610  0.204770  1.0  0.0939
  C  C137  1  0.574090  0.094390  0.104630  1.0  0.7
  C  C138  1  0.571430  0.155030  0.035810  1.0  -0.1664
  C  C139  1  0.492230  0.208630  0.007610  1.0  -0.0693
  C  C140  1  0.515350  0.259550  0.941250  1.0  -0.0623
  C  C141  1  0.611280  0.243080  0.920160  1.0  -0.2081
  C  C142  1  0.661600  0.283700  0.853500  1.0  0.7392
  C  C143  1  0.874710  0.977610  0.106370  1.0  0.1207
  C  C144  1  0.853610  0.023010  0.204770  1.0  0.09
  C  C145  1  0.726890  0.594390  0.604630  1.0  0.6993
  C  C146  1  0.737730  0.655030  0.535810  1.0  -0.1681
  C  C147  1  0.791530  0.708630  0.507610  1.0  -0.0681
  C  C148  1  0.783850  0.759550  0.441250  1.0  -0.0638
  C  C149  1  0.725480  0.743080  0.420160  1.0  -0.2083
  C  C150  1  0.701200  0.783700  0.353500  1.0  0.7391
  C  C151  1  0.541310  0.477610  0.606370  1.0  0.1214
  C  C152  1  0.418610  0.523010  0.704770  1.0  0.0915
  C  C153  1  0.594390  0.074090  0.604630  1.0  0.6995
  C  C154  1  0.655030  0.071430  0.535810  1.0  -0.168
  C  C155  1  0.708630  0.992230  0.507610  1.0  -0.0681
  C  C156  1  0.759550  0.015350  0.441250  1.0  -0.0632
  C  C157  1  0.743080  0.111280  0.420160  1.0  -0.2091
  C  C158  1  0.783700  0.161600  0.353500  1.0  0.7403
  C  C159  1  0.477610  0.374710  0.606370  1.0  0.121
  C  C160  1  0.523010  0.353610  0.704770  1.0  0.0919
  C  C161  1  0.074090  0.726890  0.604630  1.0  0.6995
  C  C162  1  0.071430  0.737730  0.535810  1.0  -0.1663
  C  C163  1  0.992230  0.791530  0.507610  1.0  -0.0694
  C  C164  1  0.015350  0.783850  0.441250  1.0  -0.0624
  C  C165  1  0.111280  0.725480  0.420160  1.0  -0.2086
  C  C166  1  0.161600  0.701200  0.353500  1.0  0.7405
  C  C167  1  0.374710  0.541310  0.606370  1.0  0.1214
  C  C168  1  0.353610  0.418610  0.704770  1.0  0.097
  C  C169  1  0.773110  0.425910  0.895370  1.0  0.6982
  C  C170  1  0.762270  0.428570  0.964190  1.0  -0.1689
  C  C171  1  0.708470  0.507770  0.992390  1.0  -0.0666
  C  C172  1  0.716150  0.484650  0.058750  1.0  -0.0625
  C  C173  1  0.774520  0.388720  0.079840  1.0  -0.2097
  C  C174  1  0.798800  0.338400  0.146500  1.0  0.7408
  C  C175  1  0.958690  0.125290  0.893630  1.0  0.1209
  C  C176  1  0.081390  0.146390  0.795230  1.0  0.0896
  C  C177  1  0.905610  0.773110  0.895370  1.0  0.7001
  C  C178  1  0.844970  0.762270  0.964190  1.0  -0.1664
  C  C179  1  0.791370  0.708470  0.992390  1.0  -0.0686
  C  C180  1  0.740450  0.716150  0.058750  1.0  -0.0641
  C  C181  1  0.756920  0.774520  0.079840  1.0  -0.2082
  C  C182  1  0.716300  0.798800  0.146500  1.0  0.7417
  C  C183  1  0.022390  0.958690  0.893630  1.0  0.1204
  C  C184  1  0.976990  0.081390  0.795230  1.0  0.0927
  C  C185  1  0.425910  0.905610  0.895370  1.0  0.6993
  C  C186  1  0.428570  0.844970  0.964190  1.0  -0.1675
  C  C187  1  0.507770  0.791370  0.992390  1.0  -0.0691
  C  C188  1  0.484650  0.740450  0.058750  1.0  -0.0631
  C  C189  1  0.388720  0.756920  0.079840  1.0  -0.2083
  C  C190  1  0.338400  0.716300  0.146500  1.0  0.7398
  C  C191  1  0.125290  0.022390  0.893630  1.0  0.1197
  C  C192  1  0.146390  0.976990  0.795230  1.0  0.0897
  S  S193  1  0.322760  0.332750  0.518460  1.0  0.1349
  S  S194  1  0.332750  0.826030  0.518460  1.0  0.1401
  S  S195  1  0.826030  0.322760  0.518460  1.0  0.1369
  S  S196  1  0.177240  0.673970  0.981540  1.0  0.1383
  S  S197  1  0.167250  0.177240  0.981540  1.0  0.1377
  S  S198  1  0.673970  0.167250  0.981540  1.0  0.135
  S  S199  1  0.677240  0.667250  0.481540  1.0  0.1365
  S  S200  1  0.667250  0.173970  0.481540  1.0  0.1384
  S  S201  1  0.173970  0.677240  0.481540  1.0  0.1375
  S  S202  1  0.822760  0.326030  0.018460  1.0  0.1407
  S  S203  1  0.832750  0.822760  0.018460  1.0  0.1353
  S  S204  1  0.326030  0.832750  0.018460  1.0  0.137
  N  N205  1  0.480830  0.547130  0.318810  1.0  -0.316
  N  N206  1  0.547130  0.653230  0.318810  1.0  -0.3183
  N  N207  1  0.653230  0.480830  0.318810  1.0  -0.3155
  N  N208  1  0.019170  0.846770  0.181190  1.0  -0.3149
  N  N209  1  0.952870  0.019170  0.181190  1.0  -0.3159
  N  N210  1  0.846770  0.952870  0.181190  1.0  -0.3126
  N  N211  1  0.519170  0.452870  0.681190  1.0  -0.3159
  N  N212  1  0.452870  0.346770  0.681190  1.0  -0.3156
  N  N213  1  0.346770  0.519170  0.681190  1.0  -0.3146
  N  N214  1  0.980830  0.153230  0.818810  1.0  -0.3179
  N  N215  1  0.047130  0.980830  0.818810  1.0  -0.3165
  N  N216  1  0.153230  0.047130  0.818810  1.0  -0.3126
  N  N217  1  0.527440  0.527440  0.417680  1.0  -0.3222
  N  N218  1  0.972560  0.972560  0.082320  1.0  -0.3215
  N  N219  1  0.472560  0.472560  0.582320  1.0  -0.3215
  N  N220  1  0.027440  0.027440  0.917680  1.0  -0.3222
  O  O221  1  0.341670  0.432630  0.375690  1.0  -0.6595
  O  O222  1  0.215380  0.424380  0.362760  1.0  -0.5883
  O  O223  1  0.272890  0.149710  0.684570  1.0  -0.6488
  O  O224  1  0.343140  0.251380  0.658080  1.0  -0.6424
  O  O225  1  0.432630  0.850010  0.375690  1.0  -0.6611
  O  O226  1  0.424380  0.997480  0.362760  1.0  -0.5898
  O  O227  1  0.149710  0.892830  0.684570  1.0  -0.648
  O  O228  1  0.251380  0.747400  0.658080  1.0  -0.6421
  O  O229  1  0.850010  0.341670  0.375690  1.0  -0.6611
  O  O230  1  0.997480  0.215380  0.362760  1.0  -0.5922
  O  O231  1  0.892830  0.272890  0.684570  1.0  -0.6485
  O  O232  1  0.747400  0.343140  0.658080  1.0  -0.6411
  O  O233  1  0.158330  0.649990  0.124310  1.0  -0.6583
  O  O234  1  0.284620  0.502520  0.137240  1.0  -0.5883
  O  O235  1  0.227110  0.607170  0.815430  1.0  -0.6493
  O  O236  1  0.156860  0.752600  0.841920  1.0  -0.6419
  O  O237  1  0.067370  0.158330  0.124310  1.0  -0.6609
  O  O238  1  0.075620  0.284620  0.137240  1.0  -0.5889
  O  O239  1  0.350290  0.227110  0.815430  1.0  -0.6476
  O  O240  1  0.248620  0.156860  0.841920  1.0  -0.6404
  O  O241  1  0.649990  0.067370  0.124310  1.0  -0.6587
  O  O242  1  0.502520  0.075620  0.137240  1.0  -0.5888
  O  O243  1  0.607170  0.350290  0.815430  1.0  -0.6469
  O  O244  1  0.752600  0.248620  0.841920  1.0  -0.6433
  O  O245  1  0.658330  0.567370  0.624310  1.0  -0.6571
  O  O246  1  0.784620  0.575620  0.637240  1.0  -0.5887
  O  O247  1  0.727110  0.850290  0.315430  1.0  -0.6483
  O  O248  1  0.656860  0.748620  0.341920  1.0  -0.6426
  O  O249  1  0.567370  0.149990  0.624310  1.0  -0.6599
  O  O250  1  0.575620  0.002520  0.637240  1.0  -0.5889
  O  O251  1  0.850290  0.107170  0.315430  1.0  -0.6483
  O  O252  1  0.748620  0.252600  0.341920  1.0  -0.6424
  O  O253  1  0.149990  0.658330  0.624310  1.0  -0.6637
  O  O254  1  0.002520  0.784620  0.637240  1.0  -0.5904
  O  O255  1  0.107170  0.727110  0.315430  1.0  -0.6482
  O  O256  1  0.252600  0.656860  0.341920  1.0  -0.6409
  O  O257  1  0.841670  0.350010  0.875690  1.0  -0.6592
  O  O258  1  0.715380  0.497480  0.862760  1.0  -0.5887
  O  O259  1  0.772890  0.392830  0.184570  1.0  -0.6495
  O  O260  1  0.843140  0.247400  0.158080  1.0  -0.642
  O  O261  1  0.932630  0.841670  0.875690  1.0  -0.664
  O  O262  1  0.924380  0.715380  0.862760  1.0  -0.5896
  O  O263  1  0.649710  0.772890  0.184570  1.0  -0.647
  O  O264  1  0.751380  0.843140  0.158080  1.0  -0.6402
  O  O265  1  0.350010  0.932630  0.875690  1.0  -0.6587
  O  O266  1  0.497480  0.924380  0.862760  1.0  -0.5901
  O  O267  1  0.392830  0.649710  0.184570  1.0  -0.6485
  O  O268  1  0.247400  0.751380  0.158080  1.0  -0.6431
  O  O269  1  0.250000  0.535050  0.250000  1.0  -0.812
  O  O270  1  0.535050  0.964950  0.250000  1.0  -0.8132
  O  O271  1  0.964950  0.250000  0.250000  1.0  -0.812
  O  O272  1  0.750000  0.464950  0.750000  1.0  -0.8133
  O  O273  1  0.464950  0.035050  0.750000  1.0  -0.8113
  O  O274  1  0.035050  0.750000  0.750000  1.0  -0.8127
