# generated using pymatgen
data_La(CO2)4
_symmetry_space_group_name_H-M   'P 1'
_cell_length_a   10.01600000
_cell_length_b   11.38000000
_cell_length_c   12.82100000
_cell_angle_alpha   80.39000000
_cell_angle_beta   80.65000000
_cell_angle_gamma   66.34000000
_symmetry_Int_Tables_number   1
_chemical_formula_structural   La(CO2)4
_chemical_formula_sum   'La4 C16 O32'
_cell_volume   1312.34744296
_cell_formula_units_Z   4
loop_
 _symmetry_equiv_pos_site_id
 _symmetry_equiv_pos_as_xyz
  1  'x, y, z'
loop_
 _atom_site_type_symbol
 _atom_site_label
 _atom_site_symmetry_multiplicity
 _atom_site_fract_x
 _atom_site_fract_y
 _atom_site_fract_z
 _atom_site_occupancy
 _atom_site_charge
  La  La1  1  0.698620  0.891860  0.788180  1.0  2.0486
  La  La2  1  0.380250  0.512110  0.749610  1.0  2.0432
  La  La3  1  0.301380  0.108140  0.211820  1.0  2.0493
  La  La4  1  0.619750  0.487890  0.250390  1.0  2.0423
  C  C5  1  0.547000  0.676600  0.826500  1.0  0.5745
  C  C6  1  0.519600  0.739800  0.716200  1.0  0.5918
  C  C7  1  0.600100  0.206100  0.789300  1.0  0.5473
  C  C8  1  0.508000  0.201800  0.713700  1.0  0.5936
  C  C9  1  0.056700  0.736900  0.803400  1.0  0.5529
  C  C10  1  0.020000  0.637900  0.759200  1.0  0.5841
  C  C11  1  0.580000  0.465700  0.509800  1.0  0.5768
  C  C12  1  0.432200  0.029800  0.966800  1.0  0.5799
  C  C13  1  0.453000  0.323400  0.173500  1.0  0.5757
  C  C14  1  0.480400  0.260200  0.283800  1.0  0.5922
  C  C15  1  0.399900  0.793900  0.210700  1.0  0.5644
  C  C16  1  0.492000  0.798200  0.286300  1.0  0.592
  C  C17  1  0.943300  0.263100  0.196600  1.0  0.553
  C  C18  1  0.980000  0.362100  0.240800  1.0  0.5849
  C  C19  1  0.420000  0.534300  0.490200  1.0  0.574
  C  C20  1  0.567800  0.970200  0.033200  1.0  0.5797
  O  O21  1  0.450600  0.698300  0.667600  1.0  -0.5417
  O  O22  1  0.565300  0.826500  0.681600  1.0  -0.5419
  O  O23  1  0.607600  0.717000  0.881000  1.0  -0.5324
  O  O24  1  0.509100  0.581100  0.862200  1.0  -0.5548
  O  O25  1  0.398200  0.300100  0.696200  1.0  -0.5376
  O  O26  1  0.580000  0.310500  0.826400  1.0  -0.5429
  O  O27  1  0.541500  0.092800  0.689100  1.0  -0.5636
  O  O28  1  0.711200  0.100300  0.818400  1.0  -0.5304
  O  O29  1  0.951400  0.840200  0.829100  1.0  -0.5631
  O  O30  1  0.888300  0.671900  0.748100  1.0  -0.5557
  O  O31  1  0.122200  0.536300  0.741700  1.0  -0.5366
  O  O32  1  0.186700  0.716500  0.806600  1.0  -0.5373
  O  O33  1  0.599400  0.439400  0.609700  1.0  -0.5422
  O  O34  1  0.677700  0.434400  0.435500  1.0  -0.5115
  O  O35  1  0.447700  0.008700  0.874900  1.0  -0.5676
  O  O36  1  0.315700  0.103400  0.015900  1.0  -0.5404
  O  O37  1  0.549400  0.301700  0.332400  1.0  -0.5415
  O  O38  1  0.434700  0.173500  0.318400  1.0  -0.5412
  O  O39  1  0.392400  0.283000  0.119000  1.0  -0.5348
  O  O40  1  0.490900  0.418900  0.137800  1.0  -0.5554
  O  O41  1  0.601800  0.699900  0.303800  1.0  -0.5388
  O  O42  1  0.420000  0.689500  0.173600  1.0  -0.5454
  O  O43  1  0.458500  0.907200  0.310900  1.0  -0.5711
  O  O44  1  0.288800  0.899700  0.181600  1.0  -0.5301
  O  O45  1  0.048600  0.159800  0.170900  1.0  -0.5636
  O  O46  1  0.111700  0.328100  0.251900  1.0  -0.5575
  O  O47  1  0.877800  0.463700  0.258300  1.0  -0.5365
  O  O48  1  0.813300  0.283500  0.193400  1.0  -0.5291
  O  O49  1  0.400600  0.560600  0.390300  1.0  -0.5497
  O  O50  1  0.322300  0.565600  0.564500  1.0  -0.5096
  O  O51  1  0.552300  0.991300  0.125100  1.0  -0.5683
  O  O52  1  0.684300  0.896600  0.984100  1.0  -0.5279
