# generated using pymatgen
data_Na2Zn5H20C40S4(N3O7)4
_symmetry_space_group_name_H-M   'P 1'
_cell_length_a   9.70120000
_cell_length_b   12.44200000
_cell_length_c   17.21800000
_cell_angle_alpha   89.83000000
_cell_angle_beta   75.01000000
_cell_angle_gamma   73.33000000
_symmetry_Int_Tables_number   1
_chemical_formula_structural   Na2Zn5H20C40S4(N3O7)4
_chemical_formula_sum   'Na2 Zn5 H20 C40 S4 N12 O28'
_cell_volume   1917.45520738
_cell_formula_units_Z   1
loop_
 _symmetry_equiv_pos_site_id
 _symmetry_equiv_pos_as_xyz
  1  'x, y, z'
loop_
 _atom_site_type_symbol
 _atom_site_label
 _atom_site_symmetry_multiplicity
 _atom_site_fract_x
 _atom_site_fract_y
 _atom_site_fract_z
 _atom_site_occupancy
 _atom_site_charge
  Na  Na1  1  0.233350  0.444510  0.274290  1.0  0.959
  Na  Na2  1  0.766650  0.555490  0.725710  1.0  0.9535
  Zn  Zn3  1  0.351640  0.192910  0.183700  1.0  0.9282
  Zn  Zn4  1  0.960830  0.886840  0.193380  1.0  1.0144
  Zn  Zn5  1  0.648360  0.807090  0.816300  1.0  0.9288
  Zn  Zn6  1  0.039170  0.113160  0.806620  1.0  1.0128
  Zn  Zn7  1  0.000000  0.000000  0.000000  1.0  0.8707
  H  H8  1  0.646800  0.125400  0.044900  1.0  0.1034
  H  H9  1  0.596200  0.022500  0.262200  1.0  0.1157
  H  H10  1  0.180000  0.010400  0.250000  1.0  0.0981
  H  H11  1  0.214700  0.142500  0.042600  1.0  0.1014
  H  H12  1  0.271100  0.683000  0.898400  1.0  0.1287
  H  H13  1  0.176600  0.543100  0.110900  1.0  0.1227
  H  H14  1  0.475800  0.352200  0.914900  1.0  0.1386
  H  H15  1  0.882000  0.312900  0.633100  1.0  0.1341
  H  H16  1  0.256200  0.094100  0.488400  1.0  0.1343
  H  H17  1  0.010000  0.358900  0.396400  1.0  0.1236
  H  H18  1  0.353200  0.874600  0.955100  1.0  0.1045
  H  H19  1  0.403800  0.977500  0.737800  1.0  0.1164
  H  H20  1  0.820000  0.989600  0.750000  1.0  0.1
  H  H21  1  0.785300  0.857500  0.957400  1.0  0.1017
  H  H22  1  0.728900  0.317000  0.101600  1.0  0.1281
  H  H23  1  0.823400  0.456900  0.889100  1.0  0.1228
  H  H24  1  0.524200  0.647800  0.085100  1.0  0.1384
  H  H25  1  0.118000  0.687100  0.366900  1.0  0.1345
  H  H26  1  0.743800  0.905900  0.511600  1.0  0.1346
  H  H27  1  0.990000  0.641100  0.603600  1.0  0.1234
  C  C28  1  0.666100  0.088200  0.090900  1.0  0.2472
  C  C29  1  0.638900  0.032900  0.207600  1.0  0.255
  C  C30  1  0.170100  0.028400  0.197700  1.0  0.2588
  C  C31  1  0.188400  0.099100  0.086400  1.0  0.2462
  C  C32  1  0.384500  0.516500  0.895400  1.0  -0.2291
  C  C33  1  0.285200  0.619800  0.929800  1.0  0.0187
  C  C34  1  0.206900  0.629700  0.010400  1.0  -0.1206
  C  C35  1  0.229100  0.536200  0.055500  1.0  -0.0095
  C  C36  1  0.328500  0.431800  0.019800  1.0  -0.1101
  C  C37  1  0.407300  0.422100  0.939500  1.0  -0.001
  C  C38  1  0.101800  0.742500  0.048900  1.0  0.738
  C  C39  1  0.350700  0.330000  0.066500  1.0  0.6897
  C  C40  1  0.925400  0.347400  0.515500  1.0  -0.2045
  C  C41  1  0.949700  0.289100  0.581300  1.0  -0.0012
  C  C42  1  0.074600  0.194500  0.571300  1.0  -0.1369
  C  C43  1  0.173100  0.159700  0.495500  1.0  -0.0005
  C  C44  1  0.150100  0.220700  0.430200  1.0  -0.126
  C  C45  1  0.025300  0.316100  0.440800  1.0  0.0091
  C  C46  1  0.102400  0.129700  0.642300  1.0  0.739
  C  C47  1  0.253300  0.181700  0.348300  1.0  0.7137
  C  C48  1  0.333900  0.911800  0.909100  1.0  0.2492
  C  C49  1  0.361100  0.967100  0.792400  1.0  0.2569
  C  C50  1  0.829900  0.971600  0.802300  1.0  0.2592
  C  C51  1  0.811600  0.900900  0.913600  1.0  0.2486
  C  C52  1  0.615500  0.483500  0.104600  1.0  -0.2262
  C  C53  1  0.714800  0.380200  0.070200  1.0  0.02
  C  C54  1  0.793100  0.370300  0.989600  1.0  -0.1203
  C  C55  1  0.770900  0.463800  0.944500  1.0  -0.01
  C  C56  1  0.671500  0.568200  0.980200  1.0  -0.1116
  C  C57  1  0.592700  0.577900  0.060500  1.0  -1e-04
  C  C58  1  0.898200  0.257500  0.951100  1.0  0.7374
  C  C59  1  0.649300  0.670000  0.933500  1.0  0.6886
  C  C60  1  0.074600  0.652600  0.484500  1.0  -0.2021
  C  C61  1  0.050300  0.710900  0.418700  1.0  0.0003
  C  C62  1  0.925400  0.805500  0.428700  1.0  -0.1359
  C  C63  1  0.826900  0.840300  0.504500  1.0  0.0006
  C  C64  1  0.849900  0.779300  0.569800  1.0  -0.1267
  C  C65  1  0.974700  0.683900  0.559200  1.0  0.0099
  C  C66  1  0.897600  0.870300  0.357700  1.0  0.7383
  C  C67  1  0.746700  0.818300  0.651700  1.0  0.713
  S  S68  1  0.480990  0.502470  0.792330  1.0  1.3987
  S  S69  1  0.755160  0.457160  0.526220  1.0  1.4027
  S  S70  1  0.519010  0.497530  0.207670  1.0  1.3989
  S  S71  1  0.244840  0.542840  0.473780  1.0  1.4044
  N  N72  1  0.563900  0.100700  0.161550  1.0  -0.4031
  N  N73  1  0.797300  0.018300  0.091740  1.0  -0.208
  N  N74  1  0.778900  0.982600  0.167630  1.0  -0.2367
  N  N75  1  0.230500  0.100900  0.154490  1.0  -0.3865
  N  N76  1  0.094800  0.984500  0.158980  1.0  -0.2432
  N  N77  1  0.106700  0.030800  0.086490  1.0  -0.2193
  N  N78  1  0.436100  0.899300  0.838450  1.0  -0.4025
  N  N79  1  0.202700  0.981700  0.908260  1.0  -0.2092
  N  N80  1  0.221100  0.017400  0.832370  1.0  -0.2366
  N  N81  1  0.769500  0.899100  0.845510  1.0  -0.3876
  N  N82  1  0.905200  0.015500  0.841020  1.0  -0.242
  N  N83  1  0.893300  0.969200  0.913510  1.0  -0.2181
  O  O84  1  0.086000  0.822900  0.006360  1.0  -0.5937
  O  O85  1  0.037900  0.745800  0.123000  1.0  -0.585
  O  O86  1  0.419800  0.235200  0.030990  1.0  -0.5924
  O  O87  1  0.294200  0.345200  0.142910  1.0  -0.6515
  O  O88  1  0.390000  0.459500  0.751370  1.0  -0.6328
  O  O89  1  0.484200  0.614900  0.770030  1.0  -0.7065
  O  O90  1  0.628600  0.424100  0.783010  1.0  -0.6593
  O  O91  1  0.206400  0.044000  0.634700  1.0  -0.461
  O  O92  1  0.012500  0.173200  0.708330  1.0  -0.5818
  O  O93  1  0.247200  0.254400  0.296190  1.0  -0.6424
  O  O94  1  0.336200  0.082700  0.334500  1.0  -0.5524
  O  O95  1  0.777800  0.527200  0.459980  1.0  -0.6151
  O  O96  1  0.718800  0.517200  0.603320  1.0  -0.7595
  O  O97  1  0.647900  0.397500  0.521000  1.0  -0.5932
  O  O98  1  0.914000  0.177100  0.993640  1.0  -0.5945
  O  O99  1  0.962100  0.254200  0.877000  1.0  -0.5859
  O  O100  1  0.580200  0.764800  0.969010  1.0  -0.5883
  O  O101  1  0.705800  0.654800  0.857090  1.0  -0.6537
  O  O102  1  0.610000  0.540500  0.248630  1.0  -0.6324
  O  O103  1  0.515800  0.385100  0.229970  1.0  -0.7067
  O  O104  1  0.371400  0.575900  0.216990  1.0  -0.6575
  O  O105  1  0.793600  0.956000  0.365300  1.0  -0.462
  O  O106  1  0.987500  0.826800  0.291670  1.0  -0.5808
  O  O107  1  0.752800  0.745600  0.703810  1.0  -0.6409
  O  O108  1  0.663800  0.917300  0.665500  1.0  -0.5537
  O  O109  1  0.222200  0.472800  0.540020  1.0  -0.613
  O  O110  1  0.281200  0.482800  0.396680  1.0  -0.757
  O  O111  1  0.352100  0.602500  0.479000  1.0  -0.5958
