# generated using pymatgen
data_Fe2AgH28C26(N2O5)2
_symmetry_space_group_name_H-M   'P 1'
_cell_length_a   7.66340000
_cell_length_b   9.68250000
_cell_length_c   27.11050000
_cell_angle_alpha   90.00000000
_cell_angle_beta   90.00000000
_cell_angle_gamma   90.00000000
_symmetry_Int_Tables_number   1
_chemical_formula_structural   Fe2AgH28C26(N2O5)2
_chemical_formula_sum   'Fe4 Ag2 H56 C52 N8 O20'
_cell_volume   2011.62269969
_cell_formula_units_Z   2
loop_
 _symmetry_equiv_pos_site_id
 _symmetry_equiv_pos_as_xyz
  1  'x, y, z'
loop_
 _atom_site_type_symbol
 _atom_site_label
 _atom_site_symmetry_multiplicity
 _atom_site_fract_x
 _atom_site_fract_y
 _atom_site_fract_z
 _atom_site_occupancy
 _atom_site_charge
  Fe  Fe1  1  0.500000  0.500000  0.943650  1.0  0.8963
  Fe  Fe2  1  0.500000  0.500000  0.556350  1.0  0.8966
  Fe  Fe3  1  0.500000  0.500000  0.056350  1.0  0.8966
  Fe  Fe4  1  0.500000  0.500000  0.443650  1.0  0.8963
  Ag  Ag5  1  0.000000  0.000000  0.750000  1.0  0.3839
  Ag  Ag6  1  0.000000  0.000000  0.250000  1.0  0.3839
  H  H7  1  0.038000  0.629800  0.877500  1.0  0.1259
  H  H8  1  0.006000  0.787100  0.893100  1.0  0.1279
  H  H9  1  0.031100  0.671300  0.934600  1.0  0.1412
  H  H10  1  0.692100  0.216200  0.024000  1.0  0.1902
  H  H11  1  0.464700  0.814600  0.798000  1.0  0.1331
  H  H12  1  0.295200  0.732100  0.815900  1.0  0.1452
  H  H13  1  0.348100  0.874100  0.842100  1.0  0.1437
  H  H14  1  0.962000  0.370200  0.877500  1.0  0.1257
  H  H15  1  0.994000  0.212900  0.893100  1.0  0.1266
  H  H16  1  0.968900  0.328700  0.934600  1.0  0.1409
  H  H17  1  0.307900  0.783800  0.024000  1.0  0.1901
  H  H18  1  0.535300  0.185400  0.798000  1.0  0.1338
  H  H19  1  0.704800  0.267900  0.815900  1.0  0.1459
  H  H20  1  0.651900  0.125900  0.842100  1.0  0.1448
  H  H21  1  0.962000  0.629800  0.622500  1.0  0.126
  H  H22  1  0.994000  0.787100  0.606900  1.0  0.1277
  H  H23  1  0.968900  0.671300  0.565400  1.0  0.1403
  H  H24  1  0.307900  0.216200  0.476000  1.0  0.1894
  H  H25  1  0.535300  0.814600  0.702000  1.0  0.1334
  H  H26  1  0.704800  0.732100  0.684100  1.0  0.1456
  H  H27  1  0.651900  0.874100  0.657900  1.0  0.1446
  H  H28  1  0.038000  0.370200  0.622500  1.0  0.126
  H  H29  1  0.006000  0.212900  0.606900  1.0  0.1269
  H  H30  1  0.031100  0.328700  0.565400  1.0  0.1406
  H  H31  1  0.692100  0.783800  0.476000  1.0  0.1903
  H  H32  1  0.464700  0.185400  0.702000  1.0  0.1336
  H  H33  1  0.295200  0.267900  0.684100  1.0  0.1453
  H  H34  1  0.348100  0.125900  0.657900  1.0  0.1445
  H  H35  1  0.962000  0.370200  0.122500  1.0  0.1256
  H  H36  1  0.994000  0.212900  0.106900  1.0  0.1268
  H  H37  1  0.968900  0.328700  0.065400  1.0  0.1405
  H  H38  1  0.307900  0.783800  0.976000  1.0  0.1904
  H  H39  1  0.535300  0.185400  0.202000  1.0  0.1335
  H  H40  1  0.704800  0.267900  0.184100  1.0  0.1453
  H  H41  1  0.651900  0.125900  0.157900  1.0  0.1446
  H  H42  1  0.038000  0.629800  0.122500  1.0  0.1264
  H  H43  1  0.006000  0.787100  0.106900  1.0  0.128
  H  H44  1  0.031100  0.671300  0.065400  1.0  0.1402
  H  H45  1  0.692100  0.216200  0.976000  1.0  0.1898
  H  H46  1  0.464700  0.814600  0.202000  1.0  0.1334
  H  H47  1  0.295200  0.732100  0.184100  1.0  0.1452
  H  H48  1  0.348100  0.874100  0.157900  1.0  0.1443
  H  H49  1  0.038000  0.370200  0.377500  1.0  0.1258
  H  H50  1  0.006000  0.212900  0.393100  1.0  0.1267
  H  H51  1  0.031100  0.328700  0.434600  1.0  0.1415
  H  H52  1  0.692100  0.783800  0.524000  1.0  0.1907
  H  H53  1  0.464700  0.185400  0.298000  1.0  0.1334
  H  H54  1  0.295200  0.267900  0.315900  1.0  0.1455
  H  H55  1  0.348100  0.125900  0.342100  1.0  0.1447
  H  H56  1  0.962000  0.629800  0.377500  1.0  0.1257
  H  H57  1  0.994000  0.787100  0.393100  1.0  0.1277
  H  H58  1  0.968900  0.671300  0.434600  1.0  0.1408
  H  H59  1  0.307900  0.216200  0.524000  1.0  0.1892
  H  H60  1  0.535300  0.814600  0.298000  1.0  0.1336
  H  H61  1  0.704800  0.732100  0.315900  1.0  0.1458
  H  H62  1  0.651900  0.874100  0.342100  1.0  0.1442
  C  C63  1  0.983000  0.690600  0.901900  1.0  -0.4065
  C  C64  1  0.792000  0.665900  0.902300  1.0  0.3449
  C  C65  1  0.684400  0.724600  0.865200  1.0  -0.0249
  C  C66  1  0.503200  0.710700  0.863500  1.0  0.3642
  C  C67  1  0.393100  0.789900  0.826600  1.0  -0.3899
  C  C68  1  0.767100  0.807600  0.829100  1.0  0.3652
  C  C69  1  0.017000  0.309400  0.901900  1.0  -0.4069
  C  C70  1  0.208000  0.334100  0.902300  1.0  0.3471
  C  C71  1  0.315600  0.275400  0.865200  1.0  -0.0249
  C  C72  1  0.496800  0.289300  0.863500  1.0  0.3647
  C  C73  1  0.606900  0.210100  0.826600  1.0  -0.3909
  C  C74  1  0.232900  0.192400  0.829100  1.0  0.3658
  C  C75  1  0.017000  0.690600  0.598100  1.0  -0.4065
  C  C76  1  0.208000  0.665900  0.597700  1.0  0.3478
  C  C77  1  0.315600  0.724600  0.634800  1.0  -0.0241
  C  C78  1  0.496800  0.710700  0.636500  1.0  0.3648
  C  C79  1  0.606900  0.789900  0.673400  1.0  -0.3912
  C  C80  1  0.232900  0.807600  0.670900  1.0  0.3643
  C  C81  1  0.983000  0.309400  0.598100  1.0  -0.4067
  C  C82  1  0.792000  0.334100  0.597700  1.0  0.3461
  C  C83  1  0.684400  0.275400  0.634800  1.0  -0.025
  C  C84  1  0.503200  0.289300  0.636500  1.0  0.3657
  C  C85  1  0.393100  0.210100  0.673400  1.0  -0.391
  C  C86  1  0.767100  0.192400  0.670900  1.0  0.365
  C  C87  1  0.017000  0.309400  0.098100  1.0  -0.4068
  C  C88  1  0.208000  0.334100  0.097700  1.0  0.348
  C  C89  1  0.315600  0.275400  0.134800  1.0  -0.0244
  C  C90  1  0.496800  0.289300  0.136500  1.0  0.3656
  C  C91  1  0.606900  0.210100  0.173400  1.0  -0.3915
  C  C92  1  0.232900  0.192400  0.170900  1.0  0.3649
  C  C93  1  0.983000  0.690600  0.098100  1.0  -0.4067
  C  C94  1  0.792000  0.665900  0.097700  1.0  0.3465
  C  C95  1  0.684400  0.724600  0.134800  1.0  -0.0247
  C  C96  1  0.503200  0.710700  0.136500  1.0  0.3648
  C  C97  1  0.393100  0.789900  0.173400  1.0  -0.3906
  C  C98  1  0.767100  0.807600  0.170900  1.0  0.3647
  C  C99  1  0.983000  0.309400  0.401900  1.0  -0.4066
  C  C100  1  0.792000  0.334100  0.402300  1.0  0.3448
  C  C101  1  0.684400  0.275400  0.365200  1.0  -0.0253
  C  C102  1  0.503200  0.289300  0.363500  1.0  0.3648
  C  C103  1  0.393100  0.210100  0.326600  1.0  -0.39
  C  C104  1  0.767100  0.192400  0.329100  1.0  0.365
  C  C105  1  0.017000  0.690600  0.401900  1.0  -0.4065
  C  C106  1  0.208000  0.665900  0.402300  1.0  0.3466
  C  C107  1  0.315600  0.724600  0.365200  1.0  -0.0244
  C  C108  1  0.496800  0.710700  0.363500  1.0  0.3642
  C  C109  1  0.606900  0.789900  0.326600  1.0  -0.391
  C  C110  1  0.232900  0.807600  0.329100  1.0  0.3658
  C  C111  1  0.601000  0.239900  0.000000  1.0  0.4085
  C  C112  1  0.399000  0.760100  0.000000  1.0  0.4073
  C  C113  1  0.399000  0.239900  0.500000  1.0  0.41
  C  C114  1  0.601000  0.760100  0.500000  1.0  0.4065
  N  N115  1  0.834500  0.871300  0.798400  1.0  -0.4964
  N  N116  1  0.165500  0.128700  0.798400  1.0  -0.4966
  N  N117  1  0.165500  0.871300  0.701600  1.0  -0.4969
  N  N118  1  0.834500  0.128700  0.701600  1.0  -0.4964
  N  N119  1  0.165500  0.128700  0.201600  1.0  -0.4964
  N  N120  1  0.834500  0.871300  0.201600  1.0  -0.4971
  N  N121  1  0.834500  0.128700  0.298400  1.0  -0.4965
  N  N122  1  0.165500  0.871300  0.298400  1.0  -0.4963
  O  O123  1  0.734700  0.588600  0.935630  1.0  -0.5875
  O  O124  1  0.417700  0.637200  0.892810  1.0  -0.5666
  O  O125  1  0.265300  0.411400  0.935630  1.0  -0.5875
  O  O126  1  0.582300  0.362800  0.892810  1.0  -0.5672
  O  O127  1  0.265300  0.588600  0.564370  1.0  -0.5871
  O  O128  1  0.582300  0.637200  0.607190  1.0  -0.5676
  O  O129  1  0.734700  0.411400  0.564370  1.0  -0.5862
  O  O130  1  0.417700  0.362800  0.607190  1.0  -0.5667
  O  O131  1  0.265300  0.411400  0.064370  1.0  -0.5869
  O  O132  1  0.582300  0.362800  0.107190  1.0  -0.5676
  O  O133  1  0.734700  0.588600  0.064370  1.0  -0.5863
  O  O134  1  0.417700  0.637200  0.107190  1.0  -0.5665
  O  O135  1  0.734700  0.411400  0.435630  1.0  -0.587
  O  O136  1  0.417700  0.362800  0.392810  1.0  -0.5664
  O  O137  1  0.265300  0.588600  0.435630  1.0  -0.5881
  O  O138  1  0.582300  0.637200  0.392810  1.0  -0.5675
  O  O139  1  0.574800  0.386500  0.000000  1.0  -0.7176
  O  O140  1  0.425200  0.613500  0.000000  1.0  -0.719
  O  O141  1  0.425200  0.386500  0.500000  1.0  -0.7174
  O  O142  1  0.574800  0.613500  0.500000  1.0  -0.719
