# generated using pymatgen
data_MgH8(C7O2)2
_symmetry_space_group_name_H-M   'P 1'
_cell_length_a   12.19480000
_cell_length_b   13.78350000
_cell_length_c   18.38400000
_cell_angle_alpha   90.00000000
_cell_angle_beta   90.00000000
_cell_angle_gamma   113.96000000
_symmetry_Int_Tables_number   1
_chemical_formula_structural   MgH8(C7O2)2
_chemical_formula_sum   'Mg6 H48 C84 O24'
_cell_volume   2823.83444070
_cell_formula_units_Z   6
loop_
 _symmetry_equiv_pos_site_id
 _symmetry_equiv_pos_as_xyz
  1  'x, y, z'
loop_
 _atom_site_type_symbol
 _atom_site_label
 _atom_site_symmetry_multiplicity
 _atom_site_fract_x
 _atom_site_fract_y
 _atom_site_fract_z
 _atom_site_occupancy
 _atom_site_charge
  Mg  Mg1  1  0.680070  0.915830  0.520720  1.0  1.6081
  Mg  Mg2  1  0.819930  0.084170  0.020720  1.0  1.6164
  Mg  Mg3  1  0.319930  0.084170  0.479280  1.0  1.6159
  Mg  Mg4  1  0.180070  0.915830  0.979280  1.0  1.6082
  Mg  Mg5  1  0.000000  0.000000  0.500000  1.0  1.5629
  Mg  Mg6  1  0.500000  0.000000  0.000000  1.0  1.5629
  H  H7  1  0.658800  0.709800  0.698500  1.0  0.1031
  H  H8  1  0.638100  0.565200  0.771900  1.0  0.0976
  H  H9  1  0.948500  0.568800  0.690500  1.0  0.1001
  H  H10  1  0.973300  0.718500  0.621300  1.0  0.08
  H  H11  1  0.588000  0.376100  0.757800  1.0  0.1019
  H  H12  1  0.553800  0.220500  0.822000  1.0  0.1072
  H  H13  1  0.906000  0.333000  0.874300  1.0  0.1059
  H  H14  1  0.941900  0.487300  0.808100  1.0  0.0988
  H  H15  1  0.000600  0.226700  0.554200  1.0  0.099
  H  H16  1  0.088900  0.411100  0.563200  1.0  0.0974
  H  H17  1  0.841200  0.430000  0.424200  1.0  0.1078
  H  H18  1  0.748400  0.245400  0.418800  1.0  0.1078
  H  H19  1  0.841200  0.290200  0.198500  1.0  0.1032
  H  H20  1  0.861900  0.434800  0.271900  1.0  0.0975
  H  H21  1  0.551500  0.431200  0.190500  1.0  0.1003
  H  H22  1  0.526700  0.281500  0.121300  1.0  0.0802
  H  H23  1  0.912000  0.623900  0.257800  1.0  0.1022
  H  H24  1  0.946200  0.779500  0.322000  1.0  0.1072
  H  H25  1  0.594000  0.667000  0.374300  1.0  0.1059
  H  H26  1  0.558100  0.512700  0.308100  1.0  0.0992
  H  H27  1  0.499400  0.773300  0.054200  1.0  0.0986
  H  H28  1  0.411100  0.588900  0.063200  1.0  0.0971
  H  H29  1  0.658800  0.570000  0.924200  1.0  0.1078
  H  H30  1  0.751600  0.754600  0.918800  1.0  0.1088
  H  H31  1  0.341200  0.290200  0.301500  1.0  0.1033
  H  H32  1  0.361900  0.434800  0.228100  1.0  0.0969
  H  H33  1  0.051500  0.431200  0.309500  1.0  0.1002
  H  H34  1  0.026700  0.281500  0.378700  1.0  0.0799
  H  H35  1  0.412000  0.623900  0.242200  1.0  0.1027
  H  H36  1  0.446200  0.779500  0.178000  1.0  0.107
  H  H37  1  0.094000  0.667000  0.125700  1.0  0.1056
  H  H38  1  0.058100  0.512700  0.191900  1.0  0.0993
  H  H39  1  0.999400  0.773300  0.445800  1.0  0.0985
  H  H40  1  0.911100  0.588900  0.436800  1.0  0.0961
  H  H41  1  0.158800  0.570000  0.575800  1.0  0.1086
  H  H42  1  0.251600  0.754600  0.581200  1.0  0.1081
  H  H43  1  0.158800  0.709800  0.801500  1.0  0.1032
  H  H44  1  0.138100  0.565200  0.728100  1.0  0.0973
  H  H45  1  0.448500  0.568800  0.809500  1.0  0.1002
  H  H46  1  0.473300  0.718500  0.878700  1.0  0.0799
  H  H47  1  0.088000  0.376100  0.742200  1.0  0.1023
  H  H48  1  0.053800  0.220500  0.678000  1.0  0.1071
  H  H49  1  0.406000  0.333000  0.625700  1.0  0.1053
  H  H50  1  0.441900  0.487300  0.691900  1.0  0.0994
  H  H51  1  0.500600  0.226700  0.945800  1.0  0.0985
  H  H52  1  0.588900  0.411100  0.936800  1.0  0.097
  H  H53  1  0.341200  0.430000  0.075800  1.0  0.1083
  H  H54  1  0.248400  0.245400  0.081200  1.0  0.108
  C  C55  1  0.826990  0.818540  0.601490  1.0  0.7825
  C  C56  1  0.817010  0.727540  0.651190  1.0  -0.1586
  C  C57  1  0.717970  0.681530  0.696810  1.0  -0.0378
  C  C58  1  0.704970  0.594370  0.740050  1.0  -0.1507
  C  C59  1  0.788950  0.549300  0.737140  1.0  0.0506
  C  C60  1  0.889300  0.597120  0.692410  1.0  -0.1402
  C  C61  1  0.903660  0.686040  0.650520  1.0  -0.0226
  C  C62  1  0.768510  0.449970  0.777710  1.0  0.0601
  C  C63  1  0.652920  0.368140  0.781710  1.0  -0.143
  C  C64  1  0.632350  0.275340  0.820350  1.0  -0.0526
  C  C65  1  0.725630  0.262130  0.856480  1.0  -0.1593
  C  C66  1  0.841120  0.341800  0.851010  1.0  -0.0398
  C  C67  1  0.862420  0.434260  0.811770  1.0  -0.1485
  C  C68  1  0.701960  0.166650  0.904950  1.0  0.776
  C  C69  1  0.803350  0.099490  0.486590  1.0  0.7312
  C  C70  1  0.864870  0.217640  0.486660  1.0  -0.1394
  C  C71  1  0.966680  0.267790  0.528720  1.0  -0.0223
  C  C72  1  0.019510  0.377970  0.533840  1.0  -0.1301
  C  C73  1  0.972480  0.441050  0.496520  1.0  0.0454
  C  C74  1  0.872490  0.389100  0.452170  1.0  -0.1277
  C  C75  1  0.817880  0.278930  0.448020  1.0  -0.0486
  C  C76  1  0.673010  0.181460  0.101490  1.0  0.7822
  C  C77  1  0.682990  0.272460  0.151190  1.0  -0.1593
  C  C78  1  0.782030  0.318470  0.196810  1.0  -0.0386
  C  C79  1  0.795030  0.405630  0.240050  1.0  -0.1512
  C  C80  1  0.711050  0.450700  0.237140  1.0  0.0504
  C  C81  1  0.610700  0.402880  0.192410  1.0  -0.1387
  C  C82  1  0.596340  0.313960  0.150520  1.0  -0.0223
  C  C83  1  0.731490  0.550030  0.277710  1.0  0.0588
  C  C84  1  0.847080  0.631860  0.281710  1.0  -0.1427
  C  C85  1  0.867650  0.724660  0.320350  1.0  -0.0496
  C  C86  1  0.774370  0.737870  0.356480  1.0  -0.1595
  C  C87  1  0.658880  0.658200  0.351010  1.0  -0.0421
  C  C88  1  0.637580  0.565740  0.311770  1.0  -0.1487
  C  C89  1  0.798040  0.833350  0.404950  1.0  0.7751
  C  C90  1  0.696650  0.900510  0.986590  1.0  0.7311
  C  C91  1  0.635130  0.782360  0.986660  1.0  -0.1391
  C  C92  1  0.533320  0.732210  0.028720  1.0  -0.0207
  C  C93  1  0.480490  0.622030  0.033840  1.0  -0.1289
  C  C94  1  0.527520  0.558950  0.996520  1.0  0.0464
  C  C95  1  0.627510  0.610900  0.952170  1.0  -0.1299
  C  C96  1  0.682120  0.721070  0.948020  1.0  -0.0487
  C  C97  1  0.173010  0.181460  0.398510  1.0  0.7845
  C  C98  1  0.182990  0.272460  0.348810  1.0  -0.1596
  C  C99  1  0.282030  0.318470  0.303190  1.0  -0.0388
  C  C100  1  0.295030  0.405630  0.259950  1.0  -0.1514
  C  C101  1  0.211050  0.450700  0.262860  1.0  0.0504
  C  C102  1  0.110700  0.402880  0.307590  1.0  -0.139
  C  C103  1  0.096340  0.313960  0.349480  1.0  -0.0224
  C  C104  1  0.231490  0.550030  0.222290  1.0  0.0587
  C  C105  1  0.347080  0.631860  0.218290  1.0  -0.1419
  C  C106  1  0.367650  0.724660  0.179650  1.0  -0.051
  C  C107  1  0.274370  0.737870  0.143520  1.0  -0.1597
  C  C108  1  0.158880  0.658200  0.148990  1.0  -0.0424
  C  C109  1  0.137580  0.565740  0.188230  1.0  -0.1485
  C  C110  1  0.298040  0.833350  0.095050  1.0  0.7746
  C  C111  1  0.196650  0.900510  0.513410  1.0  0.7311
  C  C112  1  0.135130  0.782360  0.513340  1.0  -0.1392
  C  C113  1  0.033320  0.732210  0.471280  1.0  -0.0214
  C  C114  1  0.980490  0.622030  0.466160  1.0  -0.1293
  C  C115  1  0.027520  0.558950  0.503480  1.0  0.0466
  C  C116  1  0.127510  0.610900  0.547830  1.0  -0.1272
  C  C117  1  0.182120  0.721070  0.551980  1.0  -0.0478
  C  C118  1  0.326990  0.818540  0.898510  1.0  0.7837
  C  C119  1  0.317010  0.727540  0.848810  1.0  -0.1588
  C  C120  1  0.217970  0.681530  0.803190  1.0  -0.038
  C  C121  1  0.204970  0.594370  0.759950  1.0  -0.1509
  C  C122  1  0.288950  0.549300  0.762860  1.0  0.0507
  C  C123  1  0.389300  0.597120  0.807590  1.0  -0.1404
  C  C124  1  0.403660  0.686040  0.849480  1.0  -0.0228
  C  C125  1  0.268510  0.449970  0.722290  1.0  0.0598
  C  C126  1  0.152920  0.368140  0.718290  1.0  -0.1428
  C  C127  1  0.132350  0.275340  0.679650  1.0  -0.05
  C  C128  1  0.225630  0.262130  0.643520  1.0  -0.1592
  C  C129  1  0.341120  0.341800  0.648990  1.0  -0.0398
  C  C130  1  0.362420  0.434260  0.688230  1.0  -0.1489
  C  C131  1  0.201960  0.166650  0.595050  1.0  0.774
  C  C132  1  0.303350  0.099490  0.013410  1.0  0.7311
  C  C133  1  0.364870  0.217640  0.013340  1.0  -0.1395
  C  C134  1  0.466680  0.267790  0.971280  1.0  -0.0223
  C  C135  1  0.519510  0.377970  0.966160  1.0  -0.1305
  C  C136  1  0.472480  0.441050  0.003480  1.0  0.0457
  C  C137  1  0.372490  0.389100  0.047830  1.0  -0.1246
  C  C138  1  0.317880  0.278930  0.051980  1.0  -0.0484
  O  O139  1  0.928450  0.876940  0.576840  1.0  -0.6784
  O  O140  1  0.729600  0.826220  0.588450  1.0  -0.8265
  O  O141  1  0.594180  0.106210  0.917310  1.0  -0.6933
  O  O142  1  0.793110  0.157510  0.930000  1.0  -0.7905
  O  O143  1  0.697540  0.055750  0.464140  1.0  -0.7179
  O  O144  1  0.856290  0.045000  0.514470  1.0  -0.8344
  O  O145  1  0.571550  0.123060  0.076840  1.0  -0.6759
  O  O146  1  0.770400  0.173780  0.088450  1.0  -0.8056
  O  O147  1  0.905820  0.893790  0.417310  1.0  -0.6938
  O  O148  1  0.706890  0.842490  0.430000  1.0  -0.7919
  O  O149  1  0.802460  0.944250  0.964140  1.0  -0.7095
  O  O150  1  0.643710  0.955000  0.014470  1.0  -0.8345
  O  O151  1  0.071550  0.123060  0.423160  1.0  -0.6775
  O  O152  1  0.270400  0.173780  0.411550  1.0  -0.8096
  O  O153  1  0.405820  0.893790  0.082690  1.0  -0.694
  O  O154  1  0.206890  0.842490  0.070000  1.0  -0.7912
  O  O155  1  0.302460  0.944250  0.535860  1.0  -0.7068
  O  O156  1  0.143710  0.955000  0.485530  1.0  -0.8347
  O  O157  1  0.428450  0.876940  0.923160  1.0  -0.6781
  O  O158  1  0.229600  0.826220  0.911550  1.0  -0.8275
  O  O159  1  0.094180  0.106210  0.582690  1.0  -0.6921
  O  O160  1  0.293110  0.157510  0.570000  1.0  -0.7893
  O  O161  1  0.197540  0.055750  0.035860  1.0  -0.717
  O  O162  1  0.356290  0.045000  0.985530  1.0  -0.8352
