# generated using pymatgen
data_MgH4(C2O)4
_symmetry_space_group_name_H-M   'P 1'
_cell_length_a   8.97780000
_cell_length_b   9.87300000
_cell_length_c   17.25300000
_cell_angle_alpha   90.00000000
_cell_angle_beta   90.00000000
_cell_angle_gamma   92.61800000
_symmetry_Int_Tables_number   1
_chemical_formula_structural   MgH4(C2O)4
_chemical_formula_sum   'Mg6 H24 C48 O24'
_cell_volume   1527.67215382
_cell_formula_units_Z   6
loop_
 _symmetry_equiv_pos_site_id
 _symmetry_equiv_pos_as_xyz
  1  'x, y, z'
loop_
 _atom_site_type_symbol
 _atom_site_label
 _atom_site_symmetry_multiplicity
 _atom_site_fract_x
 _atom_site_fract_y
 _atom_site_fract_z
 _atom_site_occupancy
 _atom_site_charge
  Mg  Mg1  1  0.622290  0.397320  0.979900  1.0  1.5353
  Mg  Mg2  1  0.877710  0.102680  0.479900  1.0  1.5341
  Mg  Mg3  1  0.377710  0.602680  0.020100  1.0  1.5347
  Mg  Mg4  1  0.122290  0.897320  0.520100  1.0  1.5347
  Mg  Mg5  1  0.000000  0.500000  0.000000  1.0  1.5742
  Mg  Mg6  1  0.500000  0.000000  0.500000  1.0  1.5742
  H  H7  1  0.016500  0.707500  0.788300  1.0  0.1053
  H  H8  1  0.009700  0.835600  0.674600  1.0  0.0966
  H  H9  1  0.582600  0.700600  0.639100  1.0  0.0877
  H  H10  1  0.589700  0.572400  0.752600  1.0  0.102
  H  H11  1  0.808000  0.983900  0.908100  1.0  0.1137
  H  H12  1  0.038200  0.198000  0.073200  1.0  0.0958
  H  H13  1  0.483500  0.792500  0.288300  1.0  0.1045
  H  H14  1  0.490300  0.664400  0.174600  1.0  0.0967
  H  H15  1  0.917400  0.799400  0.139100  1.0  0.0875
  H  H16  1  0.910300  0.927600  0.252600  1.0  0.1021
  H  H17  1  0.692000  0.516100  0.408100  1.0  0.114
  H  H18  1  0.461800  0.302000  0.573200  1.0  0.0964
  H  H19  1  0.983500  0.292500  0.211700  1.0  0.1043
  H  H20  1  0.990300  0.164400  0.325400  1.0  0.0966
  H  H21  1  0.417400  0.299400  0.360900  1.0  0.087
  H  H22  1  0.410300  0.427600  0.247400  1.0  0.1024
  H  H23  1  0.192000  0.016100  0.091900  1.0  0.1142
  H  H24  1  0.961800  0.802000  0.926800  1.0  0.0959
  H  H25  1  0.516500  0.207500  0.711700  1.0  0.1047
  H  H26  1  0.509700  0.335600  0.825400  1.0  0.0965
  H  H27  1  0.082600  0.200600  0.860900  1.0  0.087
  H  H28  1  0.089700  0.072400  0.747400  1.0  0.102
  H  H29  1  0.308000  0.483900  0.591900  1.0  0.1141
  H  H30  1  0.538200  0.698000  0.426800  1.0  0.0955
  C  C31  1  0.806800  0.553050  0.858040  1.0  0.7275
  C  C32  1  0.803500  0.628810  0.782420  1.0  -0.1248
  C  C33  1  0.927860  0.706400  0.758210  1.0  -0.0625
  C  C34  1  0.924110  0.782510  0.690390  1.0  -0.0385
  C  C35  1  0.795520  0.780900  0.645930  1.0  -0.1743
  C  C36  1  0.670900  0.702300  0.669530  1.0  -0.032
  C  C37  1  0.674900  0.626300  0.737150  1.0  -0.0632
  C  C38  1  0.783280  0.868010  0.575140  1.0  0.7886
  C  C39  1  0.808280  0.223420  0.977720  1.0  0.7087
  C  C40  1  0.909500  0.108540  0.988710  1.0  -0.1138
  C  C41  1  0.886000  0.990410  0.945310  1.0  -0.0536
  C  C42  1  0.022900  0.117600  0.043410  1.0  -0.0432
  C  C43  1  0.693200  0.946950  0.358040  1.0  0.7288
  C  C44  1  0.696500  0.871190  0.282420  1.0  -0.1251
  C  C45  1  0.572140  0.793600  0.258210  1.0  -0.062
  C  C46  1  0.575890  0.717490  0.190390  1.0  -0.0381
  C  C47  1  0.704480  0.719100  0.145930  1.0  -0.1743
  C  C48  1  0.829100  0.797700  0.169530  1.0  -0.0317
  C  C49  1  0.825100  0.873700  0.237150  1.0  -0.0629
  C  C50  1  0.716720  0.631990  0.075140  1.0  0.7883
  C  C51  1  0.691720  0.276580  0.477720  1.0  0.707
  C  C52  1  0.590500  0.391460  0.488710  1.0  -0.113
  C  C53  1  0.614000  0.509590  0.445310  1.0  -0.0527
  C  C54  1  0.477100  0.382400  0.543410  1.0  -0.0438
  C  C55  1  0.193200  0.446950  0.141960  1.0  0.728
  C  C56  1  0.196500  0.371190  0.217580  1.0  -0.1251
  C  C57  1  0.072140  0.293600  0.241790  1.0  -0.0619
  C  C58  1  0.075890  0.217490  0.309610  1.0  -0.0376
  C  C59  1  0.204480  0.219100  0.354070  1.0  -0.1733
  C  C60  1  0.329100  0.297700  0.330470  1.0  -0.0319
  C  C61  1  0.325100  0.373700  0.262850  1.0  -0.0633
  C  C62  1  0.216720  0.131990  0.424860  1.0  0.7887
  C  C63  1  0.191720  0.776580  0.022280  1.0  0.7075
  C  C64  1  0.090500  0.891460  0.011290  1.0  -0.1129
  C  C65  1  0.114000  0.009590  0.054690  1.0  -0.0539
  C  C66  1  0.977100  0.882400  0.956590  1.0  -0.044
  C  C67  1  0.306800  0.053050  0.641960  1.0  0.7259
  C  C68  1  0.303500  0.128810  0.717580  1.0  -0.1252
  C  C69  1  0.427860  0.206400  0.741790  1.0  -0.0623
  C  C70  1  0.424110  0.282510  0.809610  1.0  -0.0379
  C  C71  1  0.295520  0.280900  0.854070  1.0  -0.1741
  C  C72  1  0.170900  0.202300  0.830470  1.0  -0.032
  C  C73  1  0.174900  0.126300  0.762850  1.0  -0.0636
  C  C74  1  0.283280  0.368010  0.924860  1.0  0.7886
  C  C75  1  0.308280  0.723420  0.522280  1.0  0.7092
  C  C76  1  0.409500  0.608540  0.511290  1.0  -0.1137
  C  C77  1  0.386000  0.490410  0.554690  1.0  -0.0549
  C  C78  1  0.522900  0.617600  0.456590  1.0  -0.0439
  O  O79  1  0.682190  0.507440  0.884360  1.0  -0.7424
  O  O80  1  0.930060  0.542600  0.889990  1.0  -0.6995
  O  O81  1  0.901650  0.928510  0.547790  1.0  -0.8416
  O  O82  1  0.657330  0.881850  0.547550  1.0  -0.676
  O  O83  1  0.687450  0.205380  0.941800  1.0  -0.6543
  O  O84  1  0.842060  0.338530  0.008400  1.0  -0.8249
  O  O85  1  0.817810  0.992560  0.384360  1.0  -0.7439
  O  O86  1  0.569940  0.957400  0.389990  1.0  -0.7006
  O  O87  1  0.598350  0.571490  0.047790  1.0  -0.8435
  O  O88  1  0.842670  0.618150  0.047550  1.0  -0.6779
  O  O89  1  0.812550  0.294620  0.441800  1.0  -0.6537
  O  O90  1  0.657940  0.161470  0.508400  1.0  -0.8264
  O  O91  1  0.317810  0.492560  0.115640  1.0  -0.7444
  O  O92  1  0.069940  0.457400  0.110010  1.0  -0.699
  O  O93  1  0.098350  0.071490  0.452210  1.0  -0.8429
  O  O94  1  0.342670  0.118150  0.452450  1.0  -0.6778
  O  O95  1  0.312550  0.794620  0.058200  1.0  -0.653
  O  O96  1  0.157940  0.661470  0.991600  1.0  -0.8256
  O  O97  1  0.182190  0.007440  0.615640  1.0  -0.7433
  O  O98  1  0.430060  0.042600  0.610010  1.0  -0.6985
  O  O99  1  0.401650  0.428510  0.952210  1.0  -0.8419
  O  O100  1  0.157330  0.381850  0.952450  1.0  -0.6762
  O  O101  1  0.187450  0.705380  0.558200  1.0  -0.6531
  O  O102  1  0.342060  0.838530  0.491600  1.0  -0.8248
