# generated using pymatgen
data_Co3H36C52S(N4O7)2
_symmetry_space_group_name_H-M   'P 1'
_cell_length_a   10.44100000
_cell_length_b   17.57110000
_cell_length_c   17.57110000
_cell_angle_alpha   115.28200000
_cell_angle_beta   96.33010000
_cell_angle_gamma   83.66990000
_symmetry_Int_Tables_number   1
_chemical_formula_structural   Co3H36C52S(N4O7)2
_chemical_formula_sum   'Co6 H72 C104 S2 N16 O28'
_cell_volume   2889.88891044
_cell_formula_units_Z   2
loop_
 _symmetry_equiv_pos_site_id
 _symmetry_equiv_pos_as_xyz
  1  'x, y, z'
loop_
 _atom_site_type_symbol
 _atom_site_label
 _atom_site_symmetry_multiplicity
 _atom_site_fract_x
 _atom_site_fract_y
 _atom_site_fract_z
 _atom_site_occupancy
 _atom_site_charge
  Co  Co1  1  0.511330  0.212190  0.044650  1.0  1.0404
  Co  Co2  1  0.988670  0.044650  0.212190  1.0  1.0525
  Co  Co3  1  0.488670  0.787810  0.955350  1.0  1.048
  Co  Co4  1  0.011330  0.955350  0.787810  1.0  1.0524
  Co  Co5  1  0.750000  0.234790  0.234790  1.0  1.0331
  Co  Co6  1  0.250000  0.765210  0.765210  1.0  1.0332
  H  H7  1  0.850700  0.352900  0.484700  1.0  0.1
  H  H8  1  0.891900  0.410600  0.628800  1.0  0.137
  H  H9  1  0.168800  0.232600  0.607800  1.0  0.1143
  H  H10  1  0.129500  0.174500  0.462900  1.0  0.085
  H  H11  1  0.999100  0.240200  0.723000  1.0  0.1129
  H  H12  1  0.076100  0.183300  0.816900  1.0  0.098
  H  H13  1  0.338000  0.356500  0.915300  1.0  0.0904
  H  H14  1  0.258300  0.413100  0.821100  1.0  0.1274
  H  H15  1  0.516400  0.380700  0.039700  1.0  0.0785
  H  H16  1  0.632700  0.458200  0.999200  1.0  0.1158
  H  H17  1  0.910100  0.269500  0.936700  1.0  0.1212
  H  H18  1  0.786200  0.196900  0.978900  1.0  0.0846
  H  H19  1  0.945700  0.398400  0.918200  1.0  0.0698
  H  H20  1  0.787600  0.615400  0.915200  1.0  0.0935
  H  H21  1  0.841200  0.736800  0.884000  1.0  0.1313
  H  H22  1  0.090400  0.535700  0.827700  1.0  0.1115
  H  H23  1  0.224100  0.601900  0.785700  1.0  0.0622
  H  H24  1  0.982300  0.796900  0.838500  1.0  0.0747
  H  H25  1  0.649300  0.484700  0.352900  1.0  0.1012
  H  H26  1  0.608100  0.628800  0.410600  1.0  0.1365
  H  H27  1  0.331200  0.607800  0.232600  1.0  0.114
  H  H28  1  0.370500  0.462900  0.174500  1.0  0.0837
  H  H29  1  0.500900  0.723000  0.240200  1.0  0.1134
  H  H30  1  0.423900  0.816900  0.183300  1.0  0.099
  H  H31  1  0.162000  0.915300  0.356500  1.0  0.0903
  H  H32  1  0.241700  0.821100  0.413100  1.0  0.128
  H  H33  1  0.983600  0.039700  0.380700  1.0  0.0786
  H  H34  1  0.867300  0.999200  0.458200  1.0  0.1161
  H  H35  1  0.589900  0.936700  0.269500  1.0  0.1218
  H  H36  1  0.713800  0.978900  0.196900  1.0  0.085
  H  H37  1  0.554300  0.918200  0.398400  1.0  0.0704
  H  H38  1  0.712400  0.915200  0.615400  1.0  0.0943
  H  H39  1  0.658800  0.884000  0.736800  1.0  0.1316
  H  H40  1  0.409600  0.827700  0.535700  1.0  0.1128
  H  H41  1  0.275900  0.785700  0.601900  1.0  0.0637
  H  H42  1  0.517700  0.838500  0.796900  1.0  0.0742
  H  H43  1  0.149300  0.647100  0.515300  1.0  0.1001
  H  H44  1  0.108100  0.589400  0.371200  1.0  0.1374
  H  H45  1  0.831200  0.767400  0.392200  1.0  0.114
  H  H46  1  0.870500  0.825500  0.537100  1.0  0.0847
  H  H47  1  0.000900  0.759800  0.277000  1.0  0.113
  H  H48  1  0.923900  0.816700  0.183100  1.0  0.0982
  H  H49  1  0.662000  0.643500  0.084700  1.0  0.0903
  H  H50  1  0.741700  0.586900  0.178900  1.0  0.1274
  H  H51  1  0.483600  0.619300  0.960300  1.0  0.0785
  H  H52  1  0.367300  0.541800  0.000800  1.0  0.1154
  H  H53  1  0.089900  0.730500  0.063300  1.0  0.1211
  H  H54  1  0.213800  0.803100  0.021100  1.0  0.0834
  H  H55  1  0.054300  0.601600  0.081800  1.0  0.0699
  H  H56  1  0.212400  0.384600  0.084800  1.0  0.0937
  H  H57  1  0.158800  0.263200  0.116000  1.0  0.1318
  H  H58  1  0.909600  0.464300  0.172300  1.0  0.1123
  H  H59  1  0.775900  0.398100  0.214300  1.0  0.0625
  H  H60  1  0.017700  0.203100  0.161500  1.0  0.074
  H  H61  1  0.350700  0.515300  0.647100  1.0  0.1
  H  H62  1  0.391900  0.371200  0.589400  1.0  0.1366
  H  H63  1  0.668800  0.392200  0.767400  1.0  0.1142
  H  H64  1  0.629500  0.537100  0.825500  1.0  0.0839
  H  H65  1  0.499100  0.277000  0.759800  1.0  0.1132
  H  H66  1  0.576100  0.183100  0.816700  1.0  0.0985
  H  H67  1  0.838000  0.084700  0.643500  1.0  0.0903
  H  H68  1  0.758300  0.178900  0.586900  1.0  0.1288
  H  H69  1  0.016400  0.960300  0.619300  1.0  0.0782
  H  H70  1  0.132700  0.000800  0.541800  1.0  0.1158
  H  H71  1  0.410100  0.063300  0.730500  1.0  0.1219
  H  H72  1  0.286200  0.021100  0.803100  1.0  0.085
  H  H73  1  0.445700  0.081800  0.601600  1.0  0.0703
  H  H74  1  0.287600  0.084800  0.384600  1.0  0.0937
  H  H75  1  0.341200  0.116000  0.263200  1.0  0.131
  H  H76  1  0.590400  0.172300  0.464300  1.0  0.1123
  H  H77  1  0.724100  0.214300  0.398100  1.0  0.063
  H  H78  1  0.482300  0.161500  0.203100  1.0  0.0753
  C  C79  1  0.963000  0.221720  0.363280  1.0  0.6945
  C  C80  1  0.992900  0.260100  0.456500  1.0  -0.1768
  C  C81  1  0.918600  0.329460  0.508540  1.0  -0.0065
  C  C82  1  0.943200  0.364400  0.594800  1.0  -0.2395
  C  C83  1  0.107700  0.259000  0.582800  1.0  -0.2526
  C  C84  1  0.083000  0.224060  0.495540  1.0  -0.0064
  C  C85  1  0.043000  0.330690  0.629910  1.0  0.3133
  C  C86  1  0.119400  0.331970  0.764830  1.0  0.2823
  C  C87  1  0.066900  0.263800  0.762400  1.0  -0.2286
  C  C88  1  0.113500  0.229320  0.817880  1.0  -0.0008
  C  C89  1  0.216700  0.263780  0.875620  1.0  -0.1694
  C  C90  1  0.269500  0.332820  0.876580  1.0  0.0127
  C  C91  1  0.221700  0.367040  0.820760  1.0  -0.225
  C  C92  1  0.269200  0.229220  0.938580  1.0  0.663
  C  C93  1  0.596500  0.358000  0.018400  1.0  0.171
  C  C94  1  0.665800  0.405050  0.994150  1.0  -0.1551
  C  C95  1  0.785500  0.372820  0.962180  1.0  0.0618
  C  C96  1  0.830000  0.293260  0.957140  1.0  -0.1744
  C  C97  1  0.754800  0.249920  0.982680  1.0  0.1853
  C  C98  1  0.862500  0.419740  0.934260  1.0  0.1674
  C  C99  1  0.868500  0.590130  0.897470  1.0  0.1603
  C  C100  1  0.952500  0.630060  0.864740  1.0  0.0532
  C  C101  1  0.920000  0.708260  0.865340  1.0  -0.1648
  C  C102  1  0.066700  0.590030  0.832370  1.0  -0.1675
  C  C103  1  0.146400  0.630330  0.806870  1.0  0.1762
  C  C104  1  0.006000  0.744050  0.837750  1.0  0.1879
  C  C105  1  0.537000  0.363280  0.221720  1.0  0.6837
  C  C106  1  0.507100  0.456500  0.260100  1.0  -0.1755
  C  C107  1  0.581400  0.508540  0.329460  1.0  0.0019
  C  C108  1  0.556800  0.594800  0.364400  1.0  -0.238
  C  C109  1  0.392300  0.582800  0.259000  1.0  -0.2536
  C  C110  1  0.417000  0.495540  0.224060  1.0  -0.003
  C  C111  1  0.457000  0.629910  0.330690  1.0  0.3148
  C  C112  1  0.380600  0.764830  0.331970  1.0  0.284
  C  C113  1  0.433100  0.762400  0.263800  1.0  -0.2276
  C  C114  1  0.386500  0.817880  0.229320  1.0  -0.0057
  C  C115  1  0.283300  0.875620  0.263780  1.0  -0.1693
  C  C116  1  0.230500  0.876580  0.332820  1.0  0.0137
  C  C117  1  0.278300  0.820760  0.367040  1.0  -0.227
  C  C118  1  0.230800  0.938580  0.229220  1.0  0.6682
  C  C119  1  0.903500  0.018400  0.358000  1.0  0.1689
  C  C120  1  0.834200  0.994150  0.405050  1.0  -0.1605
  C  C121  1  0.714500  0.962180  0.372820  1.0  0.063
  C  C122  1  0.670000  0.957140  0.293260  1.0  -0.1749
  C  C123  1  0.745200  0.982680  0.249920  1.0  0.1896
  C  C124  1  0.637500  0.934260  0.419740  1.0  0.1673
  C  C125  1  0.631500  0.897470  0.590130  1.0  0.1598
  C  C126  1  0.547500  0.864740  0.630060  1.0  0.0515
  C  C127  1  0.580000  0.865340  0.708260  1.0  -0.1645
  C  C128  1  0.433300  0.832370  0.590030  1.0  -0.1652
  C  C129  1  0.353600  0.806870  0.630330  1.0  0.1739
  C  C130  1  0.494000  0.837750  0.744050  1.0  0.1875
  C  C131  1  0.037000  0.778280  0.636720  1.0  0.6915
  C  C132  1  0.007100  0.739900  0.543500  1.0  -0.179
  C  C133  1  0.081400  0.670540  0.491460  1.0  -0.0059
  C  C134  1  0.056800  0.635600  0.405200  1.0  -0.2425
  C  C135  1  0.892300  0.741000  0.417200  1.0  -0.255
  C  C136  1  0.917000  0.775940  0.504460  1.0  -0.0039
  C  C137  1  0.957000  0.669310  0.370090  1.0  0.3135
  C  C138  1  0.880600  0.668030  0.235170  1.0  0.2821
  C  C139  1  0.933100  0.736200  0.237600  1.0  -0.229
  C  C140  1  0.886500  0.770680  0.182120  1.0  -0.002
  C  C141  1  0.783300  0.736220  0.124380  1.0  -0.1688
  C  C142  1  0.730500  0.667180  0.123420  1.0  0.0133
  C  C143  1  0.778300  0.632960  0.179240  1.0  -0.2244
  C  C144  1  0.730800  0.770780  0.061420  1.0  0.6642
  C  C145  1  0.403500  0.642000  0.981600  1.0  0.1705
  C  C146  1  0.334200  0.594950  0.005850  1.0  -0.1582
  C  C147  1  0.214500  0.627180  0.037820  1.0  0.0621
  C  C148  1  0.170000  0.706740  0.042860  1.0  -0.1753
  C  C149  1  0.245200  0.750080  0.017320  1.0  0.1857
  C  C150  1  0.137500  0.580260  0.065740  1.0  0.1677
  C  C151  1  0.131500  0.409870  0.102530  1.0  0.1605
  C  C152  1  0.047500  0.369940  0.135260  1.0  0.0537
  C  C153  1  0.080000  0.291740  0.134660  1.0  -0.1648
  C  C154  1  0.933300  0.409970  0.167630  1.0  -0.1687
  C  C155  1  0.853600  0.369670  0.193130  1.0  0.1774
  C  C156  1  0.994000  0.255950  0.162250  1.0  0.1865
  C  C157  1  0.463000  0.636720  0.778280  1.0  0.686
  C  C158  1  0.492900  0.543500  0.739900  1.0  -0.1815
  C  C159  1  0.418600  0.491460  0.670540  1.0  0.0038
  C  C160  1  0.443200  0.405200  0.635600  1.0  -0.2362
  C  C161  1  0.607700  0.417200  0.741000  1.0  -0.2532
  C  C162  1  0.583000  0.504460  0.775940  1.0  -0.003
  C  C163  1  0.543000  0.370090  0.669310  1.0  0.3132
  C  C164  1  0.619400  0.235170  0.668030  1.0  0.2839
  C  C165  1  0.566900  0.237600  0.736200  1.0  -0.2279
  C  C166  1  0.613500  0.182120  0.770680  1.0  -0.0031
  C  C167  1  0.716700  0.124380  0.736220  1.0  -0.169
  C  C168  1  0.769500  0.123420  0.667180  1.0  0.0137
  C  C169  1  0.721700  0.179240  0.632960  1.0  -0.2279
  C  C170  1  0.769200  0.061420  0.770780  1.0  0.6659
  C  C171  1  0.096500  0.981600  0.642000  1.0  0.1699
  C  C172  1  0.165800  0.005850  0.594950  1.0  -0.1599
  C  C173  1  0.285500  0.037820  0.627180  1.0  0.062
  C  C174  1  0.330000  0.042860  0.706740  1.0  -0.1754
  C  C175  1  0.254800  0.017320  0.750080  1.0  0.1896
  C  C176  1  0.362500  0.065740  0.580260  1.0  0.1669
  C  C177  1  0.368500  0.102530  0.409870  1.0  0.1598
  C  C178  1  0.452500  0.135260  0.369940  1.0  0.0533
  C  C179  1  0.420000  0.134660  0.291740  1.0  -0.1639
  C  C180  1  0.566700  0.167630  0.409970  1.0  -0.1653
  C  C181  1  0.646400  0.193130  0.369670  1.0  0.1721
  C  C182  1  0.506000  0.162250  0.255950  1.0  0.187
  S  S183  1  0.750000  0.084290  0.084290  1.0  1.6298
  S  S184  1  0.250000  0.915710  0.915710  1.0  1.6308
  N  N185  1  0.639100  0.280540  0.012720  1.0  -0.3699
  N  N186  1  0.818300  0.488720  0.931280  1.0  -0.2345
  N  N187  1  0.908600  0.521020  0.900780  1.0  -0.2261
  N  N188  1  0.119500  0.707580  0.810440  1.0  -0.3436
  N  N189  1  0.860900  0.012720  0.280540  1.0  -0.374
  N  N190  1  0.681700  0.931280  0.488720  1.0  -0.2337
  N  N191  1  0.591400  0.900780  0.521020  1.0  -0.226
  N  N192  1  0.380500  0.810440  0.707580  1.0  -0.3442
  N  N193  1  0.360900  0.719460  0.987280  1.0  -0.3729
  N  N194  1  0.181700  0.511280  0.068720  1.0  -0.234
  N  N195  1  0.091400  0.478980  0.099220  1.0  -0.225
  N  N196  1  0.880500  0.292420  0.189560  1.0  -0.3427
  N  N197  1  0.139100  0.987280  0.719460  1.0  -0.3701
  N  N198  1  0.318300  0.068720  0.511280  1.0  -0.2347
  N  N199  1  0.408600  0.099220  0.478980  1.0  -0.2257
  N  N200  1  0.619500  0.189560  0.292420  1.0  -0.3461
  O  O201  1  0.368100  0.260080  0.982960  1.0  -0.6254
  O  O202  1  0.212600  0.173140  0.945160  1.0  -0.5805
  O  O203  1  0.067200  0.374970  0.716470  1.0  -0.266
  O  O204  1  0.671400  0.166920  0.103760  1.0  -0.8209
  O  O205  1  0.833900  0.066330  0.017650  1.0  -0.6577
  O  O206  1  0.874300  0.260340  0.336120  1.0  -0.6
  O  O207  1  0.023400  0.153540  0.319400  1.0  -0.62
  O  O208  1  0.131900  0.982960  0.260080  1.0  -0.626
  O  O209  1  0.287400  0.945160  0.173140  1.0  -0.5807
  O  O210  1  0.432800  0.716470  0.374970  1.0  -0.2686
  O  O211  1  0.828600  0.103760  0.166920  1.0  -0.8204
  O  O212  1  0.666100  0.017650  0.066330  1.0  -0.655
  O  O213  1  0.625700  0.336120  0.260340  1.0  -0.6057
  O  O214  1  0.476600  0.319400  0.153540  1.0  -0.6204
  O  O215  1  0.631900  0.739920  0.017040  1.0  -0.6254
  O  O216  1  0.787400  0.826860  0.054840  1.0  -0.5813
  O  O217  1  0.932800  0.625030  0.283530  1.0  -0.2663
  O  O218  1  0.328600  0.833080  0.896240  1.0  -0.8216
  O  O219  1  0.166100  0.933670  0.982350  1.0  -0.6587
  O  O220  1  0.125700  0.739660  0.663880  1.0  -0.6009
  O  O221  1  0.976600  0.846460  0.680600  1.0  -0.6199
  O  O222  1  0.868100  0.017040  0.739920  1.0  -0.6264
  O  O223  1  0.712600  0.054840  0.826860  1.0  -0.5825
  O  O224  1  0.567200  0.283530  0.625030  1.0  -0.2674
  O  O225  1  0.171400  0.896240  0.833080  1.0  -0.8226
  O  O226  1  0.333900  0.982350  0.933670  1.0  -0.6521
  O  O227  1  0.374300  0.663880  0.739660  1.0  -0.602
  O  O228  1  0.523400  0.680600  0.846460  1.0  -0.6206
