# generated using pymatgen
data_Ni2H33C48(N2O5)2
_symmetry_space_group_name_H-M   'P 1'
_cell_length_a   11.27500000
_cell_length_b   13.28800000
_cell_length_c   18.77400000
_cell_angle_alpha   92.21100000
_cell_angle_beta   100.98800000
_cell_angle_gamma   104.96000000
_symmetry_Int_Tables_number   1
_chemical_formula_structural   Ni2H33C48(N2O5)2
_chemical_formula_sum   'Ni4 H66 C96 N8 O20'
_cell_volume   2656.15714939
_cell_formula_units_Z   2
loop_
 _symmetry_equiv_pos_site_id
 _symmetry_equiv_pos_as_xyz
  1  'x, y, z'
loop_
 _atom_site_type_symbol
 _atom_site_label
 _atom_site_symmetry_multiplicity
 _atom_site_fract_x
 _atom_site_fract_y
 _atom_site_fract_z
 _atom_site_occupancy
 _atom_site_charge
  Ni  Ni1  1  0.049280  0.609470  0.928270  1.0  0.828
  Ni  Ni2  1  0.950720  0.390530  0.071730  1.0  0.8286
  Ni  Ni3  1  0.500000  0.500000  0.500000  1.0  0.5802
  Ni  Ni4  1  0.500000  0.000000  0.000000  1.0  0.0857
  H  H5  1  0.847400  0.264300  0.425100  1.0  0.3409
  H  H6  1  0.635300  0.064000  0.337500  1.0  0.0983
  H  H7  1  0.446200  0.941500  0.292700  1.0  0.1276
  H  H8  1  0.298800  0.052600  0.446600  1.0  0.1258
  H  H9  1  0.488100  0.173200  0.491300  1.0  0.1034
  H  H10  1  0.218700  0.958500  0.210500  1.0  0.1246
  H  H11  1  0.152800  0.840700  0.106600  1.0  0.1053
  H  H12  1  0.102600  0.602800  0.231200  1.0  0.1067
  H  H13  1  0.179300  0.719500  0.334900  1.0  0.1303
  H  H14  1  0.893100  0.699500  0.016200  1.0  0.0751
  H  H15  1  0.691300  0.689800  0.020900  1.0  0.1285
  H  H16  1  0.583500  0.508400  0.834000  1.0  0.1291
  H  H17  1  0.790200  0.522200  0.835400  1.0  0.083
  H  H18  1  0.136700  0.939600  0.824600  1.0  0.0997
  H  H19  1  0.105100  0.041300  0.728300  1.0  0.13
  H  H20  1  0.902400  0.784100  0.600600  1.0  0.1065
  H  H21  1  0.933500  0.682700  0.695500  1.0  0.1085
  H  H22  1  0.211000  0.030400  0.600600  1.0  0.1158
  H  H23  1  0.327000  0.187400  0.569300  1.0  0.0996
  H  H24  1  0.023900  0.295500  0.540500  1.0  0.1013
  H  H25  1  0.908700  0.139700  0.572100  1.0  0.1151
  H  H26  1  0.684800  0.662900  0.616300  1.0  0.0706
  H  H27  1  0.694100  0.768400  0.717700  1.0  0.1235
  H  H28  1  0.331000  0.625000  0.706800  1.0  0.1281
  H  H29  1  0.332000  0.530400  0.603100  1.0  0.0788
  H  H30  1  0.692800  0.804400  0.838900  1.0  0.122
  H  H31  1  0.684200  0.905300  0.939000  1.0  0.0798
  H  H32  1  0.331500  0.881500  0.863700  1.0  0.078
  H  H33  1  0.329500  0.776900  0.763200  1.0  0.1185
  H  H34  1  0.390300  0.492500  0.840600  1.0  0.1261
  H  H35  1  0.513200  0.689500  0.019900  1.0  0.1217
  H  H36  1  0.192600  0.500600  0.843300  1.0  0.086
  H  H37  1  0.311400  0.692200  0.017900  1.0  0.0844
  H  H38  1  0.152600  0.735700  0.574900  1.0  0.3749
  H  H39  1  0.364700  0.936000  0.662500  1.0  0.0994
  H  H40  1  0.553800  0.058500  0.707300  1.0  0.1273
  H  H41  1  0.701200  0.947400  0.553400  1.0  0.1261
  H  H42  1  0.511900  0.826800  0.508700  1.0  0.1036
  H  H43  1  0.781300  0.041500  0.789500  1.0  0.1243
  H  H44  1  0.847200  0.159300  0.893400  1.0  0.1052
  H  H45  1  0.897400  0.397200  0.768800  1.0  0.1065
  H  H46  1  0.820700  0.280500  0.665100  1.0  0.1283
  H  H47  1  0.106900  0.300500  0.983800  1.0  0.0751
  H  H48  1  0.308700  0.310200  0.979100  1.0  0.128
  H  H49  1  0.416500  0.491600  0.166000  1.0  0.1293
  H  H50  1  0.209800  0.477800  0.164600  1.0  0.0828
  H  H51  1  0.863300  0.060400  0.175400  1.0  0.1
  H  H52  1  0.894900  0.958700  0.271700  1.0  0.1306
  H  H53  1  0.097600  0.215900  0.399400  1.0  0.1067
  H  H54  1  0.066500  0.317300  0.304500  1.0  0.1074
  H  H55  1  0.789000  0.969600  0.399400  1.0  0.1162
  H  H56  1  0.673000  0.812600  0.430700  1.0  0.0992
  H  H57  1  0.976100  0.704500  0.459500  1.0  0.1007
  H  H58  1  0.091300  0.860300  0.427900  1.0  0.1141
  H  H59  1  0.315200  0.337100  0.383700  1.0  0.0713
  H  H60  1  0.305900  0.231600  0.282300  1.0  0.1237
  H  H61  1  0.669000  0.375000  0.293200  1.0  0.1274
  H  H62  1  0.668000  0.469600  0.396900  1.0  0.0778
  H  H63  1  0.307200  0.195600  0.161100  1.0  0.1224
  H  H64  1  0.315800  0.094700  0.061000  1.0  0.0793
  H  H65  1  0.668500  0.118500  0.136300  1.0  0.0777
  H  H66  1  0.670500  0.223100  0.236800  1.0  0.1198
  H  H67  1  0.609700  0.507500  0.159400  1.0  0.1263
  H  H68  1  0.486800  0.310500  0.980100  1.0  0.1213
  H  H69  1  0.807400  0.499400  0.156700  1.0  0.0865
  H  H70  1  0.688600  0.307800  0.982100  1.0  0.0845
  C  C71  1  0.697340  0.215700  0.446700  1.0  0.6518
  C  C72  1  0.580470  0.131580  0.418380  1.0  -0.1605
  C  C73  1  0.567390  0.061710  0.359420  1.0  0.0129
  C  C74  1  0.454690  0.988520  0.332570  1.0  -0.2461
  C  C75  1  0.354300  0.985640  0.365380  1.0  0.3087
  C  C76  1  0.366680  0.054880  0.424650  1.0  -0.2247
  C  C77  1  0.479380  0.126950  0.451050  1.0  0.0088
  C  C78  1  0.207090  0.848800  0.281290  1.0  0.2933
  C  C79  1  0.197900  0.886810  0.214520  1.0  -0.2287
  C  C80  1  0.156640  0.815930  0.152460  1.0  -0.0183
  C  C81  1  0.121690  0.710400  0.157990  1.0  -0.1488
  C  C82  1  0.128280  0.674270  0.226820  1.0  -0.0252
  C  C83  1  0.172780  0.743740  0.288850  1.0  -0.2232
  C  C84  1  0.075380  0.633640  0.091990  1.0  0.6583
  C  C85  1  0.829840  0.659380  0.979010  1.0  0.1801
  C  C86  1  0.708280  0.654220  0.982030  1.0  -0.2154
  C  C87  1  0.610580  0.597010  0.928230  1.0  0.0825
  C  C88  1  0.644800  0.547600  0.872400  1.0  -0.2061
  C  C89  1  0.769970  0.556350  0.873660  1.0  0.1794
  C  C90  1  0.054830  0.734660  0.831130  1.0  0.6355
  C  C91  1  0.038060  0.801740  0.770740  1.0  -0.1832
  C  C92  1  0.089010  0.907870  0.779500  1.0  -0.0178
  C  C93  1  0.070470  0.969190  0.721810  1.0  -0.2481
  C  C94  1  0.000710  0.921850  0.655630  1.0  0.3125
  C  C95  1  0.949620  0.815410  0.645820  1.0  -0.2125
  C  C96  1  0.967880  0.754840  0.702520  1.0  -0.0248
  C  C97  1  0.048540  0.070450  0.586950  1.0  0.2909
  C  C98  1  0.173180  0.083360  0.587630  1.0  -0.2447
  C  C99  1  0.241960  0.177300  0.568530  1.0  -0.0131
  C  C100  1  0.186290  0.256160  0.548370  1.0  -0.1365
  C  C101  1  0.061700  0.241890  0.551410  1.0  -0.0113
  C  C102  1  0.992720  0.148940  0.570470  1.0  -0.2259
  C  C103  1  0.257310  0.354190  0.521230  1.0  0.6541
  C  C104  1  0.611860  0.657070  0.633890  1.0  0.1771
  C  C105  1  0.619040  0.720120  0.695680  1.0  -0.2054
  C  C106  1  0.512290  0.710180  0.724350  1.0  0.086
  C  C107  1  0.404220  0.636020  0.688730  1.0  -0.2162
  C  C108  1  0.406050  0.578800  0.626550  1.0  0.1727
  C  C109  1  0.511670  0.777820  0.789110  1.0  0.0789
  C  C110  1  0.617510  0.818340  0.842850  1.0  -0.1775
  C  C111  1  0.612080  0.879910  0.902870  1.0  0.1456
  C  C112  1  0.405310  0.865440  0.858870  1.0  0.167
  C  C113  1  0.403390  0.802490  0.797990  1.0  -0.1943
  C  C114  1  0.478400  0.593660  0.928920  1.0  0.0782
  C  C115  1  0.377360  0.535260  0.877110  1.0  -0.2065
  C  C116  1  0.449430  0.650880  0.982400  1.0  -0.1987
  C  C117  1  0.258340  0.540120  0.879380  1.0  0.1694
  C  C118  1  0.327240  0.651790  0.981130  1.0  0.1695
  C  C119  1  0.302660  0.784300  0.553300  1.0  0.6519
  C  C120  1  0.419530  0.868420  0.581620  1.0  -0.1611
  C  C121  1  0.432610  0.938290  0.640580  1.0  0.013
  C  C122  1  0.545310  0.011480  0.667430  1.0  -0.2473
  C  C123  1  0.645700  0.014360  0.634620  1.0  0.3089
  C  C124  1  0.633320  0.945120  0.575350  1.0  -0.2238
  C  C125  1  0.520620  0.873050  0.548950  1.0  0.0132
  C  C126  1  0.792910  0.151200  0.718710  1.0  0.2922
  C  C127  1  0.802100  0.113190  0.785480  1.0  -0.2282
  C  C128  1  0.843360  0.184070  0.847540  1.0  -0.0188
  C  C129  1  0.878310  0.289600  0.842010  1.0  -0.1494
  C  C130  1  0.871720  0.325730  0.773180  1.0  -0.0262
  C  C131  1  0.827220  0.256260  0.711150  1.0  -0.2236
  C  C132  1  0.924620  0.366360  0.908010  1.0  0.6588
  C  C133  1  0.170160  0.340620  0.020990  1.0  0.1802
  C  C134  1  0.291720  0.345780  0.017970  1.0  -0.2148
  C  C135  1  0.389420  0.402990  0.071770  1.0  0.0825
  C  C136  1  0.355200  0.452400  0.127600  1.0  -0.2061
  C  C137  1  0.230030  0.443650  0.126340  1.0  0.1786
  C  C138  1  0.945170  0.265340  0.168870  1.0  0.6352
  C  C139  1  0.961940  0.198260  0.229260  1.0  -0.1829
  C  C140  1  0.910990  0.092130  0.220500  1.0  -0.0173
  C  C141  1  0.929530  0.030810  0.278190  1.0  -0.2491
  C  C142  1  0.999290  0.078150  0.344370  1.0  0.3104
  C  C143  1  0.050380  0.184590  0.354180  1.0  -0.2137
  C  C144  1  0.032120  0.245160  0.297480  1.0  -0.025
  C  C145  1  0.951460  0.929550  0.413050  1.0  0.2899
  C  C146  1  0.826820  0.916640  0.412370  1.0  -0.2452
  C  C147  1  0.758040  0.822700  0.431470  1.0  -0.0153
  C  C148  1  0.813710  0.743840  0.451630  1.0  -0.1304
  C  C149  1  0.938300  0.758110  0.448590  1.0  -0.0129
  C  C150  1  0.007280  0.851060  0.429530  1.0  -0.2255
  C  C151  1  0.742690  0.645810  0.478770  1.0  0.6555
  C  C152  1  0.388140  0.342930  0.366110  1.0  0.1779
  C  C153  1  0.380960  0.279880  0.304320  1.0  -0.2053
  C  C154  1  0.487710  0.289820  0.275650  1.0  0.0867
  C  C155  1  0.595780  0.363980  0.311270  1.0  -0.2166
  C  C156  1  0.593950  0.421200  0.373450  1.0  0.1725
  C  C157  1  0.488330  0.222180  0.210890  1.0  0.0781
  C  C158  1  0.382490  0.181660  0.157150  1.0  -0.1773
  C  C159  1  0.387920  0.120090  0.097130  1.0  0.145
  C  C160  1  0.594690  0.134560  0.141130  1.0  0.164
  C  C161  1  0.596610  0.197510  0.202010  1.0  -0.1954
  C  C162  1  0.521600  0.406340  0.071080  1.0  0.0776
  C  C163  1  0.622640  0.464740  0.122890  1.0  -0.2055
  C  C164  1  0.550570  0.349120  0.017600  1.0  -0.1989
  C  C165  1  0.741660  0.459880  0.120620  1.0  0.1679
  C  C166  1  0.672760  0.348210  0.018870  1.0  0.1716
  N  N167  1  0.506820  0.588300  0.597870  1.0  -0.3067
  N  N168  1  0.507160  0.904090  0.910820  1.0  -0.2557
  N  N169  1  0.862650  0.610650  0.926310  1.0  -0.2959
  N  N170  1  0.230970  0.597950  0.930100  1.0  -0.2951
  N  N171  1  0.493180  0.411700  0.402130  1.0  -0.3037
  N  N172  1  0.492840  0.095910  0.089180  1.0  -0.2672
  N  N173  1  0.137350  0.389350  0.073690  1.0  -0.2971
  N  N174  1  0.769030  0.402050  0.069900  1.0  -0.2946
  O  O175  1  0.780210  0.224530  0.404120  1.0  -0.5419
  O  O176  1  0.715520  0.273220  0.500920  1.0  -0.5112
  O  O177  1  0.239660  0.915960  0.344770  1.0  -0.2416
  O  O178  1  0.102780  0.664260  0.033660  1.0  -0.5857
  O  O179  1  0.009450  0.545640  0.100210  1.0  -0.6092
  O  O180  1  0.022920  0.636020  0.817260  1.0  -0.5717
  O  O181  1  0.097000  0.773490  0.895690  1.0  -0.5774
  O  O182  1  0.970000  0.975030  0.596600  1.0  -0.2472
  O  O183  1  0.194480  0.410090  0.489060  1.0  -0.6037
  O  O184  1  0.374480  0.372540  0.530110  1.0  -0.5985
  O  O185  1  0.219790  0.775470  0.595880  1.0  -0.5427
  O  O186  1  0.284480  0.726780  0.499080  1.0  -0.5104
  O  O187  1  0.760340  0.084040  0.655230  1.0  -0.243
  O  O188  1  0.897220  0.335740  0.966340  1.0  -0.5853
  O  O189  1  0.990550  0.454360  0.899790  1.0  -0.6092
  O  O190  1  0.977080  0.363980  0.182740  1.0  -0.5723
  O  O191  1  0.903000  0.226510  0.104310  1.0  -0.5791
  O  O192  1  0.030000  0.024970  0.403400  1.0  -0.2463
  O  O193  1  0.805520  0.589910  0.510940  1.0  -0.6026
  O  O194  1  0.625520  0.627460  0.469890  1.0  -0.5996
