# generated using pymatgen
data_ZnH13C10N2O3
_symmetry_space_group_name_H-M   'P 1'
_cell_length_a   10.43500000
_cell_length_b   17.48070000
_cell_length_c   17.48070000
_cell_angle_alpha   120.00000000
_cell_angle_beta   90.00000000
_cell_angle_gamma   90.00000000
_symmetry_Int_Tables_number   1
_chemical_formula_structural   ZnH13C10N2O3
_chemical_formula_sum   'Zn6 H78 C60 N12 O18'
_cell_volume   2761.47251036
_cell_formula_units_Z   6
loop_
 _symmetry_equiv_pos_site_id
 _symmetry_equiv_pos_as_xyz
  1  'x, y, z'
loop_
 _atom_site_type_symbol
 _atom_site_label
 _atom_site_symmetry_multiplicity
 _atom_site_fract_x
 _atom_site_fract_y
 _atom_site_fract_z
 _atom_site_occupancy
 _atom_site_charge
  Zn  Zn1  1  0.912010  0.535190  0.071260  1.0  0.2886
  Zn  Zn2  1  0.578680  0.536070  0.464810  1.0  0.281
  Zn  Zn3  1  0.245340  0.928740  0.463930  1.0  0.2925
  Zn  Zn4  1  0.412010  0.464810  0.928740  1.0  0.2935
  Zn  Zn5  1  0.078680  0.463930  0.535190  1.0  0.2867
  Zn  Zn6  1  0.745340  0.071260  0.536070  1.0  0.2885
  H  H7  1  0.925800  0.347500  0.926400  1.0  0.3271
  H  H8  1  0.009000  0.470000  0.919300  1.0  0.2475
  H  H9  1  0.203700  0.469500  0.692400  1.0  0.0783
  H  H10  1  0.166400  0.516800  0.838600  1.0  0.1016
  H  H11  1  0.824600  0.607500  0.816300  1.0  0.134
  H  H12  1  0.873000  0.561000  0.671000  1.0  0.0723
  H  H13  1  0.028700  0.620700  0.975800  1.0  0.0993
  H  H14  1  0.882100  0.623700  0.957200  1.0  0.0868
  H  H15  1  0.808900  0.473600  0.845300  1.0  0.0993
  H  H16  1  0.781900  0.317500  0.821000  1.0  0.0349
  H  H17  1  0.901000  0.369200  0.726600  1.0  0.1078
  H  H18  1  0.893800  0.269300  0.700000  1.0  0.1054
  H  H19  1  0.014400  0.325700  0.750000  1.0  0.1193
  H  H20  1  0.592470  0.578900  0.652500  1.0  0.3277
  H  H21  1  0.675670  0.449300  0.530000  1.0  0.2482
  H  H22  1  0.870370  0.222900  0.530500  1.0  0.0774
  H  H23  1  0.833070  0.321800  0.483200  1.0  0.1024
  H  H24  1  0.491270  0.208800  0.392500  1.0  0.1319
  H  H25  1  0.539670  0.110000  0.439000  1.0  0.0714
  H  H26  1  0.695370  0.355100  0.379300  1.0  0.1022
  H  H27  1  0.548770  0.333500  0.376300  1.0  0.0862
  H  H28  1  0.475570  0.371700  0.526400  1.0  0.0993
  H  H29  1  0.448570  0.503500  0.682500  1.0  0.0344
  H  H30  1  0.567670  0.357400  0.630800  1.0  0.1076
  H  H31  1  0.560470  0.430700  0.730700  1.0  0.1054
  H  H32  1  0.681070  0.424300  0.674300  1.0  0.1183
  H  H33  1  0.259130  0.073600  0.421100  1.0  0.3282
  H  H34  1  0.342330  0.080700  0.550700  1.0  0.2477
  H  H35  1  0.537030  0.307600  0.777100  1.0  0.0777
  H  H36  1  0.499730  0.161400  0.678200  1.0  0.1025
  H  H37  1  0.157930  0.183700  0.791200  1.0  0.1328
  H  H38  1  0.206330  0.329000  0.890000  1.0  0.072
  H  H39  1  0.362030  0.024200  0.644900  1.0  0.1001
  H  H40  1  0.215430  0.042800  0.666500  1.0  0.0874
  H  H41  1  0.142230  0.154700  0.628300  1.0  0.0979
  H  H42  1  0.115230  0.179000  0.496500  1.0  0.0354
  H  H43  1  0.234330  0.273400  0.642600  1.0  0.1068
  H  H44  1  0.227130  0.300000  0.569300  1.0  0.106
  H  H45  1  0.347730  0.250000  0.575700  1.0  0.1188
  H  H46  1  0.425800  0.652500  0.073600  1.0  0.3278
  H  H47  1  0.509000  0.530000  0.080700  1.0  0.2484
  H  H48  1  0.703700  0.530500  0.307600  1.0  0.0781
  H  H49  1  0.666400  0.483200  0.161400  1.0  0.1029
  H  H50  1  0.324600  0.392500  0.183700  1.0  0.1331
  H  H51  1  0.373000  0.439000  0.329000  1.0  0.0734
  H  H52  1  0.528700  0.379300  0.024200  1.0  0.0986
  H  H53  1  0.382100  0.376300  0.042800  1.0  0.0872
  H  H54  1  0.308900  0.526400  0.154700  1.0  0.0992
  H  H55  1  0.281900  0.682500  0.179000  1.0  0.0339
  H  H56  1  0.401000  0.630800  0.273400  1.0  0.107
  H  H57  1  0.393800  0.730700  0.300000  1.0  0.1067
  H  H58  1  0.514400  0.674300  0.250000  1.0  0.1192
  H  H59  1  0.092470  0.421100  0.347500  1.0  0.3308
  H  H60  1  0.175670  0.550700  0.470000  1.0  0.2485
  H  H61  1  0.370370  0.777100  0.469500  1.0  0.0777
  H  H62  1  0.333070  0.678200  0.516800  1.0  0.103
  H  H63  1  0.991270  0.791200  0.607500  1.0  0.1319
  H  H64  1  0.039670  0.890000  0.561000  1.0  0.0724
  H  H65  1  0.195370  0.644900  0.620700  1.0  0.1033
  H  H66  1  0.048770  0.666500  0.623700  1.0  0.0872
  H  H67  1  0.975570  0.628300  0.473600  1.0  0.0992
  H  H68  1  0.948570  0.496500  0.317500  1.0  0.0355
  H  H69  1  0.067670  0.642600  0.369200  1.0  0.1084
  H  H70  1  0.060470  0.569300  0.269300  1.0  0.1066
  H  H71  1  0.181070  0.575700  0.325700  1.0  0.1189
  H  H72  1  0.759130  0.926400  0.578900  1.0  0.329
  H  H73  1  0.842330  0.919300  0.449300  1.0  0.2481
  H  H74  1  0.037030  0.692400  0.222900  1.0  0.0776
  H  H75  1  0.999730  0.838600  0.321800  1.0  0.1023
  H  H76  1  0.657930  0.816300  0.208800  1.0  0.1336
  H  H77  1  0.706330  0.671000  0.110000  1.0  0.0721
  H  H78  1  0.862030  0.975800  0.355100  1.0  0.1005
  H  H79  1  0.715430  0.957200  0.333500  1.0  0.087
  H  H80  1  0.642230  0.845300  0.371700  1.0  0.0988
  H  H81  1  0.615230  0.821000  0.503500  1.0  0.0351
  H  H82  1  0.734330  0.726600  0.357400  1.0  0.107
  H  H83  1  0.727130  0.700000  0.430700  1.0  0.1056
  H  H84  1  0.847730  0.750000  0.424300  1.0  0.1198
  C  C85  1  0.126400  0.497400  0.717500  1.0  0.137
  C  C86  1  0.104300  0.525200  0.805300  1.0  -0.2085
  C  C87  1  0.989200  0.565700  0.844000  1.0  0.0676
  C  C88  1  0.902200  0.579400  0.792600  1.0  -0.2315
  C  C89  1  0.931800  0.550700  0.704800  1.0  0.1348
  C  C90  1  0.958600  0.587400  0.937000  1.0  -0.0269
  C  C91  1  0.828100  0.452900  0.886900  1.0  -0.1593
  C  C92  1  0.708900  0.468900  0.943900  1.0  0.6108
  C  C93  1  0.860300  0.352200  0.831200  1.0  0.3069
  C  C94  1  0.923100  0.326800  0.744100  1.0  -0.379
  C  C95  1  0.793070  0.220100  0.502600  1.0  0.1366
  C  C96  1  0.770970  0.280100  0.474800  1.0  -0.2082
  C  C97  1  0.655870  0.278300  0.434300  1.0  0.0651
  C  C98  1  0.568870  0.213200  0.420600  1.0  -0.2293
  C  C99  1  0.598470  0.154100  0.449300  1.0  0.1295
  C  C100  1  0.625270  0.349600  0.412600  1.0  -0.0251
  C  C101  1  0.494770  0.434000  0.547100  1.0  -0.1632
  C  C102  1  0.375570  0.475000  0.531100  1.0  0.6109
  C  C103  1  0.526970  0.479000  0.647800  1.0  0.3072
  C  C104  1  0.589770  0.417300  0.673200  1.0  -0.3783
  C  C105  1  0.459730  0.282500  0.779900  1.0  0.1354
  C  C106  1  0.437630  0.194700  0.719900  1.0  -0.2101
  C  C107  1  0.322530  0.156000  0.721700  1.0  0.0673
  C  C108  1  0.235530  0.207400  0.786800  1.0  -0.2273
  C  C109  1  0.265130  0.295200  0.845900  1.0  0.133
  C  C110  1  0.291930  0.063000  0.650400  1.0  -0.0266
  C  C111  1  0.161430  0.113100  0.566000  1.0  -0.1618
  C  C112  1  0.042230  0.056100  0.525000  1.0  0.6105
  C  C113  1  0.193630  0.168800  0.521000  1.0  0.307
  C  C114  1  0.256430  0.255900  0.582700  1.0  -0.3781
  C  C115  1  0.626400  0.502600  0.282500  1.0  0.1373
  C  C116  1  0.604300  0.474800  0.194700  1.0  -0.2085
  C  C117  1  0.489200  0.434300  0.156000  1.0  0.0684
  C  C118  1  0.402200  0.420600  0.207400  1.0  -0.2306
  C  C119  1  0.431800  0.449300  0.295200  1.0  0.1349
  C  C120  1  0.458600  0.412600  0.063000  1.0  -0.0256
  C  C121  1  0.328100  0.547100  0.113100  1.0  -0.1699
  C  C122  1  0.208900  0.531100  0.056100  1.0  0.6106
  C  C123  1  0.360300  0.647800  0.168800  1.0  0.308
  C  C124  1  0.423100  0.673200  0.255900  1.0  -0.3783
  C  C125  1  0.293070  0.779900  0.497400  1.0  0.137
  C  C126  1  0.270970  0.719900  0.525200  1.0  -0.2092
  C  C127  1  0.155870  0.721700  0.565700  1.0  0.0671
  C  C128  1  0.068870  0.786800  0.579400  1.0  -0.2306
  C  C129  1  0.098470  0.845900  0.550700  1.0  0.1291
  C  C130  1  0.125270  0.650400  0.587400  1.0  -0.0246
  C  C131  1  0.994770  0.566000  0.452900  1.0  -0.1614
  C  C132  1  0.875570  0.525000  0.468900  1.0  0.6121
  C  C133  1  0.026970  0.521000  0.352200  1.0  0.306
  C  C134  1  0.089770  0.582700  0.326800  1.0  -0.3785
  C  C135  1  0.959730  0.717500  0.220100  1.0  0.1365
  C  C136  1  0.937630  0.805300  0.280100  1.0  -0.2102
  C  C137  1  0.822530  0.844000  0.278300  1.0  0.0664
  C  C138  1  0.735530  0.792600  0.213200  1.0  -0.2275
  C  C139  1  0.765130  0.704800  0.154100  1.0  0.1329
  C  C140  1  0.791930  0.937000  0.349600  1.0  -0.0261
  C  C141  1  0.661430  0.886900  0.434000  1.0  -0.1601
  C  C142  1  0.542230  0.943900  0.475000  1.0  0.6104
  C  C143  1  0.693630  0.831200  0.479000  1.0  0.3079
  C  C144  1  0.756430  0.744100  0.417300  1.0  -0.3787
  N  N145  1  0.041000  0.508800  0.666500  1.0  -0.2629
  N  N146  1  0.937500  0.504000  0.940600  1.0  -0.2702
  N  N147  1  0.707670  0.157700  0.491200  1.0  -0.2614
  N  N148  1  0.604170  0.436600  0.496000  1.0  -0.2809
  N  N149  1  0.374330  0.333500  0.842300  1.0  -0.2601
  N  N150  1  0.270830  0.059400  0.563400  1.0  -0.2776
  N  N151  1  0.541000  0.491200  0.333500  1.0  -0.2616
  N  N152  1  0.437500  0.496000  0.059400  1.0  -0.2745
  N  N153  1  0.207670  0.842300  0.508800  1.0  -0.261
  N  N154  1  0.104170  0.563400  0.504000  1.0  -0.2741
  N  N155  1  0.874330  0.666500  0.157700  1.0  -0.2599
  N  N156  1  0.770830  0.940600  0.436600  1.0  -0.273
  O  O157  1  0.719100  0.509500  0.025900  1.0  -0.5051
  O  O158  1  0.606900  0.439500  0.901000  1.0  -0.557
  O  O159  1  0.949800  0.329300  0.875400  1.0  -0.5536
  O  O160  1  0.385770  0.516400  0.490500  1.0  -0.5057
  O  O161  1  0.273570  0.461500  0.560500  1.0  -0.5581
  O  O162  1  0.616470  0.546100  0.670700  1.0  -0.5558
  O  O163  1  0.052430  0.974100  0.483600  1.0  -0.5058
  O  O164  1  0.940230  0.099000  0.538500  1.0  -0.5569
  O  O165  1  0.283130  0.124600  0.453900  1.0  -0.5525
  O  O166  1  0.219100  0.490500  0.974100  1.0  -0.5063
  O  O167  1  0.106900  0.560500  0.099000  1.0  -0.5572
  O  O168  1  0.449800  0.670700  0.124600  1.0  -0.5526
  O  O169  1  0.885770  0.483600  0.509500  1.0  -0.5059
  O  O170  1  0.773570  0.538500  0.439500  1.0  -0.5568
  O  O171  1  0.116470  0.453900  0.329300  1.0  -0.5547
  O  O172  1  0.552430  0.025900  0.516400  1.0  -0.5055
  O  O173  1  0.440230  0.901000  0.461500  1.0  -0.5573
  O  O174  1  0.783130  0.875400  0.546100  1.0  -0.5531
