# generated using pymatgen
data_NdH12(C5O3)3
_symmetry_space_group_name_H-M   'P 1'
_cell_length_a   8.94060000
_cell_length_b   12.13060000
_cell_length_c   16.69980000
_cell_angle_alpha   90.00000000
_cell_angle_beta   90.00000000
_cell_angle_gamma   109.28100000
_symmetry_Int_Tables_number   1
_chemical_formula_structural   NdH12(C5O3)3
_chemical_formula_sum   'Nd4 H48 C60 O36'
_cell_volume   1709.58632684
_cell_formula_units_Z   4
loop_
 _symmetry_equiv_pos_site_id
 _symmetry_equiv_pos_as_xyz
  1  'x, y, z'
loop_
 _atom_site_type_symbol
 _atom_site_label
 _atom_site_symmetry_multiplicity
 _atom_site_fract_x
 _atom_site_fract_y
 _atom_site_fract_z
 _atom_site_occupancy
 _atom_site_charge
  Nd  Nd1  1  0.066970  0.048040  0.116850  1.0  2.3045
  Nd  Nd2  1  0.933030  0.951960  0.883150  1.0  2.3066
  Nd  Nd3  1  0.566970  0.048040  0.383150  1.0  2.3046
  Nd  Nd4  1  0.433030  0.951960  0.616850  1.0  2.3059
  H  H5  1  0.371900  0.532900  0.067700  1.0  0.1053
  H  H6  1  0.529400  0.717600  0.068300  1.0  0.0959
  H  H7  1  0.741500  0.795200  0.428300  1.0  0.1004
  H  H8  1  0.258500  0.204800  0.571700  1.0  0.1011
  H  H9  1  0.029400  0.717600  0.431700  1.0  0.0959
  H  H10  1  0.412500  0.724000  0.822300  1.0  0.1016
  H  H11  1  0.679400  0.357100  0.399000  1.0  0.1078
  H  H12  1  0.401700  0.347900  0.307600  1.0  0.1191
  H  H13  1  0.871900  0.532900  0.432300  1.0  0.1044
  H  H14  1  0.008200  0.664000  0.073400  1.0  0.1175
  H  H15  1  0.907100  0.474600  0.775500  1.0  0.1128
  H  H16  1  0.758500  0.204800  0.928300  1.0  0.1
  H  H17  1  0.241500  0.795200  0.071700  1.0  0.1009
  H  H18  1  0.587500  0.276000  0.177700  1.0  0.1015
  H  H19  1  0.380500  0.363700  0.965000  1.0  0.084
  H  H20  1  0.828300  0.818200  0.666400  1.0  0.1064
  H  H21  1  0.619500  0.636300  0.035000  1.0  0.0839
  H  H22  1  0.204600  0.505200  0.914600  1.0  0.1032
  H  H23  1  0.328300  0.818200  0.833600  1.0  0.1059
  H  H24  1  0.991800  0.336000  0.926600  1.0  0.118
  H  H25  1  0.592900  0.525400  0.275500  1.0  0.1136
  H  H26  1  0.128100  0.467100  0.567700  1.0  0.1048
  H  H27  1  0.795400  0.494800  0.085400  1.0  0.1036
  H  H28  1  0.295400  0.494800  0.414600  1.0  0.1035
  H  H29  1  0.119500  0.636300  0.465000  1.0  0.0843
  H  H30  1  0.470600  0.282400  0.931700  1.0  0.0962
  H  H31  1  0.704600  0.505200  0.585400  1.0  0.1038
  H  H32  1  0.087500  0.276000  0.322300  1.0  0.1011
  H  H33  1  0.671700  0.181800  0.166400  1.0  0.1051
  H  H34  1  0.171700  0.181800  0.333600  1.0  0.106
  H  H35  1  0.820600  0.642900  0.899000  1.0  0.108
  H  H36  1  0.491800  0.336000  0.573400  1.0  0.1191
  H  H37  1  0.598300  0.652100  0.692400  1.0  0.1185
  H  H38  1  0.875500  0.860600  0.488700  1.0  0.1284
  H  H39  1  0.407100  0.474600  0.724500  1.0  0.1126
  H  H40  1  0.508200  0.664000  0.426600  1.0  0.1175
  H  H41  1  0.628100  0.467100  0.932300  1.0  0.1048
  H  H42  1  0.901700  0.347900  0.192400  1.0  0.1187
  H  H43  1  0.970600  0.282400  0.568300  1.0  0.0963
  H  H44  1  0.124500  0.139400  0.511300  1.0  0.1281
  H  H45  1  0.098300  0.652100  0.807600  1.0  0.1187
  H  H46  1  0.375500  0.860600  0.011300  1.0  0.1282
  H  H47  1  0.912500  0.724000  0.677700  1.0  0.1018
  H  H48  1  0.880500  0.363700  0.535000  1.0  0.0834
  H  H49  1  0.320600  0.642900  0.601000  1.0  0.108
  H  H50  1  0.179400  0.357100  0.101000  1.0  0.1075
  H  H51  1  0.624500  0.139400  0.988700  1.0  0.1281
  H  H52  1  0.092900  0.525400  0.224500  1.0  0.1136
  C  C53  1  0.225200  0.664600  0.706020  1.0  0.2357
  C  C54  1  0.870000  0.398100  0.006910  1.0  0.2184
  C  C55  1  0.156100  0.856900  0.974000  1.0  0.732
  C  C56  1  0.656100  0.856900  0.526000  1.0  0.7328
  C  C57  1  0.060100  0.890300  0.702180  1.0  0.75
  C  C58  1  0.996800  0.454600  0.667880  1.0  0.2597
  C  C59  1  0.098900  0.205300  0.300090  1.0  -0.059
  C  C60  1  0.376100  0.304000  0.925600  1.0  -0.0523
  C  C61  1  0.274800  0.335400  0.206020  1.0  0.2351
  C  C62  1  0.121300  0.504200  0.615710  1.0  -0.2236
  C  C63  1  0.560100  0.890300  0.797820  1.0  0.7498
  C  C64  1  0.396300  0.384800  0.259420  1.0  -0.2027
  C  C65  1  0.236200  0.609600  0.635520  1.0  -0.1536
  C  C66  1  0.130000  0.601900  0.993090  1.0  0.2185
  C  C67  1  0.510800  0.490900  0.239900  1.0  -0.1827
  C  C68  1  0.489200  0.509100  0.760100  1.0  -0.1862
  C  C69  1  0.377700  0.496900  0.449210  1.0  -0.1908
  C  C70  1  0.598900  0.205300  0.199910  1.0  -0.0578
  C  C71  1  0.878700  0.495800  0.384290  1.0  -0.2197
  C  C72  1  0.378700  0.495800  0.115710  1.0  -0.2235
  C  C73  1  0.876100  0.304000  0.574400  1.0  -0.0535
  C  C74  1  0.122300  0.503100  0.949210  1.0  -0.1838
  C  C75  1  0.994600  0.401700  0.956010  1.0  -0.222
  C  C76  1  0.010800  0.490900  0.260100  1.0  -0.1863
  C  C77  1  0.630000  0.601900  0.506910  1.0  0.2187
  C  C78  1  0.439900  0.109700  0.202180  1.0  0.7507
  C  C79  1  0.494600  0.401700  0.543990  1.0  -0.22
  C  C80  1  0.505400  0.598300  0.456010  1.0  -0.2217
  C  C81  1  0.896300  0.384800  0.240580  1.0  -0.2025
  C  C82  1  0.623900  0.696000  0.074400  1.0  -0.0529
  C  C83  1  0.731600  0.198000  0.558280  1.0  0.7571
  C  C84  1  0.768400  0.802000  0.058280  1.0  0.7542
  C  C85  1  0.401100  0.794700  0.800090  1.0  -0.0595
  C  C86  1  0.877700  0.496900  0.050790  1.0  -0.1853
  C  C87  1  0.343900  0.143100  0.474000  1.0  0.7333
  C  C88  1  0.774800  0.335400  0.293980  1.0  0.2358
  C  C89  1  0.231300  0.194400  0.515300  1.0  -0.0967
  C  C90  1  0.989200  0.509100  0.739900  1.0  -0.1853
  C  C91  1  0.621300  0.504200  0.884290  1.0  -0.2228
  C  C92  1  0.003200  0.545400  0.332120  1.0  0.2657
  C  C93  1  0.496800  0.454600  0.832120  1.0  0.2659
  C  C94  1  0.736200  0.609600  0.864480  1.0  -0.154
  C  C95  1  0.370000  0.398100  0.493090  1.0  0.2181
  C  C96  1  0.268700  0.805600  0.015300  1.0  -0.0972
  C  C97  1  0.763800  0.390400  0.364480  1.0  -0.1534
  C  C98  1  0.768700  0.805600  0.484700  1.0  -0.0964
  C  C99  1  0.725200  0.664600  0.793980  1.0  0.2352
  C  C100  1  0.901100  0.794700  0.699910  1.0  -0.0594
  C  C101  1  0.603700  0.615200  0.740580  1.0  -0.2029
  C  C102  1  0.103700  0.615200  0.759420  1.0  -0.204
  C  C103  1  0.503200  0.545400  0.167880  1.0  0.2652
  C  C104  1  0.843900  0.143100  0.026000  1.0  0.7349
  C  C105  1  0.268400  0.802000  0.441720  1.0  0.7548
  C  C106  1  0.939900  0.109700  0.297820  1.0  0.7509
  C  C107  1  0.263800  0.390400  0.135520  1.0  -0.1587
  C  C108  1  0.123900  0.696000  0.425600  1.0  -0.0503
  C  C109  1  0.231600  0.198000  0.941720  1.0  0.7556
  C  C110  1  0.622300  0.503100  0.550790  1.0  -0.1822
  C  C111  1  0.005400  0.598300  0.043990  1.0  -0.2204
  C  C112  1  0.731300  0.194400  0.984700  1.0  -0.0958
  O  O113  1  0.839500  0.864410  0.115300  1.0  -0.6848
  O  O114  1  0.593500  0.954630  0.737000  1.0  -0.7283
  O  O115  1  0.840800  0.773580  0.780240  1.0  -0.3699
  O  O116  1  0.353100  0.099720  0.142190  1.0  -0.7289
  O  O117  1  0.870100  0.057600  0.992240  1.0  -0.8363
  O  O118  1  0.733800  0.303120  0.017010  1.0  -0.2474
  O  O119  1  0.339500  0.864410  0.384700  1.0  -0.6841
  O  O120  1  0.199800  0.183030  0.014560  1.0  -0.6887
  O  O121  1  0.800200  0.816970  0.985440  1.0  -0.6898
  O  O122  1  0.902400  0.180640  0.091850  1.0  -0.6155
  O  O123  1  0.093500  0.954630  0.763000  1.0  -0.7276
  O  O124  1  0.659200  0.226420  0.280240  1.0  -0.3687
  O  O125  1  0.375200  0.351050  0.847740  1.0  -0.2641
  O  O126  1  0.699800  0.183030  0.485440  1.0  -0.6894
  O  O127  1  0.660500  0.135590  0.615300  1.0  -0.6843
  O  O128  1  0.266200  0.696880  0.982990  1.0  -0.2483
  O  O129  1  0.340800  0.773580  0.719760  1.0  -0.3695
  O  O130  1  0.129900  0.942400  0.007760  1.0  -0.8367
  O  O131  1  0.146900  0.900280  0.642190  1.0  -0.7295
  O  O132  1  0.906500  0.045370  0.237000  1.0  -0.7281
  O  O133  1  0.402400  0.180640  0.408150  1.0  -0.617
  O  O134  1  0.875200  0.351050  0.652260  1.0  -0.2657
  O  O135  1  0.124800  0.648950  0.347740  1.0  -0.2632
  O  O136  1  0.370100  0.057600  0.507760  1.0  -0.8357
  O  O137  1  0.624800  0.648950  0.152260  1.0  -0.2638
  O  O138  1  0.629900  0.942400  0.492240  1.0  -0.836
  O  O139  1  0.097600  0.819360  0.908150  1.0  -0.6173
  O  O140  1  0.300200  0.816970  0.514560  1.0  -0.6895
  O  O141  1  0.160500  0.135590  0.884700  1.0  -0.6844
  O  O142  1  0.853100  0.099720  0.357810  1.0  -0.7295
  O  O143  1  0.766200  0.696880  0.517010  1.0  -0.2473
  O  O144  1  0.406500  0.045370  0.263000  1.0  -0.7274
  O  O145  1  0.646900  0.900280  0.857810  1.0  -0.7295
  O  O146  1  0.597600  0.819360  0.591850  1.0  -0.6168
  O  O147  1  0.159200  0.226420  0.219760  1.0  -0.3688
  O  O148  1  0.233800  0.303120  0.482990  1.0  -0.2482
