# generated using pymatgen
data_NdH12(C5O3)3
_symmetry_space_group_name_H-M   'P 1'
_cell_length_a   8.95290000
_cell_length_b   12.22030000
_cell_length_c   16.73380000
_cell_angle_alpha   90.00000000
_cell_angle_beta   90.00000000
_cell_angle_gamma   110.00900000
_symmetry_Int_Tables_number   1
_chemical_formula_structural   NdH12(C5O3)3
_chemical_formula_sum   'Nd4 H48 C60 O36'
_cell_volume   1720.28798504
_cell_formula_units_Z   4
loop_
 _symmetry_equiv_pos_site_id
 _symmetry_equiv_pos_as_xyz
  1  'x, y, z'
loop_
 _atom_site_type_symbol
 _atom_site_label
 _atom_site_symmetry_multiplicity
 _atom_site_fract_x
 _atom_site_fract_y
 _atom_site_fract_z
 _atom_site_occupancy
 _atom_site_charge
  Nd  Nd1  1  0.563670  0.047730  0.883030  1.0  2.3002
  Nd  Nd2  1  0.936330  0.952270  0.383030  1.0  2.3017
  Nd  Nd3  1  0.436330  0.952270  0.116970  1.0  2.3014
  Nd  Nd4  1  0.063670  0.047730  0.616970  1.0  2.3005
  H  H5  1  0.088100  0.274100  0.822200  1.0  0.1005
  H  H6  1  0.169900  0.179900  0.833500  1.0  0.1106
  H  H7  1  0.404800  0.345600  0.805000  1.0  0.1278
  H  H8  1  0.596700  0.524800  0.772900  1.0  0.1148
  H  H9  1  0.366400  0.531000  0.568000  1.0  0.1056
  H  H10  1  0.174100  0.357000  0.603100  1.0  0.1069
  H  H11  1  0.526200  0.709700  0.565400  1.0  0.0915
  H  H12  1  0.621800  0.632900  0.532900  1.0  0.0864
  H  H13  1  0.872000  0.862800  0.983400  1.0  0.1277
  H  H14  1  0.732700  0.794400  0.926300  1.0  0.0948
  H  H15  1  0.504700  0.660800  0.926000  1.0  0.1215
  H  H16  1  0.708500  0.510200  0.083100  1.0  0.1087
  H  H17  1  0.411900  0.725900  0.322200  1.0  0.1009
  H  H18  1  0.330100  0.820100  0.333500  1.0  0.1106
  H  H19  1  0.095200  0.654400  0.305000  1.0  0.1274
  H  H20  1  0.903300  0.475200  0.272900  1.0  0.1145
  H  H21  1  0.133600  0.469000  0.068000  1.0  0.105
  H  H22  1  0.325900  0.643000  0.103100  1.0  0.1074
  H  H23  1  0.973800  0.290300  0.065400  1.0  0.0925
  H  H24  1  0.878200  0.367100  0.032900  1.0  0.0853
  H  H25  1  0.628000  0.137200  0.483400  1.0  0.1285
  H  H26  1  0.767300  0.205600  0.426300  1.0  0.0945
  H  H27  1  0.995300  0.339200  0.426000  1.0  0.1221
  H  H28  1  0.791500  0.489800  0.583100  1.0  0.1087
  H  H29  1  0.911900  0.725900  0.177800  1.0  0.1013
  H  H30  1  0.830100  0.820100  0.166500  1.0  0.1107
  H  H31  1  0.595200  0.654400  0.195000  1.0  0.1271
  H  H32  1  0.403300  0.475200  0.227100  1.0  0.1143
  H  H33  1  0.633600  0.469000  0.432000  1.0  0.105
  H  H34  1  0.825900  0.643000  0.396900  1.0  0.1075
  H  H35  1  0.473800  0.290300  0.434600  1.0  0.0921
  H  H36  1  0.378200  0.367100  0.467100  1.0  0.0853
  H  H37  1  0.128000  0.137200  0.016600  1.0  0.1284
  H  H38  1  0.267300  0.205600  0.073700  1.0  0.0953
  H  H39  1  0.495300  0.339200  0.074000  1.0  0.1228
  H  H40  1  0.291500  0.489800  0.916900  1.0  0.1084
  H  H41  1  0.588100  0.274100  0.677800  1.0  0.101
  H  H42  1  0.669900  0.179900  0.666500  1.0  0.1097
  H  H43  1  0.904800  0.345600  0.695000  1.0  0.1273
  H  H44  1  0.096700  0.524800  0.727100  1.0  0.1148
  H  H45  1  0.866400  0.531000  0.932000  1.0  0.1049
  H  H46  1  0.674100  0.357000  0.896900  1.0  0.1073
  H  H47  1  0.026200  0.709700  0.934600  1.0  0.0908
  H  H48  1  0.121800  0.632900  0.967100  1.0  0.0854
  H  H49  1  0.372000  0.862800  0.516600  1.0  0.1273
  H  H50  1  0.232700  0.794400  0.573700  1.0  0.0951
  H  H51  1  0.004700  0.660800  0.574000  1.0  0.1216
  H  H52  1  0.208500  0.510200  0.416900  1.0  0.1082
  C  C53  1  0.938100  0.109000  0.797500  1.0  0.7609
  C  C54  1  0.097900  0.203600  0.800000  1.0  -0.0784
  C  C55  1  0.275400  0.335200  0.705500  1.0  0.2421
  C  C56  1  0.398100  0.383200  0.757500  1.0  -0.1812
  C  C57  1  0.513500  0.490000  0.737800  1.0  -0.1524
  C  C58  1  0.504600  0.544100  0.666667  1.0  0.2389
  C  C59  1  0.375200  0.494200  0.615500  1.0  -0.2241
  C  C60  1  0.261200  0.390200  0.636300  1.0  -0.1381
  C  C61  1  0.623100  0.691900  0.571900  1.0  -0.0653
  C  C62  1  0.766400  0.801900  0.555900  1.0  0.7573
  C  C63  1  0.655500  0.858700  0.024500  1.0  0.7265
  C  C64  1  0.764600  0.807000  0.981900  1.0  -0.0791
  C  C65  1  0.629600  0.602200  0.006200  1.0  0.2265
  C  C66  1  0.503200  0.596200  0.955800  1.0  -0.1998
  C  C67  1  0.624300  0.506400  0.049400  1.0  -0.1457
  C  C68  1  0.561900  0.891000  0.297500  1.0  0.7596
  C  C69  1  0.402100  0.796400  0.300000  1.0  -0.0792
  C  C70  1  0.224600  0.664800  0.205500  1.0  0.2423
  C  C71  1  0.101900  0.616800  0.257500  1.0  -0.181
  C  C72  1  0.986500  0.510000  0.237800  1.0  -0.1545
  C  C73  1  0.995400  0.455900  0.166600  1.0  0.2396
  C  C74  1  0.124800  0.505800  0.115500  1.0  -0.2237
  C  C75  1  0.238800  0.609800  0.136300  1.0  -0.1378
  C  C76  1  0.876900  0.308100  0.071900  1.0  -0.0633
  C  C77  1  0.733600  0.198100  0.055900  1.0  0.7579
  C  C78  1  0.844500  0.141300  0.524500  1.0  0.7281
  C  C79  1  0.735400  0.193000  0.481900  1.0  -0.0782
  C  C80  1  0.870400  0.397800  0.506200  1.0  0.2274
  C  C81  1  0.996800  0.403800  0.455800  1.0  -0.1988
  C  C82  1  0.875700  0.493600  0.549400  1.0  -0.1457
  C  C83  1  0.061900  0.891000  0.202500  1.0  0.7597
  C  C84  1  0.902100  0.796400  0.200000  1.0  -0.0793
  C  C85  1  0.724600  0.664800  0.294500  1.0  0.2427
  C  C86  1  0.601900  0.616800  0.242500  1.0  -0.1819
  C  C87  1  0.486500  0.510000  0.262200  1.0  -0.1548
  C  C88  1  0.495400  0.455900  0.333400  1.0  0.2388
  C  C89  1  0.624800  0.505800  0.384500  1.0  -0.2236
  C  C90  1  0.738800  0.609800  0.363700  1.0  -0.1376
  C  C91  1  0.376900  0.308100  0.428100  1.0  -0.0631
  C  C92  1  0.233600  0.198100  0.444100  1.0  0.7568
  C  C93  1  0.344500  0.141300  0.975500  1.0  0.7274
  C  C94  1  0.235400  0.193000  0.018100  1.0  -0.0779
  C  C95  1  0.370400  0.397800  0.993800  1.0  0.2276
  C  C96  1  0.496800  0.403800  0.044200  1.0  -0.1991
  C  C97  1  0.375700  0.493600  0.950600  1.0  -0.1438
  C  C98  1  0.438100  0.109000  0.702500  1.0  0.7608
  C  C99  1  0.597900  0.203600  0.700000  1.0  -0.0787
  C  C100  1  0.775400  0.335200  0.794500  1.0  0.2425
  C  C101  1  0.898100  0.383200  0.742500  1.0  -0.1821
  C  C102  1  0.013500  0.490000  0.762200  1.0  -0.1564
  C  C103  1  0.004600  0.544100  0.833400  1.0  0.2391
  C  C104  1  0.875200  0.494200  0.884500  1.0  -0.2236
  C  C105  1  0.761200  0.390200  0.863700  1.0  -0.1372
  C  C106  1  0.123100  0.691900  0.928100  1.0  -0.0633
  C  C107  1  0.266400  0.801900  0.944100  1.0  0.7575
  C  C108  1  0.155500  0.858700  0.475500  1.0  0.7261
  C  C109  1  0.264600  0.807000  0.518100  1.0  -0.0785
  C  C110  1  0.129600  0.602200  0.493800  1.0  0.2267
  C  C111  1  0.003200  0.596200  0.544200  1.0  -0.1999
  C  C112  1  0.124300  0.506400  0.450600  1.0  -0.1433
  O  O113  1  0.849400  0.098200  0.857000  1.0  -0.7443
  O  O114  1  0.902700  0.045200  0.736400  1.0  -0.7432
  O  O115  1  0.159200  0.224900  0.719900  1.0  -0.3853
  O  O116  1  0.626300  0.647300  0.649400  1.0  -0.2587
  O  O117  1  0.834200  0.865900  0.613300  1.0  -0.7259
  O  O118  1  0.798900  0.816000  0.483800  1.0  -0.6947
  O  O119  1  0.627900  0.941900  0.991200  1.0  -0.8452
  O  O120  1  0.600000  0.822500  0.091500  1.0  -0.6337
  O  O121  1  0.765100  0.701800  0.014500  1.0  -0.2583
  O  O122  1  0.650600  0.901800  0.357000  1.0  -0.745
  O  O123  1  0.597300  0.954800  0.236400  1.0  -0.7427
  O  O124  1  0.340800  0.775100  0.219900  1.0  -0.3856
  O  O125  1  0.873700  0.352700  0.149400  1.0  -0.2597
  O  O126  1  0.665800  0.134100  0.113300  1.0  -0.7257
  O  O127  1  0.701100  0.184000  0.983800  1.0  -0.6933
  O  O128  1  0.872100  0.058100  0.491200  1.0  -0.8448
  O  O129  1  0.900000  0.177500  0.591500  1.0  -0.6336
  O  O130  1  0.734900  0.298200  0.514500  1.0  -0.2579
  O  O131  1  0.150600  0.901800  0.143000  1.0  -0.7444
  O  O132  1  0.097300  0.954800  0.263600  1.0  -0.7419
  O  O133  1  0.840800  0.775100  0.280100  1.0  -0.3861
  O  O134  1  0.373700  0.352700  0.350600  1.0  -0.2596
  O  O135  1  0.165800  0.134100  0.386700  1.0  -0.7259
  O  O136  1  0.201100  0.184000  0.516200  1.0  -0.6911
  O  O137  1  0.372100  0.058100  0.008800  1.0  -0.845
  O  O138  1  0.400000  0.177500  0.908500  1.0  -0.6343
  O  O139  1  0.234900  0.298200  0.985500  1.0  -0.2583
  O  O140  1  0.349400  0.098200  0.643000  1.0  -0.7437
  O  O141  1  0.402700  0.045200  0.763600  1.0  -0.7423
  O  O142  1  0.659200  0.224900  0.780100  1.0  -0.3857
  O  O143  1  0.126300  0.647300  0.850600  1.0  -0.259
  O  O144  1  0.334200  0.865900  0.886700  1.0  -0.7256
  O  O145  1  0.298900  0.816000  0.016200  1.0  -0.694
  O  O146  1  0.127900  0.941900  0.508800  1.0  -0.8465
  O  O147  1  0.100000  0.822500  0.408500  1.0  -0.6334
  O  O148  1  0.265100  0.701800  0.485500  1.0  -0.2576
