# generated using pymatgen
data_CdH11C17N3O2
_symmetry_space_group_name_H-M   'P 1'
_cell_length_a   9.73550000
_cell_length_b   10.00020000
_cell_length_c   26.29500000
_cell_angle_alpha   90.00000000
_cell_angle_beta   90.00000000
_cell_angle_gamma   90.00000000
_symmetry_Int_Tables_number   1
_chemical_formula_structural   CdH11C17N3O2
_chemical_formula_sum   'Cd4 H44 C68 N12 O8'
_cell_volume   2560.00092399
_cell_formula_units_Z   4
loop_
 _symmetry_equiv_pos_site_id
 _symmetry_equiv_pos_as_xyz
  1  'x, y, z'
loop_
 _atom_site_type_symbol
 _atom_site_label
 _atom_site_symmetry_multiplicity
 _atom_site_fract_x
 _atom_site_fract_y
 _atom_site_fract_z
 _atom_site_occupancy
 _atom_site_charge
  Cd  Cd1  1  0.468620  0.313420  0.866160  1.0  0.8202
  Cd  Cd2  1  0.031380  0.686580  0.366160  1.0  0.821
  Cd  Cd3  1  0.531380  0.813420  0.633840  1.0  0.8196
  Cd  Cd4  1  0.968620  0.186580  0.133840  1.0  0.8208
  H  H5  1  0.325800  0.269200  0.972600  1.0  0.087
  H  H6  1  0.238500  0.850000  0.911800  1.0  0.1093
  H  H7  1  0.354100  0.004600  0.863500  1.0  0.0727
  H  H8  1  0.142900  0.915900  0.987800  1.0  0.113
  H  H9  1  0.451600  0.184100  0.047400  1.0  0.1131
  H  H10  1  0.567900  0.306000  0.110700  1.0  0.0941
  H  H11  1  0.439500  0.428800  0.169100  1.0  0.1127
  H  H12  1  0.252700  0.833600  0.292100  1.0  0.0689
  H  H13  1  0.356500  0.818400  0.215000  1.0  0.1005
  H  H14  1  0.321700  0.631700  0.163100  1.0  0.1194
  H  H15  1  0.088000  0.483200  0.274700  1.0  0.0778
  H  H16  1  0.174200  0.730800  0.472600  1.0  0.0868
  H  H17  1  0.261500  0.150000  0.411800  1.0  0.1092
  H  H18  1  0.145900  0.995400  0.363500  1.0  0.0727
  H  H19  1  0.357100  0.084100  0.487800  1.0  0.1124
  H  H20  1  0.048400  0.815900  0.547400  1.0  0.1131
  H  H21  1  0.932100  0.694000  0.610700  1.0  0.0936
  H  H22  1  0.060500  0.571200  0.669100  1.0  0.1128
  H  H23  1  0.247300  0.166400  0.792100  1.0  0.0691
  H  H24  1  0.143500  0.181600  0.715000  1.0  0.1
  H  H25  1  0.178300  0.368300  0.663100  1.0  0.1195
  H  H26  1  0.412000  0.516800  0.774700  1.0  0.0775
  H  H27  1  0.674200  0.769200  0.527400  1.0  0.0871
  H  H28  1  0.761500  0.350000  0.588200  1.0  0.1098
  H  H29  1  0.645900  0.504600  0.636500  1.0  0.0725
  H  H30  1  0.857100  0.415900  0.512200  1.0  0.1122
  H  H31  1  0.548400  0.684100  0.452600  1.0  0.113
  H  H32  1  0.432100  0.806000  0.389300  1.0  0.0937
  H  H33  1  0.560500  0.928800  0.330900  1.0  0.1124
  H  H34  1  0.747300  0.333600  0.207900  1.0  0.069
  H  H35  1  0.643500  0.318400  0.285000  1.0  0.1007
  H  H36  1  0.678300  0.131700  0.336900  1.0  0.1197
  H  H37  1  0.912000  0.983200  0.225300  1.0  0.0771
  H  H38  1  0.825800  0.230800  0.027400  1.0  0.0868
  H  H39  1  0.738500  0.650000  0.088200  1.0  0.1081
  H  H40  1  0.854100  0.495400  0.136500  1.0  0.0724
  H  H41  1  0.642900  0.584100  0.012200  1.0  0.1128
  H  H42  1  0.951600  0.315900  0.952600  1.0  0.1129
  H  H43  1  0.067900  0.194000  0.889300  1.0  0.094
  H  H44  1  0.939500  0.071200  0.830900  1.0  0.1128
  H  H45  1  0.752700  0.666400  0.707900  1.0  0.0692
  H  H46  1  0.856500  0.681600  0.785000  1.0  0.1001
  H  H47  1  0.821700  0.868300  0.836900  1.0  0.1198
  H  H48  1  0.588000  0.016800  0.725300  1.0  0.0772
  C  C49  1  0.305900  0.184700  0.959800  1.0  0.1448
  C  C50  1  0.232800  0.097500  0.989700  1.0  -0.002
  C  C51  1  0.251500  0.936400  0.923900  1.0  -0.1661
  C  C52  1  0.323200  0.029200  0.895600  1.0  0.1494
  C  C53  1  0.200000  0.973600  0.969900  1.0  -0.0489
  C  C54  1  0.175900  0.139000  0.040100  1.0  0.2098
  C  C55  1  0.261600  0.218800  0.076500  1.0  0.1381
  C  C56  1  0.403600  0.227200  0.073200  1.0  -0.1381
  C  C57  1  0.472400  0.302700  0.110200  1.0  -0.1146
  C  C58  1  0.397100  0.372000  0.145900  1.0  -0.1536
  C  C59  1  0.252900  0.353900  0.146100  1.0  0.1451
  C  C60  1  0.160500  0.417700  0.184800  1.0  0.2953
  C  C61  1  0.238400  0.757400  0.272500  1.0  0.1478
  C  C62  1  0.300600  0.748800  0.226100  1.0  -0.1334
  C  C63  1  0.281700  0.637400  0.195200  1.0  -0.1697
  C  C64  1  0.200400  0.534900  0.214400  1.0  -0.0769
  C  C65  1  0.142100  0.552100  0.261900  1.0  0.188
  C  C66  1  0.194100  0.815300  0.459800  1.0  0.1459
  C  C67  1  0.267200  0.902500  0.489700  1.0  -0.0022
  C  C68  1  0.248500  0.063600  0.423900  1.0  -0.1601
  C  C69  1  0.176800  0.970800  0.395600  1.0  0.1513
  C  C70  1  0.300000  0.026400  0.469900  1.0  -0.0458
  C  C71  1  0.324100  0.861000  0.540100  1.0  0.2092
  C  C72  1  0.238400  0.781200  0.576500  1.0  0.139
  C  C73  1  0.096400  0.772800  0.573200  1.0  -0.1368
  C  C74  1  0.027600  0.697300  0.610200  1.0  -0.1143
  C  C75  1  0.102900  0.628000  0.645900  1.0  -0.1539
  C  C76  1  0.247100  0.646100  0.646100  1.0  0.1461
  C  C77  1  0.339500  0.582300  0.684800  1.0  0.2969
  C  C78  1  0.261600  0.242600  0.772500  1.0  0.1476
  C  C79  1  0.199400  0.251200  0.726100  1.0  -0.1345
  C  C80  1  0.218300  0.362600  0.695200  1.0  -0.1703
  C  C81  1  0.299600  0.465100  0.714400  1.0  -0.0778
  C  C82  1  0.357900  0.447900  0.761900  1.0  0.1864
  C  C83  1  0.694100  0.684700  0.540200  1.0  0.1457
  C  C84  1  0.767200  0.597500  0.510300  1.0  -0.0006
  C  C85  1  0.748500  0.436400  0.576100  1.0  -0.166
  C  C86  1  0.676800  0.529200  0.604400  1.0  0.1514
  C  C87  1  0.800000  0.473600  0.530100  1.0  -0.0508
  C  C88  1  0.824100  0.639000  0.459900  1.0  0.2107
  C  C89  1  0.738400  0.718800  0.423500  1.0  0.1387
  C  C90  1  0.596400  0.727200  0.426800  1.0  -0.1375
  C  C91  1  0.527600  0.802700  0.389800  1.0  -0.1133
  C  C92  1  0.602900  0.872000  0.354100  1.0  -0.1526
  C  C93  1  0.747100  0.853900  0.353900  1.0  0.1458
  C  C94  1  0.839500  0.917700  0.315200  1.0  0.2975
  C  C95  1  0.761600  0.257400  0.227500  1.0  0.1481
  C  C96  1  0.699400  0.248800  0.273900  1.0  -0.1347
  C  C97  1  0.718300  0.137400  0.304800  1.0  -0.1695
  C  C98  1  0.799600  0.034900  0.285600  1.0  -0.0775
  C  C99  1  0.857900  0.052100  0.238100  1.0  0.1866
  C  C100  1  0.805900  0.315300  0.040200  1.0  0.1447
  C  C101  1  0.732800  0.402500  0.010300  1.0  -0.0004
  C  C102  1  0.751500  0.563600  0.076100  1.0  -0.161
  C  C103  1  0.823200  0.470800  0.104400  1.0  0.1512
  C  C104  1  0.700000  0.526400  0.030100  1.0  -0.0455
  C  C105  1  0.675900  0.361000  0.959900  1.0  0.2102
  C  C106  1  0.761600  0.281200  0.923500  1.0  0.1387
  C  C107  1  0.903600  0.272800  0.926800  1.0  -0.1377
  C  C108  1  0.972400  0.197300  0.889800  1.0  -0.114
  C  C109  1  0.897100  0.128000  0.854100  1.0  -0.1531
  C  C110  1  0.752900  0.146100  0.853900  1.0  0.1458
  C  C111  1  0.660500  0.082300  0.815200  1.0  0.2956
  C  C112  1  0.738400  0.742600  0.727500  1.0  0.1475
  C  C113  1  0.800600  0.751200  0.773900  1.0  -0.135
  C  C114  1  0.781700  0.862600  0.804800  1.0  -0.1691
  C  C115  1  0.700400  0.965100  0.785600  1.0  -0.077
  C  C116  1  0.642100  0.947900  0.738100  1.0  0.1865
  N  N117  1  0.350600  0.152900  0.912100  1.0  -0.3491
  N  N118  1  0.188700  0.276300  0.113100  1.0  -0.3741
  N  N119  1  0.158400  0.661400  0.290700  1.0  -0.3756
  N  N120  1  0.149400  0.847100  0.412100  1.0  -0.3529
  N  N121  1  0.311300  0.723700  0.613100  1.0  -0.3747
  N  N122  1  0.341600  0.338600  0.790700  1.0  -0.3754
  N  N123  1  0.649400  0.652900  0.587900  1.0  -0.3505
  N  N124  1  0.811300  0.776300  0.386900  1.0  -0.3744
  N  N125  1  0.841600  0.161400  0.209300  1.0  -0.3756
  N  N126  1  0.850600  0.347100  0.087900  1.0  -0.3488
  N  N127  1  0.688700  0.223700  0.886900  1.0  -0.3741
  N  N128  1  0.658400  0.838600  0.709300  1.0  -0.3745
  O  O129  1  0.045200  0.367800  0.192000  1.0  -0.6247
  O  O130  1  0.059300  0.106500  0.051400  1.0  -0.5854
  O  O131  1  0.454800  0.632200  0.692000  1.0  -0.6241
  O  O132  1  0.440700  0.893500  0.551400  1.0  -0.5859
  O  O133  1  0.954800  0.867800  0.308000  1.0  -0.6253
  O  O134  1  0.940700  0.606500  0.448600  1.0  -0.5864
  O  O135  1  0.545200  0.132200  0.808000  1.0  -0.6242
  O  O136  1  0.559300  0.393500  0.948600  1.0  -0.585
