# generated using pymatgen
data_CuH11(C5O)4
_symmetry_space_group_name_H-M   'P 1'
_cell_length_a   18.13990000
_cell_length_b   21.90420000
_cell_length_c   21.90420000
_cell_angle_alpha   80.12740000
_cell_angle_beta   65.53900000
_cell_angle_gamma   65.53890000
_symmetry_Int_Tables_number   1
_chemical_formula_structural   CuH11(C5O)4
_chemical_formula_sum   'Cu8 H88 C160 O32'
_cell_volume   7211.14700880
_cell_formula_units_Z   8
loop_
 _symmetry_equiv_pos_site_id
 _symmetry_equiv_pos_as_xyz
  1  'x, y, z'
loop_
 _atom_site_type_symbol
 _atom_site_label
 _atom_site_symmetry_multiplicity
 _atom_site_fract_x
 _atom_site_fract_y
 _atom_site_fract_z
 _atom_site_occupancy
 _atom_site_charge
  Cu  Cu1  1  0.887190  0.723810  0.276190  1.0  0.9018
  Cu  Cu2  1  0.995080  0.786210  0.213790  1.0  0.9438
  Cu  Cu3  1  0.887190  0.276190  0.723810  1.0  0.9078
  Cu  Cu4  1  0.995080  0.213790  0.786210  1.0  0.9418
  Cu  Cu5  1  0.836620  0.276190  0.276190  1.0  0.9037
  Cu  Cu6  1  0.791130  0.213790  0.213790  1.0  0.9424
  Cu  Cu7  1  0.389000  0.723810  0.723810  1.0  0.9067
  Cu  Cu8  1  0.218710  0.786210  0.786210  1.0  0.9384
  H  H9  1  0.855700  0.681300  0.106300  1.0  0.1046
  H  H10  1  0.862600  0.655600  0.005800  1.0  0.1127
  H  H11  1  0.046100  0.734100  0.907300  1.0  0.1083
  H  H12  1  0.037300  0.758400  0.009200  1.0  0.0997
  H  H13  1  0.964300  0.764800  0.835200  1.0  0.142
  H  H14  1  0.954100  0.646000  0.721000  1.0  0.0961
  H  H15  1  0.942300  0.588500  0.906100  1.0  0.1172
  H  H16  1  0.010500  0.486500  0.859700  1.0  0.1134
  H  H17  1  0.019600  0.385200  0.834400  1.0  0.0798
  H  H18  1  0.873700  0.478000  0.728400  1.0  0.1049
  H  H19  1  0.874600  0.577900  0.745700  1.0  0.1031
  H  H20  1  0.643300  0.318700  0.893700  1.0  0.1048
  H  H21  1  0.524000  0.344400  0.994200  1.0  0.1136
  H  H22  1  0.687500  0.265900  0.092700  1.0  0.1146
  H  H23  1  0.804900  0.241600  0.990800  1.0  0.0994
  H  H24  1  0.564300  0.235200  0.164800  1.0  0.1434
  H  H25  1  0.321100  0.354000  0.279000  1.0  0.096
  H  H26  1  0.436900  0.411500  0.093900  1.0  0.1171
  H  H27  1  0.356700  0.513500  0.140300  1.0  0.1139
  H  H28  1  0.239200  0.614800  0.165600  1.0  0.08
  H  H29  1  0.080100  0.522000  0.271600  1.0  0.1058
  H  H30  1  0.198200  0.422100  0.254300  1.0  0.1054
  H  H31  1  0.643300  0.893700  0.318700  1.0  0.1051
  H  H32  1  0.524000  0.994200  0.344400  1.0  0.1142
  H  H33  1  0.687500  0.092700  0.265900  1.0  0.1037
  H  H34  1  0.804900  0.990800  0.241600  1.0  0.1002
  H  H35  1  0.564300  0.164800  0.235200  1.0  0.1391
  H  H36  1  0.321100  0.279000  0.354000  1.0  0.0956
  H  H37  1  0.436900  0.093900  0.411500  1.0  0.1161
  H  H38  1  0.356700  0.140300  0.513500  1.0  0.1106
  H  H39  1  0.239200  0.165600  0.614800  1.0  0.08
  H  H40  1  0.080100  0.271600  0.522000  1.0  0.1044
  H  H41  1  0.198200  0.254300  0.422100  1.0  0.1031
  H  H42  1  0.855700  0.106300  0.681300  1.0  0.1043
  H  H43  1  0.862600  0.005800  0.655600  1.0  0.1142
  H  H44  1  0.046100  0.907300  0.734100  1.0  0.1091
  H  H45  1  0.037300  0.009200  0.758400  1.0  0.1013
  H  H46  1  0.964300  0.835200  0.764800  1.0  0.1461
  H  H47  1  0.954100  0.721000  0.646000  1.0  0.0948
  H  H48  1  0.942300  0.906100  0.588500  1.0  0.1152
  H  H49  1  0.010500  0.859700  0.486500  1.0  0.1109
  H  H50  1  0.019600  0.834400  0.385200  1.0  0.0782
  H  H51  1  0.873700  0.728400  0.478000  1.0  0.1046
  H  H52  1  0.874600  0.745700  0.577900  1.0  0.1048
  H  H53  1  0.038000  0.106300  0.318700  1.0  0.104
  H  H54  1  0.131600  0.005800  0.344400  1.0  0.1145
  H  H55  1  0.046600  0.907300  0.265900  1.0  0.1047
  H  H56  1  0.953500  0.009200  0.241600  1.0  0.1017
  H  H57  1  0.200500  0.835200  0.235200  1.0  0.1371
  H  H58  1  0.324900  0.721000  0.354000  1.0  0.097
  H  H59  1  0.151600  0.906100  0.411500  1.0  0.1146
  H  H60  1  0.129800  0.859700  0.513500  1.0  0.1112
  H  H61  1  0.146000  0.834400  0.614800  1.0  0.078
  H  H62  1  0.397900  0.728400  0.522000  1.0  0.105
  H  H63  1  0.379700  0.745700  0.422100  1.0  0.1043
  H  H64  1  0.463000  0.893700  0.681300  1.0  0.105
  H  H65  1  0.481800  0.994200  0.655600  1.0  0.1135
  H  H66  1  0.219800  0.092700  0.734100  1.0  0.1138
  H  H67  1  0.204300  0.990800  0.758400  1.0  0.1007
  H  H68  1  0.270900  0.164800  0.764800  1.0  0.1412
  H  H69  1  0.399900  0.279000  0.646000  1.0  0.0944
  H  H70  1  0.469200  0.093900  0.588500  1.0  0.116
  H  H71  1  0.503000  0.140300  0.486500  1.0  0.1108
  H  H72  1  0.595200  0.165600  0.385200  1.0  0.0804
  H  H73  1  0.648300  0.271600  0.478000  1.0  0.1051
  H  H74  1  0.547500  0.254300  0.577900  1.0  0.1036
  H  H75  1  0.463000  0.681300  0.893700  1.0  0.1045
  H  H76  1  0.481800  0.655600  0.994200  1.0  0.1128
  H  H77  1  0.219800  0.734100  0.092700  1.0  0.114
  H  H78  1  0.204300  0.758400  0.990800  1.0  0.1
  H  H79  1  0.270900  0.764800  0.164800  1.0  0.1442
  H  H80  1  0.399900  0.646000  0.279000  1.0  0.0969
  H  H81  1  0.469200  0.588500  0.093900  1.0  0.1162
  H  H82  1  0.503000  0.486500  0.140300  1.0  0.1132
  H  H83  1  0.595200  0.385200  0.165600  1.0  0.0794
  H  H84  1  0.648300  0.478000  0.271600  1.0  0.1047
  H  H85  1  0.547500  0.577900  0.254300  1.0  0.1039
  H  H86  1  0.038000  0.318700  0.106300  1.0  0.1044
  H  H87  1  0.131600  0.344400  0.005800  1.0  0.1138
  H  H88  1  0.046600  0.265900  0.907300  1.0  0.1066
  H  H89  1  0.953500  0.241600  0.009200  1.0  0.1003
  H  H90  1  0.200500  0.235200  0.835200  1.0  0.1408
  H  H91  1  0.324900  0.354000  0.721000  1.0  0.0965
  H  H92  1  0.151600  0.411500  0.906100  1.0  0.1165
  H  H93  1  0.129800  0.513500  0.859700  1.0  0.1144
  H  H94  1  0.146000  0.614800  0.834400  1.0  0.0799
  H  H95  1  0.397900  0.522000  0.728400  1.0  0.1056
  H  H96  1  0.379700  0.422100  0.745700  1.0  0.1054
  C  C97  1  0.944440  0.736410  0.133510  1.0  0.6855
  C  C98  1  0.947410  0.721190  0.067390  1.0  -0.1322
  C  C99  1  0.894230  0.691510  0.066230  1.0  -0.0458
  C  C100  1  0.897830  0.676640  0.005900  1.0  -0.104
  C  C101  1  0.953210  0.692810  0.945770  1.0  0.0714
  C  C102  1  0.007450  0.723450  0.947050  1.0  -0.1582
  C  C103  1  0.002450  0.737460  0.008240  1.0  -0.0312
  C  C104  1  0.957630  0.677890  0.879050  1.0  0.0372
  C  C105  1  0.960990  0.725410  0.828410  1.0  -0.0877
  C  C106  1  0.959520  0.716130  0.767630  1.0  0.044
  C  C107  1  0.954620  0.654400  0.760960  1.0  -0.1173
  C  C108  1  0.950600  0.607330  0.810270  1.0  -0.0013
  C  C109  1  0.948950  0.618990  0.871110  1.0  -0.1247
  C  C110  1  0.945620  0.542760  0.802000  1.0  0.0358
  C  C111  1  0.985200  0.485070  0.830930  1.0  -0.1837
  C  C112  1  0.987600  0.424490  0.817710  1.0  -0.0181
  C  C113  1  0.945210  0.420710  0.781470  1.0  -0.1378
  C  C114  1  0.903020  0.479000  0.754160  1.0  -0.0658
  C  C115  1  0.903600  0.538920  0.764680  1.0  -0.1609
  C  C116  1  0.943870  0.354110  0.771950  1.0  0.6761
  C  C117  1  0.814360  0.263590  0.866490  1.0  0.6739
  C  C118  1  0.735990  0.278810  0.932610  1.0  -0.1318
  C  C119  1  0.651970  0.308490  0.933770  1.0  -0.0453
  C  C120  1  0.580370  0.323360  0.994100  1.0  -0.1068
  C  C121  1  0.591790  0.307190  0.054230  1.0  0.073
  C  C122  1  0.677950  0.276550  0.052950  1.0  -0.1613
  C  C123  1  0.748150  0.262540  0.991760  1.0  -0.0302
  C  C124  1  0.514570  0.322110  0.120950  1.0  0.0361
  C  C125  1  0.514810  0.274590  0.171590  1.0  -0.0863
  C  C126  1  0.443280  0.283870  0.232370  1.0  0.0478
  C  C127  1  0.369980  0.345600  0.239040  1.0  -0.1203
  C  C128  1  0.368200  0.392670  0.189730  1.0  -0.0032
  C  C129  1  0.439050  0.381010  0.128890  1.0  -0.1248
  C  C130  1  0.290380  0.457240  0.198000  1.0  0.0359
  C  C131  1  0.301200  0.514930  0.169070  1.0  -0.1829
  C  C132  1  0.229800  0.575510  0.182290  1.0  -0.0172
  C  C133  1  0.147390  0.579290  0.218530  1.0  -0.1391
  C  C134  1  0.136180  0.521000  0.245840  1.0  -0.0666
  C  C135  1  0.207200  0.461080  0.235320  1.0  -0.1598
  C  C136  1  0.069930  0.645890  0.228050  1.0  0.6723
  C  C137  1  0.814360  0.866490  0.263590  1.0  0.6731
  C  C138  1  0.735990  0.932610  0.278810  1.0  -0.1308
  C  C139  1  0.651970  0.933770  0.308490  1.0  -0.0399
  C  C140  1  0.580370  0.994100  0.323360  1.0  -0.1223
  C  C141  1  0.591790  0.054230  0.307190  1.0  0.0701
  C  C142  1  0.677950  0.052950  0.276550  1.0  -0.1593
  C  C143  1  0.748150  0.991760  0.262540  1.0  -0.0306
  C  C144  1  0.514570  0.120950  0.322110  1.0  0.0362
  C  C145  1  0.514810  0.171590  0.274590  1.0  -0.0869
  C  C146  1  0.443280  0.232370  0.283870  1.0  0.0482
  C  C147  1  0.369980  0.239040  0.345600  1.0  -0.1183
  C  C148  1  0.368200  0.189730  0.392670  1.0  -0.0026
  C  C149  1  0.439050  0.128890  0.381010  1.0  -0.1281
  C  C150  1  0.290380  0.198000  0.457240  1.0  0.0369
  C  C151  1  0.301200  0.169070  0.514930  1.0  -0.183
  C  C152  1  0.229800  0.182290  0.575510  1.0  -0.0196
  C  C153  1  0.147390  0.218530  0.579290  1.0  -0.1431
  C  C154  1  0.136180  0.245840  0.521000  1.0  -0.068
  C  C155  1  0.207200  0.235320  0.461080  1.0  -0.1579
  C  C156  1  0.069930  0.228050  0.645890  1.0  0.6768
  C  C157  1  0.944440  0.133510  0.736410  1.0  0.6854
  C  C158  1  0.947410  0.067390  0.721190  1.0  -0.1304
  C  C159  1  0.894230  0.066230  0.691510  1.0  -0.0475
  C  C160  1  0.897830  0.005900  0.676640  1.0  -0.1071
  C  C161  1  0.953210  0.945770  0.692810  1.0  0.0699
  C  C162  1  0.007450  0.947050  0.723450  1.0  -0.1583
  C  C163  1  0.002450  0.008240  0.737460  1.0  -0.0297
  C  C164  1  0.957630  0.879050  0.677890  1.0  0.0366
  C  C165  1  0.960990  0.828410  0.725410  1.0  -0.0854
  C  C166  1  0.959520  0.767630  0.716130  1.0  0.0497
  C  C167  1  0.954620  0.760960  0.654400  1.0  -0.119
  C  C168  1  0.950600  0.810270  0.607330  1.0  -0.0024
  C  C169  1  0.948950  0.871110  0.618990  1.0  -0.1262
  C  C170  1  0.945620  0.802000  0.542760  1.0  0.0358
  C  C171  1  0.985200  0.830930  0.485070  1.0  -0.1826
  C  C172  1  0.987600  0.817710  0.424490  1.0  -0.0166
  C  C173  1  0.945210  0.781470  0.420710  1.0  -0.1422
  C  C174  1  0.903020  0.754160  0.479000  1.0  -0.0641
  C  C175  1  0.903600  0.764680  0.538920  1.0  -0.1599
  C  C176  1  0.943870  0.771950  0.354110  1.0  0.679
  C  C177  1  0.922050  0.133510  0.263590  1.0  0.6775
  C  C178  1  0.985200  0.067390  0.278810  1.0  -0.1326
  C  C179  1  0.039540  0.066230  0.308490  1.0  -0.0448
  C  C180  1  0.096270  0.005900  0.323360  1.0  -0.1051
  C  C181  1  0.101020  0.945770  0.307190  1.0  0.071
  C  C182  1  0.045500  0.947050  0.276550  1.0  -0.1609
  C  C183  1  0.989310  0.008240  0.262540  1.0  -0.0335
  C  C184  1  0.163320  0.879050  0.322110  1.0  0.0366
  C  C185  1  0.210600  0.828410  0.274590  1.0  -0.0855
  C  C186  1  0.272850  0.767630  0.283870  1.0  0.0476
  C  C187  1  0.284420  0.760960  0.345600  1.0  -0.1192
  C  C188  1  0.239130  0.810270  0.392670  1.0  -0.0021
  C  C189  1  0.179940  0.871110  0.381010  1.0  -0.127
  C  C190  1  0.252380  0.802000  0.457240  1.0  0.0358
  C  C191  1  0.183870  0.830930  0.514930  1.0  -0.1821
  C  C192  1  0.194690  0.817710  0.575510  1.0  -0.0169
  C  C193  1  0.273320  0.781470  0.579290  1.0  -0.1403
  C  C194  1  0.342820  0.754160  0.521000  1.0  -0.066
  C  C195  1  0.331720  0.764680  0.461080  1.0  -0.1588
  C  C196  1  0.284180  0.771950  0.645890  1.0  0.6804
  C  C197  1  0.319150  0.866490  0.736410  1.0  0.6848
  C  C198  1  0.331400  0.932610  0.721190  1.0  -0.1301
  C  C199  1  0.414260  0.933770  0.691510  1.0  -0.0431
  C  C200  1  0.425530  0.994100  0.676640  1.0  -0.1054
  C  C201  1  0.353980  0.054230  0.692810  1.0  0.0713
  C  C202  1  0.269100  0.052950  0.723450  1.0  -0.1607
  C  C203  1  0.260090  0.991760  0.737460  1.0  -0.0288
  C  C204  1  0.364480  0.120950  0.677890  1.0  0.0375
  C  C205  1  0.313600  0.171590  0.725410  1.0  -0.086
  C  C206  1  0.324350  0.232370  0.716130  1.0  0.05
  C  C207  1  0.390980  0.239040  0.654400  1.0  -0.1193
  C  C208  1  0.442070  0.189730  0.607330  1.0  -0.0012
  C  C209  1  0.432060  0.128890  0.618990  1.0  -0.1279
  C  C210  1  0.511620  0.198000  0.542760  1.0  0.0372
  C  C211  1  0.529730  0.169070  0.485070  1.0  -0.1828
  C  C212  1  0.587910  0.182290  0.424490  1.0  -0.0196
  C  C213  1  0.634080  0.218530  0.420710  1.0  -0.1423
  C  C214  1  0.617980  0.245840  0.479000  1.0  -0.0674
  C  C215  1  0.557480  0.235320  0.538920  1.0  -0.1595
  C  C216  1  0.702020  0.228050  0.354110  1.0  0.6769
  C  C217  1  0.319150  0.736410  0.866490  1.0  0.6757
  C  C218  1  0.331400  0.721190  0.932610  1.0  -0.1313
  C  C219  1  0.414260  0.691510  0.933770  1.0  -0.0439
  C  C220  1  0.425530  0.676640  0.994100  1.0  -0.1033
  C  C221  1  0.353980  0.692810  0.054230  1.0  0.0708
  C  C222  1  0.269100  0.723450  0.052950  1.0  -0.1584
  C  C223  1  0.260090  0.737460  0.991760  1.0  -0.0302
  C  C224  1  0.364480  0.677890  0.120950  1.0  0.0373
  C  C225  1  0.313600  0.725410  0.171590  1.0  -0.0882
  C  C226  1  0.324350  0.716130  0.232370  1.0  0.0492
  C  C227  1  0.390980  0.654400  0.239040  1.0  -0.1169
  C  C228  1  0.442070  0.607330  0.189730  1.0  -0.0005
  C  C229  1  0.432060  0.618990  0.128890  1.0  -0.1242
  C  C230  1  0.511620  0.542760  0.198000  1.0  0.036
  C  C231  1  0.529730  0.485070  0.169070  1.0  -0.1818
  C  C232  1  0.587910  0.424490  0.182290  1.0  -0.019
  C  C233  1  0.634080  0.420710  0.218530  1.0  -0.1375
  C  C234  1  0.617980  0.479000  0.245840  1.0  -0.0701
  C  C235  1  0.557480  0.538920  0.235320  1.0  -0.1623
  C  C236  1  0.702020  0.354110  0.228050  1.0  0.6723
  C  C237  1  0.922050  0.263590  0.133510  1.0  0.6838
  C  C238  1  0.985200  0.278810  0.067390  1.0  -0.1331
  C  C239  1  0.039540  0.308490  0.066230  1.0  -0.0441
  C  C240  1  0.096270  0.323360  0.005900  1.0  -0.1065
  C  C241  1  0.101020  0.307190  0.945770  1.0  0.0733
  C  C242  1  0.045500  0.276550  0.947050  1.0  -0.1611
  C  C243  1  0.989310  0.262540  0.008240  1.0  -0.032
  C  C244  1  0.163320  0.322110  0.879050  1.0  0.0365
  C  C245  1  0.210600  0.274590  0.828410  1.0  -0.0874
  C  C246  1  0.272850  0.283870  0.767630  1.0  0.0465
  C  C247  1  0.284420  0.345600  0.760960  1.0  -0.1198
  C  C248  1  0.239130  0.392670  0.810270  1.0  -0.0026
  C  C249  1  0.179940  0.381010  0.871110  1.0  -0.1262
  C  C250  1  0.252380  0.457240  0.802000  1.0  0.0364
  C  C251  1  0.183870  0.514930  0.830930  1.0  -0.1836
  C  C252  1  0.194690  0.575510  0.817710  1.0  -0.0157
  C  C253  1  0.273320  0.579290  0.781470  1.0  -0.1372
  C  C254  1  0.342820  0.521000  0.754160  1.0  -0.0632
  C  C255  1  0.331720  0.461080  0.764680  1.0  -0.159
  C  C256  1  0.284180  0.645890  0.771950  1.0  0.6761
  O  O257  1  0.988200  0.768290  0.131890  1.0  -0.5687
  O  O258  1  0.894520  0.715210  0.185970  1.0  -0.5675
  O  O259  1  0.987670  0.303140  0.795500  1.0  -0.5656
  O  O260  1  0.897880  0.356220  0.740400  1.0  -0.5804
  O  O261  1  0.888380  0.231710  0.868110  1.0  -0.5673
  O  O262  1  0.795700  0.284790  0.814030  1.0  -0.5693
  O  O263  1  0.086310  0.696860  0.204500  1.0  -0.565
  O  O264  1  0.994500  0.643780  0.259600  1.0  -0.5822
  O  O265  1  0.888380  0.868110  0.231710  1.0  -0.5688
  O  O266  1  0.795700  0.814030  0.284790  1.0  -0.5686
  O  O267  1  0.086310  0.204500  0.696860  1.0  -0.5658
  O  O268  1  0.994500  0.259600  0.643780  1.0  -0.5786
  O  O269  1  0.988200  0.131890  0.768290  1.0  -0.5694
  O  O270  1  0.894520  0.185970  0.715210  1.0  -0.5689
  O  O271  1  0.987670  0.795500  0.303140  1.0  -0.5642
  O  O272  1  0.897880  0.740400  0.356220  1.0  -0.5774
  O  O273  1  0.879910  0.131890  0.231710  1.0  -0.5688
  O  O274  1  0.919510  0.185970  0.284790  1.0  -0.5674
  O  O275  1  0.216830  0.795500  0.696860  1.0  -0.5649
  O  O276  1  0.361720  0.740400  0.643780  1.0  -0.5778
  O  O277  1  0.243510  0.868110  0.768290  1.0  -0.5689
  O  O278  1  0.390270  0.814030  0.715210  1.0  -0.5678
  O  O279  1  0.709190  0.204500  0.303140  1.0  -0.5652
  O  O280  1  0.745900  0.259600  0.356220  1.0  -0.5773
  O  O281  1  0.243510  0.768290  0.868110  1.0  -0.5656
  O  O282  1  0.390270  0.715210  0.814030  1.0  -0.5683
  O  O283  1  0.709190  0.303140  0.204500  1.0  -0.563
  O  O284  1  0.745900  0.356220  0.259600  1.0  -0.5804
  O  O285  1  0.879910  0.231710  0.131890  1.0  -0.5673
  O  O286  1  0.919510  0.284790  0.185970  1.0  -0.567
  O  O287  1  0.216830  0.696860  0.795500  1.0  -0.5645
  O  O288  1  0.361720  0.643780  0.740400  1.0  -0.5797
