# generated using pymatgen
data_CdH28C22(SN5)2
_symmetry_space_group_name_H-M   'P 1'
_cell_length_a   25.79100000
_cell_length_b   25.79100000
_cell_length_c   11.12840000
_cell_angle_alpha   90.00000000
_cell_angle_beta   90.00000000
_cell_angle_gamma   120.00000000
_symmetry_Int_Tables_number   1
_chemical_formula_structural   CdH28C22(SN5)2
_chemical_formula_sum   'Cd9 H252 C198 S18 N90'
_cell_volume   6410.61539543
_cell_formula_units_Z   9
loop_
 _symmetry_equiv_pos_site_id
 _symmetry_equiv_pos_as_xyz
  1  'x, y, z'
loop_
 _atom_site_type_symbol
 _atom_site_label
 _atom_site_symmetry_multiplicity
 _atom_site_fract_x
 _atom_site_fract_y
 _atom_site_fract_z
 _atom_site_occupancy
 _atom_site_charge
  Cd  Cd1  1  0.500000  0.000000  0.000000  1.0  0.8364
  Cd  Cd2  1  0.333333  0.166670  0.666667  1.0  0.8373
  Cd  Cd3  1  0.166670  0.333333  0.333333  1.0  0.8375
  Cd  Cd4  1  0.000000  0.500000  0.000000  1.0  0.8364
  Cd  Cd5  1  0.833330  0.666667  0.666667  1.0  0.8376
  Cd  Cd6  1  0.666667  0.833330  0.333333  1.0  0.8376
  Cd  Cd7  1  0.833330  0.166670  0.666667  1.0  0.8375
  Cd  Cd8  1  0.500000  0.500000  0.000000  1.0  0.8364
  Cd  Cd9  1  0.166670  0.833330  0.333333  1.0  0.8375
  H  H10  1  0.303170  0.837530  0.328130  1.0  0.2482
  H  H11  1  0.471070  0.065130  0.786130  1.0  0.2466
  H  H12  1  0.401170  0.836130  0.476830  1.0  0.1424
  H  H13  1  0.444970  0.906130  0.466930  1.0  0.1354
  H  H14  1  0.411570  0.868530  0.351030  1.0  0.1436
  H  H15  1  0.256970  0.964830  0.538830  1.0  0.1198
  H  H16  1  0.284770  0.957830  0.660530  1.0  0.1214
  H  H17  1  0.222470  0.904930  0.614430  1.0  0.1274
  H  H18  1  0.439070  0.869930  0.740030  1.0  0.1318
  H  H19  1  0.369370  0.843930  0.721930  1.0  0.1454
  H  H20  1  0.398470  0.865230  0.850930  1.0  0.1367
  H  H21  1  0.387170  0.072230  0.630930  1.0  0.1243
  H  H22  1  0.391570  0.041430  0.511230  1.0  0.1278
  H  H23  1  0.450470  0.093030  0.571830  1.0  0.1091
  H  H24  1  0.696830  0.162470  0.671870  1.0  0.2479
  H  H25  1  0.528930  0.934870  0.213870  1.0  0.2458
  H  H26  1  0.598830  0.163870  0.523170  1.0  0.1427
  H  H27  1  0.555030  0.093870  0.533070  1.0  0.1351
  H  H28  1  0.588430  0.131470  0.648970  1.0  0.1429
  H  H29  1  0.743030  0.035170  0.461170  1.0  0.1202
  H  H30  1  0.715230  0.042170  0.339470  1.0  0.1199
  H  H31  1  0.777530  0.095070  0.385570  1.0  0.1265
  H  H32  1  0.560930  0.130070  0.259970  1.0  0.1353
  H  H33  1  0.630630  0.156070  0.278070  1.0  0.1433
  H  H34  1  0.601530  0.134770  0.149070  1.0  0.1379
  H  H35  1  0.612830  0.927770  0.369070  1.0  0.1249
  H  H36  1  0.608430  0.958570  0.488770  1.0  0.1288
  H  H37  1  0.549530  0.906970  0.428170  1.0  0.1087
  H  H38  1  0.495800  0.132300  0.994800  1.0  0.2474
  H  H39  1  0.268200  0.072600  0.452800  1.0  0.2497
  H  H40  1  0.497200  0.231700  0.143500  1.0  0.143
  H  H41  1  0.427200  0.205500  0.133600  1.0  0.1351
  H  H42  1  0.464800  0.209700  0.017700  1.0  0.1442
  H  H43  1  0.368500  0.958800  0.205500  1.0  0.1194
  H  H44  1  0.375500  0.993600  0.327200  1.0  0.1194
  H  H45  1  0.428400  0.984200  0.281100  1.0  0.1321
  H  H46  1  0.463400  0.235800  0.406700  1.0  0.1382
  H  H47  1  0.489400  0.192100  0.388600  1.0  0.1363
  H  H48  1  0.468100  0.199900  0.517600  1.0  0.1375
  H  H49  1  0.261100  0.981600  0.297600  1.0  0.1251
  H  H50  1  0.291900  0.016800  0.177900  1.0  0.1277
  H  H51  1  0.240300  0.024100  0.238500  1.0  0.1123
  H  H52  1  0.170870  0.201030  0.338530  1.0  0.247
  H  H53  1  0.398470  0.260730  0.880530  1.0  0.249
  H  H54  1  0.169470  0.101630  0.189830  1.0  0.142
  H  H55  1  0.239470  0.127830  0.199730  1.0  0.1388
  H  H56  1  0.201870  0.123630  0.315630  1.0  0.1443
  H  H57  1  0.298170  0.374530  0.127830  1.0  0.1198
  H  H58  1  0.291170  0.339730  0.006130  1.0  0.1202
  H  H59  1  0.238270  0.349130  0.052230  1.0  0.1264
  H  H60  1  0.203270  0.097530  0.926630  1.0  0.1381
  H  H61  1  0.177270  0.141230  0.944730  1.0  0.1401
  H  H62  1  0.198570  0.133430  0.815730  1.0  0.1382
  H  H63  1  0.405570  0.351730  0.035730  1.0  0.1254
  H  H64  1  0.374770  0.316530  0.155430  1.0  0.1268
  H  H65  1  0.426370  0.309230  0.094830  1.0  0.1135
  H  H66  1  0.969830  0.170870  0.661470  1.0  0.2482
  H  H67  1  0.137730  0.398470  0.119470  1.0  0.2466
  H  H68  1  0.067830  0.169470  0.810170  1.0  0.1441
  H  H69  1  0.111630  0.239470  0.800270  1.0  0.1354
  H  H70  1  0.078230  0.201870  0.684370  1.0  0.1436
  H  H71  1  0.923630  0.298170  0.872170  1.0  0.1198
  H  H72  1  0.951430  0.291170  0.993870  1.0  0.1215
  H  H73  1  0.889130  0.238270  0.947770  1.0  0.1274
  H  H74  1  0.105730  0.203270  0.073370  1.0  0.1317
  H  H75  1  0.036030  0.177270  0.055270  1.0  0.1401
  H  H76  1  0.065130  0.198570  0.184270  1.0  0.1367
  H  H77  1  0.053830  0.405570  0.964270  1.0  0.1244
  H  H78  1  0.058230  0.374770  0.844570  1.0  0.1278
  H  H79  1  0.117130  0.426370  0.905170  1.0  0.1091
  H  H80  1  0.363500  0.495800  0.005200  1.0  0.2479
  H  H81  1  0.195600  0.268200  0.547200  1.0  0.2458
  H  H82  1  0.265500  0.497200  0.856500  1.0  0.1427
  H  H83  1  0.221700  0.427200  0.866400  1.0  0.1352
  H  H84  1  0.255100  0.464800  0.982300  1.0  0.1425
  H  H85  1  0.409700  0.368500  0.794500  1.0  0.1202
  H  H86  1  0.381900  0.375500  0.672800  1.0  0.1199
  H  H87  1  0.444200  0.428400  0.718900  1.0  0.1265
  H  H88  1  0.227600  0.463400  0.593300  1.0  0.1353
  H  H89  1  0.297300  0.489400  0.611400  1.0  0.1433
  H  H90  1  0.268200  0.468100  0.482400  1.0  0.1379
  H  H91  1  0.279500  0.261100  0.702400  1.0  0.125
  H  H92  1  0.275100  0.291900  0.822100  1.0  0.1288
  H  H93  1  0.216200  0.240300  0.761500  1.0  0.1087
  H  H94  1  0.162470  0.465630  0.328130  1.0  0.2474
  H  H95  1  0.934870  0.405930  0.786130  1.0  0.2497
  H  H96  1  0.163870  0.565030  0.476830  1.0  0.1431
  H  H97  1  0.093870  0.538830  0.466930  1.0  0.1351
  H  H98  1  0.131470  0.543030  0.351030  1.0  0.1442
  H  H99  1  0.035170  0.292130  0.538830  1.0  0.1194
  H  H100  1  0.042170  0.326930  0.660530  1.0  0.1194
  H  H101  1  0.095070  0.317530  0.614430  1.0  0.1321
  H  H102  1  0.130070  0.569130  0.740030  1.0  0.1382
  H  H103  1  0.156070  0.525430  0.721930  1.0  0.1363
  H  H104  1  0.134770  0.533230  0.850930  1.0  0.1375
  H  H105  1  0.927770  0.314930  0.630930  1.0  0.1251
  H  H106  1  0.958570  0.350130  0.511230  1.0  0.1277
  H  H107  1  0.906970  0.357430  0.571830  1.0  0.1123
  H  H108  1  0.837530  0.534370  0.671870  1.0  0.2471
  H  H109  1  0.065130  0.594070  0.213870  1.0  0.249
  H  H110  1  0.836130  0.434970  0.523170  1.0  0.1435
  H  H111  1  0.906130  0.461170  0.533070  1.0  0.1388
  H  H112  1  0.868530  0.456970  0.648970  1.0  0.1443
  H  H113  1  0.964830  0.707870  0.461170  1.0  0.1198
  H  H114  1  0.957830  0.673070  0.339470  1.0  0.1202
  H  H115  1  0.904930  0.682470  0.385570  1.0  0.1264
  H  H116  1  0.869930  0.430870  0.259970  1.0  0.1383
  H  H117  1  0.843930  0.474570  0.278070  1.0  0.1387
  H  H118  1  0.865230  0.466770  0.149070  1.0  0.1382
  H  H119  1  0.072230  0.685070  0.369070  1.0  0.1253
  H  H120  1  0.041430  0.649870  0.488770  1.0  0.1269
  H  H121  1  0.093030  0.642570  0.428170  1.0  0.1135
  H  H122  1  0.636500  0.504200  0.994800  1.0  0.2482
  H  H123  1  0.804400  0.731800  0.452800  1.0  0.2466
  H  H124  1  0.734500  0.502800  0.143500  1.0  0.1424
  H  H125  1  0.778300  0.572800  0.133600  1.0  0.1354
  H  H126  1  0.744900  0.535200  0.017700  1.0  0.1436
  H  H127  1  0.590300  0.631500  0.205500  1.0  0.1198
  H  H128  1  0.618100  0.624500  0.327200  1.0  0.1215
  H  H129  1  0.555800  0.571600  0.281100  1.0  0.1274
  H  H130  1  0.772400  0.536600  0.406700  1.0  0.1318
  H  H131  1  0.702700  0.510600  0.388600  1.0  0.1454
  H  H132  1  0.731800  0.531900  0.517600  1.0  0.1367
  H  H133  1  0.720500  0.738900  0.297600  1.0  0.1244
  H  H134  1  0.724900  0.708100  0.177900  1.0  0.1278
  H  H135  1  0.783800  0.759700  0.238500  1.0  0.1091
  H  H136  1  0.030170  0.829130  0.338530  1.0  0.2479
  H  H137  1  0.862270  0.601530  0.880530  1.0  0.2458
  H  H138  1  0.932170  0.830530  0.189830  1.0  0.1448
  H  H139  1  0.888370  0.760530  0.199730  1.0  0.1352
  H  H140  1  0.921770  0.798130  0.315630  1.0  0.1425
  H  H141  1  0.076370  0.701830  0.127830  1.0  0.1202
  H  H142  1  0.048570  0.708830  0.006130  1.0  0.1199
  H  H143  1  0.110870  0.761730  0.052230  1.0  0.1265
  H  H144  1  0.894270  0.796730  0.926630  1.0  0.1352
  H  H145  1  0.963970  0.822730  0.944730  1.0  0.1387
  H  H146  1  0.934870  0.801430  0.815730  1.0  0.1379
  H  H147  1  0.946170  0.594430  0.035730  1.0  0.125
  H  H148  1  0.941770  0.625230  0.155430  1.0  0.1288
  H  H149  1  0.882870  0.573630  0.094830  1.0  0.1087
  H  H150  1  0.829130  0.798970  0.661470  1.0  0.2474
  H  H151  1  0.601530  0.739270  0.119470  1.0  0.2497
  H  H152  1  0.830530  0.898370  0.810170  1.0  0.1418
  H  H153  1  0.760530  0.872170  0.800270  1.0  0.1351
  H  H154  1  0.798130  0.876370  0.684370  1.0  0.1442
  H  H155  1  0.701830  0.625470  0.872170  1.0  0.1194
  H  H156  1  0.708830  0.660270  0.993870  1.0  0.1194
  H  H157  1  0.761730  0.650870  0.947770  1.0  0.132
  H  H158  1  0.796730  0.902470  0.073370  1.0  0.1379
  H  H159  1  0.822730  0.858770  0.055270  1.0  0.1376
  H  H160  1  0.801430  0.866570  0.184270  1.0  0.1375
  H  H161  1  0.594430  0.648270  0.964270  1.0  0.1251
  H  H162  1  0.625230  0.683470  0.844570  1.0  0.1276
  H  H163  1  0.573630  0.690770  0.905170  1.0  0.1123
  H  H164  1  0.504200  0.867700  0.005200  1.0  0.2472
  H  H165  1  0.731800  0.927400  0.547200  1.0  0.249
  H  H166  1  0.502800  0.768300  0.856500  1.0  0.1435
  H  H167  1  0.572800  0.794500  0.866400  1.0  0.1388
  H  H168  1  0.535200  0.790300  0.982300  1.0  0.1442
  H  H169  1  0.631500  0.041200  0.794500  1.0  0.1198
  H  H170  1  0.624500  0.006400  0.672800  1.0  0.1189
  H  H171  1  0.571600  0.015800  0.718900  1.0  0.1265
  H  H172  1  0.536600  0.764200  0.593300  1.0  0.1383
  H  H173  1  0.510600  0.807900  0.611400  1.0  0.1384
  H  H174  1  0.531900  0.800100  0.482400  1.0  0.138
  H  H175  1  0.738900  0.018400  0.702400  1.0  0.1254
  H  H176  1  0.708100  0.983200  0.822100  1.0  0.1269
  H  H177  1  0.759700  0.975900  0.761500  1.0  0.1135
  H  H178  1  0.867700  0.363500  0.994800  1.0  0.2474
  H  H179  1  0.927400  0.195600  0.452800  1.0  0.2478
  H  H180  1  0.768300  0.265500  0.143500  1.0  0.1443
  H  H181  1  0.794500  0.221700  0.133600  1.0  0.1375
  H  H182  1  0.790300  0.255100  0.017700  1.0  0.1442
  H  H183  1  0.041200  0.409700  0.205500  1.0  0.1198
  H  H184  1  0.006400  0.381900  0.327200  1.0  0.1198
  H  H185  1  0.015800  0.444200  0.281100  1.0  0.1264
  H  H186  1  0.764200  0.227600  0.406700  1.0  0.1366
  H  H187  1  0.807900  0.297300  0.388600  1.0  0.1419
  H  H188  1  0.800100  0.268200  0.517600  1.0  0.1378
  H  H189  1  0.018400  0.279500  0.297600  1.0  0.1244
  H  H190  1  0.983200  0.275100  0.177900  1.0  0.1276
  H  H191  1  0.975900  0.216200  0.238500  1.0  0.1101
  H  H192  1  0.798970  0.969830  0.338530  1.0  0.2459
  H  H193  1  0.739270  0.137730  0.880530  1.0  0.2487
  H  H194  1  0.898370  0.067830  0.189830  1.0  0.143
  H  H195  1  0.872170  0.111630  0.199730  1.0  0.1359
  H  H196  1  0.876370  0.078230  0.315630  1.0  0.1426
  H  H197  1  0.625470  0.923630  0.127830  1.0  0.1205
  H  H198  1  0.660270  0.951430  0.006130  1.0  0.119
  H  H199  1  0.650870  0.889130  0.052230  1.0  0.1275
  H  H200  1  0.902470  0.105730  0.926630  1.0  0.1347
  H  H201  1  0.858770  0.036030  0.944730  1.0  0.1447
  H  H202  1  0.866570  0.065130  0.815730  1.0  0.1369
  H  H203  1  0.648270  0.053830  0.035730  1.0  0.1238
  H  H204  1  0.683470  0.058230  0.155430  1.0  0.1276
  H  H205  1  0.690770  0.117130  0.094830  1.0  0.1106
  H  H206  1  0.534370  0.696830  0.328130  1.0  0.2475
  H  H207  1  0.594070  0.528930  0.786130  1.0  0.2478
  H  H208  1  0.434970  0.598830  0.476830  1.0  0.1443
  H  H209  1  0.461170  0.555030  0.466930  1.0  0.1375
  H  H210  1  0.456970  0.588430  0.351030  1.0  0.1442
  H  H211  1  0.707870  0.743030  0.538830  1.0  0.1198
  H  H212  1  0.673070  0.715230  0.660530  1.0  0.1198
  H  H213  1  0.682470  0.777530  0.614430  1.0  0.1264
  H  H214  1  0.430870  0.560930  0.740030  1.0  0.1365
  H  H215  1  0.474570  0.630630  0.721930  1.0  0.1419
  H  H216  1  0.466770  0.601530  0.850930  1.0  0.1378
  H  H217  1  0.685070  0.612830  0.630930  1.0  0.1243
  H  H218  1  0.649870  0.608430  0.511230  1.0  0.1276
  H  H219  1  0.642570  0.549530  0.571830  1.0  0.1102
  H  H220  1  0.465630  0.303170  0.671870  1.0  0.2459
  H  H221  1  0.405930  0.471070  0.213870  1.0  0.2487
  H  H222  1  0.565030  0.401170  0.523170  1.0  0.1444
  H  H223  1  0.538830  0.444970  0.533070  1.0  0.1359
  H  H224  1  0.543030  0.411570  0.648970  1.0  0.1426
  H  H225  1  0.292130  0.256970  0.461170  1.0  0.1205
  H  H226  1  0.326930  0.284770  0.339470  1.0  0.119
  H  H227  1  0.317530  0.222470  0.385570  1.0  0.1275
  H  H228  1  0.569130  0.439070  0.259970  1.0  0.1346
  H  H229  1  0.525430  0.369370  0.278070  1.0  0.1407
  H  H230  1  0.533230  0.398470  0.149070  1.0  0.1369
  H  H231  1  0.314930  0.387170  0.369070  1.0  0.1237
  H  H232  1  0.350130  0.391570  0.488770  1.0  0.1276
  H  H233  1  0.357430  0.450470  0.428170  1.0  0.1106
  H  H234  1  0.201030  0.030170  0.661470  1.0  0.2474
  H  H235  1  0.260730  0.862270  0.119470  1.0  0.2478
  H  H236  1  0.101630  0.932170  0.810170  1.0  0.1431
  H  H237  1  0.127830  0.888370  0.800270  1.0  0.1375
  H  H238  1  0.123630  0.921770  0.684370  1.0  0.1442
  H  H239  1  0.374530  0.076370  0.872170  1.0  0.1198
  H  H240  1  0.339730  0.048570  0.993870  1.0  0.1198
  H  H241  1  0.349130  0.110870  0.947770  1.0  0.1264
  H  H242  1  0.097530  0.894270  0.073370  1.0  0.1366
  H  H243  1  0.141230  0.963970  0.055270  1.0  0.1456
  H  H244  1  0.133430  0.934870  0.184270  1.0  0.1378
  H  H245  1  0.351730  0.946170  0.964270  1.0  0.1244
  H  H246  1  0.316530  0.941770  0.844570  1.0  0.1276
  H  H247  1  0.309230  0.882870  0.905170  1.0  0.1101
  H  H248  1  0.132300  0.636500  0.005200  1.0  0.2459
  H  H249  1  0.072600  0.804400  0.547200  1.0  0.2487
  H  H250  1  0.231700  0.734500  0.856500  1.0  0.1444
  H  H251  1  0.205500  0.778300  0.866400  1.0  0.1359
  H  H252  1  0.209700  0.744900  0.982300  1.0  0.1426
  H  H253  1  0.958800  0.590300  0.794500  1.0  0.1205
  H  H254  1  0.993600  0.618100  0.672800  1.0  0.1191
  H  H255  1  0.984200  0.555800  0.718900  1.0  0.1274
  H  H256  1  0.235800  0.772400  0.593300  1.0  0.1347
  H  H257  1  0.192100  0.702700  0.611400  1.0  0.1407
  H  H258  1  0.199900  0.731800  0.482400  1.0  0.1369
  H  H259  1  0.981600  0.720500  0.702400  1.0  0.1238
  H  H260  1  0.016800  0.724900  0.822100  1.0  0.1276
  H  H261  1  0.024100  0.783800  0.761500  1.0  0.1106
  C  C262  1  0.610630  0.133730  0.903100  1.0  0.3018
  C  C263  1  0.293470  0.911280  0.522330  1.0  0.2411
  C  C264  1  0.349400  0.916180  0.548730  1.0  -0.197
  C  C265  1  0.357380  0.882740  0.461330  1.0  0.1607
  C  C266  1  0.408160  0.872500  0.436930  1.0  -0.3887
  C  C267  1  0.261650  0.936950  0.589930  1.0  -0.3877
  C  C268  1  0.416730  0.013690  0.659330  1.0  0.1822
  C  C269  1  0.392080  0.952620  0.644030  1.0  -0.1885
  C  C270  1  0.415830  0.934330  0.739630  1.0  0.2365
  C  C271  1  0.404730  0.873030  0.765430  1.0  -0.4083
  C  C272  1  0.411010  0.059070  0.587030  1.0  -0.3554
  C  C273  1  0.389370  0.866270  0.096900  1.0  0.2997
  C  C274  1  0.706530  0.088720  0.477670  1.0  0.2406
  C  C275  1  0.650600  0.083820  0.451270  1.0  -0.1973
  C  C276  1  0.642620  0.117260  0.538670  1.0  0.1596
  C  C277  1  0.591840  0.127500  0.563070  1.0  -0.3866
  C  C278  1  0.738350  0.063050  0.410070  1.0  -0.3897
  C  C279  1  0.583270  0.986310  0.340670  1.0  0.1826
  C  C280  1  0.607920  0.047380  0.355970  1.0  -0.189
  C  C281  1  0.584170  0.065670  0.260370  1.0  0.2359
  C  C282  1  0.595270  0.126970  0.234570  1.0  -0.406
  C  C283  1  0.588990  0.940930  0.412970  1.0  -0.3561
  C  C284  1  0.422050  0.048850  0.189000  1.0  0.2403
  C  C285  1  0.417150  0.099880  0.215400  1.0  -0.1981
  C  C286  1  0.450590  0.141300  0.128000  1.0  0.1603
  C  C287  1  0.460830  0.202320  0.103600  1.0  -0.3879
  C  C288  1  0.396380  0.991360  0.256600  1.0  -0.3878
  C  C289  1  0.319640  0.069700  0.326000  1.0  0.1822
  C  C290  1  0.380710  0.106120  0.310700  1.0  -0.1891
  C  C291  1  0.399000  0.148160  0.406300  1.0  0.2363
  C  C292  1  0.460300  0.198360  0.432100  1.0  -0.4077
  C  C293  1  0.274260  0.018600  0.253700  1.0  -0.3566
  C  C294  1  0.199600  0.143570  0.569770  1.0  0.305
  C  C295  1  0.244620  0.284480  0.144330  1.0  0.2412
  C  C296  1  0.249520  0.233450  0.117930  1.0  -0.197
  C  C297  1  0.216080  0.192030  0.205330  1.0  0.1602
  C  C298  1  0.205840  0.131010  0.229730  1.0  -0.3873
  C  C299  1  0.270290  0.341970  0.076730  1.0  -0.388
  C  C300  1  0.347030  0.263630  0.007330  1.0  0.1823
  C  C301  1  0.285960  0.227210  0.022630  1.0  -0.1897
  C  C302  1  0.267670  0.185170  0.927030  1.0  0.2363
  C  C303  1  0.206370  0.134970  0.901230  1.0  -0.4075
  C  C304  1  0.392410  0.314730  0.079630  1.0  -0.3567
  C  C305  1  0.467060  0.189770  0.763570  1.0  0.3043
  C  C306  1  0.277300  0.467060  0.236430  1.0  0.3018
  C  C307  1  0.960130  0.244620  0.855670  1.0  0.2411
  C  C308  1  0.016060  0.249520  0.882070  1.0  -0.197
  C  C309  1  0.024040  0.216080  0.794670  1.0  0.1607
  C  C310  1  0.074820  0.205840  0.770270  1.0  -0.3888
  C  C311  1  0.928310  0.270290  0.923270  1.0  -0.3877
  C  C312  1  0.083390  0.347030  0.992670  1.0  0.1822
  C  C313  1  0.058740  0.285960  0.977370  1.0  -0.1881
  C  C314  1  0.082490  0.267670  0.072970  1.0  0.2365
  C  C315  1  0.071390  0.206370  0.098770  1.0  -0.4083
  C  C316  1  0.077670  0.392410  0.920370  1.0  -0.3554
  C  C317  1  0.056040  0.199600  0.430230  1.0  0.2997
  C  C318  1  0.373200  0.422050  0.811000  1.0  0.2406
  C  C319  1  0.317270  0.417150  0.784600  1.0  -0.1973
  C  C320  1  0.309290  0.450590  0.872000  1.0  0.1596
  C  C321  1  0.258510  0.460830  0.896400  1.0  -0.3865
  C  C322  1  0.405020  0.396380  0.743400  1.0  -0.3897
  C  C323  1  0.249940  0.319640  0.674000  1.0  0.1826
  C  C324  1  0.274590  0.380710  0.689300  1.0  -0.1888
  C  C325  1  0.250840  0.399000  0.593700  1.0  0.2359
  C  C326  1  0.261940  0.460300  0.567900  1.0  -0.406
  C  C327  1  0.255660  0.274260  0.746300  1.0  -0.3561
  C  C328  1  0.088720  0.382180  0.522330  1.0  0.2403
  C  C329  1  0.083820  0.433210  0.548730  1.0  -0.1981
  C  C330  1  0.117260  0.474630  0.461330  1.0  0.1603
  C  C331  1  0.127500  0.535650  0.436930  1.0  -0.3879
  C  C332  1  0.063050  0.324690  0.589930  1.0  -0.3878
  C  C333  1  0.986310  0.403030  0.659330  1.0  0.1822
  C  C334  1  0.047380  0.439450  0.644030  1.0  -0.1891
  C  C335  1  0.065670  0.481490  0.739630  1.0  0.2363
  C  C336  1  0.126970  0.531690  0.765430  1.0  -0.4077
  C  C337  1  0.940930  0.351930  0.587030  1.0  -0.3566
  C  C338  1  0.866270  0.476900  0.903100  1.0  0.305
  C  C339  1  0.911280  0.617820  0.477670  1.0  0.2412
  C  C340  1  0.916180  0.566790  0.451270  1.0  -0.197
  C  C341  1  0.882740  0.525370  0.538670  1.0  0.1602
  C  C342  1  0.872500  0.464350  0.563070  1.0  -0.3873
  C  C343  1  0.936950  0.675310  0.410070  1.0  -0.388
  C  C344  1  0.013690  0.596970  0.340670  1.0  0.1823
  C  C345  1  0.952620  0.560550  0.355970  1.0  -0.1897
  C  C346  1  0.934330  0.518510  0.260370  1.0  0.2363
  C  C347  1  0.873030  0.468310  0.234570  1.0  -0.4075
  C  C348  1  0.059070  0.648070  0.412970  1.0  -0.3567
  C  C349  1  0.133730  0.523100  0.096900  1.0  0.3043
  C  C350  1  0.943960  0.800400  0.569770  1.0  0.3018
  C  C351  1  0.626800  0.577950  0.189000  1.0  0.2411
  C  C352  1  0.682730  0.582850  0.215400  1.0  -0.197
  C  C353  1  0.690710  0.549410  0.128000  1.0  0.1607
  C  C354  1  0.741490  0.539170  0.103600  1.0  -0.3887
  C  C355  1  0.594980  0.603620  0.256600  1.0  -0.3877
  C  C356  1  0.750060  0.680360  0.326000  1.0  0.1822
  C  C357  1  0.725410  0.619290  0.310700  1.0  -0.1881
  C  C358  1  0.749160  0.601000  0.406300  1.0  0.2365
  C  C359  1  0.738060  0.539700  0.432100  1.0  -0.4083
  C  C360  1  0.744340  0.725740  0.253700  1.0  -0.3554
  C  C361  1  0.722700  0.532940  0.763570  1.0  0.2997
  C  C362  1  0.039870  0.755380  0.144330  1.0  0.2406
  C  C363  1  0.983940  0.750480  0.117930  1.0  -0.1973
  C  C364  1  0.975960  0.783920  0.205330  1.0  0.1596
  C  C365  1  0.925180  0.794160  0.229730  1.0  -0.3865
  C  C366  1  0.071690  0.729710  0.076730  1.0  -0.3897
  C  C367  1  0.916610  0.652970  0.007330  1.0  0.1826
  C  C368  1  0.941260  0.714040  0.022630  1.0  -0.1888
  C  C369  1  0.917510  0.732330  0.927030  1.0  0.236
  C  C370  1  0.928610  0.793630  0.901230  1.0  -0.406
  C  C371  1  0.922330  0.607590  0.079630  1.0  -0.3561
  C  C372  1  0.755380  0.715520  0.855670  1.0  0.2403
  C  C373  1  0.750480  0.766550  0.882070  1.0  -0.1981
  C  C374  1  0.783920  0.807970  0.794670  1.0  0.1603
  C  C375  1  0.794160  0.868990  0.770270  1.0  -0.3879
  C  C376  1  0.729710  0.658030  0.923270  1.0  -0.3878
  C  C377  1  0.652970  0.736370  0.992670  1.0  0.1822
  C  C378  1  0.714040  0.772790  0.977370  1.0  -0.1891
  C  C379  1  0.732330  0.814830  0.072970  1.0  0.2363
  C  C380  1  0.793630  0.865030  0.098770  1.0  -0.4077
  C  C381  1  0.607590  0.685270  0.920370  1.0  -0.3566
  C  C382  1  0.532940  0.810230  0.236430  1.0  0.3045
  C  C383  1  0.577950  0.951150  0.811000  1.0  0.2412
  C  C384  1  0.582850  0.900120  0.784600  1.0  -0.197
  C  C385  1  0.549410  0.858700  0.872000  1.0  0.1602
  C  C386  1  0.539170  0.797680  0.896400  1.0  -0.3873
  C  C387  1  0.603620  0.008640  0.743400  1.0  -0.388
  C  C388  1  0.680360  0.930300  0.674000  1.0  0.1823
  C  C389  1  0.619290  0.893880  0.689300  1.0  -0.1897
  C  C390  1  0.601000  0.851840  0.593700  1.0  0.2363
  C  C391  1  0.539700  0.801640  0.567900  1.0  -0.4075
  C  C392  1  0.725740  0.981400  0.746300  1.0  -0.3567
  C  C393  1  0.800400  0.856430  0.430230  1.0  0.3043
  C  C394  1  0.951150  0.373200  0.189000  1.0  0.2407
  C  C395  1  0.900120  0.317270  0.215400  1.0  -0.1976
  C  C396  1  0.858700  0.309290  0.128000  1.0  0.161
  C  C397  1  0.797680  0.258510  0.103600  1.0  -0.39
  C  C398  1  0.008640  0.405020  0.256600  1.0  -0.3875
  C  C399  1  0.930300  0.249940  0.326000  1.0  0.1814
  C  C400  1  0.893880  0.274590  0.310700  1.0  -0.1898
  C  C401  1  0.851840  0.250840  0.406300  1.0  0.2373
  C  C402  1  0.801640  0.261940  0.432100  1.0  -0.4107
  C  C403  1  0.981400  0.255660  0.253700  1.0  -0.3563
  C  C404  1  0.856430  0.056040  0.569770  1.0  0.3026
  C  C405  1  0.715520  0.960130  0.144330  1.0  0.2405
  C  C406  1  0.766550  0.016060  0.117930  1.0  -0.1957
  C  C407  1  0.807970  0.024040  0.205330  1.0  0.1618
  C  C408  1  0.868990  0.074820  0.229730  1.0  -0.3904
  C  C409  1  0.658030  0.928310  0.076730  1.0  -0.3873
  C  C410  1  0.736370  0.083390  0.007330  1.0  0.1811
  C  C411  1  0.772790  0.058740  0.022630  1.0  -0.1891
  C  C412  1  0.814830  0.082490  0.927030  1.0  0.2373
  C  C413  1  0.865030  0.071390  0.901230  1.0  -0.4112
  C  C414  1  0.685270  0.077670  0.079630  1.0  -0.3544
  C  C415  1  0.810230  0.277300  0.763570  1.0  0.3018
  C  C416  1  0.617820  0.706530  0.522330  1.0  0.2407
  C  C417  1  0.566790  0.650600  0.548730  1.0  -0.1976
  C  C418  1  0.525370  0.642620  0.461330  1.0  0.161
  C  C419  1  0.464350  0.591840  0.436930  1.0  -0.3902
  C  C420  1  0.675310  0.738350  0.589930  1.0  -0.3875
  C  C421  1  0.596970  0.583270  0.659330  1.0  0.1814
  C  C422  1  0.560550  0.607920  0.644030  1.0  -0.1895
  C  C423  1  0.518510  0.584170  0.739630  1.0  0.2372
  C  C424  1  0.468310  0.595270  0.765430  1.0  -0.4107
  C  C425  1  0.648070  0.588990  0.587030  1.0  -0.3563
  C  C426  1  0.523100  0.389370  0.903100  1.0  0.3064
  C  C427  1  0.382180  0.293470  0.477670  1.0  0.2405
  C  C428  1  0.433210  0.349400  0.451270  1.0  -0.1957
  C  C429  1  0.474630  0.357380  0.538670  1.0  0.1618
  C  C430  1  0.535650  0.408160  0.563070  1.0  -0.3907
  C  C431  1  0.324690  0.261650  0.410070  1.0  -0.3873
  C  C432  1  0.403030  0.416730  0.340670  1.0  0.1811
  C  C433  1  0.439450  0.392080  0.355970  1.0  -0.1887
  C  C434  1  0.481490  0.415830  0.260370  1.0  0.2373
  C  C435  1  0.531690  0.404730  0.234570  1.0  -0.4112
  C  C436  1  0.351930  0.411010  0.412970  1.0  -0.3544
  C  C437  1  0.476900  0.610630  0.096900  1.0  0.3018
  C  C438  1  0.284480  0.039870  0.855670  1.0  0.2407
  C  C439  1  0.233450  0.983940  0.882070  1.0  -0.1976
  C  C440  1  0.192030  0.975960  0.794670  1.0  0.161
  C  C441  1  0.131010  0.925180  0.770270  1.0  -0.3899
  C  C442  1  0.341970  0.071690  0.923270  1.0  -0.3875
  C  C443  1  0.263630  0.916610  0.992670  1.0  0.1814
  C  C444  1  0.227210  0.941260  0.977370  1.0  -0.1898
  C  C445  1  0.185170  0.917510  0.072970  1.0  0.2372
  C  C446  1  0.134970  0.928610  0.098770  1.0  -0.4107
  C  C447  1  0.314730  0.922330  0.920370  1.0  -0.3563
  C  C448  1  0.189770  0.722700  0.236430  1.0  0.3029
  C  C449  1  0.048850  0.626800  0.811000  1.0  0.2405
  C  C450  1  0.099880  0.682730  0.784600  1.0  -0.1957
  C  C451  1  0.141300  0.690710  0.872000  1.0  0.1618
  C  C452  1  0.202320  0.741490  0.896400  1.0  -0.3904
  C  C453  1  0.991360  0.594980  0.743400  1.0  -0.3873
  C  C454  1  0.069700  0.750060  0.674000  1.0  0.1811
  C  C455  1  0.106120  0.725410  0.689300  1.0  -0.1891
  C  C456  1  0.148160  0.749160  0.593700  1.0  0.2373
  C  C457  1  0.198360  0.738060  0.567900  1.0  -0.4112
  C  C458  1  0.018600  0.744340  0.746300  1.0  -0.3544
  C  C459  1  0.143570  0.943960  0.430230  1.0  0.3024
  S  S460  1  0.673500  0.194790  0.875240  1.0  -0.3173
  S  S461  1  0.326500  0.805210  0.124760  1.0  -0.3192
  S  S462  1  0.138540  0.145380  0.541910  1.0  -0.3186
  S  S463  1  0.528120  0.187960  0.791430  1.0  -0.3176
  S  S464  1  0.340170  0.528120  0.208570  1.0  -0.3174
  S  S465  1  0.993170  0.138540  0.458090  1.0  -0.3063
  S  S466  1  0.805210  0.478710  0.875240  1.0  -0.3186
  S  S467  1  0.194790  0.521290  0.124760  1.0  -0.3176
  S  S468  1  0.006830  0.861460  0.541910  1.0  -0.3039
  S  S469  1  0.659830  0.471880  0.791430  1.0  -0.3193
  S  S470  1  0.471880  0.812040  0.208570  1.0  -0.3186
  S  S471  1  0.861460  0.854620  0.458090  1.0  -0.3175
  S  S472  1  0.854620  0.993170  0.541910  1.0  -0.317
  S  S473  1  0.812040  0.340170  0.791430  1.0  -0.3039
  S  S474  1  0.521290  0.326500  0.875240  1.0  -0.3036
  S  S475  1  0.478710  0.673500  0.124760  1.0  -0.304
  S  S476  1  0.187960  0.659830  0.208570  1.0  -0.3036
  S  S477  1  0.145380  0.006830  0.458090  1.0  -0.3187
  N  N478  1  0.565400  0.090320  0.922120  1.0  -0.4898
  N  N479  1  0.268680  0.877510  0.424330  1.0  -0.3222
  N  N480  1  0.308510  0.860400  0.389790  1.0  -0.1127
  N  N481  1  0.451720  0.981200  0.809190  1.0  -0.3126
  N  N482  1  0.451230  0.028820  0.758050  1.0  -0.1253
  N  N483  1  0.434600  0.909680  0.077880  1.0  -0.4889
  N  N484  1  0.731320  0.122490  0.575670  1.0  -0.3244
  N  N485  1  0.691490  0.139600  0.610210  1.0  -0.1137
  N  N486  1  0.548280  0.018800  0.190810  1.0  -0.3115
  N  N487  1  0.548770  0.971180  0.241950  1.0  -0.1245
  N  N488  1  0.455820  0.057830  0.091000  1.0  -0.3239
  N  N489  1  0.472930  0.114770  0.056460  1.0  -0.1111
  N  N490  1  0.352130  0.137180  0.475860  1.0  -0.3122
  N  N491  1  0.304510  0.089070  0.424720  1.0  -0.1268
  N  N492  1  0.243010  0.141750  0.588790  1.0  -0.492
  N  N493  1  0.210850  0.275500  0.242330  1.0  -0.3218
  N  N494  1  0.193740  0.218560  0.276870  1.0  -0.1131
  N  N495  1  0.314540  0.196150  0.857470  1.0  -0.3105
  N  N496  1  0.362160  0.244260  0.908610  1.0  -0.1264
  N  N497  1  0.423650  0.191590  0.744550  1.0  -0.491
  N  N498  1  0.232070  0.423650  0.255450  1.0  -0.4899
  N  N499  1  0.935340  0.210850  0.757670  1.0  -0.3222
  N  N500  1  0.975170  0.193740  0.723130  1.0  -0.1127
  N  N501  1  0.118380  0.314540  0.142530  1.0  -0.3126
  N  N502  1  0.117890  0.362160  0.091390  1.0  -0.125
  N  N503  1  0.101270  0.243010  0.411210  1.0  -0.4889
  N  N504  1  0.397990  0.455820  0.909000  1.0  -0.3245
  N  N505  1  0.358160  0.472930  0.943540  1.0  -0.1137
  N  N506  1  0.214950  0.352130  0.524140  1.0  -0.3115
  N  N507  1  0.215440  0.304510  0.575280  1.0  -0.1241
  N  N508  1  0.122490  0.391160  0.424330  1.0  -0.3239
  N  N509  1  0.139600  0.448100  0.389790  1.0  -0.1111
  N  N510  1  0.018800  0.470510  0.809190  1.0  -0.3122
  N  N511  1  0.971180  0.422400  0.758050  1.0  -0.1266
  N  N512  1  0.909680  0.475080  0.922120  1.0  -0.492
  N  N513  1  0.877510  0.608840  0.575670  1.0  -0.3218
  N  N514  1  0.860400  0.551900  0.610210  1.0  -0.113
  N  N515  1  0.981200  0.529490  0.190810  1.0  -0.3105
  N  N516  1  0.028820  0.577600  0.241950  1.0  -0.1264
  N  N517  1  0.090320  0.524920  0.077880  1.0  -0.4909
  N  N518  1  0.898730  0.756990  0.588790  1.0  -0.4898
  N  N519  1  0.602010  0.544180  0.091000  1.0  -0.3222
  N  N520  1  0.641840  0.527070  0.056460  1.0  -0.1127
  N  N521  1  0.785050  0.647870  0.475860  1.0  -0.3126
  N  N522  1  0.784560  0.695490  0.424720  1.0  -0.125
  N  N523  1  0.767930  0.576350  0.744550  1.0  -0.4889
  N  N524  1  0.064660  0.789150  0.242330  1.0  -0.3245
  N  N525  1  0.024830  0.806260  0.276870  1.0  -0.1137
  N  N526  1  0.881620  0.685460  0.857470  1.0  -0.3115
  N  N527  1  0.882110  0.637840  0.908610  1.0  -0.1241
  N  N528  1  0.789150  0.724500  0.757670  1.0  -0.3239
  N  N529  1  0.806260  0.781440  0.723130  1.0  -0.1112
  N  N530  1  0.685460  0.803850  0.142530  1.0  -0.3122
  N  N531  1  0.637840  0.755740  0.091390  1.0  -0.1266
  N  N532  1  0.576350  0.808410  0.255450  1.0  -0.492
  N  N533  1  0.544180  0.942170  0.909000  1.0  -0.3218
  N  N534  1  0.527070  0.885230  0.943540  1.0  -0.113
  N  N535  1  0.647870  0.862820  0.524140  1.0  -0.3105
  N  N536  1  0.695490  0.910930  0.575280  1.0  -0.1266
  N  N537  1  0.756990  0.858250  0.411210  1.0  -0.4909
  N  N538  1  0.942170  0.397990  0.091000  1.0  -0.3235
  N  N539  1  0.885230  0.358160  0.056460  1.0  -0.1106
  N  N540  1  0.862820  0.214950  0.475860  1.0  -0.3132
  N  N541  1  0.910930  0.215440  0.424720  1.0  -0.1252
  N  N542  1  0.858250  0.101270  0.588790  1.0  -0.4914
  N  N543  1  0.724500  0.935340  0.242330  1.0  -0.3238
  N  N544  1  0.781440  0.975170  0.276870  1.0  -0.1103
  N  N545  1  0.803850  0.118380  0.857470  1.0  -0.3119
  N  N546  1  0.755740  0.117890  0.908610  1.0  -0.1236
  N  N547  1  0.808410  0.232070  0.744550  1.0  -0.4962
  N  N548  1  0.608840  0.731320  0.424330  1.0  -0.3235
  N  N549  1  0.551900  0.691490  0.389790  1.0  -0.1106
  N  N550  1  0.529490  0.548280  0.809190  1.0  -0.3132
  N  N551  1  0.577600  0.548770  0.758050  1.0  -0.1251
  N  N552  1  0.524920  0.434600  0.922120  1.0  -0.4915
  N  N553  1  0.391160  0.268680  0.575670  1.0  -0.3238
  N  N554  1  0.448100  0.308510  0.610210  1.0  -0.1103
  N  N555  1  0.470510  0.451720  0.190810  1.0  -0.3119
  N  N556  1  0.422400  0.451230  0.241950  1.0  -0.1235
  N  N557  1  0.475080  0.565400  0.077880  1.0  -0.4962
  N  N558  1  0.275500  0.064660  0.757670  1.0  -0.3234
  N  N559  1  0.218560  0.024830  0.723130  1.0  -0.1106
  N  N560  1  0.196150  0.881620  0.142530  1.0  -0.3132
  N  N561  1  0.244260  0.882110  0.091390  1.0  -0.1252
  N  N562  1  0.191590  0.767930  0.255450  1.0  -0.4914
  N  N563  1  0.057830  0.602010  0.909000  1.0  -0.3237
  N  N564  1  0.114770  0.641840  0.943540  1.0  -0.1103
  N  N565  1  0.137180  0.785050  0.524140  1.0  -0.3119
  N  N566  1  0.089070  0.784560  0.575280  1.0  -0.1236
  N  N567  1  0.141750  0.898730  0.411210  1.0  -0.4962
