# generated using pymatgen
data_EuH24(C8O)6
_symmetry_space_group_name_H-M   'P 1'
_cell_length_a   9.93550000
_cell_length_b   12.16610000
_cell_length_c   23.47300000
_cell_angle_alpha   75.39200000
_cell_angle_beta   80.66000000
_cell_angle_gamma   79.54900000
_symmetry_Int_Tables_number   1
_chemical_formula_structural   EuH24(C8O)6
_chemical_formula_sum   'Eu2 H48 C96 O12'
_cell_volume   2679.73569961
_cell_formula_units_Z   2
loop_
 _symmetry_equiv_pos_site_id
 _symmetry_equiv_pos_as_xyz
  1  'x, y, z'
loop_
 _atom_site_type_symbol
 _atom_site_label
 _atom_site_symmetry_multiplicity
 _atom_site_fract_x
 _atom_site_fract_y
 _atom_site_fract_z
 _atom_site_occupancy
 _atom_site_charge
  Eu  Eu1  1  0.263690  0.482160  0.495500  1.0  2.1709
  Eu  Eu2  1  0.736310  0.517840  0.504500  1.0  2.1707
  H  H3  1  0.509500  0.696400  0.350400  1.0  0.0904
  H  H4  1  0.206500  0.499300  0.644300  1.0  0.0891
  H  H5  1  0.764300  0.434300  0.668000  1.0  0.0986
  H  H6  1  0.539800  0.257800  0.890600  1.0  0.0995
  H  H7  1  0.304200  0.583400  0.928100  1.0  0.1055
  H  H8  1  0.608100  0.775600  0.255700  1.0  0.105
  H  H9  1  0.130700  0.240700  0.675700  1.0  0.1047
  H  H10  1  0.377700  0.153100  0.089000  1.0  0.1015
  H  H11  1  0.696800  0.346000  0.764800  1.0  0.1062
  H  H12  1  0.113500  0.526700  0.124400  1.0  0.1076
  H  H13  1  0.093600  0.492000  0.737800  1.0  0.1106
  H  H14  1  0.951400  0.957800  0.921600  1.0  0.1162
  H  H15  1  0.781900  0.847600  0.120100  1.0  0.0974
  H  H16  1  0.534600  0.577600  0.691400  1.0  0.1029
  H  H17  1  0.063200  0.148900  0.771400  1.0  0.1163
  H  H18  1  0.336300  0.347100  0.926900  1.0  0.1077
  H  H19  1  0.978600  0.751700  0.083700  1.0  0.1038
  H  H20  1  0.420200  0.611800  0.998000  1.0  0.1016
  H  H21  1  0.258500  0.298000  0.027800  1.0  0.1016
  H  H22  1  0.189300  0.947500  0.332900  1.0  0.1091
  H  H23  1  0.423800  0.567400  0.787200  1.0  0.116
  H  H24  1  0.323600  0.584200  0.096100  1.0  0.1074
  H  H25  1  0.279100  0.019000  0.235800  1.0  0.1138
  H  H26  1  0.063200  0.804400  0.984100  1.0  0.0898
  H  H27  1  0.490500  0.303600  0.649600  1.0  0.0896
  H  H28  1  0.793500  0.500700  0.355700  1.0  0.0902
  H  H29  1  0.235700  0.565700  0.332000  1.0  0.0978
  H  H30  1  0.460200  0.742200  0.109400  1.0  0.0987
  H  H31  1  0.695800  0.416600  0.071900  1.0  0.1053
  H  H32  1  0.391900  0.224400  0.744300  1.0  0.1035
  H  H33  1  0.869300  0.759300  0.324300  1.0  0.1051
  H  H34  1  0.622300  0.846900  0.911000  1.0  0.1027
  H  H35  1  0.303200  0.654000  0.235200  1.0  0.1065
  H  H36  1  0.886500  0.473300  0.875600  1.0  0.1088
  H  H37  1  0.906400  0.508000  0.262200  1.0  0.1094
  H  H38  1  0.048600  0.042200  0.078400  1.0  0.1162
  H  H39  1  0.218100  0.152400  0.879900  1.0  0.0976
  H  H40  1  0.465400  0.422400  0.308600  1.0  0.1028
  H  H41  1  0.936800  0.851100  0.228600  1.0  0.1171
  H  H42  1  0.663700  0.652900  0.073100  1.0  0.108
  H  H43  1  0.021400  0.248300  0.916300  1.0  0.104
  H  H44  1  0.579800  0.388200  0.002000  1.0  0.1025
  H  H45  1  0.741500  0.702000  0.972200  1.0  0.1013
  H  H46  1  0.810700  0.052500  0.667100  1.0  0.1078
  H  H47  1  0.576200  0.432600  0.212800  1.0  0.1162
  H  H48  1  0.676400  0.415800  0.903900  1.0  0.1072
  H  H49  1  0.720900  0.981000  0.764200  1.0  0.1112
  H  H50  1  0.936800  0.195600  0.015900  1.0  0.0902
  C  C51  1  0.998200  0.405500  0.598600  1.0  0.7524
  C  C52  1  0.456000  0.542700  0.597100  1.0  0.768
  C  C53  1  0.131300  0.535200  0.982400  1.0  -0.0232
  C  C54  1  0.463800  0.762200  0.327600  1.0  -0.0266
  C  C55  1  0.382500  0.538800  0.658100  1.0  -0.1256
  C  C56  1  0.955000  0.346000  0.662200  1.0  -0.1616
  C  C57  1  0.072700  0.518100  0.043300  1.0  -0.0097
  C  C58  1  0.060200  0.514900  0.940800  1.0  -0.1217
  C  C59  1  0.251200  0.513600  0.673000  1.0  -0.0403
  C  C60  1  0.590000  0.147200  0.967100  1.0  -0.0137
  C  C61  1  0.775900  0.133200  0.885400  1.0  0.0403
  C  C62  1  0.271000  0.757800  0.411300  1.0  0.778
  C  C63  1  0.738600  0.963600  0.044000  1.0  0.0025
  C  C64  1  0.613200  0.021800  0.065600  1.0  -0.0699
  C  C65  1  0.538400  0.112500  0.028500  1.0  0.0148
  C  C66  1  0.718000  0.090300  0.945100  1.0  0.0034
  C  C67  1  0.123200  0.522500  0.879800  1.0  0.0316
  C  C68  1  0.178900  0.526300  0.831900  1.0  0.0506
  C  C69  1  0.337700  0.813600  0.350400  1.0  -0.1462
  C  C70  1  0.790800  0.997600  0.982900  1.0  -0.0111
  C  C71  1  0.825100  0.376800  0.688900  1.0  -0.0436
  C  C72  1  0.453400  0.905200  0.236100  1.0  -0.1027
  C  C73  1  0.870800  0.235900  0.777500  1.0  -0.0408
  C  C74  1  0.508800  0.235800  0.930800  1.0  -0.056
  C  C75  1  0.264100  0.571400  0.967400  1.0  -0.0788
  C  C76  1  0.522300  0.809100  0.270600  1.0  -0.1219
  C  C77  1  0.822700  0.176300  0.837500  1.0  -0.0307
  C  C78  1  0.042100  0.261500  0.693500  1.0  -0.0358
  C  C79  1  0.558400  0.984700  0.127200  1.0  0.0167
  C  C80  1  0.412100  0.173100  0.049100  1.0  -0.089
  C  C81  1  0.511900  0.949700  0.176100  1.0  0.0724
  C  C82  1  0.245600  0.528300  0.772100  1.0  0.0076
  C  C83  1  0.784200  0.322900  0.746600  1.0  -0.0943
  C  C84  1  0.150200  0.537700  0.084700  1.0  -0.0781
  C  C85  1  0.183400  0.508800  0.729100  1.0  -0.0924
  C  C86  1  0.915200  0.936400  0.961200  1.0  -0.1531
  C  C87  1  0.814400  0.870100  0.080100  1.0  -0.0897
  C  C88  1  0.445500  0.559500  0.700700  1.0  -0.0163
  C  C89  1  0.001900  0.206300  0.750700  1.0  -0.0972
  C  C90  1  0.388100  0.289600  0.952200  1.0  -0.1184
  C  C91  1  0.931100  0.813100  0.058700  1.0  -0.1046
  C  C92  1  0.333600  0.588600  0.009100  1.0  -0.0922
  C  C93  1  0.340400  0.258800  0.012700  1.0  -0.1226
  C  C94  1  0.271800  0.910800  0.316900  1.0  -0.0508
  C  C95  1  0.378900  0.553900  0.758300  1.0  -0.1298
  C  C96  1  0.275700  0.571800  0.067900  1.0  -0.0712
  C  C97  1  0.327300  0.955300  0.259100  1.0  -0.1159
  C  C98  1  0.982300  0.845400  0.998700  1.0  -0.0845
  C  C99  1  0.001800  0.594500  0.401400  1.0  0.7495
  C  C100  1  0.544000  0.457300  0.402900  1.0  0.7666
  C  C101  1  0.868700  0.464800  0.017600  1.0  -0.025
  C  C102  1  0.536200  0.237800  0.672400  1.0  -0.0263
  C  C103  1  0.617500  0.461200  0.341900  1.0  -0.1261
  C  C104  1  0.045000  0.654000  0.337800  1.0  -0.1627
  C  C105  1  0.927300  0.481900  0.956700  1.0  -0.0098
  C  C106  1  0.939800  0.485100  0.059200  1.0  -0.1222
  C  C107  1  0.748800  0.486400  0.327000  1.0  -0.0424
  C  C108  1  0.410000  0.852800  0.032900  1.0  -0.014
  C  C109  1  0.224100  0.866800  0.114600  1.0  0.0407
  C  C110  1  0.729000  0.242200  0.588700  1.0  0.7798
  C  C111  1  0.261400  0.036400  0.956000  1.0  0.0038
  C  C112  1  0.386800  0.978200  0.934400  1.0  -0.0723
  C  C113  1  0.461600  0.887500  0.971500  1.0  0.0151
  C  C114  1  0.282000  0.909700  0.054900  1.0  0.0039
  C  C115  1  0.876800  0.477500  0.120200  1.0  0.0292
  C  C116  1  0.821100  0.473700  0.168100  1.0  0.0498
  C  C117  1  0.662300  0.186400  0.649600  1.0  -0.149
  C  C118  1  0.209200  0.002400  0.017100  1.0  -0.0113
  C  C119  1  0.174900  0.623200  0.311100  1.0  -0.0441
  C  C120  1  0.546600  0.094800  0.763900  1.0  -0.1071
  C  C121  1  0.129200  0.764100  0.222500  1.0  -0.0427
  C  C122  1  0.491200  0.764200  0.069200  1.0  -0.0544
  C  C123  1  0.735900  0.428600  0.032600  1.0  -0.0761
  C  C124  1  0.477700  0.190900  0.729400  1.0  -0.1202
  C  C125  1  0.177300  0.823700  0.162500  1.0  -0.0302
  C  C126  1  0.957900  0.738500  0.306500  1.0  -0.0331
  C  C127  1  0.441600  0.015300  0.872800  1.0  0.0203
  C  C128  1  0.587900  0.826900  0.950900  1.0  -0.0841
  C  C129  1  0.488100  0.050300  0.823900  1.0  0.0765
  C  C130  1  0.754400  0.471700  0.227900  1.0  0.0084
  C  C131  1  0.215800  0.677100  0.253400  1.0  -0.0956
  C  C132  1  0.849800  0.462300  0.915300  1.0  -0.0758
  C  C133  1  0.816600  0.491200  0.270900  1.0  -0.0911
  C  C134  1  0.084800  0.063600  0.038800  1.0  -0.1551
  C  C135  1  0.185600  0.129900  0.919900  1.0  -0.0878
  C  C136  1  0.554500  0.440500  0.299300  1.0  -0.0179
  C  C137  1  0.998100  0.793700  0.249300  1.0  -0.0992
  C  C138  1  0.611900  0.710400  0.047800  1.0  -0.118
  C  C139  1  0.068900  0.186900  0.941300  1.0  -0.1042
  C  C140  1  0.666400  0.411400  0.990900  1.0  -0.0916
  C  C141  1  0.659600  0.741200  0.987300  1.0  -0.1218
  C  C142  1  0.728200  0.089200  0.683100  1.0  -0.0539
  C  C143  1  0.621100  0.446100  0.241700  1.0  -0.1298
  C  C144  1  0.724300  0.428200  0.932100  1.0  -0.071
  C  C145  1  0.672700  0.044700  0.740900  1.0  -0.1169
  C  C146  1  0.017700  0.154600  0.001300  1.0  -0.0842
  O  O147  1  0.331700  0.663200  0.437860  1.0  -0.7428
  O  O148  1  0.122700  0.393700  0.579450  1.0  -0.7688
  O  O149  1  0.394200  0.529200  0.558340  1.0  -0.8194
  O  O150  1  0.905300  0.463500  0.568380  1.0  -0.7858
  O  O151  1  0.580900  0.558700  0.588620  1.0  -0.7252
  O  O152  1  0.159600  0.807200  0.431660  1.0  -0.5091
  O  O153  1  0.668300  0.336800  0.562140  1.0  -0.7438
  O  O154  1  0.877300  0.606300  0.420550  1.0  -0.7674
  O  O155  1  0.605800  0.470800  0.441660  1.0  -0.8186
  O  O156  1  0.094700  0.536500  0.431620  1.0  -0.783
  O  O157  1  0.419100  0.441300  0.411380  1.0  -0.7245
  O  O158  1  0.840400  0.192800  0.568340  1.0  -0.5099
