# generated using pymatgen
data_CuPH4C5NO3
_symmetry_space_group_name_H-M   'P 1'
_cell_length_a   7.45640000
_cell_length_b   9.18450000
_cell_length_c   11.58200000
_cell_angle_alpha   100.84200000
_cell_angle_beta   104.30300000
_cell_angle_gamma   94.77400000
_symmetry_Int_Tables_number   1
_chemical_formula_structural   CuPH4C5NO3
_chemical_formula_sum   'Cu4 P4 H16 C20 N4 O12'
_cell_volume   747.82553124
_cell_formula_units_Z   4
loop_
 _symmetry_equiv_pos_site_id
 _symmetry_equiv_pos_as_xyz
  1  'x, y, z'
loop_
 _atom_site_type_symbol
 _atom_site_label
 _atom_site_symmetry_multiplicity
 _atom_site_fract_x
 _atom_site_fract_y
 _atom_site_fract_z
 _atom_site_occupancy
 _atom_site_charge
  Cu  Cu1  1  0.160720  0.121010  0.012080  1.0  1.0726
  Cu  Cu2  1  0.361830  0.919600  0.775910  1.0  1.0017
  Cu  Cu3  1  0.839280  0.878990  0.987920  1.0  1.0722
  Cu  Cu4  1  0.638170  0.080400  0.224090  1.0  1.0033
  P  P5  1  0.352300  0.837220  0.024080  1.0  1.5284
  P  P6  1  0.033700  0.082590  0.240170  1.0  1.4397
  P  P7  1  0.647700  0.162780  0.975920  1.0  1.5286
  P  P8  1  0.966300  0.917410  0.759830  1.0  1.4407
  H  H9  1  0.159200  0.415000  0.174100  1.0  0.0994
  H  H10  1  0.225800  0.664300  0.178900  1.0  0.1093
  H  H11  1  0.316500  0.556700  0.848700  1.0  0.1211
  H  H12  1  0.249300  0.307800  0.850500  1.0  0.0926
  H  H13  1  0.199900  0.766000  0.523300  1.0  0.09
  H  H14  1  0.074500  0.817100  0.336200  1.0  0.1097
  H  H15  1  0.285000  0.248000  0.475100  1.0  0.1196
  H  H16  1  0.407500  0.186300  0.660300  1.0  0.0892
  H  H17  1  0.840800  0.585000  0.825900  1.0  0.0997
  H  H18  1  0.774200  0.335700  0.821100  1.0  0.1097
  H  H19  1  0.683500  0.443300  0.151300  1.0  0.1206
  H  H20  1  0.750700  0.692200  0.149500  1.0  0.0921
  H  H21  1  0.800100  0.234000  0.476700  1.0  0.0893
  H  H22  1  0.925500  0.182900  0.663800  1.0  0.1094
  H  H23  1  0.715000  0.752000  0.524900  1.0  0.1191
  H  H24  1  0.592500  0.813700  0.339700  1.0  0.0891
  C  C25  1  0.192100  0.443700  0.108400  1.0  0.1499
  C  C26  1  0.232500  0.593700  0.111600  1.0  -0.0821
  C  C27  1  0.283100  0.640800  0.015600  1.0  -0.2411
  C  C28  1  0.286500  0.530200  0.915900  1.0  -0.0886
  C  C29  1  0.245100  0.380500  0.917200  1.0  0.144
  C  C30  1  0.214600  0.864400  0.514000  1.0  0.1478
  C  C31  1  0.138300  0.894700  0.401100  1.0  -0.0935
  C  C32  1  0.156300  0.040400  0.383900  1.0  -0.2192
  C  C33  1  0.263100  0.149800  0.483300  1.0  -0.0999
  C  C34  1  0.336900  0.112000  0.594900  1.0  0.1564
  C  C35  1  0.807900  0.556300  0.891600  1.0  0.1521
  C  C36  1  0.767500  0.406300  0.888400  1.0  -0.0826
  C  C37  1  0.716900  0.359200  0.984400  1.0  -0.2431
  C  C38  1  0.713500  0.469800  0.084100  1.0  -0.0889
  C  C39  1  0.754900  0.619500  0.082800  1.0  0.1448
  C  C40  1  0.785400  0.135600  0.486000  1.0  0.1479
  C  C41  1  0.861700  0.105300  0.598900  1.0  -0.0942
  C  C42  1  0.843700  0.959600  0.616100  1.0  -0.2181
  C  C43  1  0.736900  0.850200  0.516700  1.0  -0.0991
  C  C44  1  0.663100  0.888000  0.405100  1.0  0.1569
  N  N45  1  0.199000  0.337300  0.012400  1.0  -0.3389
  N  N46  1  0.309300  0.971400  0.611100  1.0  -0.3597
  N  N47  1  0.801000  0.662700  0.987600  1.0  -0.34
  N  N48  1  0.690700  0.028600  0.388900  1.0  -0.3637
  O  O49  1  0.182200  0.153300  0.189700  1.0  -0.8047
  O  O50  1  0.174200  0.907400  0.005600  1.0  -0.8834
  O  O51  1  0.927200  0.931800  0.166700  1.0  -0.81
  O  O52  1  0.483800  0.890400  0.151500  1.0  -0.8205
  O  O53  1  0.450200  0.845000  0.924500  1.0  -0.8406
  O  O54  1  0.899200  0.192000  0.270500  1.0  -0.7915
  O  O55  1  0.817800  0.846700  0.810300  1.0  -0.8053
  O  O56  1  0.825800  0.092600  0.994400  1.0  -0.8837
  O  O57  1  0.072800  0.068200  0.833300  1.0  -0.8076
  O  O58  1  0.516200  0.109600  0.848500  1.0  -0.821
  O  O59  1  0.549800  0.155000  0.075500  1.0  -0.8345
  O  O60  1  0.100800  0.808000  0.729500  1.0  -0.7916
