# generated using pymatgen
data_ErH14C24(NO3)2
_symmetry_space_group_name_H-M   'P 1'
_cell_length_a   10.06910000
_cell_length_b   10.94910000
_cell_length_c   13.22110000
_cell_angle_alpha   99.75500000
_cell_angle_beta   110.24500000
_cell_angle_gamma   107.79300000
_symmetry_Int_Tables_number   1
_chemical_formula_structural   ErH14C24(NO3)2
_chemical_formula_sum   'Er2 H28 C48 N4 O12'
_cell_volume   1238.81811526
_cell_formula_units_Z   2
loop_
 _symmetry_equiv_pos_site_id
 _symmetry_equiv_pos_as_xyz
  1  'x, y, z'
loop_
 _atom_site_type_symbol
 _atom_site_label
 _atom_site_symmetry_multiplicity
 _atom_site_fract_x
 _atom_site_fract_y
 _atom_site_fract_z
 _atom_site_occupancy
 _atom_site_charge
  Er  Er1  1  0.845060  0.293490  0.804190  1.0  1.2617
  Er  Er2  1  0.154940  0.706510  0.195810  1.0  1.2608
  H  H3  1  0.275700  0.381000  0.837000  1.0  0.1034
  H  H4  1  0.496100  0.632200  0.154500  1.0  0.1077
  H  H5  1  0.162900  0.084600  0.689400  1.0  0.1055
  H  H6  1  0.774900  0.032300  0.436000  1.0  0.0935
  H  H7  1  0.766400  0.590200  0.574100  1.0  0.1169
  H  H8  1  0.373400  0.330200  0.557700  1.0  0.1102
  H  H9  1  0.036500  0.358500  0.086800  1.0  0.0708
  H  H10  1  0.098000  0.266100  0.230100  1.0  0.1256
  H  H11  1  0.976800  0.034500  0.191300  1.0  0.1131
  H  H12  1  0.796500  0.809600  0.043700  1.0  0.1075
  H  H13  1  0.610900  0.688500  0.864000  1.0  0.106
  H  H14  1  0.458600  0.684600  0.664600  1.0  0.1179
  H  H15  1  0.399500  0.805700  0.541600  1.0  0.1252
  H  H16  1  0.535100  0.034800  0.599800  1.0  0.0741
  H  H17  1  0.724300  0.619000  0.163000  1.0  0.1037
  H  H18  1  0.503900  0.367800  0.845500  1.0  0.1076
  H  H19  1  0.837100  0.915400  0.310600  1.0  0.1054
  H  H20  1  0.225100  0.967700  0.564000  1.0  0.0931
  H  H21  1  0.233600  0.409800  0.425900  1.0  0.1173
  H  H22  1  0.626600  0.669800  0.442300  1.0  0.1102
  H  H23  1  0.963500  0.641500  0.913200  1.0  0.0701
  H  H24  1  0.902000  0.733900  0.769900  1.0  0.1254
  H  H25  1  0.023200  0.965500  0.808700  1.0  0.1133
  H  H26  1  0.203500  0.190400  0.956300  1.0  0.1072
  H  H27  1  0.389100  0.311500  0.136000  1.0  0.1059
  H  H28  1  0.541400  0.315400  0.335400  1.0  0.1179
  H  H29  1  0.600500  0.194300  0.458400  1.0  0.1247
  H  H30  1  0.464900  0.965200  0.400200  1.0  0.0736
  C  C31  1  0.212700  0.514400  0.989100  1.0  0.6884
  C  C32  1  0.362600  0.508000  0.994800  1.0  -0.1402
  C  C33  1  0.366000  0.429100  0.902800  1.0  -0.0415
  C  C34  1  0.497200  0.579000  0.092300  1.0  -0.0335
  C  C35  1  0.923100  0.148700  0.657400  1.0  0.6402
  C  C36  1  0.961300  0.070200  0.575800  1.0  -0.1121
  C  C37  1  0.096200  0.050400  0.612700  1.0  -0.0664
  C  C38  1  0.866500  0.019400  0.462700  1.0  -0.0454
  C  C39  1  0.674300  0.399300  0.663700  1.0  0.6227
  C  C40  1  0.584200  0.452400  0.579200  1.0  -0.1109
  C  C41  1  0.659500  0.554000  0.544300  1.0  -0.048
  C  C42  1  0.424100  0.398400  0.534500  1.0  -0.0565
  C  C43  1  0.989100  0.265500  0.069600  1.0  0.21
  C  C44  1  0.026600  0.211400  0.157300  1.0  -0.1813
  C  C45  1  0.955400  0.074400  0.134200  1.0  -0.0029
  C  C46  1  0.849900  0.996100  0.022400  1.0  -0.0188
  C  C47  1  0.772300  0.854200  0.990400  1.0  -0.0836
  C  C48  1  0.662200  0.781100  0.882100  1.0  -0.0847
  C  C49  1  0.625900  0.845300  0.797500  1.0  -0.0375
  C  C50  1  0.511200  0.777700  0.687800  1.0  -0.0029
  C  C51  1  0.476800  0.849100  0.614800  1.0  -0.1697
  C  C52  1  0.558900  0.987700  0.651100  1.0  0.1958
  C  C53  1  0.704300  0.987300  0.826800  1.0  0.1535
  C  C54  1  0.822100  0.062300  0.942000  1.0  0.1757
  C  C55  1  0.787300  0.485600  0.010900  1.0  0.6876
  C  C56  1  0.637400  0.492000  0.005200  1.0  -0.139
  C  C57  1  0.634000  0.570900  0.097200  1.0  -0.0406
  C  C58  1  0.502800  0.421000  0.907700  1.0  -0.035
  C  C59  1  0.076900  0.851300  0.342600  1.0  0.6405
  C  C60  1  0.038700  0.929800  0.424200  1.0  -0.1142
  C  C61  1  0.903800  0.949600  0.387300  1.0  -0.0631
  C  C62  1  0.133500  0.980600  0.537300  1.0  -0.0443
  C  C63  1  0.325700  0.600700  0.336300  1.0  0.6209
  C  C64  1  0.415800  0.547600  0.420800  1.0  -0.11
  C  C65  1  0.340500  0.446000  0.455700  1.0  -0.0491
  C  C66  1  0.575900  0.601600  0.465500  1.0  -0.0575
  C  C67  1  0.010900  0.734500  0.930400  1.0  0.2107
  C  C68  1  0.973400  0.788600  0.842700  1.0  -0.1803
  C  C69  1  0.044600  0.925600  0.865800  1.0  -0.0026
  C  C70  1  0.150100  0.003900  0.977600  1.0  -0.0188
  C  C71  1  0.227700  0.145800  0.009600  1.0  -0.0842
  C  C72  1  0.337800  0.218900  0.117900  1.0  -0.0818
  C  C73  1  0.374100  0.154700  0.202500  1.0  -0.0384
  C  C74  1  0.488800  0.222300  0.312200  1.0  -0.0023
  C  C75  1  0.523200  0.150900  0.385200  1.0  -0.1677
  C  C76  1  0.441100  0.012300  0.348900  1.0  0.1952
  C  C77  1  0.295700  0.012700  0.173200  1.0  0.1543
  C  C78  1  0.177900  0.937700  0.058000  1.0  0.1753
  N  N79  1  0.891200  0.196000  0.962900  1.0  -0.3753
  N  N80  1  0.668600  0.057000  0.754000  1.0  -0.3753
  N  N81  1  0.108800  0.804000  0.037100  1.0  -0.3757
  N  N82  1  0.331400  0.943000  0.246000  1.0  -0.3722
  O  O83  1  0.091200  0.440300  0.904100  1.0  -0.6015
  O  O84  1  0.219300  0.593100  0.073600  1.0  -0.578
  O  O85  1  0.988200  0.165900  0.761800  1.0  -0.5654
  O  O86  1  0.823900  0.198900  0.619600  1.0  -0.5766
  O  O87  1  0.819000  0.462300  0.717300  1.0  -0.5615
  O  O88  1  0.606000  0.291100  0.679400  1.0  -0.5589
  O  O89  1  0.908800  0.559700  0.095900  1.0  -0.6002
  O  O90  1  0.780700  0.406900  0.926400  1.0  -0.5783
  O  O91  1  0.011800  0.834100  0.238200  1.0  -0.5611
  O  O92  1  0.176100  0.801100  0.380400  1.0  -0.5807
  O  O93  1  0.181000  0.537700  0.282700  1.0  -0.5616
  O  O94  1  0.394000  0.708900  0.320600  1.0  -0.5593
