# generated using pymatgen
data_TmH18(C3O)6
_symmetry_space_group_name_H-M   'P 1'
_cell_length_a   9.95500000
_cell_length_b   12.79500000
_cell_length_c   13.80100000
_cell_angle_alpha   69.41500000
_cell_angle_beta   82.56200000
_cell_angle_gamma   83.11700000
_symmetry_Int_Tables_number   1
_chemical_formula_structural   TmH18(C3O)6
_chemical_formula_sum   'Tm2 H36 C36 O12'
_cell_volume   1626.56649176
_cell_formula_units_Z   2
loop_
 _symmetry_equiv_pos_site_id
 _symmetry_equiv_pos_as_xyz
  1  'x, y, z'
loop_
 _atom_site_type_symbol
 _atom_site_label
 _atom_site_symmetry_multiplicity
 _atom_site_fract_x
 _atom_site_fract_y
 _atom_site_fract_z
 _atom_site_occupancy
 _atom_site_charge
  Tm  Tm1  1  0.530190  0.640350  0.374810  1.0  2.0777
  Tm  Tm2  1  0.469810  0.359650  0.625190  1.0  2.0778
  H  H3  1  0.189700  0.938000  0.486500  1.0  0.1183
  H  H4  1  0.261400  0.954500  0.374600  1.0  0.1188
  H  H5  1  0.285500  0.840500  0.465000  1.0  0.1186
  H  H6  1  0.689300  0.766900  0.617600  1.0  0.1126
  H  H7  1  0.794900  0.857800  0.574700  1.0  0.1081
  H  H8  1  0.705200  0.845800  0.679600  1.0  0.1213
  H  H9  1  0.268300  0.435900  0.353400  1.0  0.1145
  H  H10  1  0.145900  0.406000  0.309800  1.0  0.1086
  H  H11  1  0.183700  0.530400  0.273000  1.0  0.1306
  H  H12  1  0.179300  0.647200  0.587200  1.0  0.117
  H  H13  1  0.029800  0.671800  0.630300  1.0  0.1119
  H  H14  1  0.114600  0.561300  0.689400  1.0  0.1178
  H  H15  1  0.275100  0.896100  0.202000  1.0  0.1233
  H  H16  1  0.254200  0.025300  0.181300  1.0  0.1157
  H  H17  1  0.186100  0.973500  0.114200  1.0  0.1087
  H  H18  1  0.715200  0.775300  0.094100  1.0  0.1137
  H  H19  1  0.780500  0.834200  0.980900  1.0  0.1044
  H  H20  1  0.803600  0.876400  0.070800  1.0  0.1138
  H  H21  1  0.810300  0.062000  0.513500  1.0  0.1178
  H  H22  1  0.738600  0.045500  0.625400  1.0  0.1182
  H  H23  1  0.714500  0.159500  0.535000  1.0  0.1183
  H  H24  1  0.310700  0.233100  0.382400  1.0  0.1126
  H  H25  1  0.205100  0.142200  0.425300  1.0  0.1074
  H  H26  1  0.294800  0.154200  0.320400  1.0  0.121
  H  H27  1  0.731700  0.564100  0.646600  1.0  0.1166
  H  H28  1  0.854100  0.594000  0.690200  1.0  0.1097
  H  H29  1  0.816300  0.469600  0.727000  1.0  0.1313
  H  H30  1  0.820700  0.352800  0.412800  1.0  0.1176
  H  H31  1  0.970200  0.328200  0.369700  1.0  0.1073
  H  H32  1  0.885400  0.438700  0.310600  1.0  0.116
  H  H33  1  0.724900  0.103900  0.798000  1.0  0.1231
  H  H34  1  0.745800  0.974700  0.818700  1.0  0.1147
  H  H35  1  0.813900  0.026500  0.885800  1.0  0.1079
  H  H36  1  0.284800  0.224700  0.905900  1.0  0.1136
  H  H37  1  0.219500  0.165800  0.019100  1.0  0.1039
  H  H38  1  0.196400  0.123600  0.929200  1.0  0.113
  C  C39  1  0.474400  0.764200  0.556300  1.0  0.7499
  C  C40  1  0.488600  0.888100  0.526500  1.0  -0.1852
  C  C41  1  0.387500  0.962500  0.473600  1.0  0.0883
  C  C42  1  0.270900  0.920200  0.447700  1.0  -0.3403
  C  C43  1  0.600800  0.923600  0.553200  1.0  0.0659
  C  C44  1  0.707100  0.841100  0.611500  1.0  -0.338
  C  C45  1  0.268300  0.573000  0.451500  1.0  0.769
  C  C46  1  0.128400  0.534300  0.478100  1.0  -0.2294
  C  C47  1  0.085100  0.480100  0.418300  1.0  0.0818
  C  C48  1  0.179300  0.461400  0.330700  1.0  -0.3672
  C  C49  1  0.045600  0.555600  0.559600  1.0  0.0649
  C  C50  1  0.096900  0.614200  0.622200  1.0  -0.3509
  C  C51  1  0.505200  0.817500  0.193700  1.0  0.7122
  C  C52  1  0.501800  0.913100  0.092000  1.0  -0.1759
  C  C53  1  0.387000  0.986100  0.073600  1.0  0.0888
  C  C54  1  0.264900  0.968700  0.149500  1.0  -0.3564
  C  C55  1  0.613900  0.926000  0.020800  1.0  0.0721
  C  C56  1  0.739900  0.845600  0.043700  1.0  -0.3381
  C  C57  1  0.525600  0.235800  0.443700  1.0  0.7473
  C  C58  1  0.511400  0.111900  0.473500  1.0  -0.1862
  C  C59  1  0.612500  0.037500  0.526400  1.0  0.0871
  C  C60  1  0.729100  0.079800  0.552300  1.0  -0.341
  C  C61  1  0.399200  0.076400  0.446800  1.0  0.0649
  C  C62  1  0.292900  0.158900  0.388500  1.0  -0.338
  C  C63  1  0.731700  0.427000  0.548500  1.0  0.771
  C  C64  1  0.871600  0.465700  0.521900  1.0  -0.2283
  C  C65  1  0.914900  0.519900  0.581700  1.0  0.0831
  C  C66  1  0.820700  0.538600  0.669300  1.0  -0.3688
  C  C67  1  0.954400  0.444400  0.440400  1.0  0.0666
  C  C68  1  0.903100  0.385800  0.377800  1.0  -0.3523
  C  C69  1  0.494800  0.182500  0.806300  1.0  0.7116
  C  C70  1  0.498200  0.086900  0.908000  1.0  -0.1764
  C  C71  1  0.613000  0.013900  0.926400  1.0  0.0866
  C  C72  1  0.735100  0.031300  0.850500  1.0  -0.3522
  C  C73  1  0.386100  0.074000  0.979200  1.0  0.073
  C  C74  1  0.260100  0.154400  0.956300  1.0  -0.3383
  O  O75  1  0.528500  0.715100  0.494400  1.0  -0.7818
  O  O76  1  0.410700  0.715600  0.638700  1.0  -0.5359
  O  O77  1  0.289700  0.664100  0.382500  1.0  -0.6312
  O  O78  1  0.366800  0.513100  0.496700  1.0  -0.8708
  O  O79  1  0.507900  0.836400  0.276500  1.0  -0.6544
  O  O80  1  0.505700  0.719400  0.196400  1.0  -0.6973
  O  O81  1  0.471500  0.284900  0.505600  1.0  -0.781
  O  O82  1  0.589300  0.284400  0.361300  1.0  -0.5345
  O  O83  1  0.710300  0.335900  0.617500  1.0  -0.6303
  O  O84  1  0.633200  0.486900  0.503300  1.0  -0.8701
  O  O85  1  0.492100  0.163600  0.723500  1.0  -0.6432
  O  O86  1  0.494300  0.280600  0.803600  1.0  -0.6941
