# generated using pymatgen
data_TmH6(C2O)6
_symmetry_space_group_name_H-M   'P 1'
_cell_length_a   10.97090000
_cell_length_b   10.97090000
_cell_length_c   18.84200000
_cell_angle_alpha   73.36960000
_cell_angle_beta   73.36960000
_cell_angle_gamma   74.30800000
_symmetry_Int_Tables_number   1
_chemical_formula_structural   TmH6(C2O)6
_chemical_formula_sum   'Tm4 H24 C48 O24'
_cell_volume   2037.69502458
_cell_formula_units_Z   4
loop_
 _symmetry_equiv_pos_site_id
 _symmetry_equiv_pos_as_xyz
  1  'x, y, z'
loop_
 _atom_site_type_symbol
 _atom_site_label
 _atom_site_symmetry_multiplicity
 _atom_site_fract_x
 _atom_site_fract_y
 _atom_site_fract_z
 _atom_site_occupancy
 _atom_site_charge
  Tm  Tm1  1  0.438450  0.554970  0.605370  1.0  2.2066
  Tm  Tm2  1  0.445030  0.561550  0.894630  1.0  2.2057
  Tm  Tm3  1  0.561550  0.445030  0.394630  1.0  2.2052
  Tm  Tm4  1  0.554970  0.438450  0.105370  1.0  2.2054
  H  H5  1  0.584800  0.841400  0.564500  1.0  0.092
  H  H6  1  0.587700  0.048300  0.512300  1.0  0.0834
  H  H7  1  0.489300  0.126300  0.722000  1.0  0.1187
  H  H8  1  0.490000  0.899800  0.771600  1.0  0.1042
  H  H9  1  0.972000  0.422000  0.405100  1.0  0.1032
  H  H10  1  0.821600  0.549800  0.595000  1.0  0.1056
  H  H11  1  0.158600  0.415200  0.935500  1.0  0.0915
  H  H12  1  0.951700  0.412300  0.987700  1.0  0.0839
  H  H13  1  0.873700  0.510700  0.778000  1.0  0.1189
  H  H14  1  0.100200  0.510000  0.728400  1.0  0.1044
  H  H15  1  0.578000  0.028000  0.094900  1.0  0.1035
  H  H16  1  0.450200  0.178400  0.905000  1.0  0.1052
  H  H17  1  0.415200  0.158600  0.435500  1.0  0.0916
  H  H18  1  0.412300  0.951700  0.487700  1.0  0.0842
  H  H19  1  0.510700  0.873700  0.278000  1.0  0.1184
  H  H20  1  0.510000  0.100200  0.228400  1.0  0.1046
  H  H21  1  0.028000  0.578000  0.594900  1.0  0.1034
  H  H22  1  0.178400  0.450200  0.405000  1.0  0.1056
  H  H23  1  0.841400  0.584800  0.064500  1.0  0.0917
  H  H24  1  0.048300  0.587700  0.012300  1.0  0.0839
  H  H25  1  0.126300  0.489300  0.222000  1.0  0.1194
  H  H26  1  0.899800  0.490000  0.271600  1.0  0.1037
  H  H27  1  0.422000  0.972000  0.905100  1.0  0.1036
  H  H28  1  0.549800  0.821600  0.095000  1.0  0.1053
  C  C29  1  0.535400  0.706000  0.709700  1.0  0.8231
  C  C30  1  0.547200  0.851600  0.671100  1.0  -0.138
  C  C31  1  0.569700  0.897700  0.595900  1.0  -0.0661
  C  C32  1  0.569400  0.022000  0.565000  1.0  -0.0321
  C  C33  1  0.543600  0.117400  0.607500  1.0  -0.1838
  C  C34  1  0.527300  0.257500  0.572000  1.0  0.8281
  C  C35  1  0.510800  0.070000  0.689600  1.0  -0.0427
  C  C36  1  0.512600  0.932600  0.719400  1.0  -0.0609
  C  C37  1  0.740900  0.491900  0.494500  1.0  0.8052
  C  C38  1  0.876300  0.493300  0.497600  1.0  -0.1387
  C  C39  1  0.981700  0.455700  0.442700  1.0  -0.0763
  C  C40  1  0.892100  0.532100  0.555700  1.0  -0.0556
  C  C41  1  0.294000  0.464600  0.790300  1.0  0.8216
  C  C42  1  0.148400  0.452800  0.828900  1.0  -0.1395
  C  C43  1  0.102300  0.430300  0.904100  1.0  -0.0644
  C  C44  1  0.978000  0.430600  0.935000  1.0  -0.0316
  C  C45  1  0.882600  0.456400  0.892500  1.0  -0.184
  C  C46  1  0.742500  0.472700  0.928000  1.0  0.8284
  C  C47  1  0.930000  0.489200  0.810400  1.0  -0.0458
  C  C48  1  0.067400  0.487400  0.780600  1.0  -0.0605
  C  C49  1  0.508100  0.259100  0.005500  1.0  0.8048
  C  C50  1  0.506700  0.123700  0.002400  1.0  -0.1406
  C  C51  1  0.544300  0.018300  0.057300  1.0  -0.0771
  C  C52  1  0.467900  0.107900  0.944300  1.0  -0.0548
  C  C53  1  0.464600  0.294000  0.290300  1.0  0.8217
  C  C54  1  0.452800  0.148400  0.328900  1.0  -0.1394
  C  C55  1  0.430300  0.102300  0.404100  1.0  -0.0657
  C  C56  1  0.430600  0.978000  0.435000  1.0  -0.0311
  C  C57  1  0.456400  0.882600  0.392500  1.0  -0.1852
  C  C58  1  0.472700  0.742500  0.428000  1.0  0.8276
  C  C59  1  0.489200  0.930000  0.310400  1.0  -0.0446
  C  C60  1  0.487400  0.067400  0.280600  1.0  -0.0609
  C  C61  1  0.259100  0.508100  0.505500  1.0  0.8028
  C  C62  1  0.123700  0.506700  0.502400  1.0  -0.1393
  C  C63  1  0.018300  0.544300  0.557300  1.0  -0.0762
  C  C64  1  0.107900  0.467900  0.444300  1.0  -0.0544
  C  C65  1  0.706000  0.535400  0.209700  1.0  0.8233
  C  C66  1  0.851600  0.547200  0.171100  1.0  -0.1388
  C  C67  1  0.897700  0.569700  0.095900  1.0  -0.0657
  C  C68  1  0.022000  0.569400  0.065000  1.0  -0.0339
  C  C69  1  0.117400  0.543600  0.107500  1.0  -0.1832
  C  C70  1  0.257500  0.527300  0.072000  1.0  0.8273
  C  C71  1  0.070000  0.510800  0.189600  1.0  -0.044
  C  C72  1  0.932600  0.512600  0.219400  1.0  -0.0601
  C  C73  1  0.491900  0.740900  0.994500  1.0  0.8045
  C  C74  1  0.493300  0.876300  0.997600  1.0  -0.1398
  C  C75  1  0.455700  0.981700  0.942700  1.0  -0.0756
  C  C76  1  0.532100  0.892100  0.055700  1.0  -0.0549
  O  O77  1  0.530500  0.648900  0.663100  1.0  -0.7741
  O  O78  1  0.531900  0.669100  0.775700  1.0  -0.7222
  O  O79  1  0.548200  0.295200  0.503200  1.0  -0.8007
  O  O80  1  0.492300  0.332700  0.617200  1.0  -0.7276
  O  O81  1  0.659400  0.508200  0.553500  1.0  -0.7079
  O  O82  1  0.723000  0.474400  0.438800  1.0  -0.7388
  O  O83  1  0.351100  0.469500  0.836900  1.0  -0.7742
  O  O84  1  0.330900  0.468100  0.724300  1.0  -0.7224
  O  O85  1  0.704800  0.451800  0.996800  1.0  -0.7991
  O  O86  1  0.667300  0.507700  0.882800  1.0  -0.726
  O  O87  1  0.491800  0.340600  0.946500  1.0  -0.7105
  O  O88  1  0.525600  0.277000  0.061200  1.0  -0.7375
  O  O89  1  0.469500  0.351100  0.336900  1.0  -0.7748
  O  O90  1  0.468100  0.330900  0.224300  1.0  -0.7228
  O  O91  1  0.451800  0.704800  0.496800  1.0  -0.7993
  O  O92  1  0.507700  0.667300  0.382800  1.0  -0.7266
  O  O93  1  0.340600  0.491800  0.446500  1.0  -0.7082
  O  O94  1  0.277000  0.525600  0.561200  1.0  -0.74
  O  O95  1  0.648900  0.530500  0.163100  1.0  -0.776
  O  O96  1  0.669100  0.531900  0.275700  1.0  -0.7212
  O  O97  1  0.295200  0.548200  0.003200  1.0  -0.8009
  O  O98  1  0.332700  0.492300  0.117200  1.0  -0.7274
  O  O99  1  0.508200  0.659400  0.053500  1.0  -0.7103
  O  O100  1  0.474400  0.723000  0.938800  1.0  -0.7375
