# generated using pymatgen
data_TmH6(C2O)6
_symmetry_space_group_name_H-M   'P 1'
_cell_length_a   10.86390000
_cell_length_b   18.66700000
_cell_length_c   19.84000000
_cell_angle_alpha   98.03500000
_cell_angle_beta   96.53500000
_cell_angle_gamma   106.18500000
_symmetry_Int_Tables_number   1
_chemical_formula_structural   TmH6(C2O)6
_chemical_formula_sum   'Tm8 H48 C96 O48'
_cell_volume   3776.38594568
_cell_formula_units_Z   8
loop_
 _symmetry_equiv_pos_site_id
 _symmetry_equiv_pos_as_xyz
  1  'x, y, z'
loop_
 _atom_site_type_symbol
 _atom_site_label
 _atom_site_symmetry_multiplicity
 _atom_site_fract_x
 _atom_site_fract_y
 _atom_site_fract_z
 _atom_site_occupancy
 _atom_site_charge
  Tm  Tm1  1  0.176630  0.891980  0.794850  1.0  2.2669
  Tm  Tm2  1  0.172540  0.599160  0.797750  1.0  2.2035
  Tm  Tm3  1  0.236340  0.389730  0.728450  1.0  2.1951
  Tm  Tm4  1  0.249130  0.101520  0.725910  1.0  2.2197
  Tm  Tm5  1  0.823370  0.108020  0.205150  1.0  2.2658
  Tm  Tm6  1  0.827460  0.400840  0.202250  1.0  2.2014
  Tm  Tm7  1  0.763660  0.610270  0.271550  1.0  2.1954
  Tm  Tm8  1  0.750870  0.898480  0.274090  1.0  2.2205
  H  H9  1  0.556200  0.904400  0.793000  1.0  0.0888
  H  H10  1  0.763900  0.898700  0.804300  1.0  0.1089
  H  H11  1  0.868600  0.091200  0.728200  1.0  0.0996
  H  H12  1  0.665000  0.098300  0.724500  1.0  0.0988
  H  H13  1  0.053100  0.779800  0.571100  1.0  0.1074
  H  H14  1  0.972200  0.727300  0.456400  1.0  0.1063
  H  H15  1  0.040100  0.936500  0.411800  1.0  0.1123
  H  H16  1  0.117200  0.986100  0.523000  1.0  0.0871
  H  H17  1  0.433300  0.727700  0.968400  1.0  0.095
  H  H18  1  0.562200  0.785300  0.073500  1.0  0.1119
  H  H19  1  0.620000  0.983900  0.010900  1.0  0.0957
  H  H20  1  0.478600  0.926800  0.909800  1.0  0.0883
  H  H21  1  0.836200  0.569400  0.702600  1.0  0.1069
  H  H22  1  0.617100  0.514900  0.698700  1.0  0.0967
  H  H23  1  0.584200  0.708700  0.795900  1.0  0.1058
  H  H24  1  0.801800  0.763600  0.802200  1.0  0.0981
  H  H25  1  0.839800  0.273600  0.783700  1.0  0.1013
  H  H26  1  0.621400  0.223700  0.789500  1.0  0.1001
  H  H27  1  0.577000  0.429800  0.799000  1.0  0.0945
  H  H28  1  0.799600  0.481700  0.803700  1.0  0.0896
  H  H29  1  0.432200  0.403500  0.905800  1.0  0.0968
  H  H30  1  0.424400  0.604000  0.003400  1.0  0.0966
  H  H31  1  0.092600  0.407800  0.520700  1.0  0.0927
  H  H32  1  0.996600  0.590200  0.591900  1.0  0.1118
  H  H33  1  0.443800  0.095600  0.207000  1.0  0.0892
  H  H34  1  0.236100  0.101300  0.195700  1.0  0.1092
  H  H35  1  0.131400  0.908800  0.271800  1.0  0.0991
  H  H36  1  0.335000  0.901700  0.275500  1.0  0.0992
  H  H37  1  0.946900  0.220200  0.428900  1.0  0.1076
  H  H38  1  0.027800  0.272700  0.543600  1.0  0.1062
  H  H39  1  0.959900  0.063500  0.588200  1.0  0.1122
  H  H40  1  0.882800  0.013900  0.477000  1.0  0.0872
  H  H41  1  0.566700  0.272300  0.031600  1.0  0.0938
  H  H42  1  0.437800  0.214700  0.926500  1.0  0.1116
  H  H43  1  0.380000  0.016100  0.989100  1.0  0.095
  H  H44  1  0.521400  0.073200  0.090200  1.0  0.0887
  H  H45  1  0.163800  0.430600  0.297400  1.0  0.107
  H  H46  1  0.382900  0.485100  0.301300  1.0  0.0967
  H  H47  1  0.415800  0.291300  0.204100  1.0  0.1058
  H  H48  1  0.198200  0.236400  0.197800  1.0  0.0979
  H  H49  1  0.160200  0.726400  0.216300  1.0  0.1012
  H  H50  1  0.378600  0.776300  0.210500  1.0  0.0998
  H  H51  1  0.423000  0.570200  0.201000  1.0  0.0948
  H  H52  1  0.200400  0.518300  0.196300  1.0  0.0886
  H  H53  1  0.567800  0.596500  0.094200  1.0  0.0962
  H  H54  1  0.575600  0.396000  0.996600  1.0  0.0969
  H  H55  1  0.907400  0.592200  0.479300  1.0  0.0927
  H  H56  1  0.003400  0.409800  0.408100  1.0  0.1116
  C  C57  1  0.448500  0.003400  0.750900  1.0  0.7486
  C  C58  1  0.587800  0.000100  0.756200  1.0  -0.1424
  C  C59  1  0.620400  0.942400  0.780400  1.0  -0.0537
  C  C60  1  0.743700  0.938500  0.786800  1.0  -0.078
  C  C61  1  0.840800  0.994900  0.766800  1.0  -0.1418
  C  C62  1  0.976300  0.990300  0.770600  1.0  0.7878
  C  C63  1  0.806200  0.053500  0.742400  1.0  -0.05
  C  C64  1  0.684900  0.057000  0.738900  1.0  -0.0527
  C  C65  1  0.136100  0.921800  0.634700  1.0  0.7498
  C  C66  1  0.091000  0.888800  0.559500  1.0  -0.1557
  C  C67  1  0.048000  0.811100  0.538900  1.0  -0.0497
  C  C68  1  0.997500  0.779600  0.470800  1.0  -0.061
  C  C69  1  0.984900  0.827100  0.424100  1.0  -0.1477
  C  C70  1  0.913700  0.793800  0.350600  1.0  0.7823
  C  C71  1  0.038000  0.904800  0.444200  1.0  -0.1044
  C  C72  1  0.085800  0.933600  0.509700  1.0  -0.0354
  C  C73  1  0.338200  0.784000  0.865400  1.0  0.8086
  C  C74  1  0.435800  0.821000  0.929000  1.0  -0.1613
  C  C75  1  0.467900  0.780300  0.977800  1.0  -0.0364
  C  C76  1  0.549200  0.814000  0.040200  1.0  -0.0759
  C  C77  1  0.609000  0.889300  0.051200  1.0  -0.141
  C  C78  1  0.689400  0.929600  0.116200  1.0  0.7812
  C  C79  1  0.580800  0.931700  0.002500  1.0  -0.1156
  C  C80  1  0.495500  0.897500  0.942000  1.0  -0.0573
  C  C81  1  0.985700  0.709000  0.758400  1.0  0.8019
  C  C82  1  0.843000  0.672300  0.753000  1.0  -0.163
  C  C83  1  0.786500  0.597600  0.722000  1.0  -0.0778
  C  C84  1  0.655600  0.565200  0.720000  1.0  -0.0477
  C  C85  1  0.579800  0.605600  0.749100  1.0  -0.1509
  C  C86  1  0.433900  0.562900  0.744000  1.0  0.7902
  C  C87  1  0.635100  0.680400  0.778200  1.0  -0.0563
  C  C88  1  0.764500  0.713100  0.781100  1.0  -0.0506
  C  C89  1  0.980700  0.416400  0.783000  1.0  0.7892
  C  C90  1  0.843200  0.384900  0.793500  1.0  -0.1335
  C  C91  1  0.787700  0.305400  0.788000  1.0  -0.0496
  C  C92  1  0.656000  0.275100  0.788900  1.0  -0.0712
  C  C93  1  0.576900  0.320800  0.789000  1.0  -0.1655
  C  C94  1  0.431900  0.287400  0.777800  1.0  0.8178
  C  C95  1  0.629900  0.398300  0.796000  1.0  -0.0641
  C  C96  1  0.764200  0.429400  0.798500  1.0  -0.0413
  C  C97  1  0.315600  0.509000  0.885500  1.0  0.7783
  C  C98  1  0.410100  0.504800  0.945600  1.0  -0.1381
  C  C99  1  0.459100  0.442400  0.944000  1.0  -0.0512
  C  C100  1  0.454000  0.561700  0.001800  1.0  -0.0413
  C  C101  1  0.110100  0.496300  0.638700  1.0  0.7611
  C  C102  1  0.053700  0.498300  0.565700  1.0  -0.1323
  C  C103  1  0.055200  0.445600  0.512500  1.0  -0.0461
  C  C104  1  0.998600  0.553800  0.555300  1.0  -0.0655
  C  C105  1  0.551500  0.996600  0.249100  1.0  0.7462
  C  C106  1  0.412200  0.999900  0.243800  1.0  -0.1427
  C  C107  1  0.379600  0.057600  0.219600  1.0  -0.0551
  C  C108  1  0.256300  0.061500  0.213200  1.0  -0.078
  C  C109  1  0.159200  0.005100  0.233200  1.0  -0.1428
  C  C110  1  0.023700  0.009700  0.229400  1.0  0.7888
  C  C111  1  0.193800  0.946500  0.257600  1.0  -0.0498
  C  C112  1  0.315100  0.943000  0.261100  1.0  -0.0534
  C  C113  1  0.863900  0.078200  0.365300  1.0  0.7566
  C  C114  1  0.909000  0.111200  0.440500  1.0  -0.1553
  C  C115  1  0.952000  0.188900  0.461100  1.0  -0.0498
  C  C116  1  0.002500  0.220400  0.529200  1.0  -0.0598
  C  C117  1  0.015100  0.172900  0.575900  1.0  -0.147
  C  C118  1  0.086300  0.206200  0.649400  1.0  0.7842
  C  C119  1  0.962000  0.095200  0.555800  1.0  -0.1085
  C  C120  1  0.914200  0.066400  0.490300  1.0  -0.0338
  C  C121  1  0.661800  0.216000  0.134600  1.0  0.8094
  C  C122  1  0.564200  0.179000  0.071000  1.0  -0.1606
  C  C123  1  0.532100  0.219700  0.022200  1.0  -0.0371
  C  C124  1  0.450800  0.186000  0.959800  1.0  -0.075
  C  C125  1  0.391000  0.110700  0.948800  1.0  -0.1414
  C  C126  1  0.310600  0.070400  0.883800  1.0  0.7814
  C  C127  1  0.419200  0.068300  0.997500  1.0  -0.1021
  C  C128  1  0.504500  0.102500  0.058000  1.0  -0.0575
  C  C129  1  0.014300  0.291000  0.241600  1.0  0.8024
  C  C130  1  0.157000  0.327700  0.247000  1.0  -0.1637
  C  C131  1  0.213500  0.402400  0.278000  1.0  -0.0771
  C  C132  1  0.344400  0.434800  0.280000  1.0  -0.0489
  C  C133  1  0.420200  0.394400  0.250900  1.0  -0.1527
  C  C134  1  0.566100  0.437100  0.256000  1.0  0.7889
  C  C135  1  0.364900  0.319600  0.221800  1.0  -0.0564
  C  C136  1  0.235500  0.286900  0.218900  1.0  -0.0493
  C  C137  1  0.019300  0.583600  0.217000  1.0  0.7928
  C  C138  1  0.156800  0.615100  0.206500  1.0  -0.134
  C  C139  1  0.212300  0.694600  0.212000  1.0  -0.0506
  C  C140  1  0.344000  0.724900  0.211100  1.0  -0.0699
  C  C141  1  0.423100  0.679200  0.211000  1.0  -0.1651
  C  C142  1  0.568100  0.712600  0.222200  1.0  0.8175
  C  C143  1  0.370100  0.601700  0.204000  1.0  -0.0653
  C  C144  1  0.235800  0.570600  0.201500  1.0  -0.0427
  C  C145  1  0.684400  0.491000  0.114500  1.0  0.78
  C  C146  1  0.589900  0.495200  0.054400  1.0  -0.1378
  C  C147  1  0.540900  0.557600  0.056000  1.0  -0.0525
  C  C148  1  0.546000  0.438300  0.998200  1.0  -0.0412
  C  C149  1  0.889900  0.503700  0.361300  1.0  0.7589
  C  C150  1  0.946300  0.501700  0.434300  1.0  -0.1322
  C  C151  1  0.944800  0.554400  0.487500  1.0  -0.0461
  C  C152  1  0.001400  0.446200  0.444700  1.0  -0.0638
  O  O153  1  0.368100  0.947500  0.760600  1.0  -0.7118
  O  O154  1  0.430000  0.062500  0.737800  1.0  -0.7061
  O  O155  1  0.000800  0.934600  0.791100  1.0  -0.6929
  O  O156  1  0.058400  0.043000  0.753800  1.0  -0.7384
  O  O157  1  0.128500  0.878700  0.678400  1.0  -0.7013
  O  O158  1  0.183200  0.992800  0.650900  1.0  -0.7878
  O  O159  1  0.891300  0.724400  0.333000  1.0  -0.7332
  O  O160  1  0.883500  0.838100  0.314700  1.0  -0.7727
  O  O161  1  0.306400  0.824900  0.828300  1.0  -0.7566
  O  O162  1  0.296900  0.713000  0.853400  1.0  -0.7583
  O  O163  1  0.713900  0.889700  0.159000  1.0  -0.6875
  O  O164  1  0.734000  0.999500  0.127500  1.0  -0.755
  O  O165  1  0.022800  0.778900  0.764900  1.0  -0.7514
  O  O166  1  0.057200  0.667100  0.752700  1.0  -0.7659
  O  O167  1  0.398300  0.494600  0.724100  1.0  -0.6728
  O  O168  1  0.370300  0.603900  0.768600  1.0  -0.7231
  O  O169  1  0.026200  0.484800  0.791000  1.0  -0.7928
  O  O170  1  0.041700  0.370100  0.768500  1.0  -0.6558
  O  O171  1  0.388800  0.219500  0.768600  1.0  -0.744
  O  O172  1  0.363700  0.330800  0.779600  1.0  -0.7511
  O  O173  1  0.270800  0.563700  0.891000  1.0  -0.6379
  O  O174  1  0.285800  0.456900  0.836700  1.0  -0.7252
  O  O175  1  0.127400  0.554600  0.683100  1.0  -0.7098
  O  O176  1  0.130900  0.435500  0.648100  1.0  -0.7396
  O  O177  1  0.631900  0.052500  0.239400  1.0  -0.7092
  O  O178  1  0.570000  0.937500  0.262200  1.0  -0.7115
  O  O179  1  0.999200  0.065400  0.208900  1.0  -0.693
  O  O180  1  0.941600  0.957000  0.246200  1.0  -0.7375
  O  O181  1  0.871500  0.121300  0.321600  1.0  -0.7012
  O  O182  1  0.816800  0.007200  0.349100  1.0  -0.7891
  O  O183  1  0.108700  0.275600  0.667000  1.0  -0.7307
  O  O184  1  0.116500  0.161900  0.685300  1.0  -0.7764
  O  O185  1  0.693600  0.175100  0.171700  1.0  -0.756
  O  O186  1  0.703100  0.287000  0.146600  1.0  -0.7594
  O  O187  1  0.286100  0.110300  0.841000  1.0  -0.6874
  O  O188  1  0.266000  0.000500  0.872500  1.0  -0.7553
  O  O189  1  0.977200  0.221100  0.235100  1.0  -0.7498
  O  O190  1  0.942800  0.332900  0.247300  1.0  -0.7632
  O  O191  1  0.601700  0.505400  0.275900  1.0  -0.6872
  O  O192  1  0.629700  0.396100  0.231400  1.0  -0.7227
  O  O193  1  0.973800  0.515200  0.209000  1.0  -0.7845
  O  O194  1  0.958300  0.629900  0.231500  1.0  -0.6541
  O  O195  1  0.611200  0.780500  0.231400  1.0  -0.7448
  O  O196  1  0.636300  0.669200  0.220400  1.0  -0.7507
  O  O197  1  0.729200  0.436300  0.109000  1.0  -0.6371
  O  O198  1  0.714200  0.543100  0.163300  1.0  -0.7282
  O  O199  1  0.872600  0.445400  0.316900  1.0  -0.707
  O  O200  1  0.869100  0.564500  0.351900  1.0  -0.7397
