# generated using pymatgen
data_CoH18C32(NO)8
_symmetry_space_group_name_H-M   'P 1'
_cell_length_a   8.73300000
_cell_length_b   16.28300000
_cell_length_c   22.98000000
_cell_angle_alpha   90.00000000
_cell_angle_beta   90.00000000
_cell_angle_gamma   90.00000000
_symmetry_Int_Tables_number   1
_chemical_formula_structural   CoH18C32(NO)8
_chemical_formula_sum   'Co4 H72 C128 N32 O32'
_cell_volume   3267.74310822
_cell_formula_units_Z   4
loop_
 _symmetry_equiv_pos_site_id
 _symmetry_equiv_pos_as_xyz
  1  'x, y, z'
loop_
 _atom_site_type_symbol
 _atom_site_label
 _atom_site_symmetry_multiplicity
 _atom_site_fract_x
 _atom_site_fract_y
 _atom_site_fract_z
 _atom_site_occupancy
 _atom_site_charge
  Co  Co1  1  0.728870  0.750000  0.750000  1.0  0.9333
  Co  Co2  1  0.771130  0.750000  0.250000  1.0  0.9334
  Co  Co3  1  0.271130  0.250000  0.250000  1.0  0.9334
  Co  Co4  1  0.228870  0.250000  0.750000  1.0  0.9333
  H  H5  1  0.610200  0.569500  0.689500  1.0  0.1134
  H  H6  1  0.426500  0.480300  0.740200  1.0  0.1313
  H  H7  1  0.469000  0.690700  0.828800  1.0  0.1075
  H  H8  1  0.220600  0.663800  0.863900  1.0  0.1182
  H  H9  1  0.075300  0.623700  0.944100  1.0  0.0989
  H  H10  1  0.191300  0.387900  0.914800  1.0  0.1129
  H  H11  1  0.345000  0.428000  0.836800  1.0  0.1225
  H  H12  1  0.136500  0.589600  0.660500  1.0  0.1109
  H  H13  1  0.880100  0.742400  0.561800  1.0  0.1265
  H  H14  1  0.889800  0.569500  0.310500  1.0  0.1133
  H  H15  1  0.073500  0.480300  0.259800  1.0  0.1307
  H  H16  1  0.031000  0.690700  0.171200  1.0  0.1073
  H  H17  1  0.279400  0.663800  0.136100  1.0  0.1174
  H  H18  1  0.424700  0.623700  0.055900  1.0  0.0992
  H  H19  1  0.308700  0.387900  0.085200  1.0  0.1126
  H  H20  1  0.155000  0.428000  0.163200  1.0  0.1228
  H  H21  1  0.363500  0.589600  0.339500  1.0  0.1106
  H  H22  1  0.619900  0.742400  0.438200  1.0  0.1259
  H  H23  1  0.889800  0.930500  0.189500  1.0  0.1134
  H  H24  1  0.073500  0.019700  0.240200  1.0  0.1315
  H  H25  1  0.031000  0.809300  0.328800  1.0  0.1071
  H  H26  1  0.279400  0.836200  0.363900  1.0  0.1178
  H  H27  1  0.424700  0.876300  0.444100  1.0  0.0993
  H  H28  1  0.308700  0.112100  0.414800  1.0  0.1127
  H  H29  1  0.155000  0.072000  0.336800  1.0  0.1228
  H  H30  1  0.363500  0.910400  0.160500  1.0  0.1106
  H  H31  1  0.619900  0.757600  0.061800  1.0  0.1259
  H  H32  1  0.610200  0.930500  0.810500  1.0  0.1131
  H  H33  1  0.426500  0.019700  0.759800  1.0  0.1311
  H  H34  1  0.469000  0.809300  0.671200  1.0  0.1071
  H  H35  1  0.220600  0.836200  0.636100  1.0  0.118
  H  H36  1  0.075300  0.876300  0.555900  1.0  0.0988
  H  H37  1  0.191300  0.112100  0.585200  1.0  0.1132
  H  H38  1  0.345000  0.072000  0.663200  1.0  0.1232
  H  H39  1  0.136500  0.910400  0.839500  1.0  0.1104
  H  H40  1  0.880100  0.757600  0.938200  1.0  0.1264
  H  H41  1  0.389800  0.430500  0.310500  1.0  0.1132
  H  H42  1  0.573500  0.519700  0.259800  1.0  0.1308
  H  H43  1  0.531000  0.309300  0.171200  1.0  0.1067
  H  H44  1  0.779400  0.336200  0.136100  1.0  0.1178
  H  H45  1  0.924700  0.376300  0.055900  1.0  0.099
  H  H46  1  0.808700  0.612100  0.085200  1.0  0.1129
  H  H47  1  0.655000  0.572000  0.163200  1.0  0.1229
  H  H48  1  0.863500  0.410400  0.339500  1.0  0.1106
  H  H49  1  0.119900  0.257600  0.438200  1.0  0.1255
  H  H50  1  0.110200  0.430500  0.689500  1.0  0.1134
  H  H51  1  0.926500  0.519700  0.740200  1.0  0.1318
  H  H52  1  0.969000  0.309300  0.828800  1.0  0.1074
  H  H53  1  0.720600  0.336200  0.863900  1.0  0.1179
  H  H54  1  0.575300  0.376300  0.944100  1.0  0.0991
  H  H55  1  0.691300  0.612100  0.914800  1.0  0.113
  H  H56  1  0.845000  0.572000  0.836800  1.0  0.123
  H  H57  1  0.636500  0.410400  0.660500  1.0  0.1105
  H  H58  1  0.380100  0.257600  0.561800  1.0  0.1268
  H  H59  1  0.110200  0.069500  0.810500  1.0  0.1132
  H  H60  1  0.926500  0.980300  0.759800  1.0  0.1311
  H  H61  1  0.969000  0.190700  0.671200  1.0  0.1076
  H  H62  1  0.720600  0.163800  0.636100  1.0  0.1177
  H  H63  1  0.575300  0.123700  0.555900  1.0  0.0992
  H  H64  1  0.691300  0.887900  0.585200  1.0  0.1129
  H  H65  1  0.845000  0.928000  0.663200  1.0  0.123
  H  H66  1  0.636500  0.089600  0.839500  1.0  0.1105
  H  H67  1  0.380100  0.242400  0.938200  1.0  0.1263
  H  H68  1  0.389800  0.069500  0.189500  1.0  0.1134
  H  H69  1  0.573500  0.980300  0.240200  1.0  0.131
  H  H70  1  0.531000  0.190700  0.328800  1.0  0.1074
  H  H71  1  0.779400  0.163800  0.363900  1.0  0.118
  H  H72  1  0.924700  0.123700  0.444100  1.0  0.099
  H  H73  1  0.808700  0.887900  0.414800  1.0  0.1127
  H  H74  1  0.655000  0.928000  0.336800  1.0  0.1223
  H  H75  1  0.863500  0.089600  0.160500  1.0  0.111
  H  H76  1  0.119900  0.242400  0.061800  1.0  0.1262
  C  C77  1  0.558200  0.582600  0.724600  1.0  0.0311
  C  C78  1  0.456600  0.533900  0.751800  1.0  -0.1293
  C  C79  1  0.481300  0.649200  0.800200  1.0  0.1641
  C  C80  1  0.301000  0.550100  0.844300  1.0  0.1202
  C  C81  1  0.217400  0.607700  0.875000  1.0  -0.1482
  C  C82  1  0.129100  0.583700  0.922000  1.0  -0.0815
  C  C83  1  0.119000  0.502000  0.936700  1.0  0.1598
  C  C84  1  0.199000  0.444400  0.904900  1.0  -0.0954
  C  C85  1  0.290200  0.468000  0.858600  1.0  -0.1452
  C  C86  1  0.897300  0.692400  0.671400  1.0  0.62
  C  C87  1  0.995200  0.671700  0.619900  1.0  -0.0959
  C  C88  1  0.117500  0.616900  0.624700  1.0  -0.0235
  C  C89  1  0.211400  0.602700  0.576900  1.0  -0.1016
  C  C90  1  0.192500  0.643200  0.524600  1.0  0.0567
  C  C91  1  0.063000  0.692300  0.520600  1.0  -0.0159
  C  C92  1  0.966300  0.707500  0.566700  1.0  -0.0587
  C  C93  1  0.941800  0.582600  0.275400  1.0  0.0303
  C  C94  1  0.043400  0.533900  0.248200  1.0  -0.1296
  C  C95  1  0.018700  0.649200  0.199800  1.0  0.1647
  C  C96  1  0.199000  0.550100  0.155700  1.0  0.1203
  C  C97  1  0.282600  0.607700  0.125000  1.0  -0.1478
  C  C98  1  0.370900  0.583700  0.078000  1.0  -0.0822
  C  C99  1  0.381000  0.502000  0.063300  1.0  0.1588
  C  C100  1  0.301000  0.444400  0.095100  1.0  -0.0962
  C  C101  1  0.209800  0.468000  0.141400  1.0  -0.1451
  C  C102  1  0.602700  0.692400  0.328600  1.0  0.6197
  C  C103  1  0.504800  0.671700  0.380100  1.0  -0.0966
  C  C104  1  0.382500  0.616900  0.375300  1.0  -0.0236
  C  C105  1  0.288600  0.602700  0.423100  1.0  -0.1022
  C  C106  1  0.307500  0.643200  0.475400  1.0  0.0565
  C  C107  1  0.437000  0.692300  0.479400  1.0  -0.0159
  C  C108  1  0.533700  0.707500  0.433300  1.0  -0.0598
  C  C109  1  0.941800  0.917400  0.224600  1.0  0.0301
  C  C110  1  0.043400  0.966100  0.251800  1.0  -0.1298
  C  C111  1  0.018700  0.850800  0.300200  1.0  0.1651
  C  C112  1  0.199000  0.949900  0.344300  1.0  0.1203
  C  C113  1  0.282600  0.892300  0.375000  1.0  -0.1481
  C  C114  1  0.370900  0.916300  0.422000  1.0  -0.0824
  C  C115  1  0.381000  0.998000  0.436700  1.0  0.1597
  C  C116  1  0.301000  0.055600  0.404900  1.0  -0.0952
  C  C117  1  0.209800  0.032000  0.358600  1.0  -0.1446
  C  C118  1  0.602700  0.807600  0.171400  1.0  0.6196
  C  C119  1  0.504800  0.828300  0.119900  1.0  -0.0931
  C  C120  1  0.382500  0.883100  0.124700  1.0  -0.0242
  C  C121  1  0.288600  0.897300  0.076900  1.0  -0.103
  C  C122  1  0.307500  0.856800  0.024600  1.0  0.0591
  C  C123  1  0.437000  0.807700  0.020600  1.0  -0.0144
  C  C124  1  0.533700  0.792500  0.066700  1.0  -0.0596
  C  C125  1  0.558200  0.917400  0.775400  1.0  0.0316
  C  C126  1  0.456600  0.966100  0.748200  1.0  -0.1301
  C  C127  1  0.481300  0.850800  0.699800  1.0  0.1648
  C  C128  1  0.301000  0.949900  0.655700  1.0  0.1204
  C  C129  1  0.217400  0.892300  0.625000  1.0  -0.1481
  C  C130  1  0.129100  0.916300  0.578000  1.0  -0.081
  C  C131  1  0.119000  0.998000  0.563300  1.0  0.1598
  C  C132  1  0.199000  0.055600  0.595100  1.0  -0.0956
  C  C133  1  0.290200  0.032000  0.641400  1.0  -0.1451
  C  C134  1  0.897300  0.807600  0.828600  1.0  0.6195
  C  C135  1  0.995200  0.828300  0.880100  1.0  -0.0943
  C  C136  1  0.117500  0.883100  0.875300  1.0  -0.0237
  C  C137  1  0.211400  0.897300  0.923100  1.0  -0.1033
  C  C138  1  0.192500  0.856800  0.975400  1.0  0.0587
  C  C139  1  0.063000  0.807700  0.979400  1.0  -0.016
  C  C140  1  0.966300  0.792500  0.933300  1.0  -0.0595
  C  C141  1  0.441800  0.417400  0.275400  1.0  0.0303
  C  C142  1  0.543400  0.466100  0.248200  1.0  -0.1295
  C  C143  1  0.518700  0.350800  0.199800  1.0  0.1649
  C  C144  1  0.699000  0.449900  0.155700  1.0  0.1204
  C  C145  1  0.782600  0.392300  0.125000  1.0  -0.1478
  C  C146  1  0.870900  0.416300  0.078000  1.0  -0.082
  C  C147  1  0.881000  0.498000  0.063300  1.0  0.1596
  C  C148  1  0.801000  0.555600  0.095100  1.0  -0.0957
  C  C149  1  0.709800  0.532000  0.141400  1.0  -0.1448
  C  C150  1  0.102700  0.307600  0.328600  1.0  0.6195
  C  C151  1  0.004800  0.328300  0.380100  1.0  -0.094
  C  C152  1  0.882500  0.383100  0.375300  1.0  -0.0238
  C  C153  1  0.788600  0.397300  0.423100  1.0  -0.1029
  C  C154  1  0.807500  0.356800  0.475400  1.0  0.0589
  C  C155  1  0.937000  0.307700  0.479400  1.0  -0.015
  C  C156  1  0.033700  0.292500  0.433300  1.0  -0.0597
  C  C157  1  0.058200  0.417400  0.724600  1.0  0.0308
  C  C158  1  0.956600  0.466100  0.751800  1.0  -0.1296
  C  C159  1  0.981300  0.350800  0.800200  1.0  0.165
  C  C160  1  0.801000  0.449900  0.844300  1.0  0.1203
  C  C161  1  0.717400  0.392300  0.875000  1.0  -0.1484
  C  C162  1  0.629100  0.416300  0.922000  1.0  -0.0812
  C  C163  1  0.619000  0.498000  0.936700  1.0  0.1598
  C  C164  1  0.699000  0.555600  0.904900  1.0  -0.0952
  C  C165  1  0.790200  0.532000  0.858600  1.0  -0.145
  C  C166  1  0.397300  0.307600  0.671400  1.0  0.6198
  C  C167  1  0.495200  0.328300  0.619900  1.0  -0.0931
  C  C168  1  0.617500  0.383100  0.624700  1.0  -0.0241
  C  C169  1  0.711400  0.397300  0.576900  1.0  -0.1033
  C  C170  1  0.692500  0.356800  0.524600  1.0  0.0588
  C  C171  1  0.563000  0.307700  0.520600  1.0  -0.0153
  C  C172  1  0.466300  0.292500  0.566700  1.0  -0.0595
  C  C173  1  0.058200  0.082600  0.775400  1.0  0.0316
  C  C174  1  0.956600  0.033900  0.748200  1.0  -0.1302
  C  C175  1  0.981300  0.149200  0.699800  1.0  0.1642
  C  C176  1  0.801000  0.050100  0.655700  1.0  0.1203
  C  C177  1  0.717400  0.107700  0.625000  1.0  -0.1482
  C  C178  1  0.629100  0.083700  0.578000  1.0  -0.0812
  C  C179  1  0.619000  0.002000  0.563300  1.0  0.1589
  C  C180  1  0.699000  0.944400  0.595100  1.0  -0.0963
  C  C181  1  0.790200  0.968000  0.641400  1.0  -0.1451
  C  C182  1  0.397300  0.192400  0.828600  1.0  0.6197
  C  C183  1  0.495200  0.171700  0.880100  1.0  -0.0973
  C  C184  1  0.617500  0.116900  0.875300  1.0  -0.0234
  C  C185  1  0.711400  0.102700  0.923100  1.0  -0.1017
  C  C186  1  0.692500  0.143200  0.975400  1.0  0.0566
  C  C187  1  0.563000  0.192300  0.979400  1.0  -0.0165
  C  C188  1  0.466300  0.207500  0.933300  1.0  -0.0588
  C  C189  1  0.441800  0.082600  0.224600  1.0  0.0305
  C  C190  1  0.543400  0.033900  0.251800  1.0  -0.1296
  C  C191  1  0.518700  0.149200  0.300200  1.0  0.1646
  C  C192  1  0.699000  0.050100  0.344300  1.0  0.1202
  C  C193  1  0.782600  0.107700  0.375000  1.0  -0.1479
  C  C194  1  0.870900  0.083700  0.422000  1.0  -0.0828
  C  C195  1  0.881000  0.002000  0.436700  1.0  0.1596
  C  C196  1  0.801000  0.944400  0.404900  1.0  -0.0954
  C  C197  1  0.709800  0.968000  0.358600  1.0  -0.145
  C  C198  1  0.102700  0.192400  0.171400  1.0  0.6199
  C  C199  1  0.004800  0.171700  0.119900  1.0  -0.0953
  C  C200  1  0.882500  0.116900  0.124700  1.0  -0.0235
  C  C201  1  0.788600  0.102700  0.076900  1.0  -0.1021
  C  C202  1  0.807500  0.143200  0.024600  1.0  0.0565
  C  C203  1  0.937000  0.192300  0.020600  1.0  -0.0154
  C  C204  1  0.033700  0.207500  0.066700  1.0  -0.0597
  N  N205  1  0.575400  0.655000  0.756000  1.0  -0.3991
  N  N206  1  0.403600  0.577100  0.800200  1.0  0.0437
  N  N207  1  0.033100  0.472500  0.985300  1.0  -0.1455
  N  N208  1  0.017100  0.747400  0.477100  1.0  0.6098
  N  N209  1  0.924600  0.655000  0.244000  1.0  -0.3996
  N  N210  1  0.096400  0.577100  0.199800  1.0  0.0439
  N  N211  1  0.466900  0.472500  0.014700  1.0  -0.1452
  N  N212  1  0.482900  0.747400  0.522900  1.0  0.6114
  N  N213  1  0.924600  0.845000  0.256000  1.0  -0.4001
  N  N214  1  0.096400  0.922900  0.300200  1.0  0.0437
  N  N215  1  0.466900  0.027500  0.485300  1.0  -0.1467
  N  N216  1  0.482900  0.752600  0.977100  1.0  0.6102
  N  N217  1  0.575400  0.845000  0.744000  1.0  -0.398
  N  N218  1  0.403600  0.922900  0.699800  1.0  0.0429
  N  N219  1  0.033100  0.027500  0.514700  1.0  -0.1465
  N  N220  1  0.017100  0.752600  0.022900  1.0  0.6107
  N  N221  1  0.424600  0.345000  0.244000  1.0  -0.3991
  N  N222  1  0.596400  0.422900  0.199800  1.0  0.0434
  N  N223  1  0.966900  0.527500  0.014700  1.0  -0.1465
  N  N224  1  0.982900  0.252600  0.522900  1.0  0.6109
  N  N225  1  0.075400  0.345000  0.756000  1.0  -0.3992
  N  N226  1  0.903600  0.422900  0.800200  1.0  0.0433
  N  N227  1  0.533100  0.527500  0.985300  1.0  -0.1467
  N  N228  1  0.517100  0.252600  0.477100  1.0  0.6101
  N  N229  1  0.075400  0.155000  0.744000  1.0  -0.399
  N  N230  1  0.903600  0.077100  0.699800  1.0  0.0435
  N  N231  1  0.533100  0.972500  0.514700  1.0  -0.1453
  N  N232  1  0.517100  0.247400  0.022900  1.0  0.6109
  N  N233  1  0.424600  0.155000  0.256000  1.0  -0.3994
  N  N234  1  0.596400  0.077100  0.300200  1.0  0.044
  N  N235  1  0.966900  0.972500  0.485300  1.0  -0.1454
  N  N236  1  0.982900  0.247400  0.977100  1.0  0.61
  O  O237  1  0.791700  0.745700  0.663800  1.0  -0.5461
  O  O238  1  0.922000  0.661300  0.719390  1.0  -0.5694
  O  O239  1  0.884700  0.757900  0.461600  1.0  -0.3706
  O  O240  1  0.112400  0.766100  0.440900  1.0  -0.3852
  O  O241  1  0.708300  0.745700  0.336200  1.0  -0.5464
  O  O242  1  0.578000  0.661300  0.280610  1.0  -0.5693
  O  O243  1  0.615300  0.757900  0.538400  1.0  -0.3791
  O  O244  1  0.387600  0.766100  0.559100  1.0  -0.3834
  O  O245  1  0.708300  0.754300  0.163800  1.0  -0.5478
  O  O246  1  0.578000  0.838700  0.219390  1.0  -0.569
  O  O247  1  0.615300  0.742100  0.961600  1.0  -0.3752
  O  O248  1  0.387600  0.733900  0.940900  1.0  -0.3839
  O  O249  1  0.791700  0.754300  0.836200  1.0  -0.5482
  O  O250  1  0.922000  0.838700  0.780610  1.0  -0.5688
  O  O251  1  0.884700  0.742100  0.038400  1.0  -0.3676
  O  O252  1  0.112400  0.733900  0.059100  1.0  -0.3838
  O  O253  1  0.208300  0.254300  0.336200  1.0  -0.5471
  O  O254  1  0.078000  0.338700  0.280610  1.0  -0.5688
  O  O255  1  0.115300  0.242100  0.538400  1.0  -0.3747
  O  O256  1  0.887600  0.233900  0.559100  1.0  -0.384
  O  O257  1  0.291700  0.254300  0.663800  1.0  -0.5461
  O  O258  1  0.422000  0.338700  0.719390  1.0  -0.5689
  O  O259  1  0.384700  0.242100  0.461600  1.0  -0.3671
  O  O260  1  0.612400  0.233900  0.440900  1.0  -0.3836
  O  O261  1  0.291700  0.245700  0.836200  1.0  -0.548
  O  O262  1  0.422000  0.161300  0.780610  1.0  -0.5696
  O  O263  1  0.384700  0.257900  0.038400  1.0  -0.3696
  O  O264  1  0.612400  0.266100  0.059100  1.0  -0.3844
  O  O265  1  0.208300  0.245700  0.163800  1.0  -0.5475
  O  O266  1  0.078000  0.161300  0.219390  1.0  -0.5695
  O  O267  1  0.115300  0.257900  0.961600  1.0  -0.379
  O  O268  1  0.887600  0.266100  0.940900  1.0  -0.3839
