# generated using pymatgen
data_CuPH18C31(NF)4
_symmetry_space_group_name_H-M   'P 1'
_cell_length_a   7.57350000
_cell_length_b   11.75470000
_cell_length_c   17.08420000
_cell_angle_alpha   82.19000000
_cell_angle_beta   86.28500000
_cell_angle_gamma   88.21800000
_symmetry_Int_Tables_number   1
_chemical_formula_structural   CuPH18C31(NF)4
_chemical_formula_sum   'Cu2 P2 H36 C62 N8 F8'
_cell_volume   1503.25131811
_cell_formula_units_Z   2
loop_
 _symmetry_equiv_pos_site_id
 _symmetry_equiv_pos_as_xyz
  1  'x, y, z'
loop_
 _atom_site_type_symbol
 _atom_site_label
 _atom_site_symmetry_multiplicity
 _atom_site_fract_x
 _atom_site_fract_y
 _atom_site_fract_z
 _atom_site_occupancy
 _atom_site_charge
  Cu  Cu1  1  0.416270  0.052730  0.805860  1.0  0.6754
  Cu  Cu2  1  0.583730  0.947270  0.194130  1.0  0.6749
  P  P3  1  0.895210  0.676140  0.765480  1.0  1.1402
  P  P4  1  0.104790  0.323860  0.234520  1.0  1.1362
  H  H5  1  0.197600  0.821600  0.764300  1.0  0.1039
  H  H6  1  0.627300  0.507000  0.771700  1.0  0.0964
  H  H7  1  0.013200  0.576200  0.918000  1.0  0.0939
  H  H8  1  0.836200  0.891600  0.822000  1.0  0.0962
  H  H9  1  0.052000  0.648300  0.036100  1.0  0.0834
  H  H10  1  0.980800  0.840200  0.047800  1.0  0.0964
  H  H11  1  0.895400  0.203300  0.805700  1.0  0.0928
  H  H12  1  0.629800  0.305600  0.788400  1.0  0.1017
  H  H13  1  0.984500  0.641600  0.607800  1.0  0.1069
  H  H14  1  0.673100  0.702900  0.677800  1.0  0.1173
  H  H15  1  0.592900  0.709400  0.766100  1.0  0.1097
  H  H16  1  0.694700  0.816700  0.717800  1.0  0.1065
  H  H17  1  0.160800  0.500500  0.783700  1.0  0.0986
  H  H18  1  0.411800  0.892100  0.665900  1.0  0.0915
  H  H19  1  0.870300  0.960100  0.941800  1.0  0.0898
  H  H20  1  0.162000  0.299200  0.803400  1.0  0.1039
  H  H21  1  0.203500  0.709400  0.511100  1.0  0.095
  H  H22  1  0.417600  0.833800  0.540600  1.0  0.0953
  H  H23  1  0.802400  0.178400  0.235700  1.0  0.1036
  H  H24  1  0.372700  0.493000  0.228300  1.0  0.0969
  H  H25  1  0.986800  0.423800  0.082000  1.0  0.094
  H  H26  1  0.163800  0.108400  0.178000  1.0  0.0966
  H  H27  1  0.948000  0.351700  0.963900  1.0  0.083
  H  H28  1  0.019200  0.159800  0.952200  1.0  0.0956
  H  H29  1  0.104600  0.796700  0.194300  1.0  0.0928
  H  H30  1  0.370200  0.694400  0.211600  1.0  0.1021
  H  H31  1  0.015500  0.358400  0.392200  1.0  0.1065
  H  H32  1  0.326900  0.297100  0.322200  1.0  0.1181
  H  H33  1  0.407100  0.290600  0.233900  1.0  0.1101
  H  H34  1  0.305300  0.183300  0.282200  1.0  0.1069
  H  H35  1  0.839200  0.499500  0.216300  1.0  0.0981
  H  H36  1  0.588200  0.107900  0.334100  1.0  0.0913
  H  H37  1  0.129700  0.039900  0.058200  1.0  0.0902
  H  H38  1  0.838000  0.700800  0.196600  1.0  0.1036
  H  H39  1  0.796500  0.290600  0.488900  1.0  0.0957
  H  H40  1  0.582400  0.166200  0.459400  1.0  0.0948
  C  C41  1  0.124100  0.055520  0.532800  1.0  0.1729
  C  C42  1  0.556200  0.551750  0.059290  1.0  0.2054
  C  C43  1  0.494100  0.626050  0.995260  1.0  -0.0682
  C  C44  1  0.940900  0.055470  0.661460  1.0  -0.1737
  C  C45  1  0.969900  0.028770  0.580260  1.0  -0.1255
  C  C46  1  0.446600  0.824830  0.923350  1.0  0.379
  C  C47  1  0.524600  0.806380  0.055800  1.0  0.3594
  C  C48  1  0.439400  0.566110  0.936120  1.0  0.2016
  C  C49  1  0.487500  0.750160  0.991570  1.0  -0.2126
  C  C50  1  0.084400  0.068310  0.707380  1.0  0.3746
  C  C51  1  0.772300  0.061010  0.699240  1.0  0.3918
  C  C52  1  0.847300  0.972100  0.542630  1.0  0.1888
  C  C53  1  0.875900  0.944480  0.467200  1.0  0.1669
  C  C54  1  0.443800  0.448250  0.940710  1.0  0.2044
  C  C55  1  0.505900  0.373950  0.004740  1.0  -0.068
  C  C56  1  0.059100  0.944530  0.338540  1.0  -0.1738
  C  C57  1  0.030100  0.971230  0.419740  1.0  -0.1284
  C  C58  1  0.553400  0.175170  0.076650  1.0  0.3794
  C  C59  1  0.475400  0.193620  0.944200  1.0  0.3608
  C  C60  1  0.560600  0.433890  0.063880  1.0  0.2004
  C  C61  1  0.512500  0.249840  0.008430  1.0  -0.2114
  C  C62  1  0.915600  0.931690  0.292620  1.0  0.3724
  C  C63  1  0.227700  0.938990  0.300760  1.0  0.39
  C  C64  1  0.152700  0.027900  0.457370  1.0  0.1891
  C  C65  1  0.198400  0.799270  0.712860  1.0  -0.0444
  C  C66  1  0.735700  0.464800  0.777950  1.0  -0.0762
  C  C67  1  0.894200  0.522340  0.776890  1.0  -0.2373
  C  C68  1  0.071700  0.725000  0.694990  1.0  -0.2392
  C  C69  1  0.921600  0.726500  0.858350  1.0  -0.2306
  C  C70  1  0.985200  0.654500  0.922420  1.0  -0.0464
  C  C71  1  0.879200  0.841800  0.865500  1.0  -0.0872
  C  C72  1  0.007500  0.697200  0.992560  1.0  -0.0953
  C  C73  1  0.965200  0.811200  0.999470  1.0  -0.0782
  C  C74  1  0.895200  0.284900  0.797980  1.0  -0.1003
  C  C75  1  0.737100  0.345400  0.788170  1.0  -0.1193
  C  C76  1  0.072100  0.691700  0.619720  1.0  -0.1226
  C  C77  1  0.690800  0.732700  0.727510  1.0  -0.6247
  C  C78  1  0.052900  0.460900  0.785460  1.0  -0.1104
  C  C79  1  0.326000  0.840400  0.654520  1.0  -0.099
  C  C80  1  0.900500  0.882400  0.936420  1.0  -0.0734
  C  C81  1  0.053900  0.341600  0.796670  1.0  -0.1344
  C  C82  1  0.201700  0.732300  0.562390  1.0  -0.0975
  C  C83  1  0.328800  0.806500  0.579840  1.0  -0.1257
  C  C84  1  0.801600  0.200730  0.287140  1.0  -0.0453
  C  C85  1  0.264300  0.535200  0.222050  1.0  -0.0781
  C  C86  1  0.105800  0.477660  0.223110  1.0  -0.2383
  C  C87  1  0.928300  0.275000  0.305010  1.0  -0.239
  C  C88  1  0.078400  0.273500  0.141650  1.0  -0.2322
  C  C89  1  0.014800  0.345500  0.077580  1.0  -0.0478
  C  C90  1  0.120800  0.158200  0.134500  1.0  -0.0867
  C  C91  1  0.992500  0.302800  0.007440  1.0  -0.0937
  C  C92  1  0.034800  0.188800  0.000530  1.0  -0.077
  C  C93  1  0.104800  0.715100  0.202020  1.0  -0.0997
  C  C94  1  0.262900  0.654600  0.211830  1.0  -0.117
  C  C95  1  0.927900  0.308300  0.380280  1.0  -0.1224
  C  C96  1  0.309200  0.267300  0.272490  1.0  -0.626
  C  C97  1  0.947100  0.539100  0.214540  1.0  -0.1094
  C  C98  1  0.674000  0.159600  0.345480  1.0  -0.0986
  C  C99  1  0.099500  0.117600  0.063580  1.0  -0.0742
  C  C100  1  0.946100  0.658400  0.203330  1.0  -0.1313
  C  C101  1  0.798300  0.267700  0.437610  1.0  -0.0979
  C  C102  1  0.671200  0.193500  0.420160  1.0  -0.1264
  N  N103  1  0.202200  0.076960  0.745770  1.0  -0.4338
  N  N104  1  0.554600  0.855150  0.107750  1.0  -0.4453
  N  N105  1  0.417400  0.892370  0.869360  1.0  -0.4939
  N  N106  1  0.635100  0.064800  0.733240  1.0  -0.4203
  N  N107  1  0.797800  0.923040  0.254230  1.0  -0.433
  N  N108  1  0.445400  0.144850  0.892250  1.0  -0.443
  N  N109  1  0.582600  0.107630  0.130640  1.0  -0.4937
  N  N110  1  0.364900  0.935200  0.266760  1.0  -0.4157
  F  F111  1  0.692400  0.940250  0.582120  1.0  -0.1758
  F  F112  1  0.377980  0.625650  0.869080  1.0  -0.2142
  F  F113  1  0.618200  0.596320  0.120930  1.0  -0.1998
  F  F114  1  0.253810  0.112210  0.561290  1.0  -0.1606
  F  F115  1  0.307600  0.059750  0.417880  1.0  -0.177
  F  F116  1  0.622020  0.374350  0.130920  1.0  -0.2133
  F  F117  1  0.381800  0.403680  0.879070  1.0  -0.1993
  F  F118  1  0.746190  0.887790  0.438710  1.0  -0.1593
