# generated using pymatgen
data_CuC12(NF)4
_symmetry_space_group_name_H-M   'P 1'
_cell_length_a   22.17600000
_cell_length_b   9.63600000
_cell_length_c   11.29310000
_cell_angle_alpha   90.00000000
_cell_angle_beta   90.00000000
_cell_angle_gamma   90.00000000
_symmetry_Int_Tables_number   1
_chemical_formula_structural   CuC12(NF)4
_chemical_formula_sum   'Cu4 C48 N16 F16'
_cell_volume   2413.19923004
_cell_formula_units_Z   4
loop_
 _symmetry_equiv_pos_site_id
 _symmetry_equiv_pos_as_xyz
  1  'x, y, z'
loop_
 _atom_site_type_symbol
 _atom_site_label
 _atom_site_symmetry_multiplicity
 _atom_site_fract_x
 _atom_site_fract_y
 _atom_site_fract_z
 _atom_site_occupancy
 _atom_site_charge
  Cu  Cu1  1  0.250000  0.000000  0.991400  1.0  0.4791
  Cu  Cu2  1  0.250000  0.500000  0.508600  1.0  0.4797
  Cu  Cu3  1  0.750000  0.000000  0.008600  1.0  0.4797
  Cu  Cu4  1  0.750000  0.500000  0.491400  1.0  0.4791
  C  C5  1  0.534950  0.302200  0.656700  1.0  0.2187
  C  C6  1  0.472720  0.304300  0.657800  1.0  0.2107
  C  C7  1  0.337190  0.171600  0.829100  1.0  0.4118
  C  C8  1  0.669940  0.177500  0.834300  1.0  0.3805
  C  C9  1  0.965050  0.697800  0.656700  1.0  0.2169
  C  C10  1  0.027280  0.695700  0.657800  1.0  0.2109
  C  C11  1  0.162810  0.828400  0.829100  1.0  0.4124
  C  C12  1  0.830060  0.822500  0.834300  1.0  0.3805
  C  C13  1  0.965050  0.802200  0.843300  1.0  0.2178
  C  C14  1  0.027280  0.804300  0.842200  1.0  0.2096
  C  C15  1  0.162810  0.671600  0.670900  1.0  0.4122
  C  C16  1  0.830060  0.677500  0.665700  1.0  0.3804
  C  C17  1  0.534950  0.197800  0.843300  1.0  0.2172
  C  C18  1  0.472720  0.195700  0.842200  1.0  0.2088
  C  C19  1  0.337190  0.328400  0.670900  1.0  0.4124
  C  C20  1  0.669940  0.322500  0.665700  1.0  0.38
  C  C21  1  0.465050  0.697800  0.343300  1.0  0.2172
  C  C22  1  0.527280  0.695700  0.342200  1.0  0.2101
  C  C23  1  0.662810  0.828400  0.170900  1.0  0.4121
  C  C24  1  0.330060  0.822500  0.165700  1.0  0.3805
  C  C25  1  0.034950  0.302200  0.343300  1.0  0.2186
  C  C26  1  0.972720  0.304300  0.342200  1.0  0.2098
  C  C27  1  0.837190  0.171600  0.170900  1.0  0.4119
  C  C28  1  0.169940  0.177500  0.165700  1.0  0.3803
  C  C29  1  0.034950  0.197800  0.156700  1.0  0.2172
  C  C30  1  0.972720  0.195700  0.157800  1.0  0.2093
  C  C31  1  0.837190  0.328400  0.329100  1.0  0.4123
  C  C32  1  0.169940  0.322500  0.334300  1.0  0.3803
  C  C33  1  0.465050  0.802200  0.156700  1.0  0.2177
  C  C34  1  0.527280  0.804300  0.157800  1.0  0.2106
  C  C35  1  0.662810  0.671600  0.329100  1.0  0.4123
  C  C36  1  0.330060  0.677500  0.334300  1.0  0.3804
  C  C37  1  0.635830  0.250000  0.750000  1.0  -0.2769
  C  C38  1  0.437750  0.250000  0.750000  1.0  -0.089
  C  C39  1  0.371900  0.250000  0.750000  1.0  -0.2186
  C  C40  1  0.569820  0.250000  0.750000  1.0  -0.1641
  C  C41  1  0.864170  0.750000  0.750000  1.0  -0.2771
  C  C42  1  0.062250  0.750000  0.750000  1.0  -0.0892
  C  C43  1  0.128100  0.750000  0.750000  1.0  -0.2193
  C  C44  1  0.930180  0.750000  0.750000  1.0  -0.1643
  C  C45  1  0.364170  0.750000  0.250000  1.0  -0.2771
  C  C46  1  0.562250  0.750000  0.250000  1.0  -0.0892
  C  C47  1  0.628100  0.750000  0.250000  1.0  -0.2193
  C  C48  1  0.430180  0.750000  0.250000  1.0  -0.1643
  C  C49  1  0.135830  0.250000  0.250000  1.0  -0.2769
  C  C50  1  0.937750  0.250000  0.250000  1.0  -0.089
  C  C51  1  0.871900  0.250000  0.250000  1.0  -0.2186
  C  C52  1  0.069820  0.250000  0.250000  1.0  -0.1641
  N  N53  1  0.700310  0.118000  0.900200  1.0  -0.4051
  N  N54  1  0.305170  0.109800  0.890200  1.0  -0.3906
  N  N55  1  0.799690  0.882000  0.900200  1.0  -0.4072
  N  N56  1  0.194830  0.890200  0.890200  1.0  -0.3926
  N  N57  1  0.799690  0.618000  0.599800  1.0  -0.4045
  N  N58  1  0.194830  0.609800  0.609800  1.0  -0.3915
  N  N59  1  0.700310  0.382000  0.599800  1.0  -0.4078
  N  N60  1  0.305170  0.390200  0.609800  1.0  -0.392
  N  N61  1  0.299690  0.882000  0.099800  1.0  -0.4045
  N  N62  1  0.694830  0.890200  0.109800  1.0  -0.3926
  N  N63  1  0.200310  0.118000  0.099800  1.0  -0.4045
  N  N64  1  0.805170  0.109800  0.109800  1.0  -0.391
  N  N65  1  0.200310  0.382000  0.400200  1.0  -0.4061
  N  N66  1  0.805170  0.390200  0.390200  1.0  -0.3918
  N  N67  1  0.299690  0.618000  0.400200  1.0  -0.4064
  N  N68  1  0.694830  0.609800  0.390200  1.0  -0.3916
  F  F69  1  0.562510  0.353900  0.560170  1.0  -0.1443
  F  F70  1  0.445150  0.361170  0.563260  1.0  -0.1445
  F  F71  1  0.937490  0.646100  0.560170  1.0  -0.1438
  F  F72  1  0.054850  0.638830  0.563260  1.0  -0.1449
  F  F73  1  0.937490  0.853900  0.939830  1.0  -0.1427
  F  F74  1  0.054850  0.861170  0.936740  1.0  -0.1436
  F  F75  1  0.562510  0.146100  0.939830  1.0  -0.1416
  F  F76  1  0.445150  0.138830  0.936740  1.0  -0.1456
  F  F77  1  0.437490  0.646100  0.439830  1.0  -0.1437
  F  F78  1  0.554850  0.638830  0.436740  1.0  -0.1442
  F  F79  1  0.062510  0.353900  0.439830  1.0  -0.1428
  F  F80  1  0.945150  0.361170  0.436740  1.0  -0.1446
  F  F81  1  0.062510  0.146100  0.060170  1.0  -0.1433
  F  F82  1  0.945150  0.138830  0.063260  1.0  -0.1451
  F  F83  1  0.437490  0.853900  0.060170  1.0  -0.143
  F  F84  1  0.554850  0.861170  0.063260  1.0  -0.1444
