# generated using pymatgen
data_CoH29C32N7O2
_symmetry_space_group_name_H-M   'P 1'
_cell_length_a   9.02640000
_cell_length_b   15.10300000
_cell_length_c   15.53530000
_cell_angle_alpha   119.08400000
_cell_angle_beta   104.84400000
_cell_angle_gamma   90.00000000
_symmetry_Int_Tables_number   1
_chemical_formula_structural   CoH29C32N7O2
_chemical_formula_sum   'Co2 H58 C64 N14 O4'
_cell_volume   1769.50142981
_cell_formula_units_Z   2
loop_
 _symmetry_equiv_pos_site_id
 _symmetry_equiv_pos_as_xyz
  1  'x, y, z'
loop_
 _atom_site_type_symbol
 _atom_site_label
 _atom_site_symmetry_multiplicity
 _atom_site_fract_x
 _atom_site_fract_y
 _atom_site_fract_z
 _atom_site_occupancy
 _atom_site_charge
  Co  Co1  1  0.515390  0.667160  0.418000  1.0  0.9267
  Co  Co2  1  0.484610  0.249160  0.582000  1.0  0.9281
  H  H3  1  0.355500  0.573100  0.529800  1.0  0.1015
  H  H4  1  0.396100  0.652800  0.713800  1.0  0.1304
  H  H5  1  0.681400  0.802000  0.659400  1.0  0.0818
  H  H6  1  0.245200  0.781800  0.539400  1.0  0.0826
  H  H7  1  0.068000  0.877800  0.488000  1.0  0.1188
  H  H8  1  0.356900  0.799000  0.321200  1.0  0.0934
  H  H9  1  0.590300  0.440600  0.353600  1.0  0.0864
  H  H10  1  0.000900  0.505500  0.335000  1.0  0.1282
  H  H11  1  0.879000  0.662800  0.404000  1.0  0.0963
  H  H12  1  0.691800  0.945700  0.821600  1.0  0.1171
  H  H13  1  0.820500  0.052000  0.995600  1.0  0.101
  H  H14  1  0.706800  0.835400  0.055000  1.0  0.1199
  H  H15  1  0.592000  0.725000  0.880000  1.0  0.1012
  H  H16  1  0.612000  0.103300  0.154600  1.0  0.097
  H  H17  1  0.586400  0.275700  0.231400  1.0  0.1046
  H  H18  1  0.049600  0.349900  0.326400  1.0  0.1069
  H  H19  1  0.075300  0.177500  0.249600  1.0  0.0994
  H  H20  1  0.907600  0.079500  0.342000  1.0  0.099
  H  H21  1  0.042700  0.014800  0.436600  1.0  0.0894
  H  H22  1  0.157900  0.803300  0.193600  1.0  0.1061
  H  H23  1  0.030600  0.872600  0.098600  1.0  0.0917
  H  H24  1  0.644500  0.043300  0.470200  1.0  0.1013
  H  H25  1  0.603900  0.939000  0.286200  1.0  0.1303
  H  H26  1  0.318600  0.142600  0.340600  1.0  0.0828
  H  H27  1  0.754800  0.242400  0.460600  1.0  0.0807
  H  H28  1  0.932000  0.389800  0.512000  1.0  0.1187
  H  H29  1  0.643100  0.477800  0.678800  1.0  0.0936
  H  H30  1  0.409700  0.087000  0.646400  1.0  0.0882
  H  H31  1  0.999100  0.170500  0.665000  1.0  0.1278
  H  H32  1  0.121000  0.258800  0.596000  1.0  0.0965
  H  H33  1  0.308200  0.124100  0.178400  1.0  0.1166
  H  H34  1  0.179500  0.056400  0.004400  1.0  0.0998
  H  H35  1  0.293200  0.780400  0.945000  1.0  0.1201
  H  H36  1  0.408000  0.845000  0.120000  1.0  0.1
  H  H37  1  0.388000  0.948700  0.845400  1.0  0.0969
  H  H38  1  0.413600  0.044300  0.768600  1.0  0.1041
  H  H39  1  0.950400  0.023500  0.673600  1.0  0.1067
  H  H40  1  0.924700  0.927900  0.750400  1.0  0.1
  H  H41  1  0.092400  0.737500  0.658000  1.0  0.1008
  H  H42  1  0.957300  0.578200  0.563400  1.0  0.0888
  H  H43  1  0.842100  0.609700  0.806400  1.0  0.1069
  H  H44  1  0.969400  0.774000  0.901400  1.0  0.0893
  H  H45  1  0.852500  0.231200  0.827000  1.0  0.0759
  H  H46  1  0.878100  0.344000  0.852200  1.0  0.1146
  H  H47  1  0.849000  0.340000  0.989600  1.0  0.0624
  H  H48  1  0.709200  0.386000  0.949600  1.0  0.0663
  H  H49  1  0.560700  0.215000  0.851600  1.0  0.058
  H  H50  1  0.697000  0.180500  0.909800  1.0  0.0703
  H  H51  1  0.618600  0.362400  0.057000  1.0  0.0548
  H  H52  1  0.618600  0.258700  0.057800  1.0  0.0504
  H  H53  1  0.147500  0.404200  0.173000  1.0  0.0704
  H  H54  1  0.121900  0.491800  0.147800  1.0  0.114
  H  H55  1  0.151000  0.350400  0.010400  1.0  0.0646
  H  H56  1  0.290800  0.436400  0.050400  1.0  0.068
  H  H57  1  0.439300  0.363400  0.148400  1.0  0.0569
  H  H58  1  0.303000  0.270700  0.090200  1.0  0.0712
  H  H59  1  0.381400  0.305400  0.943000  1.0  0.0523
  H  H60  1  0.381400  0.200900  0.942200  1.0  0.0513
  C  C61  1  0.426400  0.631200  0.579800  1.0  0.0304
  C  C62  1  0.448700  0.674000  0.681200  1.0  -0.1606
  C  C63  1  0.602900  0.755090  0.649380  1.0  0.175
  C  C64  1  0.245300  0.796500  0.487800  1.0  0.0636
  C  C65  1  0.147400  0.849300  0.460000  1.0  -0.1441
  C  C66  1  0.306200  0.805300  0.368600  1.0  0.1381
  C  C67  1  0.677300  0.477100  0.357800  1.0  0.1572
  C  C68  1  0.904500  0.511000  0.346800  1.0  -0.1393
  C  C69  1  0.835200  0.597800  0.385000  1.0  0.0198
  C  C70  1  0.631400  0.822250  0.834500  1.0  0.125
  C  C71  1  0.698400  0.922820  0.868040  1.0  -0.189
  C  C72  1  0.774300  0.986350  0.972500  1.0  -0.1388
  C  C73  1  0.782200  0.953660  0.041920  1.0  0.1384
  C  C74  1  0.708300  0.856370  0.007940  1.0  -0.2001
  C  C75  1  0.636700  0.791060  0.903120  1.0  -0.1569
  C  C76  1  0.846200  0.123310  0.194420  1.0  0.1167
  C  C77  1  0.699800  0.152700  0.189000  1.0  -0.1508
  C  C78  1  0.684400  0.256000  0.235000  1.0  -0.1704
  C  C79  1  0.815500  0.329990  0.286580  1.0  0.1239
  C  C80  1  0.961900  0.300500  0.292000  1.0  -0.1537
  C  C81  1  0.977300  0.197200  0.246000  1.0  -0.1849
  C  C82  1  0.946000  0.979490  0.206380  1.0  0.1787
  C  C83  1  0.956300  0.022900  0.311000  1.0  -0.1536
  C  C84  1  0.035700  0.983500  0.367000  1.0  -0.1653
  C  C85  1  0.107200  0.898100  0.324200  1.0  0.1731
  C  C86  1  0.105700  0.858460  0.223320  1.0  -0.17
  C  C87  1  0.028000  0.899430  0.166060  1.0  -0.196
  C  C88  1  0.573600  0.051400  0.420200  1.0  0.0304
  C  C89  1  0.551300  0.992800  0.318800  1.0  -0.1591
  C  C90  1  0.397100  0.105710  0.350620  1.0  0.1721
  C  C91  1  0.754700  0.308700  0.512200  1.0  0.0608
  C  C92  1  0.852600  0.389300  0.540000  1.0  -0.141
  C  C93  1  0.693800  0.436700  0.631400  1.0  0.1389
  C  C94  1  0.322700  0.119300  0.642200  1.0  0.1569
  C  C95  1  0.095500  0.164200  0.653200  1.0  -0.139
  C  C96  1  0.164800  0.212800  0.615000  1.0  0.0202
  C  C97  1  0.368600  0.987750  0.165500  1.0  0.1246
  C  C98  1  0.301600  0.054780  0.131960  1.0  -0.1913
  C  C99  1  0.225700  0.013850  0.027500  1.0  -0.1337
  C  C100  1  0.217800  0.911740  0.958080  1.0  0.1377
  C  C101  1  0.291700  0.848430  0.992060  1.0  -0.2014
  C  C102  1  0.363300  0.887940  0.096880  1.0  -0.1561
  C  C103  1  0.153800  0.928890  0.805580  1.0  0.1156
  C  C104  1  0.300200  0.963700  0.811000  1.0  -0.1534
  C  C105  1  0.315600  0.021000  0.765000  1.0  -0.1694
  C  C106  1  0.184500  0.043410  0.713420  1.0  0.1242
  C  C107  1  0.038100  0.008500  0.708000  1.0  -0.1527
  C  C108  1  0.022700  0.951200  0.754000  1.0  -0.1824
  C  C109  1  0.054000  0.773110  0.793620  1.0  0.1766
  C  C110  1  0.043700  0.711900  0.689000  1.0  -0.1581
  C  C111  1  0.964300  0.616500  0.633000  1.0  -0.166
  C  C112  1  0.892800  0.573900  0.675800  1.0  0.173
  C  C113  1  0.894300  0.635140  0.776680  1.0  -0.1714
  C  C114  1  0.972000  0.733370  0.833940  1.0  -0.1967
  C  C115  1  0.696200  0.263800  0.743200  1.0  0.5745
  C  C116  1  0.800000  0.289800  0.837600  1.0  -0.1723
  C  C117  1  0.757600  0.324600  0.932800  1.0  -0.1389
  C  C118  1  0.645000  0.238100  0.914400  1.0  -0.1785
  C  C119  1  0.580700  0.289500  0.015800  1.0  -0.1929
  C  C120  1  0.303800  0.520600  0.256800  1.0  0.5709
  C  C121  1  0.200000  0.452200  0.162400  1.0  -0.1724
  C  C122  1  0.242400  0.391800  0.067200  1.0  -0.1392
  C  C123  1  0.355000  0.323700  0.085600  1.0  -0.1825
  C  C124  1  0.419300  0.273700  0.984200  1.0  -0.1939
  N  N125  1  0.521000  0.683660  0.559120  1.0  -0.3921
  N  N126  1  0.563800  0.754900  0.727200  1.0  0.0485
  N  N127  1  0.347200  0.766350  0.430300  1.0  -0.4179
  N  N128  1  0.184400  0.854240  0.382480  1.0  0.0388
  N  N129  1  0.693600  0.575200  0.391200  1.0  -0.3724
  N  N130  1  0.799600  0.434520  0.329840  1.0  0.0428
  N  N131  1  0.861900  0.019310  0.147020  1.0  -0.149
  N  N132  1  0.479000  0.124540  0.440880  1.0  -0.3957
  N  N133  1  0.436200  0.027700  0.272800  1.0  0.0485
  N  N134  1  0.652800  0.336050  0.569700  1.0  -0.4174
  N  N135  1  0.815600  0.471760  0.617520  1.0  0.0402
  N  N136  1  0.306400  0.184000  0.608800  1.0  -0.3736
  N  N137  1  0.200400  0.104680  0.670160  1.0  0.0428
  N  N138  1  0.138100  0.872290  0.852980  1.0  -0.1491
  O  O139  1  0.606200  0.327060  0.742120  1.0  -0.6213
  O  O140  1  0.681800  0.180190  0.663380  1.0  -0.6553
  O  O141  1  0.393800  0.584940  0.257880  1.0  -0.6234
  O  O142  1  0.318200  0.516810  0.336620  1.0  -0.6535
