# generated using pymatgen
data_NiH29C32N7O2
_symmetry_space_group_name_H-M   'P 1'
_cell_length_a   9.07170000
_cell_length_b   14.93990000
_cell_length_c   15.64280000
_cell_angle_alpha   118.52400000
_cell_angle_beta   105.20900000
_cell_angle_gamma   90.00000000
_symmetry_Int_Tables_number   1
_chemical_formula_structural   NiH29C32N7O2
_chemical_formula_sum   'Ni2 H58 C64 N14 O4'
_cell_volume   1777.76129742
_cell_formula_units_Z   2
loop_
 _symmetry_equiv_pos_site_id
 _symmetry_equiv_pos_as_xyz
  1  'x, y, z'
loop_
 _atom_site_type_symbol
 _atom_site_label
 _atom_site_symmetry_multiplicity
 _atom_site_fract_x
 _atom_site_fract_y
 _atom_site_fract_z
 _atom_site_occupancy
 _atom_site_charge
  Ni  Ni1  1  0.501660  0.758210  0.425420  1.0  0.3573
  Ni  Ni2  1  0.498340  0.332790  0.574580  1.0  0.3627
  H  H3  1  0.349000  0.959700  0.539400  1.0  0.1038
  H  H4  1  0.410400  0.068500  0.721800  1.0  0.1327
  H  H5  1  0.667600  0.844500  0.663600  1.0  0.0947
  H  H6  1  0.232800  0.762700  0.533800  1.0  0.0872
  H  H7  1  0.049300  0.610700  0.478400  1.0  0.126
  H  H8  1  0.341400  0.533800  0.318600  1.0  0.0886
  H  H9  1  0.578500  0.917900  0.354400  1.0  0.1077
  H  H10  1  0.993000  0.838700  0.359600  1.0  0.1322
  H  H11  1  0.866500  0.749900  0.423400  1.0  0.0974
  H  H12  1  0.693800  0.869700  0.824800  1.0  0.1192
  H  H13  1  0.825400  0.936000  0.997000  1.0  0.1106
  H  H14  1  0.712400  0.214900  0.056800  1.0  0.1169
  H  H15  1  0.591400  0.151400  0.883600  1.0  0.1154
  H  H16  1  0.614900  0.040200  0.146600  1.0  0.1043
  H  H17  1  0.584300  0.950800  0.229400  1.0  0.11
  H  H18  1  0.045100  0.988400  0.346600  1.0  0.1111
  H  H19  1  0.075700  0.077700  0.263600  1.0  0.1055
  H  H20  1  0.887400  0.262700  0.335200  1.0  0.0973
  H  H21  1  0.023200  0.430200  0.432600  1.0  0.1047
  H  H22  1  0.156200  0.389000  0.191000  1.0  0.129
  H  H23  1  0.048300  0.219500  0.105600  1.0  0.0949
  H  H24  1  0.108000  0.664800  0.152800  1.0  0.1121
  H  H25  1  0.156000  0.777400  0.177200  1.0  0.1039
  H  H26  1  0.173500  0.646800  0.009800  1.0  0.0627
  H  H27  1  0.311300  0.612200  0.067200  1.0  0.0764
  H  H28  1  0.312300  0.817100  0.106200  1.0  0.0644
  H  H29  1  0.453300  0.774000  0.150000  1.0  0.0664
  H  H30  1  0.373900  0.761000  0.959000  1.0  0.0625
  H  H31  1  0.370600  0.648800  0.942200  1.0  0.0821
  H  H32  1  0.651000  0.420300  0.460600  1.0  0.1046
  H  H33  1  0.589600  0.346700  0.278200  1.0  0.1313
  H  H34  1  0.332400  0.180900  0.336400  1.0  0.0958
  H  H35  1  0.767200  0.228900  0.466200  1.0  0.0878
  H  H36  1  0.950700  0.132300  0.521600  1.0  0.1267
  H  H37  1  0.658600  0.215200  0.681400  1.0  0.0892
  H  H38  1  0.421500  0.563500  0.645600  1.0  0.1056
  H  H39  1  0.007000  0.479100  0.640400  1.0  0.1309
  H  H40  1  0.133500  0.326500  0.576600  1.0  0.0954
  H  H41  1  0.306200  0.044900  0.175200  1.0  0.1192
  H  H42  1  0.174600  0.939000  0.003000  1.0  0.1122
  H  H43  1  0.287600  0.158100  0.943200  1.0  0.1175
  H  H44  1  0.408600  0.267800  0.116400  1.0  0.1155
  H  H45  1  0.385100  0.893600  0.853400  1.0  0.1044
  H  H46  1  0.415700  0.721400  0.770600  1.0  0.1104
  H  H47  1  0.954900  0.641800  0.653400  1.0  0.1099
  H  H48  1  0.924300  0.814100  0.736400  1.0  0.1044
  H  H49  1  0.112600  0.927500  0.664800  1.0  0.097
  H  H50  1  0.976800  0.997600  0.567400  1.0  0.1055
  H  H51  1  0.843800  0.198000  0.809000  1.0  0.1271
  H  H52  1  0.951700  0.113900  0.894400  1.0  0.0947
  H  H53  1  0.892000  0.512000  0.847200  1.0  0.1096
  H  H54  1  0.844000  0.600200  0.822800  1.0  0.1004
  H  H55  1  0.826500  0.637000  0.990200  1.0  0.0642
  H  H56  1  0.688700  0.545000  0.932800  1.0  0.0803
  H  H57  1  0.687700  0.710900  0.893800  1.0  0.0662
  H  H58  1  0.546700  0.624000  0.850000  1.0  0.0654
  H  H59  1  0.626100  0.802000  0.041000  1.0  0.0598
  H  H60  1  0.629400  0.706600  0.057800  1.0  0.079
  C  C61  1  0.422900  0.951450  0.588100  1.0  0.0352
  C  C62  1  0.454200  0.010460  0.687720  1.0  -0.1695
  C  C63  1  0.597600  0.887300  0.655400  1.0  0.1563
  C  C64  1  0.231800  0.696300  0.482600  1.0  0.0172
  C  C65  1  0.129900  0.612000  0.452400  1.0  -0.1459
  C  C66  1  0.290700  0.571930  0.366060  1.0  0.118
  C  C67  1  0.665900  0.887520  0.365040  1.0  0.134
  C  C68  1  0.894300  0.843660  0.366720  1.0  -0.1575
  C  C69  1  0.824400  0.795900  0.403000  1.0  0.0207
  C  C70  1  0.320800  0.731310  0.260820  1.0  0.6924
  C  C71  1  0.633800  0.006600  0.838200  1.0  0.0903
  C  C72  1  0.701100  0.939250  0.870900  1.0  -0.1734
  C  C73  1  0.779000  0.979260  0.974120  1.0  -0.1452
  C  C74  1  0.788000  0.083620  0.043640  1.0  0.1436
  C  C75  1  0.713100  0.146580  0.010160  1.0  -0.1607
  C  C76  1  0.638200  0.108060  0.906320  1.0  -0.1405
  C  C77  1  0.848300  0.067850  0.196940  1.0  0.1371
  C  C78  1  0.701100  0.029830  0.186680  1.0  -0.141
  C  C79  1  0.682800  0.976250  0.236300  1.0  -0.1453
  C  C80  1  0.811700  0.960700  0.296200  1.0  0.0903
  C  C81  1  0.958900  0.998730  0.306460  1.0  -0.1503
  C  C82  1  0.977200  0.052320  0.256840  1.0  -0.1638
  C  C83  1  0.945400  0.224170  0.205940  1.0  0.1446
  C  C84  1  0.942500  0.287930  0.306860  1.0  -0.1784
  C  C85  1  0.022200  0.389300  0.365200  1.0  -0.1477
  C  C86  1  0.098000  0.426670  0.321540  1.0  0.1123
  C  C87  1  0.105100  0.363230  0.220860  1.0  -0.179
  C  C88  1  0.035100  0.263220  0.168840  1.0  -0.1623
  C  C89  1  0.193600  0.713100  0.166000  1.0  -0.3326
  C  C90  1  0.257000  0.669600  0.072400  1.0  -0.0786
  C  C91  1  0.364000  0.756900  0.092000  1.0  -0.13
  C  C92  1  0.415000  0.720100  0.990200  1.0  -0.1568
  C  C93  1  0.577100  0.363350  0.411900  1.0  0.0333
  C  C94  1  0.545800  0.322740  0.312280  1.0  -0.1695
  C  C95  1  0.402400  0.231900  0.344600  1.0  0.1626
  C  C96  1  0.768200  0.213700  0.517400  1.0  0.0199
  C  C97  1  0.870100  0.159600  0.547600  1.0  -0.1467
  C  C98  1  0.709300  0.205870  0.633940  1.0  0.1182
  C  C99  1  0.334100  0.522480  0.634960  1.0  0.1371
  C  C100  1  0.105700  0.476940  0.633280  1.0  -0.1569
  C  C101  1  0.175600  0.392900  0.597000  1.0  0.0189
  C  C102  1  0.679200  0.470490  0.739180  1.0  0.694
  C  C103  1  0.366200  0.168400  0.161800  1.0  0.0907
  C  C104  1  0.298900  0.068350  0.129100  1.0  -0.171
  C  C105  1  0.221000  0.005140  0.025880  1.0  -0.1454
  C  C106  1  0.212000  0.039980  0.956360  1.0  0.1439
  C  C107  1  0.286900  0.136420  0.989840  1.0  -0.1603
  C  C108  1  0.361800  0.201740  0.093680  1.0  -0.145
  C  C109  1  0.151700  0.870910  0.803060  1.0  0.1367
  C  C110  1  0.298900  0.843150  0.813320  1.0  -0.1427
  C  C111  1  0.317200  0.739950  0.763700  1.0  -0.1455
  C  C112  1  0.188300  0.664500  0.703800  1.0  0.0899
  C  C113  1  0.041100  0.692270  0.693540  1.0  -0.1521
  C  C114  1  0.022800  0.795480  0.743160  1.0  -0.1637
  C  C115  1  0.054600  0.018230  0.794060  1.0  0.1453
  C  C116  1  0.057500  0.981070  0.693140  1.0  -0.1768
  C  C117  1  0.977800  0.024100  0.634800  1.0  -0.1464
  C  C118  1  0.902000  0.105130  0.678460  1.0  0.1132
  C  C119  1  0.894900  0.142370  0.779140  1.0  -0.1801
  C  C120  1  0.964900  0.094380  0.831160  1.0  -0.1632
  C  C121  1  0.806400  0.547100  0.834000  1.0  -0.3306
  C  C122  1  0.743000  0.597200  0.927600  1.0  -0.0801
  C  C123  1  0.636000  0.664900  0.908000  1.0  -0.1298
  C  C124  1  0.585000  0.729900  0.009800  1.0  -0.1565
  N  N125  1  0.517700  0.875050  0.566900  1.0  -0.3305
  N  N126  1  0.567400  0.967580  0.731960  1.0  0.042
  N  N127  1  0.328200  0.668730  0.427660  1.0  -0.3
  N  N128  1  0.168800  0.531030  0.377660  1.0  0.0543
  N  N129  1  0.680700  0.825220  0.405040  1.0  -0.3344
  N  N130  1  0.792900  0.900170  0.342740  1.0  0.0575
  N  N131  1  0.867500  0.124230  0.147860  1.0  -0.1381
  N  N132  1  0.482300  0.308150  0.433100  1.0  -0.3282
  N  N133  1  0.432600  0.235620  0.268040  1.0  0.0432
  N  N134  1  0.671800  0.241070  0.572340  1.0  -0.2931
  N  N135  1  0.831200  0.153370  0.622340  1.0  0.0548
  N  N136  1  0.319300  0.420180  0.594960  1.0  -0.3317
  N  N137  1  0.207100  0.557430  0.657260  1.0  0.0572
  N  N138  1  0.132500  0.976370  0.852140  1.0  -0.1377
  O  O139  1  0.407000  0.666590  0.258980  1.0  -0.5737
  O  O140  1  0.333000  0.811720  0.343040  1.0  -0.5979
  O  O141  1  0.593000  0.407610  0.741020  1.0  -0.5724
  O  O142  1  0.667000  0.468680  0.656960  1.0  -0.5952
