# generated using pymatgen
data_Er4H18C57(O4F3)6
_symmetry_space_group_name_H-M   'P 1'
_cell_length_a   8.07220000
_cell_length_b   21.22470000
_cell_length_c   22.78990000
_cell_angle_alpha   82.62200000
_cell_angle_beta   82.40400000
_cell_angle_gamma   80.07900000
_symmetry_Int_Tables_number   1
_chemical_formula_structural   Er4H18C57(O4F3)6
_chemical_formula_sum   'Er8 H36 C114 O48 F36'
_cell_volume   3790.07480231
_cell_formula_units_Z   2
loop_
 _symmetry_equiv_pos_site_id
 _symmetry_equiv_pos_as_xyz
  1  'x, y, z'
loop_
 _atom_site_type_symbol
 _atom_site_label
 _atom_site_symmetry_multiplicity
 _atom_site_fract_x
 _atom_site_fract_y
 _atom_site_fract_z
 _atom_site_occupancy
 _atom_site_charge
  Er  Er1  1  0.197640  0.575460  0.715770  1.0  1.6051
  Er  Er2  1  0.613480  0.528900  0.566900  1.0  1.4792
  Er  Er3  1  0.535610  0.750950  0.904280  1.0  1.6453
  Er  Er4  1  0.760400  0.906390  0.963610  1.0  1.5584
  Er  Er5  1  0.802360  0.424540  0.284230  1.0  1.6076
  Er  Er6  1  0.386520  0.471100  0.433100  1.0  1.4787
  Er  Er7  1  0.464390  0.249050  0.095720  1.0  1.6459
  Er  Er8  1  0.239600  0.093610  0.036390  1.0  1.5601
  H  H9  1  0.438500  0.355100  0.746800  1.0  0.1228
  H  H10  1  0.470100  0.285500  0.561600  1.0  0.1113
  H  H11  1  0.555900  0.213300  0.639700  1.0  0.1344
  H  H12  1  0.598300  0.229800  0.875000  1.0  0.1228
  H  H13  1  0.030400  0.252500  0.849300  1.0  0.1151
  H  H14  1  0.231300  0.254400  0.767100  1.0  0.1202
  H  H15  1  0.661600  0.718500  0.569000  1.0  0.1264
  H  H16  1  0.662200  0.813300  0.739600  1.0  0.1084
  H  H17  1  0.764500  0.863400  0.648800  1.0  0.1349
  H  H18  1  0.021400  0.730200  0.584400  1.0  0.1232
  H  H19  1  0.019200  0.688500  0.390100  1.0  0.1247
  H  H20  1  0.864700  0.782700  0.421900  1.0  0.1315
  H  H21  1  0.351500  0.910400  0.783100  1.0  0.1202
  H  H22  1  0.154900  0.115200  0.836800  1.0  0.1184
  H  H23  1  0.100900  0.088300  0.746600  1.0  0.1227
  H  H24  1  0.965300  0.927700  0.784600  1.0  0.1206
  H  H25  1  0.226400  0.754000  0.685600  1.0  0.1122
  H  H26  1  0.281600  0.856200  0.649300  1.0  0.1254
  H  H27  1  0.561500  0.644900  0.253200  1.0  0.1232
  H  H28  1  0.529900  0.714500  0.438400  1.0  0.1103
  H  H29  1  0.444100  0.786700  0.360300  1.0  0.1341
  H  H30  1  0.401700  0.770200  0.125000  1.0  0.1247
  H  H31  1  0.969600  0.747500  0.150700  1.0  0.1146
  H  H32  1  0.768700  0.745600  0.232900  1.0  0.1189
  H  H33  1  0.338400  0.281500  0.431000  1.0  0.1256
  H  H34  1  0.337800  0.186700  0.260400  1.0  0.1098
  H  H35  1  0.235500  0.136600  0.351200  1.0  0.1345
  H  H36  1  0.978600  0.269800  0.415600  1.0  0.1245
  H  H37  1  0.980800  0.311500  0.609900  1.0  0.1243
  H  H38  1  0.135300  0.217300  0.578100  1.0  0.1314
  H  H39  1  0.648500  0.089600  0.216900  1.0  0.1204
  H  H40  1  0.845100  0.884800  0.163200  1.0  0.1181
  H  H41  1  0.899100  0.911700  0.253400  1.0  0.1227
  H  H42  1  0.034700  0.072300  0.215400  1.0  0.1205
  H  H43  1  0.773600  0.246000  0.314400  1.0  0.1121
  H  H44  1  0.718400  0.143800  0.350700  1.0  0.1248
  C  C45  1  0.566000  0.231510  0.756220  1.0  -0.2741
  C  C46  1  0.508800  0.276540  0.702120  1.0  0.0931
  C  C47  1  0.449600  0.341390  0.709150  1.0  -0.0899
  C  C48  1  0.407300  0.385670  0.661140  1.0  -0.0552
  C  C49  1  0.415100  0.364410  0.604700  1.0  -0.0937
  C  C50  1  0.467800  0.299860  0.598600  1.0  -0.0382
  C  C51  1  0.517200  0.256170  0.645520  1.0  -0.1443
  C  C52  1  0.345500  0.454430  0.673170  1.0  0.7381
  C  C53  1  0.379800  0.408470  0.549950  1.0  0.7057
  C  C54  1  0.437800  0.239330  0.811790  1.0  0.0884
  C  C55  1  0.484800  0.233080  0.869610  1.0  -0.0672
  C  C56  1  0.363500  0.231670  0.918900  1.0  -0.0613
  C  C57  1  0.193700  0.235680  0.911960  1.0  -0.0368
  C  C58  1  0.144700  0.246340  0.854540  1.0  -0.0455
  C  C59  1  0.265500  0.247750  0.805130  1.0  -0.0917
  C  C60  1  0.417300  0.227620  0.979170  1.0  0.7268
  C  C61  1  0.058600  0.226600  0.963360  1.0  0.7191
  C  C62  1  0.742100  0.245500  0.764970  1.0  0.7119
  C  C63  1  0.585000  0.159230  0.745810  1.0  0.7117
  C  C64  1  0.802200  0.820880  0.536310  1.0  -0.2854
  C  C65  1  0.727300  0.794770  0.598860  1.0  0.0346
  C  C66  1  0.663900  0.737330  0.603490  1.0  -0.0787
  C  C67  1  0.603700  0.706980  0.658190  1.0  -0.0852
  C  C68  1  0.608900  0.735630  0.710420  1.0  -0.0657
  C  C69  1  0.664800  0.793520  0.705290  1.0  -0.0229
  C  C70  1  0.725800  0.824320  0.650730  1.0  -0.1446
  C  C71  1  0.532200  0.646010  0.658780  1.0  0.7437
  C  C72  1  0.575300  0.698980  0.771000  1.0  0.7409
  C  C73  1  0.916900  0.764420  0.508180  1.0  0.1039
  C  C74  1  0.017800  0.721290  0.545710  1.0  -0.0788
  C  C75  1  0.112800  0.665390  0.526010  1.0  -0.0457
  C  C76  1  0.106800  0.651490  0.468170  1.0  -0.065
  C  C77  1  0.016700  0.696350  0.429410  1.0  -0.0131
  C  C78  1  0.923000  0.752800  0.448440  1.0  -0.1223
  C  C79  1  0.218200  0.621240  0.569610  1.0  0.765
  C  C80  1  0.181200  0.586820  0.450260  1.0  0.684
  C  C81  1  0.649000  0.850120  0.500800  1.0  0.7152
  C  C82  1  0.909700  0.873960  0.537110  1.0  0.7141
  C  C83  1  0.174000  0.972200  0.699200  1.0  -0.2917
  C  C84  1  0.215300  0.995730  0.756650  1.0  0.0523
  C  C85  1  0.310400  0.951290  0.794440  1.0  -0.0661
  C  C86  1  0.345600  0.966150  0.848590  1.0  -0.118
  C  C87  1  0.283900  0.028540  0.864850  1.0  -0.0117
  C  C88  1  0.193400  0.073860  0.826360  1.0  -0.1138
  C  C89  1  0.160200  0.057610  0.772320  1.0  -0.1017
  C  C90  1  0.433600  0.914640  0.889640  1.0  0.754
  C  C91  1  0.284100  0.045900  0.926830  1.0  0.6811
  C  C92  1  0.135500  0.902970  0.715280  1.0  0.0767
  C  C93  1  0.021000  0.892570  0.765390  1.0  -0.1064
  C  C94  1  0.986900  0.831590  0.787680  1.0  -0.0992
  C  C95  1  0.071200  0.778010  0.758880  1.0  -0.0586
  C  C96  1  0.176800  0.788630  0.706470  1.0  -0.0148
  C  C97  1  0.210200  0.850210  0.684400  1.0  -0.1209
  C  C98  1  0.855700  0.826410  0.839890  1.0  0.7564
  C  C99  1  0.070300  0.709180  0.786570  1.0  0.7511
  C  C100  1  0.329900  0.977610  0.652930  1.0  0.7118
  C  C101  1  0.018400  0.013600  0.673920  1.0  0.7079
  C  C102  1  0.434000  0.768490  0.243780  1.0  -0.2749
  C  C103  1  0.491200  0.723460  0.297880  1.0  0.0934
  C  C104  1  0.550400  0.658610  0.290850  1.0  -0.0881
  C  C105  1  0.592700  0.614330  0.338860  1.0  -0.0567
  C  C106  1  0.584900  0.635590  0.395300  1.0  -0.0934
  C  C107  1  0.532200  0.700140  0.401400  1.0  -0.0356
  C  C108  1  0.482800  0.743830  0.354480  1.0  -0.1449
  C  C109  1  0.654500  0.545570  0.326830  1.0  0.738
  C  C110  1  0.620200  0.591530  0.450050  1.0  0.7069
  C  C111  1  0.562200  0.760670  0.188210  1.0  0.0882
  C  C112  1  0.515200  0.766920  0.130390  1.0  -0.0688
  C  C113  1  0.636500  0.768330  0.081100  1.0  -0.0608
  C  C114  1  0.806300  0.764320  0.088040  1.0  -0.0384
  C  C115  1  0.855300  0.753660  0.145460  1.0  -0.0452
  C  C116  1  0.734500  0.752250  0.194870  1.0  -0.0911
  C  C117  1  0.582700  0.772380  0.020830  1.0  0.7265
  C  C118  1  0.941400  0.773400  0.036640  1.0  0.718
  C  C119  1  0.257900  0.754500  0.235030  1.0  0.7152
  C  C120  1  0.415000  0.840770  0.254190  1.0  0.7085
  C  C121  1  0.197800  0.179120  0.463690  1.0  -0.2838
  C  C122  1  0.272700  0.205230  0.401140  1.0  0.0344
  C  C123  1  0.336100  0.262670  0.396510  1.0  -0.0792
  C  C124  1  0.396300  0.293020  0.341810  1.0  -0.0846
  C  C125  1  0.391100  0.264370  0.289580  1.0  -0.0673
  C  C126  1  0.335200  0.206480  0.294710  1.0  -0.023
  C  C127  1  0.274200  0.175680  0.349270  1.0  -0.1458
  C  C128  1  0.467800  0.353990  0.341220  1.0  0.7523
  C  C129  1  0.424700  0.301020  0.229000  1.0  0.7387
  C  C130  1  0.083100  0.235580  0.491820  1.0  0.1034
  C  C131  1  0.982200  0.278710  0.454290  1.0  -0.0788
  C  C132  1  0.887200  0.334610  0.473990  1.0  -0.0445
  C  C133  1  0.893200  0.348510  0.531830  1.0  -0.0642
  C  C134  1  0.983300  0.303650  0.570590  1.0  -0.0128
  C  C135  1  0.077000  0.247200  0.551560  1.0  -0.1224
  C  C136  1  0.781800  0.378760  0.430390  1.0  0.7642
  C  C137  1  0.818800  0.413180  0.549740  1.0  0.6839
  C  C138  1  0.351000  0.149880  0.499200  1.0  0.7143
  C  C139  1  0.090300  0.126040  0.462890  1.0  0.7128
  C  C140  1  0.826000  0.027800  0.300800  1.0  -0.2905
  C  C141  1  0.784700  0.004270  0.243350  1.0  0.0515
  C  C142  1  0.689600  0.048710  0.205560  1.0  -0.0688
  C  C143  1  0.654400  0.033850  0.151410  1.0  -0.1153
  C  C144  1  0.716100  0.971460  0.135150  1.0  -0.0116
  C  C145  1  0.806600  0.926140  0.173640  1.0  -0.1147
  C  C146  1  0.839800  0.942390  0.227680  1.0  -0.1005
  C  C147  1  0.566400  0.085360  0.110360  1.0  0.7551
  C  C148  1  0.715900  0.954100  0.073170  1.0  0.6805
  C  C149  1  0.864500  0.097030  0.284720  1.0  0.0773
  C  C150  1  0.979000  0.107430  0.234610  1.0  -0.1057
  C  C151  1  0.013100  0.168410  0.212320  1.0  -0.1009
  C  C152  1  0.928800  0.221990  0.241120  1.0  -0.0581
  C  C153  1  0.823200  0.211370  0.293530  1.0  -0.0146
  C  C154  1  0.789800  0.149790  0.315600  1.0  -0.1205
  C  C155  1  0.144300  0.173590  0.160110  1.0  0.7553
  C  C156  1  0.929700  0.290820  0.213430  1.0  0.7523
  C  C157  1  0.670100  0.022390  0.347070  1.0  0.7124
  C  C158  1  0.981600  0.986400  0.326080  1.0  0.7078
  O  O159  1  0.204100  0.465640  0.704240  1.0  -0.6435
  O  O160  1  0.430800  0.498920  0.656580  1.0  -0.7124
  O  O161  1  0.435800  0.462300  0.541720  1.0  -0.7182
  O  O162  1  0.307200  0.391530  0.510700  1.0  -0.5831
  O  O163  1  0.350200  0.192760  0.023020  1.0  -0.776
  O  O164  1  0.522800  0.262000  0.988320  1.0  -0.6527
  O  O165  1  0.055700  0.168990  0.986350  1.0  -0.7175
  O  O166  1  0.953000  0.273210  0.978380  1.0  -0.4906
  O  O167  1  0.388000  0.644300  0.686100  1.0  -0.6494
  O  O168  1  0.621400  0.602910  0.630730  1.0  -0.6461
  O  O169  1  0.501000  0.730110  0.812970  1.0  -0.7114
  O  O170  1  0.627300  0.639280  0.776040  1.0  -0.5214
  O  O171  1  0.142400  0.606900  0.621020  1.0  -0.6997
  O  O172  1  0.371200  0.603370  0.552930  1.0  -0.6446
  O  O173  1  0.251200  0.578800  0.397810  1.0  -0.6158
  O  O174  1  0.174500  0.539230  0.489850  1.0  -0.5817
  O  O175  1  0.441000  0.857630  0.879080  1.0  -0.6593
  O  O176  1  0.490400  0.931870  0.933520  1.0  -0.6589
  O  O177  1  0.389000  0.078580  0.939630  1.0  -0.5933
  O  O178  1  0.165100  0.030210  0.965140  1.0  -0.6244
  O  O179  1  0.763500  0.784490  0.843530  1.0  -0.6836
  O  O180  1  0.839800  0.869070  0.876060  1.0  -0.7053
  O  O181  1  0.067700  0.667020  0.753210  1.0  -0.7236
  O  O182  1  0.080200  0.698320  0.842090  1.0  -0.5604
  O  O183  1  0.795900  0.534360  0.295760  1.0  -0.6461
  O  O184  1  0.569200  0.501080  0.343420  1.0  -0.7174
  O  O185  1  0.564200  0.537700  0.458280  1.0  -0.7156
  O  O186  1  0.692800  0.608470  0.489300  1.0  -0.5824
  O  O187  1  0.649800  0.807240  0.976980  1.0  -0.7759
  O  O188  1  0.477200  0.738000  0.011680  1.0  -0.6511
  O  O189  1  0.944300  0.831010  0.013650  1.0  -0.718
  O  O190  1  0.047000  0.726790  0.021620  1.0  -0.4832
  O  O191  1  0.612000  0.355700  0.313900  1.0  -0.6494
  O  O192  1  0.378600  0.397090  0.369270  1.0  -0.6471
  O  O193  1  0.499000  0.269890  0.187030  1.0  -0.7138
  O  O194  1  0.372700  0.360720  0.223960  1.0  -0.5241
  O  O195  1  0.857600  0.393100  0.378980  1.0  -0.7013
  O  O196  1  0.628800  0.396630  0.447070  1.0  -0.6454
  O  O197  1  0.748800  0.421200  0.602190  1.0  -0.6204
  O  O198  1  0.825500  0.460770  0.510150  1.0  -0.582
  O  O199  1  0.559000  0.142370  0.120920  1.0  -0.6589
  O  O200  1  0.509600  0.068130  0.066480  1.0  -0.6592
  O  O201  1  0.611000  0.921420  0.060370  1.0  -0.5944
  O  O202  1  0.834900  0.969790  0.034860  1.0  -0.6196
  O  O203  1  0.236500  0.215510  0.156470  1.0  -0.6827
  O  O204  1  0.160200  0.130930  0.123940  1.0  -0.7013
  O  O205  1  0.932300  0.332980  0.246790  1.0  -0.7156
  O  O206  1  0.919800  0.301680  0.157910  1.0  -0.5621
  F  F207  1  0.843300  0.249060  0.713400  1.0  -0.187
  F  F208  1  0.826600  0.198680  0.801640  1.0  -0.1935
  F  F209  1  0.732300  0.300130  0.787940  1.0  -0.1672
  F  F210  1  0.714300  0.142470  0.704560  1.0  -0.192
  F  F211  1  0.444700  0.146900  0.727590  1.0  -0.1827
  F  F212  1  0.611200  0.120070  0.795660  1.0  -0.193
  F  F213  1  0.566600  0.804070  0.489860  1.0  -0.1741
  F  F214  1  0.537400  0.890670  0.531740  1.0  -0.1865
  F  F215  1  0.695300  0.881350  0.448520  1.0  -0.176
  F  F216  1  0.990600  0.888230  0.482980  1.0  -0.1959
  F  F217  1  0.819000  0.928430  0.553920  1.0  -0.1771
  F  F218  1  0.028500  0.854720  0.573990  1.0  -0.1793
  F  F219  1  0.376300  0.035430  0.648580  1.0  -0.1868
  F  F220  1  0.463400  0.934980  0.668570  1.0  -0.1777
  F  F221  1  0.302800  0.967610  0.598610  1.0  -0.1805
  F  F222  1  0.043100  0.072880  0.650790  1.0  -0.1807
  F  F223  1  0.886400  0.020470  0.716470  1.0  -0.1806
  F  F224  1  0.969800  0.986180  0.630960  1.0  -0.1842
  F  F225  1  0.156700  0.750940  0.286600  1.0  -0.1877
  F  F226  1  0.173400  0.801320  0.198360  1.0  -0.1957
  F  F227  1  0.267700  0.699870  0.212060  1.0  -0.1694
  F  F228  1  0.285700  0.857530  0.295440  1.0  -0.1907
  F  F229  1  0.555300  0.853100  0.272410  1.0  -0.1837
  F  F230  1  0.388800  0.879930  0.204340  1.0  -0.1931
  F  F231  1  0.433400  0.195930  0.510140  1.0  -0.1765
  F  F232  1  0.462600  0.109330  0.468260  1.0  -0.1874
  F  F233  1  0.304700  0.118650  0.551480  1.0  -0.1765
  F  F234  1  0.009400  0.111770  0.517020  1.0  -0.1956
  F  F235  1  0.181000  0.071570  0.446080  1.0  -0.1757
  F  F236  1  0.971500  0.145280  0.426010  1.0  -0.1796
  F  F237  1  0.623700  0.964570  0.351420  1.0  -0.1852
  F  F238  1  0.536600  0.065020  0.331430  1.0  -0.1755
  F  F239  1  0.697200  0.032390  0.401390  1.0  -0.1818
  F  F240  1  0.956900  0.927120  0.349210  1.0  -0.1803
  F  F241  1  0.113600  0.979530  0.283530  1.0  -0.182
  F  F242  1  0.030200  0.013820  0.369040  1.0  -0.1841
