# generated using pymatgen
data_NdH7C19(O4F3)2
_symmetry_space_group_name_H-M   'P 1'
_cell_length_a   7.36540000
_cell_length_b   23.48080000
_cell_length_c   29.02840000
_cell_angle_alpha   90.00000000
_cell_angle_beta   90.00000000
_cell_angle_gamma   90.96900000
_symmetry_Int_Tables_number   1
_chemical_formula_structural   NdH7C19(O4F3)2
_chemical_formula_sum   'Nd8 H56 C152 O64 F48'
_cell_volume   5019.61274692
_cell_formula_units_Z   8
loop_
 _symmetry_equiv_pos_site_id
 _symmetry_equiv_pos_as_xyz
  1  'x, y, z'
loop_
 _atom_site_type_symbol
 _atom_site_label
 _atom_site_symmetry_multiplicity
 _atom_site_fract_x
 _atom_site_fract_y
 _atom_site_fract_z
 _atom_site_occupancy
 _atom_site_charge
  Nd  Nd1  1  0.789540  0.672080  0.297290  1.0  2.3042
  Nd  Nd2  1  0.286310  0.742950  0.262180  1.0  2.3526
  Nd  Nd3  1  0.210460  0.827920  0.797290  1.0  2.3042
  Nd  Nd4  1  0.713690  0.757050  0.762180  1.0  2.353
  Nd  Nd5  1  0.210460  0.327920  0.702710  1.0  2.3049
  Nd  Nd6  1  0.713690  0.257050  0.737820  1.0  2.3545
  Nd  Nd7  1  0.789540  0.172080  0.202710  1.0  2.3044
  Nd  Nd8  1  0.286310  0.242950  0.237820  1.0  2.3529
  H  H9  1  0.928900  0.620200  0.576600  1.0  0.4374
  H  H10  1  0.896800  0.343600  0.294600  1.0  0.4062
  H  H11  1  0.588800  0.741400  0.448300  1.0  0.1018
  H  H12  1  0.977400  0.775900  0.431700  1.0  0.1139
  H  H13  1  0.129100  0.805000  0.498000  1.0  0.1046
  H  H14  1  0.231500  0.712700  0.550200  1.0  0.1107
  H  H15  1  0.241000  0.847700  0.666000  1.0  0.1054
  H  H16  1  0.417900  0.861000  0.600700  1.0  0.0933
  H  H17  1  0.965500  0.537800  0.177800  1.0  0.1075
  H  H18  1  0.588900  0.556400  0.172600  1.0  0.1067
  H  H19  1  0.440800  0.503500  0.117900  1.0  0.1013
  H  H20  1  0.117100  0.420900  0.183000  1.0  0.1234
  H  H21  1  0.568900  0.365100  0.118600  1.0  0.0963
  H  H22  1  0.749300  0.432600  0.081700  1.0  0.1098
  H  H23  1  0.071100  0.879800  0.076600  1.0  0.4244
  H  H24  1  0.103200  0.156400  0.794600  1.0  0.4053
  H  H25  1  0.411200  0.758600  0.948300  1.0  0.101
  H  H26  1  0.022600  0.724100  0.931700  1.0  0.1135
  H  H27  1  0.870900  0.695000  0.998000  1.0  0.1049
  H  H28  1  0.768500  0.787300  0.050200  1.0  0.1106
  H  H29  1  0.759000  0.652300  0.166000  1.0  0.1054
  H  H30  1  0.582100  0.639000  0.100700  1.0  0.0929
  H  H31  1  0.034500  0.962200  0.677800  1.0  0.1076
  H  H32  1  0.411100  0.943600  0.672600  1.0  0.1071
  H  H33  1  0.559200  0.996500  0.617900  1.0  0.1017
  H  H34  1  0.882900  0.079100  0.683000  1.0  0.1228
  H  H35  1  0.431100  0.134900  0.618600  1.0  0.0963
  H  H36  1  0.250700  0.067400  0.581700  1.0  0.1101
  H  H37  1  0.071100  0.379800  0.423400  1.0  0.419
  H  H38  1  0.103200  0.656400  0.705400  1.0  0.4049
  H  H39  1  0.411200  0.258600  0.551700  1.0  0.1011
  H  H40  1  0.022600  0.224100  0.568300  1.0  0.1133
  H  H41  1  0.870900  0.195000  0.502000  1.0  0.1049
  H  H42  1  0.768500  0.287300  0.449800  1.0  0.1103
  H  H43  1  0.759000  0.152300  0.334000  1.0  0.1052
  H  H44  1  0.582100  0.139000  0.399300  1.0  0.0927
  H  H45  1  0.034500  0.462200  0.822200  1.0  0.1078
  H  H46  1  0.411100  0.443600  0.827400  1.0  0.1072
  H  H47  1  0.559200  0.496500  0.882100  1.0  0.1016
  H  H48  1  0.882900  0.579100  0.817000  1.0  0.1228
  H  H49  1  0.431100  0.634900  0.881400  1.0  0.0968
  H  H50  1  0.250700  0.567400  0.918300  1.0  0.1093
  H  H51  1  0.928900  0.120200  0.923400  1.0  0.4338
  H  H52  1  0.896800  0.843600  0.205400  1.0  0.4056
  H  H53  1  0.588800  0.241400  0.051700  1.0  0.1015
  H  H54  1  0.977400  0.275900  0.068300  1.0  0.1139
  H  H55  1  0.129100  0.305000  0.002000  1.0  0.1048
  H  H56  1  0.231500  0.212700  0.949800  1.0  0.1105
  H  H57  1  0.241000  0.347700  0.834000  1.0  0.105
  H  H58  1  0.417900  0.361000  0.899300  1.0  0.0933
  H  H59  1  0.965500  0.037800  0.322200  1.0  0.1079
  H  H60  1  0.588900  0.056400  0.327400  1.0  0.1065
  H  H61  1  0.440800  0.003500  0.382100  1.0  0.1016
  H  H62  1  0.117100  0.920900  0.317000  1.0  0.1234
  H  H63  1  0.568900  0.865100  0.381400  1.0  0.0968
  H  H64  1  0.749300  0.932600  0.418300  1.0  0.1089
  C  C65  1  0.468300  0.793300  0.526200  1.0  -0.2679
  C  C66  1  0.374700  0.772900  0.481300  1.0  0.045
  C  C67  1  0.465000  0.747700  0.445300  1.0  -0.0733
  C  C68  1  0.379600  0.731300  0.404900  1.0  -0.1222
  C  C69  1  0.191300  0.739700  0.400200  1.0  -0.0215
  C  C70  1  0.100100  0.768200  0.435100  1.0  -0.0782
  C  C71  1  0.191000  0.785300  0.475300  1.0  -0.1084
  C  C72  1  0.485800  0.705300  0.367400  1.0  0.729
  C  C73  1  0.081600  0.714800  0.361300  1.0  0.7302
  C  C74  1  0.345700  0.788200  0.568500  1.0  0.062
  C  C75  1  0.234300  0.739800  0.573600  1.0  -0.0982
  C  C76  1  0.126900  0.730900  0.612700  1.0  -0.1204
  C  C77  1  0.128500  0.772300  0.647200  1.0  -0.0422
  C  C78  1  0.238500  0.820500  0.642700  1.0  -0.0447
  C  C79  1  0.345600  0.828300  0.603400  1.0  -0.1069
  C  C80  1  0.017900  0.677500  0.614300  1.0  0.6732
  C  C81  1  0.008100  0.770000  0.688800  1.0  0.724
  C  C82  1  0.532700  0.855900  0.518000  1.0  0.689
  C  C83  1  0.635200  0.756700  0.537800  1.0  0.6837
  C  C84  1  0.070200  0.480700  0.106200  1.0  -0.2764
  C  C85  1  0.185900  0.515300  0.141800  1.0  0.0459
  C  C86  1  0.090900  0.542700  0.176100  1.0  -0.078
  C  C87  1  0.179500  0.577700  0.208300  1.0  -0.1166
  C  C88  1  0.370600  0.583100  0.207900  1.0  -0.0232
  C  C89  1  0.462800  0.553900  0.173500  1.0  -0.0638
  C  C90  1  0.374500  0.521500  0.140800  1.0  -0.1169
  C  C91  1  0.066600  0.608600  0.242300  1.0  0.7038
  C  C92  1  0.477700  0.618600  0.241700  1.0  0.7295
  C  C93  1  0.948800  0.435300  0.130100  1.0  0.0616
  C  C94  1  0.005300  0.410400  0.170400  1.0  -0.093
  C  C95  1  0.897700  0.369800  0.192700  1.0  -0.0779
  C  C96  1  0.729100  0.353500  0.173400  1.0  -0.085
  C  C97  1  0.677900  0.376800  0.132000  1.0  -0.0416
  C  C98  1  0.785500  0.417400  0.109800  1.0  -0.1332
  C  C99  1  0.958300  0.349000  0.238600  1.0  0.7338
  C  C100  1  0.603100  0.310100  0.194500  1.0  0.7224
  C  C101  1  0.189100  0.449200  0.071300  1.0  0.6858
  C  C102  1  0.956200  0.524700  0.079400  1.0  0.6873
  C  C103  1  0.531700  0.706700  0.026200  1.0  -0.269
  C  C104  1  0.625300  0.727100  0.981300  1.0  0.0451
  C  C105  1  0.535000  0.752300  0.945300  1.0  -0.0748
  C  C106  1  0.620400  0.768700  0.904900  1.0  -0.1224
  C  C107  1  0.808700  0.760300  0.900200  1.0  -0.0217
  C  C108  1  0.899900  0.731800  0.935100  1.0  -0.0782
  C  C109  1  0.809000  0.714700  0.975300  1.0  -0.1081
  C  C110  1  0.514200  0.794700  0.867400  1.0  0.7331
  C  C111  1  0.918400  0.785200  0.861300  1.0  0.7306
  C  C112  1  0.654300  0.711800  0.068500  1.0  0.061
  C  C113  1  0.765700  0.760200  0.073600  1.0  -0.0963
  C  C114  1  0.873100  0.769100  0.112700  1.0  -0.12
  C  C115  1  0.871500  0.727700  0.147200  1.0  -0.0411
  C  C116  1  0.761500  0.679500  0.142700  1.0  -0.0438
  C  C117  1  0.654400  0.671700  0.103400  1.0  -0.106
  C  C118  1  0.982100  0.822500  0.114300  1.0  0.675
  C  C119  1  0.991900  0.730000  0.188800  1.0  0.7241
  C  C120  1  0.467300  0.644100  0.018000  1.0  0.6899
  C  C121  1  0.364800  0.743300  0.037800  1.0  0.6838
  C  C122  1  0.929800  0.019300  0.606200  1.0  -0.2763
  C  C123  1  0.814100  0.984700  0.641800  1.0  0.0454
  C  C124  1  0.909100  0.957300  0.676100  1.0  -0.0787
  C  C125  1  0.820500  0.922300  0.708300  1.0  -0.1155
  C  C126  1  0.629400  0.916900  0.707900  1.0  -0.0231
  C  C127  1  0.537200  0.946100  0.673500  1.0  -0.0638
  C  C128  1  0.625500  0.978500  0.640800  1.0  -0.1157
  C  C129  1  0.933400  0.891400  0.742300  1.0  0.7037
  C  C130  1  0.522300  0.881400  0.741700  1.0  0.7291
  C  C131  1  0.051200  0.064700  0.630100  1.0  0.0621
  C  C132  1  0.994700  0.089600  0.670400  1.0  -0.0935
  C  C133  1  0.102300  0.130200  0.692700  1.0  -0.0784
  C  C134  1  0.270900  0.146500  0.673400  1.0  -0.0858
  C  C135  1  0.322100  0.123200  0.632000  1.0  -0.0412
  C  C136  1  0.214500  0.082600  0.609800  1.0  -0.1334
  C  C137  1  0.041700  0.151000  0.738600  1.0  0.7335
  C  C138  1  0.396900  0.189900  0.694500  1.0  0.7225
  C  C139  1  0.810900  0.050800  0.571300  1.0  0.6861
  C  C140  1  0.043800  0.975300  0.579400  1.0  0.6869
  C  C141  1  0.531700  0.206700  0.473800  1.0  -0.2691
  C  C142  1  0.625300  0.227100  0.518700  1.0  0.0453
  C  C143  1  0.535000  0.252300  0.554700  1.0  -0.0754
  C  C144  1  0.620400  0.268700  0.595100  1.0  -0.1223
  C  C145  1  0.808700  0.260300  0.599800  1.0  -0.0217
  C  C146  1  0.899900  0.231800  0.564900  1.0  -0.0784
  C  C147  1  0.809000  0.214700  0.524700  1.0  -0.1086
  C  C148  1  0.514200  0.294700  0.632600  1.0  0.7318
  C  C149  1  0.918400  0.285200  0.638700  1.0  0.7304
  C  C150  1  0.654300  0.211800  0.431500  1.0  0.0616
  C  C151  1  0.765700  0.260200  0.426400  1.0  -0.0963
  C  C152  1  0.873100  0.269100  0.387300  1.0  -0.1204
  C  C153  1  0.871500  0.227700  0.352800  1.0  -0.0411
  C  C154  1  0.761500  0.179500  0.357300  1.0  -0.0435
  C  C155  1  0.654400  0.171700  0.396600  1.0  -0.1049
  C  C156  1  0.982100  0.322500  0.385700  1.0  0.6754
  C  C157  1  0.991900  0.230000  0.311200  1.0  0.724
  C  C158  1  0.467300  0.144100  0.482000  1.0  0.6899
  C  C159  1  0.364800  0.243300  0.462200  1.0  0.6838
  C  C160  1  0.929800  0.519300  0.893800  1.0  -0.2761
  C  C161  1  0.814100  0.484700  0.858200  1.0  0.0452
  C  C162  1  0.909100  0.457300  0.823900  1.0  -0.0792
  C  C163  1  0.820500  0.422300  0.791700  1.0  -0.1175
  C  C164  1  0.629400  0.416900  0.792100  1.0  -0.0238
  C  C165  1  0.537200  0.446100  0.826500  1.0  -0.0648
  C  C166  1  0.625500  0.478500  0.859200  1.0  -0.1154
  C  C167  1  0.933400  0.391400  0.757700  1.0  0.7049
  C  C168  1  0.522300  0.381400  0.758300  1.0  0.7295
  C  C169  1  0.051200  0.564700  0.869900  1.0  0.0616
  C  C170  1  0.994700  0.589600  0.829600  1.0  -0.0934
  C  C171  1  0.102300  0.630200  0.807300  1.0  -0.0785
  C  C172  1  0.270900  0.646500  0.826600  1.0  -0.0822
  C  C173  1  0.322100  0.623200  0.868000  1.0  -0.0406
  C  C174  1  0.214500  0.582600  0.890200  1.0  -0.1333
  C  C175  1  0.041700  0.651000  0.761400  1.0  0.7317
  C  C176  1  0.396900  0.689900  0.805500  1.0  0.723
  C  C177  1  0.810900  0.550800  0.928700  1.0  0.6855
  C  C178  1  0.043800  0.475300  0.920600  1.0  0.6871
  C  C179  1  0.468300  0.293300  0.973800  1.0  -0.2681
  C  C180  1  0.374700  0.272900  0.018700  1.0  0.0453
  C  C181  1  0.465000  0.247700  0.054700  1.0  -0.0735
  C  C182  1  0.379600  0.231300  0.095100  1.0  -0.1219
  C  C183  1  0.191300  0.239700  0.099800  1.0  -0.0209
  C  C184  1  0.100100  0.268200  0.064900  1.0  -0.0783
  C  C185  1  0.191000  0.285300  0.024700  1.0  -0.1086
  C  C186  1  0.485800  0.205300  0.132600  1.0  0.7282
  C  C187  1  0.081600  0.214800  0.138700  1.0  0.7302
  C  C188  1  0.345700  0.288200  0.931500  1.0  0.0619
  C  C189  1  0.234300  0.239800  0.926400  1.0  -0.0981
  C  C190  1  0.126900  0.230900  0.887300  1.0  -0.1209
  C  C191  1  0.128500  0.272300  0.852800  1.0  -0.0422
  C  C192  1  0.238500  0.320500  0.857300  1.0  -0.0446
  C  C193  1  0.345600  0.328300  0.896600  1.0  -0.1069
  C  C194  1  0.017900  0.177500  0.885700  1.0  0.675
  C  C195  1  0.008100  0.270000  0.811200  1.0  0.7241
  C  C196  1  0.532700  0.355900  0.982000  1.0  0.6887
  C  C197  1  0.635200  0.256700  0.962200  1.0  0.6832
  C  C198  1  0.070200  0.980700  0.393800  1.0  -0.2763
  C  C199  1  0.185900  0.015300  0.358200  1.0  0.0459
  C  C200  1  0.090900  0.042700  0.323900  1.0  -0.0777
  C  C201  1  0.179500  0.077700  0.291700  1.0  -0.1173
  C  C202  1  0.370600  0.083100  0.292100  1.0  -0.0229
  C  C203  1  0.462800  0.053900  0.326500  1.0  -0.0643
  C  C204  1  0.374500  0.021500  0.359200  1.0  -0.1166
  C  C205  1  0.066600  0.108600  0.257700  1.0  0.7037
  C  C206  1  0.477700  0.118600  0.258300  1.0  0.7295
  C  C207  1  0.948800  0.935300  0.369900  1.0  0.061
  C  C208  1  0.005300  0.910400  0.329600  1.0  -0.0949
  C  C209  1  0.897700  0.869800  0.307300  1.0  -0.0788
  C  C210  1  0.729100  0.853500  0.326600  1.0  -0.083
  C  C211  1  0.677900  0.876800  0.368000  1.0  -0.0404
  C  C212  1  0.785500  0.917400  0.390200  1.0  -0.1337
  C  C213  1  0.958300  0.849000  0.261400  1.0  0.7318
  C  C214  1  0.603100  0.810100  0.305500  1.0  0.7232
  C  C215  1  0.189100  0.949200  0.428700  1.0  0.6854
  C  C216  1  0.956200  0.024700  0.420600  1.0  0.6859
  O  O217  1  0.651100  0.698800  0.373100  1.0  -0.6816
  O  O218  1  0.406400  0.692300  0.330170  1.0  -0.7651
  O  O219  1  0.056200  0.744800  0.324330  1.0  -0.8518
  O  O220  1  0.006800  0.668200  0.366500  1.0  -0.6131
  O  O221  1  0.993600  0.651100  0.652300  1.0  -0.5702
  O  O222  1  0.959300  0.657400  0.577000  1.0  -0.5083
  O  O223  1  0.079300  0.777400  0.728190  1.0  -0.7909
  O  O224  1  0.840300  0.763900  0.684400  1.0  -0.6999
  O  O225  1  0.139300  0.644100  0.269870  1.0  -0.7793
  O  O226  1  0.895100  0.600700  0.241600  1.0  -0.6764
  O  O227  1  0.504000  0.671600  0.234880  1.0  -0.8237
  O  O228  1  0.552600  0.593100  0.274700  1.0  -0.6365
  O  O229  1  0.113900  0.332700  0.245010  1.0  -0.631
  O  O230  1  0.840400  0.353300  0.271690  1.0  -0.4765
  O  O231  1  0.664600  0.265600  0.212400  1.0  -0.7927
  O  O232  1  0.436600  0.319400  0.193100  1.0  -0.6557
  O  O233  1  0.348900  0.801200  0.873100  1.0  -0.6809
  O  O234  1  0.593600  0.807700  0.830170  1.0  -0.7643
  O  O235  1  0.943800  0.755200  0.824330  1.0  -0.8521
  O  O236  1  0.993200  0.831800  0.866500  1.0  -0.6128
  O  O237  1  0.006400  0.848900  0.152300  1.0  -0.5697
  O  O238  1  0.040700  0.842600  0.077000  1.0  -0.5069
  O  O239  1  0.920700  0.722600  0.228190  1.0  -0.7918
  O  O240  1  0.159700  0.736100  0.184400  1.0  -0.6972
  O  O241  1  0.860700  0.855900  0.769870  1.0  -0.7825
  O  O242  1  0.104900  0.899300  0.741600  1.0  -0.6754
  O  O243  1  0.496000  0.828400  0.734880  1.0  -0.8251
  O  O244  1  0.447400  0.906900  0.774700  1.0  -0.6346
  O  O245  1  0.886100  0.167300  0.745010  1.0  -0.6327
  O  O246  1  0.159600  0.146700  0.771690  1.0  -0.4757
  O  O247  1  0.335400  0.234400  0.712400  1.0  -0.7937
  O  O248  1  0.563400  0.180600  0.693100  1.0  -0.6514
  O  O249  1  0.348900  0.301200  0.626900  1.0  -0.6807
  O  O250  1  0.593600  0.307700  0.669830  1.0  -0.765
  O  O251  1  0.943800  0.255200  0.675670  1.0  -0.8521
  O  O252  1  0.993200  0.331800  0.633500  1.0  -0.6138
  O  O253  1  0.006400  0.348900  0.347700  1.0  -0.5699
  O  O254  1  0.040700  0.342600  0.423000  1.0  -0.5079
  O  O255  1  0.920700  0.222600  0.271810  1.0  -0.7918
  O  O256  1  0.159700  0.236100  0.315600  1.0  -0.6982
  O  O257  1  0.860700  0.355900  0.730130  1.0  -0.7847
  O  O258  1  0.104900  0.399300  0.758400  1.0  -0.6765
  O  O259  1  0.496000  0.328400  0.765120  1.0  -0.825
  O  O260  1  0.447400  0.406900  0.725300  1.0  -0.6371
  O  O261  1  0.886100  0.667300  0.754990  1.0  -0.6317
  O  O262  1  0.159600  0.646700  0.728310  1.0  -0.4759
  O  O263  1  0.335400  0.734400  0.787600  1.0  -0.7938
  O  O264  1  0.563400  0.680600  0.806900  1.0  -0.6508
  O  O265  1  0.651100  0.198800  0.126900  1.0  -0.6814
  O  O266  1  0.406400  0.192300  0.169830  1.0  -0.765
  O  O267  1  0.056200  0.244800  0.175670  1.0  -0.8516
  O  O268  1  0.006800  0.168200  0.133500  1.0  -0.6142
  O  O269  1  0.993600  0.151100  0.847700  1.0  -0.5697
  O  O270  1  0.959300  0.157400  0.923000  1.0  -0.5088
  O  O271  1  0.079300  0.277400  0.771810  1.0  -0.7913
  O  O272  1  0.840300  0.263900  0.815600  1.0  -0.6994
  O  O273  1  0.139300  0.144100  0.230130  1.0  -0.7823
  O  O274  1  0.895100  0.100700  0.258400  1.0  -0.6771
  O  O275  1  0.504000  0.171600  0.265120  1.0  -0.8238
  O  O276  1  0.552600  0.093100  0.225300  1.0  -0.6359
  O  O277  1  0.113900  0.832700  0.254990  1.0  -0.6291
  O  O278  1  0.840400  0.853300  0.228310  1.0  -0.4773
  O  O279  1  0.664600  0.765600  0.287600  1.0  -0.7934
  O  O280  1  0.436600  0.819400  0.306900  1.0  -0.6539
  F  F281  1  0.395000  0.890900  0.517320  1.0  -0.1838
  F  F282  1  0.650600  0.873800  0.549570  1.0  -0.189
  F  F283  1  0.620900  0.860600  0.477530  1.0  -0.2018
  F  F284  1  0.778200  0.765300  0.508790  1.0  -0.204
  F  F285  1  0.591900  0.700700  0.534270  1.0  -0.2055
  F  F286  1  0.696700  0.765800  0.579880  1.0  -0.1791
  F  F287  1  0.292400  0.484600  0.045930  1.0  -0.199
  F  F288  1  0.302200  0.413900  0.092700  1.0  -0.1882
  F  F289  1  0.091900  0.417300  0.042210  1.0  -0.1949
  F  F290  1  0.052100  0.571200  0.068390  1.0  -0.1967
  F  F291  1  0.884700  0.504700  0.040020  1.0  -0.2004
  F  F292  1  0.815400  0.542200  0.104780  1.0  -0.1901
  F  F293  1  0.605000  0.609100  0.017320  1.0  -0.1843
  F  F294  1  0.349400  0.626200  0.049570  1.0  -0.1879
  F  F295  1  0.379100  0.639400  0.977530  1.0  -0.2012
  F  F296  1  0.221800  0.734700  0.008790  1.0  -0.2034
  F  F297  1  0.408100  0.799300  0.034270  1.0  -0.2049
  F  F298  1  0.303300  0.734200  0.079880  1.0  -0.1793
  F  F299  1  0.707600  0.015400  0.545930  1.0  -0.1995
  F  F300  1  0.697800  0.086100  0.592700  1.0  -0.1884
  F  F301  1  0.908100  0.082700  0.542210  1.0  -0.195
  F  F302  1  0.947900  0.928800  0.568390  1.0  -0.1985
  F  F303  1  0.115300  0.995300  0.540020  1.0  -0.1994
  F  F304  1  0.184600  0.957800  0.604780  1.0  -0.1903
  F  F305  1  0.605000  0.109100  0.482680  1.0  -0.1844
  F  F306  1  0.349400  0.126200  0.450430  1.0  -0.188
  F  F307  1  0.379100  0.139400  0.522470  1.0  -0.2017
  F  F308  1  0.221800  0.234700  0.491210  1.0  -0.2033
  F  F309  1  0.408100  0.299300  0.465730  1.0  -0.2055
  F  F310  1  0.303300  0.234200  0.420120  1.0  -0.1793
  F  F311  1  0.707600  0.515400  0.954070  1.0  -0.1992
  F  F312  1  0.697800  0.586100  0.907300  1.0  -0.1883
  F  F313  1  0.908100  0.582700  0.957790  1.0  -0.1951
  F  F314  1  0.947900  0.428800  0.931610  1.0  -0.1982
  F  F315  1  0.115300  0.495300  0.959980  1.0  -0.2005
  F  F316  1  0.184600  0.457800  0.895220  1.0  -0.1902
  F  F317  1  0.395000  0.390900  0.982680  1.0  -0.1839
  F  F318  1  0.650600  0.373800  0.950430  1.0  -0.1885
  F  F319  1  0.620900  0.360600  0.022470  1.0  -0.2028
  F  F320  1  0.778200  0.265300  0.991210  1.0  -0.2035
  F  F321  1  0.591900  0.200700  0.965730  1.0  -0.2056
  F  F322  1  0.696700  0.265800  0.920120  1.0  -0.1799
  F  F323  1  0.292400  0.984600  0.454070  1.0  -0.1992
  F  F324  1  0.302200  0.913900  0.407300  1.0  -0.188
  F  F325  1  0.091900  0.917300  0.457790  1.0  -0.1953
  F  F326  1  0.052100  0.071200  0.431610  1.0  -0.1974
  F  F327  1  0.884700  0.004700  0.459980  1.0  -0.2013
  F  F328  1  0.815400  0.042200  0.395220  1.0  -0.1901
