# generated using pymatgen
data_CeH7C19(O4F3)2
_symmetry_space_group_name_H-M   'P 1'
_cell_length_a   7.35240000
_cell_length_b   23.17500000
_cell_length_c   29.16420000
_cell_angle_alpha   90.00000000
_cell_angle_beta   90.00000000
_cell_angle_gamma   90.77200000
_symmetry_Int_Tables_number   1
_chemical_formula_structural   CeH7C19(O4F3)2
_chemical_formula_sum   'Ce8 H56 C152 O64 F48'
_cell_volume   4968.89149699
_cell_formula_units_Z   8
loop_
 _symmetry_equiv_pos_site_id
 _symmetry_equiv_pos_as_xyz
  1  'x, y, z'
loop_
 _atom_site_type_symbol
 _atom_site_label
 _atom_site_symmetry_multiplicity
 _atom_site_fract_x
 _atom_site_fract_y
 _atom_site_fract_z
 _atom_site_occupancy
 _atom_site_charge
  Ce  Ce1  1  0.790290  0.666910  0.298500  1.0  2.2564
  Ce  Ce2  1  0.293370  0.739030  0.263660  1.0  2.302
  Ce  Ce3  1  0.209710  0.833090  0.798500  1.0  2.2609
  Ce  Ce4  1  0.706630  0.760970  0.763660  1.0  2.3028
  Ce  Ce5  1  0.209710  0.333090  0.701500  1.0  2.2607
  Ce  Ce6  1  0.706630  0.260970  0.736340  1.0  2.3046
  Ce  Ce7  1  0.790290  0.166910  0.201500  1.0  2.2652
  Ce  Ce8  1  0.293370  0.239030  0.236340  1.0  2.3032
  H  H9  1  0.914800  0.619900  0.579600  1.0  0.4507
  H  H10  1  0.899200  0.342900  0.292200  1.0  0.4009
  H  H11  1  0.590300  0.737400  0.451100  1.0  0.0996
  H  H12  1  0.974800  0.766400  0.433000  1.0  0.1108
  H  H13  1  0.119000  0.797200  0.499400  1.0  0.1093
  H  H14  1  0.222100  0.708400  0.552900  1.0  0.1137
  H  H15  1  0.236200  0.849200  0.666200  1.0  0.1
  H  H16  1  0.420800  0.858800  0.602400  1.0  0.0941
  H  H17  1  0.972500  0.534300  0.177100  1.0  0.1039
  H  H18  1  0.596000  0.553700  0.171100  1.0  0.1
  H  H19  1  0.445900  0.500800  0.115800  1.0  0.0897
  H  H20  1  0.123900  0.417100  0.179500  1.0  0.1194
  H  H21  1  0.575700  0.360400  0.114400  1.0  0.0958
  H  H22  1  0.754600  0.430500  0.078900  1.0  0.1037
  H  H23  1  0.085200  0.880100  0.079600  1.0  0.4499
  H  H24  1  0.100800  0.157100  0.792200  1.0  0.401
  H  H25  1  0.409700  0.762600  0.951100  1.0  0.0987
  H  H26  1  0.025200  0.733600  0.933000  1.0  0.1099
  H  H27  1  0.881000  0.702800  0.999400  1.0  0.1092
  H  H28  1  0.777900  0.791600  0.052900  1.0  0.1138
  H  H29  1  0.763800  0.650800  0.166200  1.0  0.1005
  H  H30  1  0.579200  0.641200  0.102400  1.0  0.0935
  H  H31  1  0.027500  0.965700  0.677100  1.0  0.1037
  H  H32  1  0.404000  0.946300  0.671100  1.0  0.0997
  H  H33  1  0.554100  0.999200  0.615800  1.0  0.0896
  H  H34  1  0.876100  0.082900  0.679500  1.0  0.1188
  H  H35  1  0.424300  0.139600  0.614400  1.0  0.0958
  H  H36  1  0.245400  0.069500  0.578900  1.0  0.1038
  H  H37  1  0.085200  0.380100  0.420400  1.0  0.4471
  H  H38  1  0.100800  0.657100  0.707800  1.0  0.4005
  H  H39  1  0.409700  0.262600  0.548900  1.0  0.0988
  H  H40  1  0.025200  0.233600  0.567000  1.0  0.1097
  H  H41  1  0.881000  0.202800  0.500600  1.0  0.1091
  H  H42  1  0.777900  0.291600  0.447100  1.0  0.1134
  H  H43  1  0.763800  0.150800  0.333800  1.0  0.1005
  H  H44  1  0.579200  0.141200  0.397600  1.0  0.0931
  H  H45  1  0.027500  0.465700  0.822900  1.0  0.1038
  H  H46  1  0.404000  0.446300  0.828900  1.0  0.0997
  H  H47  1  0.554100  0.499200  0.884200  1.0  0.0895
  H  H48  1  0.876100  0.582900  0.820500  1.0  0.1188
  H  H49  1  0.424300  0.639600  0.885600  1.0  0.0959
  H  H50  1  0.245400  0.569500  0.921100  1.0  0.1032
  H  H51  1  0.914800  0.119900  0.920400  1.0  0.4493
  H  H52  1  0.899200  0.842900  0.207800  1.0  0.3996
  H  H53  1  0.590300  0.237400  0.048900  1.0  0.0995
  H  H54  1  0.974800  0.266400  0.067000  1.0  0.1107
  H  H55  1  0.119000  0.297200  0.000600  1.0  0.1093
  H  H56  1  0.222100  0.208400  0.947100  1.0  0.1136
  H  H57  1  0.236200  0.349200  0.833800  1.0  0.1
  H  H58  1  0.420800  0.358800  0.897600  1.0  0.0941
  H  H59  1  0.972500  0.034300  0.322900  1.0  0.1039
  H  H60  1  0.596000  0.053700  0.328900  1.0  0.0996
  H  H61  1  0.445900  0.000800  0.384200  1.0  0.0901
  H  H62  1  0.123900  0.917100  0.320500  1.0  0.1194
  H  H63  1  0.575700  0.860400  0.385600  1.0  0.0959
  H  H64  1  0.754600  0.930500  0.421100  1.0  0.1025
  C  C65  1  0.464500  0.789000  0.528300  1.0  -0.2847
  C  C66  1  0.371600  0.768400  0.483300  1.0  0.0397
  C  C67  1  0.466200  0.743200  0.447600  1.0  -0.0757
  C  C68  1  0.383900  0.726200  0.407200  1.0  -0.1138
  C  C69  1  0.193900  0.733000  0.402080  1.0  -0.0214
  C  C70  1  0.098700  0.760100  0.436600  1.0  -0.0789
  C  C71  1  0.185000  0.778400  0.476800  1.0  -0.1076
  C  C72  1  0.497500  0.702100  0.369500  1.0  0.7128
  C  C73  1  0.088000  0.707800  0.362600  1.0  0.7255
  C  C74  1  0.338600  0.785800  0.570300  1.0  0.0651
  C  C75  1  0.225300  0.736600  0.575600  1.0  -0.0963
  C  C76  1  0.118100  0.730100  0.614800  1.0  -0.1193
  C  C77  1  0.120600  0.772400  0.649000  1.0  -0.0451
  C  C78  1  0.233900  0.820800  0.643700  1.0  -0.0478
  C  C79  1  0.343500  0.826900  0.605100  1.0  -0.1081
  C  C80  1  0.007700  0.676100  0.617800  1.0  0.6763
  C  C81  1  0.997600  0.772000  0.690200  1.0  0.7078
  C  C82  1  0.534500  0.851500  0.519400  1.0  0.682
  C  C83  1  0.628900  0.750300  0.540200  1.0  0.6792
  C  C84  1  0.076900  0.479000  0.103800  1.0  -0.278
  C  C85  1  0.191500  0.512800  0.138930  1.0  0.0507
  C  C86  1  0.097800  0.539700  0.174900  1.0  -0.0865
  C  C87  1  0.185300  0.573800  0.207000  1.0  -0.1187
  C  C88  1  0.376300  0.579000  0.206000  1.0  -0.0211
  C  C89  1  0.469800  0.551000  0.171900  1.0  -0.0679
  C  C90  1  0.379200  0.518800  0.138700  1.0  -0.1174
  C  C91  1  0.074500  0.603500  0.242400  1.0  0.7068
  C  C92  1  0.484800  0.612000  0.241800  1.0  0.7282
  C  C93  1  0.955200  0.433000  0.127100  1.0  0.0543
  C  C94  1  0.010900  0.407300  0.167200  1.0  -0.0807
  C  C95  1  0.900600  0.367000  0.189800  1.0  -0.0699
  C  C96  1  0.732700  0.350400  0.170500  1.0  -0.0807
  C  C97  1  0.682600  0.373100  0.128400  1.0  -0.0346
  C  C98  1  0.791000  0.414800  0.106700  1.0  -0.1311
  C  C99  1  0.962400  0.347000  0.236200  1.0  0.7241
  C  C100  1  0.605000  0.308000  0.191800  1.0  0.7102
  C  C101  1  0.196000  0.446700  0.068500  1.0  0.6799
  C  C102  1  0.959400  0.524500  0.077600  1.0  0.6634
  C  C103  1  0.535500  0.711000  0.028300  1.0  -0.2847
  C  C104  1  0.628400  0.731600  0.983300  1.0  0.0405
  C  C105  1  0.533800  0.756800  0.947600  1.0  -0.0763
  C  C106  1  0.616100  0.773800  0.907200  1.0  -0.1142
  C  C107  1  0.806100  0.767000  0.902080  1.0  -0.0211
  C  C108  1  0.901300  0.739900  0.936600  1.0  -0.0797
  C  C109  1  0.815000  0.721600  0.976800  1.0  -0.1066
  C  C110  1  0.502500  0.797900  0.869500  1.0  0.7184
  C  C111  1  0.912000  0.792200  0.862600  1.0  0.7251
  C  C112  1  0.661400  0.714200  0.070300  1.0  0.0646
  C  C113  1  0.774700  0.763400  0.075600  1.0  -0.0948
  C  C114  1  0.881900  0.769900  0.114800  1.0  -0.119
  C  C115  1  0.879400  0.727600  0.149000  1.0  -0.045
  C  C116  1  0.766100  0.679200  0.143700  1.0  -0.0469
  C  C117  1  0.656500  0.673100  0.105100  1.0  -0.1053
  C  C118  1  0.992300  0.823900  0.117800  1.0  0.678
  C  C119  1  0.002400  0.728000  0.190200  1.0  0.7087
  C  C120  1  0.465500  0.648500  0.019400  1.0  0.6819
  C  C121  1  0.371100  0.749700  0.040200  1.0  0.681
  C  C122  1  0.923100  0.021000  0.603800  1.0  -0.2779
  C  C123  1  0.808500  0.987200  0.638930  1.0  0.05
  C  C124  1  0.902200  0.960300  0.674900  1.0  -0.0871
  C  C125  1  0.814700  0.926200  0.707000  1.0  -0.1179
  C  C126  1  0.623700  0.921000  0.706000  1.0  -0.0214
  C  C127  1  0.530200  0.949000  0.671900  1.0  -0.067
  C  C128  1  0.620800  0.981200  0.638700  1.0  -0.1145
  C  C129  1  0.925500  0.896500  0.742400  1.0  0.7064
  C  C130  1  0.515200  0.888000  0.741800  1.0  0.7274
  C  C131  1  0.044800  0.067000  0.627100  1.0  0.0551
  C  C132  1  0.989100  0.092700  0.667200  1.0  -0.0797
  C  C133  1  0.099400  0.133000  0.689800  1.0  -0.0712
  C  C134  1  0.267300  0.149600  0.670500  1.0  -0.0812
  C  C135  1  0.317400  0.126900  0.628400  1.0  -0.0366
  C  C136  1  0.209000  0.085200  0.606700  1.0  -0.1314
  C  C137  1  0.037600  0.153000  0.736200  1.0  0.724
  C  C138  1  0.395000  0.192000  0.691800  1.0  0.7106
  C  C139  1  0.804000  0.053300  0.568500  1.0  0.6798
  C  C140  1  0.040600  0.975500  0.577600  1.0  0.6661
  C  C141  1  0.535500  0.211000  0.471700  1.0  -0.2848
  C  C142  1  0.628400  0.231600  0.516700  1.0  0.0405
  C  C143  1  0.533800  0.256800  0.552400  1.0  -0.0767
  C  C144  1  0.616100  0.273800  0.592800  1.0  -0.1137
  C  C145  1  0.806100  0.267000  0.597920  1.0  -0.0218
  C  C146  1  0.901300  0.239900  0.563400  1.0  -0.0794
  C  C147  1  0.815000  0.221600  0.523200  1.0  -0.1069
  C  C148  1  0.502500  0.297900  0.630500  1.0  0.7177
  C  C149  1  0.912000  0.292200  0.637400  1.0  0.7247
  C  C150  1  0.661400  0.214200  0.429700  1.0  0.065
  C  C151  1  0.774700  0.263400  0.424400  1.0  -0.0952
  C  C152  1  0.881900  0.269900  0.385200  1.0  -0.1193
  C  C153  1  0.879400  0.227600  0.351000  1.0  -0.045
  C  C154  1  0.766100  0.179200  0.356300  1.0  -0.0455
  C  C155  1  0.656500  0.173100  0.394900  1.0  -0.1041
  C  C156  1  0.992300  0.323900  0.382200  1.0  0.6781
  C  C157  1  0.002400  0.228000  0.309800  1.0  0.7087
  C  C158  1  0.465500  0.148500  0.480600  1.0  0.6822
  C  C159  1  0.371100  0.249700  0.459800  1.0  0.6809
  C  C160  1  0.923100  0.521000  0.896200  1.0  -0.2777
  C  C161  1  0.808500  0.487200  0.861070  1.0  0.0497
  C  C162  1  0.902200  0.460300  0.825100  1.0  -0.0869
  C  C163  1  0.814700  0.426200  0.793000  1.0  -0.1202
  C  C164  1  0.623700  0.421000  0.794000  1.0  -0.0202
  C  C165  1  0.530200  0.449000  0.828100  1.0  -0.0676
  C  C166  1  0.620800  0.481200  0.861300  1.0  -0.114
  C  C167  1  0.925500  0.396500  0.757600  1.0  0.7064
  C  C168  1  0.515200  0.388000  0.758200  1.0  0.7283
  C  C169  1  0.044800  0.567000  0.872900  1.0  0.0546
  C  C170  1  0.989100  0.592700  0.832800  1.0  -0.0788
  C  C171  1  0.099400  0.633000  0.810200  1.0  -0.0721
  C  C172  1  0.267300  0.649600  0.829500  1.0  -0.0794
  C  C173  1  0.317400  0.626900  0.871600  1.0  -0.0375
  C  C174  1  0.209000  0.585200  0.893300  1.0  -0.1313
  C  C175  1  0.037600  0.653000  0.763800  1.0  0.7197
  C  C176  1  0.395000  0.692000  0.808200  1.0  0.7108
  C  C177  1  0.804000  0.553300  0.931500  1.0  0.6799
  C  C178  1  0.040600  0.475500  0.922400  1.0  0.6657
  C  C179  1  0.464500  0.289000  0.971700  1.0  -0.2849
  C  C180  1  0.371600  0.268400  0.016700  1.0  0.0402
  C  C181  1  0.466200  0.243200  0.052400  1.0  -0.0757
  C  C182  1  0.383900  0.226200  0.092800  1.0  -0.113
  C  C183  1  0.193900  0.233000  0.097920  1.0  -0.0211
  C  C184  1  0.098700  0.260100  0.063400  1.0  -0.0788
  C  C185  1  0.185000  0.278400  0.023200  1.0  -0.1078
  C  C186  1  0.497500  0.202100  0.130500  1.0  0.713
  C  C187  1  0.088000  0.207800  0.137400  1.0  0.7257
  C  C188  1  0.338600  0.285800  0.929700  1.0  0.0651
  C  C189  1  0.225300  0.236600  0.924400  1.0  -0.0963
  C  C190  1  0.118100  0.230100  0.885200  1.0  -0.1197
  C  C191  1  0.120600  0.272400  0.851000  1.0  -0.0455
  C  C192  1  0.233900  0.320800  0.856300  1.0  -0.0474
  C  C193  1  0.343500  0.326900  0.894900  1.0  -0.1077
  C  C194  1  0.007700  0.176100  0.882200  1.0  0.6772
  C  C195  1  0.997600  0.272000  0.809800  1.0  0.708
  C  C196  1  0.534500  0.351500  0.980600  1.0  0.6819
  C  C197  1  0.628900  0.250300  0.959800  1.0  0.6788
  C  C198  1  0.076900  0.979000  0.396200  1.0  -0.2779
  C  C199  1  0.191500  0.012800  0.361070  1.0  0.0507
  C  C200  1  0.097800  0.039700  0.325100  1.0  -0.087
  C  C201  1  0.185300  0.073800  0.293000  1.0  -0.119
  C  C202  1  0.376300  0.079000  0.294000  1.0  -0.0192
  C  C203  1  0.469800  0.051000  0.328100  1.0  -0.0683
  C  C204  1  0.379200  0.018800  0.361300  1.0  -0.1166
  C  C205  1  0.074500  0.103500  0.257600  1.0  0.7058
  C  C206  1  0.484800  0.112000  0.258200  1.0  0.7277
  C  C207  1  0.955200  0.933000  0.372900  1.0  0.0537
  C  C208  1  0.010900  0.907300  0.332800  1.0  -0.0805
  C  C209  1  0.900600  0.867000  0.310200  1.0  -0.0717
  C  C210  1  0.732700  0.850400  0.329500  1.0  -0.0803
  C  C211  1  0.682600  0.873100  0.371600  1.0  -0.0354
  C  C212  1  0.791000  0.914800  0.393300  1.0  -0.1314
  C  C213  1  0.962400  0.847000  0.263800  1.0  0.7191
  C  C214  1  0.605000  0.808000  0.308200  1.0  0.7107
  C  C215  1  0.196000  0.946700  0.431500  1.0  0.68
  C  C216  1  0.959400  0.024500  0.422400  1.0  0.6609
  O  O217  1  0.666667  0.700200  0.375470  1.0  -0.6675
  O  O218  1  0.422300  0.686290  0.332390  1.0  -0.7637
  O  O219  1  0.060500  0.738820  0.326410  1.0  -0.8234
  O  O220  1  0.018200  0.659160  0.366890  1.0  -0.6078
  O  O221  1  0.981400  0.650900  0.655240  1.0  -0.5504
  O  O222  1  0.945200  0.657100  0.579940  1.0  -0.5136
  O  O223  1  0.067800  0.780300  0.729450  1.0  -0.7598
  O  O224  1  0.830600  0.766100  0.684000  1.0  -0.6733
  O  O225  1  0.150500  0.638110  0.270320  1.0  -0.7396
  O  O226  1  0.903400  0.594500  0.242320  1.0  -0.6603
  O  O227  1  0.513100  0.665960  0.235590  1.0  -0.844
  O  O228  1  0.553700  0.585500  0.274050  1.0  -0.6145
  O  O229  1  0.116700  0.330800  0.242300  1.0  -0.6157
  O  O230  1  0.842800  0.352600  0.269240  1.0  -0.4828
  O  O231  1  0.665900  0.264180  0.212100  1.0  -0.7935
  O  O232  1  0.438100  0.316600  0.188250  1.0  -0.6518
  O  O233  1  0.333333  0.799800  0.875470  1.0  -0.671
  O  O234  1  0.577700  0.813710  0.832390  1.0  -0.7628
  O  O235  1  0.939500  0.761180  0.826410  1.0  -0.823
  O  O236  1  0.981800  0.840840  0.866890  1.0  -0.6072
  O  O237  1  0.018600  0.849100  0.155240  1.0  -0.5496
  O  O238  1  0.054800  0.842900  0.079940  1.0  -0.5125
  O  O239  1  0.932200  0.719700  0.229450  1.0  -0.7598
  O  O240  1  0.169400  0.733900  0.184000  1.0  -0.6691
  O  O241  1  0.849500  0.861890  0.770320  1.0  -0.742
  O  O242  1  0.096600  0.905500  0.742320  1.0  -0.6588
  O  O243  1  0.486900  0.834040  0.735590  1.0  -0.8446
  O  O244  1  0.446300  0.914500  0.774050  1.0  -0.6129
  O  O245  1  0.883300  0.169200  0.742300  1.0  -0.6155
  O  O246  1  0.157200  0.147400  0.769240  1.0  -0.4813
  O  O247  1  0.334100  0.235820  0.712100  1.0  -0.7929
  O  O248  1  0.561900  0.183400  0.688250  1.0  -0.6488
  O  O249  1  0.333333  0.299800  0.624530  1.0  -0.6723
  O  O250  1  0.577700  0.313710  0.667610  1.0  -0.7639
  O  O251  1  0.939500  0.261180  0.673590  1.0  -0.8239
  O  O252  1  0.981800  0.340840  0.633110  1.0  -0.6063
  O  O253  1  0.018600  0.349100  0.344760  1.0  -0.5489
  O  O254  1  0.054800  0.342900  0.420060  1.0  -0.5145
  O  O255  1  0.932200  0.219700  0.270550  1.0  -0.7593
  O  O256  1  0.169400  0.233900  0.316000  1.0  -0.6699
  O  O257  1  0.849500  0.361890  0.729680  1.0  -0.7437
  O  O258  1  0.096600  0.405500  0.757680  1.0  -0.6612
  O  O259  1  0.486900  0.334040  0.764410  1.0  -0.8443
  O  O260  1  0.446300  0.414500  0.725950  1.0  -0.6147
  O  O261  1  0.883300  0.669200  0.757700  1.0  -0.6165
  O  O262  1  0.157200  0.647400  0.730760  1.0  -0.4809
  O  O263  1  0.334100  0.735820  0.787900  1.0  -0.7928
  O  O264  1  0.561900  0.683400  0.811750  1.0  -0.6492
  O  O265  1  0.666667  0.200200  0.124530  1.0  -0.6678
  O  O266  1  0.422300  0.186290  0.167610  1.0  -0.7641
  O  O267  1  0.060500  0.238820  0.173590  1.0  -0.8239
  O  O268  1  0.018200  0.159160  0.133110  1.0  -0.6077
  O  O269  1  0.981400  0.150900  0.844760  1.0  -0.5494
  O  O270  1  0.945200  0.157100  0.920060  1.0  -0.5145
  O  O271  1  0.067800  0.280300  0.770550  1.0  -0.7593
  O  O272  1  0.830600  0.266100  0.816000  1.0  -0.6724
  O  O273  1  0.150500  0.138110  0.229680  1.0  -0.7425
  O  O274  1  0.903400  0.094500  0.257680  1.0  -0.6612
  O  O275  1  0.513100  0.165960  0.264410  1.0  -0.8436
  O  O276  1  0.553700  0.085500  0.225950  1.0  -0.615
  O  O277  1  0.116700  0.830800  0.257700  1.0  -0.6159
  O  O278  1  0.842800  0.852600  0.230760  1.0  -0.4821
  O  O279  1  0.665900  0.764180  0.287900  1.0  -0.794
  O  O280  1  0.438100  0.816600  0.311750  1.0  -0.6514
  F  F281  1  0.398500  0.887590  0.518480  1.0  -0.188
  F  F282  1  0.651100  0.869200  0.551640  1.0  -0.1914
  F  F283  1  0.621600  0.854800  0.479400  1.0  -0.1956
  F  F284  1  0.774100  0.758900  0.512940  1.0  -0.1968
  F  F285  1  0.581900  0.694300  0.537030  1.0  -0.1989
  F  F286  1  0.685600  0.760000  0.582990  1.0  -0.1888
  F  F287  1  0.299900  0.483260  0.043870  1.0  -0.2001
  F  F288  1  0.306700  0.411090  0.090080  1.0  -0.1791
  F  F289  1  0.096100  0.415470  0.039540  1.0  -0.1936
  F  F290  1  0.057500  0.570440  0.065760  1.0  -0.197
  F  F291  1  0.885600  0.503640  0.038990  1.0  -0.2044
  F  F292  1  0.822000  0.542290  0.103300  1.0  -0.1831
  F  F293  1  0.601500  0.612410  0.018480  1.0  -0.1887
  F  F294  1  0.348900  0.630800  0.051640  1.0  -0.1898
  F  F295  1  0.378400  0.645200  0.979400  1.0  -0.1962
  F  F296  1  0.225900  0.741100  0.012940  1.0  -0.1964
  F  F297  1  0.418100  0.805700  0.037030  1.0  -0.1985
  F  F298  1  0.314400  0.740000  0.082990  1.0  -0.1894
  F  F299  1  0.700100  0.016740  0.543870  1.0  -0.2002
  F  F300  1  0.693300  0.088910  0.590080  1.0  -0.1802
  F  F301  1  0.903900  0.084530  0.539540  1.0  -0.1942
  F  F302  1  0.942500  0.929560  0.565760  1.0  -0.197
  F  F303  1  0.114400  0.996360  0.538990  1.0  -0.2035
  F  F304  1  0.178000  0.957710  0.603300  1.0  -0.1828
  F  F305  1  0.601500  0.112410  0.481520  1.0  -0.1887
  F  F306  1  0.348900  0.130800  0.448360  1.0  -0.1901
  F  F307  1  0.378400  0.145200  0.520600  1.0  -0.1965
  F  F308  1  0.225900  0.241100  0.487060  1.0  -0.1964
  F  F309  1  0.418100  0.305700  0.462970  1.0  -0.199
  F  F310  1  0.314400  0.240000  0.417010  1.0  -0.19
  F  F311  1  0.700100  0.516740  0.956130  1.0  -0.1999
  F  F312  1  0.693300  0.588910  0.909920  1.0  -0.1801
  F  F313  1  0.903900  0.584530  0.960460  1.0  -0.1946
  F  F314  1  0.942500  0.429560  0.934240  1.0  -0.1962
  F  F315  1  0.114400  0.496360  0.961010  1.0  -0.2044
  F  F316  1  0.178000  0.457710  0.896700  1.0  -0.1825
  F  F317  1  0.398500  0.387590  0.981520  1.0  -0.1882
  F  F318  1  0.651100  0.369200  0.948360  1.0  -0.1911
  F  F319  1  0.621600  0.354800  0.020600  1.0  -0.1963
  F  F320  1  0.774100  0.258900  0.987060  1.0  -0.1961
  F  F321  1  0.581900  0.194300  0.962970  1.0  -0.1994
  F  F322  1  0.685600  0.260000  0.917010  1.0  -0.1903
  F  F323  1  0.299900  0.983260  0.456130  1.0  -0.2005
  F  F324  1  0.306700  0.911090  0.409920  1.0  -0.179
  F  F325  1  0.096100  0.915470  0.460460  1.0  -0.1937
  F  F326  1  0.057500  0.070440  0.434240  1.0  -0.1971
  F  F327  1  0.885600  0.003640  0.461010  1.0  -0.2053
  F  F328  1  0.822000  0.042290  0.396700  1.0  -0.1829
