# generated using pymatgen
data_Y4H18C57(O4F3)6
_symmetry_space_group_name_H-M   'P 1'
_cell_length_a   8.09540000
_cell_length_b   21.25900000
_cell_length_c   22.81490000
_cell_angle_alpha   82.52000000
_cell_angle_beta   82.39400000
_cell_angle_gamma   79.97200000
_symmetry_Int_Tables_number   1
_chemical_formula_structural   Y4H18C57(O4F3)6
_chemical_formula_sum   'Y8 H36 C114 O48 F36'
_cell_volume   3809.28800979
_cell_formula_units_Z   2
loop_
 _symmetry_equiv_pos_site_id
 _symmetry_equiv_pos_as_xyz
  1  'x, y, z'
loop_
 _atom_site_type_symbol
 _atom_site_label
 _atom_site_symmetry_multiplicity
 _atom_site_fract_x
 _atom_site_fract_y
 _atom_site_fract_z
 _atom_site_occupancy
 _atom_site_charge
  Y  Y1  1  0.802070  0.424600  0.284000  1.0  2.1269
  Y  Y2  1  0.386430  0.471180  0.433090  1.0  2.0498
  Y  Y3  1  0.464330  0.249090  0.095610  1.0  2.1628
  Y  Y4  1  0.239570  0.093400  0.036350  1.0  2.1054
  Y  Y5  1  0.197930  0.575400  0.716000  1.0  2.1284
  Y  Y6  1  0.613570  0.528820  0.566910  1.0  2.0487
  Y  Y7  1  0.535670  0.750910  0.904390  1.0  2.1621
  Y  Y8  1  0.760430  0.906600  0.963650  1.0  2.1054
  H  H9  1  0.559200  0.645900  0.253400  1.0  0.1089
  H  H10  1  0.533400  0.714500  0.437900  1.0  0.0968
  H  H11  1  0.443100  0.785800  0.360600  1.0  0.112
  H  H12  1  0.402600  0.769400  0.125500  1.0  0.1084
  H  H13  1  0.968400  0.747900  0.151300  1.0  0.1004
  H  H14  1  0.767700  0.746300  0.233000  1.0  0.1053
  H  H15  1  0.338800  0.282300  0.430700  1.0  0.1081
  H  H16  1  0.336600  0.186400  0.260300  1.0  0.0966
  H  H17  1  0.236900  0.137300  0.351500  1.0  0.1065
  H  H18  1  0.979800  0.270600  0.415900  1.0  0.1092
  H  H19  1  0.981900  0.310900  0.609700  1.0  0.1088
  H  H20  1  0.137500  0.217200  0.577400  1.0  0.1138
  H  H21  1  0.649200  0.089700  0.216800  1.0  0.106
  H  H22  1  0.844400  0.885600  0.163700  1.0  0.0977
  H  H23  1  0.898800  0.912100  0.253200  1.0  0.1064
  H  H24  1  0.032600  0.072900  0.214900  1.0  0.1004
  H  H25  1  0.774100  0.245600  0.314100  1.0  0.0981
  H  H26  1  0.718600  0.144000  0.350500  1.0  0.1103
  H  H27  1  0.440800  0.354100  0.746600  1.0  0.109
  H  H28  1  0.466600  0.285500  0.562100  1.0  0.0975
  H  H29  1  0.556900  0.214200  0.639400  1.0  0.1123
  H  H30  1  0.597400  0.230600  0.874500  1.0  0.1073
  H  H31  1  0.031600  0.252100  0.848700  1.0  0.101
  H  H32  1  0.232300  0.253700  0.767000  1.0  0.1062
  H  H33  1  0.661200  0.717700  0.569300  1.0  0.1084
  H  H34  1  0.663400  0.813600  0.739700  1.0  0.0953
  H  H35  1  0.763100  0.862700  0.648500  1.0  0.1068
  H  H36  1  0.020200  0.729400  0.584100  1.0  0.1077
  H  H37  1  0.018100  0.689100  0.390300  1.0  0.1091
  H  H38  1  0.862500  0.782800  0.422600  1.0  0.114
  H  H39  1  0.350800  0.910300  0.783200  1.0  0.106
  H  H40  1  0.155600  0.114400  0.836300  1.0  0.0981
  H  H41  1  0.101200  0.087900  0.746800  1.0  0.1064
  H  H42  1  0.967400  0.927100  0.785100  1.0  0.1
  H  H43  1  0.225900  0.754400  0.685900  1.0  0.0981
  H  H44  1  0.281400  0.856000  0.649500  1.0  0.1109
  C  C45  1  0.433800  0.768890  0.243980  1.0  -0.2901
  C  C46  1  0.491200  0.723840  0.297960  1.0  0.0753
  C  C47  1  0.549100  0.659310  0.291050  1.0  -0.1137
  C  C48  1  0.592400  0.614380  0.338770  1.0  -0.0636
  C  C49  1  0.584400  0.635580  0.394960  1.0  -0.1078
  C  C50  1  0.533400  0.700100  0.401170  1.0  -0.0275
  C  C51  1  0.483200  0.743180  0.354560  1.0  -0.1466
  C  C52  1  0.654000  0.546080  0.326380  1.0  0.7394
  C  C53  1  0.620000  0.591300  0.449750  1.0  0.6937
  C  C54  1  0.563000  0.760970  0.188030  1.0  0.0584
  C  C55  1  0.515600  0.766780  0.130790  1.0  -0.0821
  C  C56  1  0.637300  0.768590  0.081420  1.0  -0.1014
  C  C57  1  0.806300  0.764400  0.088520  1.0  -0.0603
  C  C58  1  0.854500  0.754000  0.145980  1.0  -0.0615
  C  C59  1  0.734000  0.752750  0.195000  1.0  -0.1095
  C  C60  1  0.583000  0.772260  0.020790  1.0  0.7295
  C  C61  1  0.941400  0.773490  0.037030  1.0  0.7089
  C  C62  1  0.257600  0.755570  0.234780  1.0  0.6914
  C  C63  1  0.415700  0.841340  0.253990  1.0  0.6828
  C  C64  1  0.198600  0.179630  0.463510  1.0  -0.3032
  C  C65  1  0.272400  0.205410  0.401020  1.0  0.067
  C  C66  1  0.336300  0.263370  0.396360  1.0  -0.0965
  C  C67  1  0.395300  0.292780  0.342060  1.0  -0.0766
  C  C68  1  0.390500  0.264960  0.289470  1.0  -0.0909
  C  C69  1  0.334500  0.206350  0.294420  1.0  -0.0327
  C  C70  1  0.274900  0.176480  0.349330  1.0  -0.1261
  C  C71  1  0.466800  0.353920  0.341090  1.0  0.7545
  C  C72  1  0.424600  0.301840  0.229140  1.0  0.7403
  C  C73  1  0.083400  0.235760  0.491740  1.0  0.0701
  C  C74  1  0.982700  0.279240  0.454650  1.0  -0.0967
  C  C75  1  0.887300  0.334640  0.474020  1.0  -0.0747
  C  C76  1  0.893300  0.348200  0.532100  1.0  -0.0746
  C  C77  1  0.984000  0.303290  0.570360  1.0  -0.029
  C  C78  1  0.078300  0.247050  0.551030  1.0  -0.1433
  C  C79  1  0.781700  0.378410  0.430790  1.0  0.7722
  C  C80  1  0.819500  0.412710  0.549910  1.0  0.6536
  C  C81  1  0.349600  0.150490  0.498780  1.0  0.6901
  C  C82  1  0.091600  0.126640  0.462940  1.0  0.6918
  C  C83  1  0.825900  0.028350  0.300550  1.0  -0.3023
  C  C84  1  0.785400  0.004740  0.243720  1.0  0.0547
  C  C85  1  0.690600  0.048770  0.205760  1.0  -0.0771
  C  C86  1  0.655500  0.033400  0.151320  1.0  -0.1571
  C  C87  1  0.716600  0.971380  0.135360  1.0  -0.0204
  C  C88  1  0.805900  0.927040  0.173960  1.0  -0.0978
  C  C89  1  0.839500  0.942960  0.227680  1.0  -0.1214
  C  C90  1  0.567900  0.085250  0.110530  1.0  0.755
  C  C91  1  0.716700  0.954100  0.073540  1.0  0.6727
  C  C92  1  0.864400  0.097140  0.284990  1.0  0.0609
  C  C93  1  0.978300  0.107780  0.234450  1.0  -0.087
  C  C94  1  0.013000  0.168350  0.212580  1.0  -0.117
  C  C95  1  0.928500  0.221950  0.241010  1.0  -0.0703
  C  C96  1  0.823600  0.210980  0.293320  1.0  -0.0394
  C  C97  1  0.790100  0.149820  0.315530  1.0  -0.1378
  C  C98  1  0.145200  0.173110  0.159820  1.0  0.7913
  C  C99  1  0.930100  0.289940  0.213000  1.0  0.7353
  C  C100  1  0.671000  0.022640  0.347030  1.0  0.6901
  C  C101  1  0.982100  0.986760  0.326430  1.0  0.6971
  C  C102  1  0.566200  0.231110  0.756020  1.0  -0.289
  C  C103  1  0.508800  0.276160  0.702040  1.0  0.0745
  C  C104  1  0.450900  0.340690  0.708950  1.0  -0.1142
  C  C105  1  0.407600  0.385620  0.661230  1.0  -0.0606
  C  C106  1  0.415600  0.364420  0.605040  1.0  -0.1108
  C  C107  1  0.466600  0.299900  0.598830  1.0  -0.0357
  C  C108  1  0.516800  0.256820  0.645440  1.0  -0.1459
  C  C109  1  0.346000  0.453920  0.673620  1.0  0.7433
  C  C110  1  0.380000  0.408700  0.550250  1.0  0.6937
  C  C111  1  0.437000  0.239030  0.811970  1.0  0.0583
  C  C112  1  0.484400  0.233220  0.869210  1.0  -0.0792
  C  C113  1  0.362700  0.231410  0.918580  1.0  -0.0966
  C  C114  1  0.193700  0.235600  0.911480  1.0  -0.0586
  C  C115  1  0.145500  0.246000  0.854020  1.0  -0.0614
  C  C116  1  0.266000  0.247250  0.805000  1.0  -0.1161
  C  C117  1  0.417000  0.227740  0.979210  1.0  0.7306
  C  C118  1  0.058600  0.226510  0.962970  1.0  0.7077
  C  C119  1  0.742400  0.244430  0.765220  1.0  0.6896
  C  C120  1  0.584300  0.158660  0.746010  1.0  0.6842
  C  C121  1  0.801400  0.820370  0.536490  1.0  -0.3046
  C  C122  1  0.727600  0.794590  0.598980  1.0  0.0674
  C  C123  1  0.663700  0.736630  0.603640  1.0  -0.0962
  C  C124  1  0.604700  0.707220  0.657940  1.0  -0.0774
  C  C125  1  0.609500  0.735040  0.710530  1.0  -0.0925
  C  C126  1  0.665500  0.793650  0.705580  1.0  -0.0272
  C  C127  1  0.725100  0.823520  0.650670  1.0  -0.1261
  C  C128  1  0.533200  0.646080  0.658910  1.0  0.7386
  C  C129  1  0.575400  0.698160  0.770860  1.0  0.7402
  C  C130  1  0.916600  0.764240  0.508260  1.0  0.0685
  C  C131  1  0.017300  0.720760  0.545350  1.0  -0.0984
  C  C132  1  0.112700  0.665360  0.525980  1.0  -0.0759
  C  C133  1  0.106700  0.651800  0.467900  1.0  -0.0756
  C  C134  1  0.016000  0.696710  0.429640  1.0  -0.0271
  C  C135  1  0.921700  0.752950  0.448970  1.0  -0.1423
  C  C136  1  0.218300  0.621590  0.569210  1.0  0.7735
  C  C137  1  0.180500  0.587290  0.450090  1.0  0.6532
  C  C138  1  0.650400  0.849510  0.501220  1.0  0.691
  C  C139  1  0.908400  0.873360  0.537060  1.0  0.6921
  C  C140  1  0.174100  0.971650  0.699450  1.0  -0.3042
  C  C141  1  0.214600  0.995260  0.756280  1.0  0.0553
  C  C142  1  0.309400  0.951230  0.794240  1.0  -0.0752
  C  C143  1  0.344500  0.966600  0.848680  1.0  -0.1557
  C  C144  1  0.283400  0.028620  0.864640  1.0  -0.0211
  C  C145  1  0.194100  0.072960  0.826040  1.0  -0.092
  C  C146  1  0.160500  0.057040  0.772320  1.0  -0.1231
  C  C147  1  0.432100  0.914750  0.889470  1.0  0.754
  C  C148  1  0.283300  0.045900  0.926460  1.0  0.6729
  C  C149  1  0.135600  0.902860  0.715010  1.0  0.0609
  C  C150  1  0.021700  0.892220  0.765550  1.0  -0.0877
  C  C151  1  0.987000  0.831650  0.787420  1.0  -0.1168
  C  C152  1  0.071500  0.778050  0.758990  1.0  -0.0714
  C  C153  1  0.176400  0.789020  0.706680  1.0  -0.0357
  C  C154  1  0.209900  0.850180  0.684470  1.0  -0.1386
  C  C155  1  0.854800  0.826890  0.840180  1.0  0.7911
  C  C156  1  0.069900  0.710060  0.787000  1.0  0.7335
  C  C157  1  0.329000  0.977360  0.652970  1.0  0.69
  C  C158  1  0.017900  0.013240  0.673570  1.0  0.6959
  O  O159  1  0.794800  0.534920  0.295270  1.0  -0.6772
  O  O160  1  0.569300  0.501210  0.343280  1.0  -0.7574
  O  O161  1  0.564100  0.538090  0.458040  1.0  -0.7335
  O  O162  1  0.692700  0.608690  0.488660  1.0  -0.6104
  O  O163  1  0.649300  0.806960  0.977410  1.0  -0.7951
  O  O164  1  0.478100  0.737910  0.011800  1.0  -0.664
  O  O165  1  0.943700  0.830990  0.013640  1.0  -0.7418
  O  O166  1  0.046500  0.726850  0.022340  1.0  -0.5624
  O  O167  1  0.611700  0.355610  0.313800  1.0  -0.7058
  O  O168  1  0.379100  0.397080  0.369300  1.0  -0.6866
  O  O169  1  0.497800  0.270810  0.187040  1.0  -0.7751
  O  O170  1  0.371600  0.361140  0.224230  1.0  -0.605
  O  O171  1  0.857200  0.393050  0.379190  1.0  -0.7292
  O  O172  1  0.630100  0.396270  0.447020  1.0  -0.6672
  O  O173  1  0.749500  0.420580  0.602130  1.0  -0.6353
  O  O174  1  0.826100  0.460540  0.510040  1.0  -0.6252
  O  O175  1  0.559800  0.142080  0.120650  1.0  -0.7023
  O  O176  1  0.509400  0.067720  0.066690  1.0  -0.7073
  O  O177  1  0.612500  0.921230  0.061250  1.0  -0.6334
  O  O178  1  0.834400  0.969650  0.035390  1.0  -0.6602
  O  O179  1  0.236100  0.214980  0.156280  1.0  -0.697
  O  O180  1  0.159700  0.131190  0.124290  1.0  -0.7345
  O  O181  1  0.931400  0.332550  0.246450  1.0  -0.7838
  O  O182  1  0.920700  0.300790  0.157550  1.0  -0.6014
  O  O183  1  0.205200  0.465080  0.704730  1.0  -0.6736
  O  O184  1  0.430700  0.498790  0.656720  1.0  -0.7516
  O  O185  1  0.435900  0.461910  0.541960  1.0  -0.7366
  O  O186  1  0.307300  0.391310  0.511340  1.0  -0.61
  O  O187  1  0.350700  0.193040  0.022590  1.0  -0.7954
  O  O188  1  0.521900  0.262090  0.988200  1.0  -0.6648
  O  O189  1  0.056300  0.169010  0.986360  1.0  -0.7423
  O  O190  1  0.953500  0.273150  0.977660  1.0  -0.5654
  O  O191  1  0.388300  0.644390  0.686200  1.0  -0.7055
  O  O192  1  0.620900  0.602920  0.630700  1.0  -0.6827
  O  O193  1  0.502200  0.729190  0.812960  1.0  -0.7817
  O  O194  1  0.628400  0.638860  0.775770  1.0  -0.6046
  O  O195  1  0.142800  0.606950  0.620810  1.0  -0.7278
  O  O196  1  0.369900  0.603730  0.552980  1.0  -0.6677
  O  O197  1  0.250500  0.579420  0.397870  1.0  -0.6306
  O  O198  1  0.173900  0.539460  0.489960  1.0  -0.6257
  O  O199  1  0.440200  0.857920  0.879350  1.0  -0.7047
  O  O200  1  0.490600  0.932280  0.933310  1.0  -0.7072
  O  O201  1  0.387500  0.078770  0.938750  1.0  -0.6324
  O  O202  1  0.165600  0.030350  0.964610  1.0  -0.6619
  O  O203  1  0.763900  0.785020  0.843720  1.0  -0.6967
  O  O204  1  0.840300  0.868810  0.875710  1.0  -0.742
  O  O205  1  0.068600  0.667450  0.753550  1.0  -0.7863
  O  O206  1  0.079300  0.699210  0.842450  1.0  -0.604
  F  F207  1  0.157100  0.751660  0.286390  1.0  -0.203
  F  F208  1  0.174600  0.801690  0.198220  1.0  -0.2029
  F  F209  1  0.268800  0.700450  0.211710  1.0  -0.1875
  F  F210  1  0.286200  0.857670  0.295360  1.0  -0.2075
  F  F211  1  0.554600  0.853360  0.272750  1.0  -0.1868
  F  F212  1  0.388800  0.879980  0.204520  1.0  -0.1972
  F  F213  1  0.432500  0.196340  0.510060  1.0  -0.1975
  F  F214  1  0.462000  0.109640  0.468020  1.0  -0.2051
  F  F215  1  0.305000  0.118630  0.551040  1.0  -0.1977
  F  F216  1  0.010500  0.112490  0.516560  1.0  -0.2086
  F  F217  1  0.182800  0.072030  0.445910  1.0  -0.1972
  F  F218  1  0.973100  0.145780  0.425730  1.0  -0.198
  F  F219  1  0.624700  0.964650  0.351600  1.0  -0.2061
  F  F220  1  0.537000  0.065510  0.331180  1.0  -0.1932
  F  F221  1  0.696500  0.032770  0.401440  1.0  -0.1968
  F  F222  1  0.955600  0.927630  0.349570  1.0  -0.1962
  F  F223  1  0.112900  0.979730  0.284020  1.0  -0.1963
  F  F224  1  0.030500  0.014320  0.368900  1.0  -0.1992
  F  F225  1  0.842900  0.248340  0.713610  1.0  -0.203
  F  F226  1  0.825400  0.198310  0.801780  1.0  -0.2018
  F  F227  1  0.731200  0.299550  0.788290  1.0  -0.1853
  F  F228  1  0.713800  0.142330  0.704640  1.0  -0.2082
  F  F229  1  0.445400  0.146640  0.727250  1.0  -0.1867
  F  F230  1  0.611200  0.120020  0.795480  1.0  -0.1972
  F  F231  1  0.567500  0.803660  0.489940  1.0  -0.196
  F  F232  1  0.538000  0.890360  0.531980  1.0  -0.2044
  F  F233  1  0.695000  0.881370  0.448960  1.0  -0.1974
  F  F234  1  0.989500  0.887510  0.483440  1.0  -0.2099
  F  F235  1  0.817200  0.927970  0.554090  1.0  -0.1988
  F  F236  1  0.026900  0.854220  0.574270  1.0  -0.1975
  F  F237  1  0.375300  0.035350  0.648400  1.0  -0.2073
  F  F238  1  0.463000  0.934490  0.668820  1.0  -0.1951
  F  F239  1  0.303500  0.967230  0.598560  1.0  -0.1953
  F  F240  1  0.044400  0.072370  0.650430  1.0  -0.1971
  F  F241  1  0.887100  0.020270  0.715980  1.0  -0.1956
  F  F242  1  0.969500  0.985680  0.631100  1.0  -0.1989
