# generated using pymatgen
data_Yb4H18C57(O4F3)6
_symmetry_space_group_name_H-M   'P 1'
_cell_length_a   8.06590000
_cell_length_b   21.26210000
_cell_length_c   22.71820000
_cell_angle_alpha   82.91900000
_cell_angle_beta   82.36900000
_cell_angle_gamma   80.02500000
_symmetry_Int_Tables_number   1
_chemical_formula_structural   Yb4H18C57(O4F3)6
_chemical_formula_sum   'Yb8 H36 C114 O48 F36'
_cell_volume   3783.12846888
_cell_formula_units_Z   2
loop_
 _symmetry_equiv_pos_site_id
 _symmetry_equiv_pos_as_xyz
  1  'x, y, z'
loop_
 _atom_site_type_symbol
 _atom_site_label
 _atom_site_symmetry_multiplicity
 _atom_site_fract_x
 _atom_site_fract_y
 _atom_site_fract_z
 _atom_site_occupancy
 _atom_site_charge
  Yb  Yb1  1  0.802410  0.422910  0.284410  1.0  1.5969
  Yb  Yb2  1  0.387140  0.470820  0.433050  1.0  1.4849
  Yb  Yb3  1  0.462760  0.246930  0.096100  1.0  1.6074
  Yb  Yb4  1  0.239530  0.092790  0.037100  1.0  1.5589
  Yb  Yb5  1  0.197590  0.577090  0.715590  1.0  1.5956
  Yb  Yb6  1  0.612860  0.529180  0.566950  1.0  1.4852
  Yb  Yb7  1  0.537240  0.753070  0.903910  1.0  1.6039
  Yb  Yb8  1  0.760470  0.907210  0.962900  1.0  1.5584
  H  H9  1  0.564100  0.644200  0.252600  1.0  0.1181
  H  H10  1  0.538900  0.712900  0.438800  1.0  0.1051
  H  H11  1  0.447300  0.784600  0.361200  1.0  0.1186
  H  H12  1  0.402400  0.771300  0.125100  1.0  0.119
  H  H13  1  0.971100  0.747200  0.149900  1.0  0.109
  H  H14  1  0.768600  0.746100  0.232100  1.0  0.1118
  H  H15  1  0.340200  0.282100  0.431100  1.0  0.1191
  H  H16  1  0.338000  0.185300  0.260200  1.0  0.1078
  H  H17  1  0.235600  0.137800  0.351500  1.0  0.1096
  H  H18  1  0.977600  0.270400  0.415600  1.0  0.1159
  H  H19  1  0.979400  0.313800  0.610400  1.0  0.1193
  H  H20  1  0.133600  0.219000  0.578200  1.0  0.1142
  H  H21  1  0.646700  0.089000  0.217700  1.0  0.1147
  H  H22  1  0.847400  0.885300  0.162800  1.0  0.1112
  H  H23  1  0.896600  0.911300  0.253200  1.0  0.1104
  H  H24  1  0.038600  0.071500  0.216200  1.0  0.1142
  H  H25  1  0.775400  0.244600  0.315800  1.0  0.1032
  H  H26  1  0.718600  0.143200  0.351600  1.0  0.1187
  H  H27  1  0.435900  0.355800  0.747400  1.0  0.1181
  H  H28  1  0.461100  0.287100  0.561200  1.0  0.1062
  H  H29  1  0.552700  0.215400  0.638800  1.0  0.1188
  H  H30  1  0.597600  0.228700  0.874900  1.0  0.1185
  H  H31  1  0.028900  0.252800  0.850100  1.0  0.11
  H  H32  1  0.231400  0.253900  0.767900  1.0  0.1132
  H  H33  1  0.659800  0.717900  0.568900  1.0  0.1199
  H  H34  1  0.662000  0.814700  0.739800  1.0  0.1069
  H  H35  1  0.764400  0.862200  0.648500  1.0  0.1101
  H  H36  1  0.022400  0.729600  0.584400  1.0  0.1143
  H  H37  1  0.020600  0.686200  0.389600  1.0  0.1199
  H  H38  1  0.866400  0.781000  0.421800  1.0  0.1146
  H  H39  1  0.353300  0.911000  0.782300  1.0  0.1147
  H  H40  1  0.152600  0.114700  0.837200  1.0  0.1117
  H  H41  1  0.103400  0.088700  0.746800  1.0  0.1103
  H  H42  1  0.961400  0.928500  0.783800  1.0  0.1143
  H  H43  1  0.224600  0.755400  0.684200  1.0  0.103
  H  H44  1  0.281400  0.856800  0.648400  1.0  0.1192
  C  C45  1  0.436500  0.767200  0.244100  1.0  -0.2845
  C  C46  1  0.496600  0.722600  0.297300  1.0  0.0748
  C  C47  1  0.553300  0.657800  0.290500  1.0  -0.108
  C  C48  1  0.594400  0.612600  0.338300  1.0  -0.018
  C  C49  1  0.587400  0.633400  0.395100  1.0  -0.0857
  C  C50  1  0.537900  0.698500  0.401800  1.0  -0.0417
  C  C51  1  0.487600  0.742000  0.354800  1.0  -0.1369
  C  C52  1  0.654400  0.544500  0.325800  1.0  0.7163
  C  C53  1  0.620300  0.589700  0.449400  1.0  0.6821
  C  C54  1  0.565900  0.760800  0.187700  1.0  0.0731
  C  C55  1  0.516300  0.768100  0.130100  1.0  -0.0772
  C  C56  1  0.638000  0.770500  0.080000  1.0  -0.0515
  C  C57  1  0.809200  0.766300  0.086800  1.0  -0.049
  C  C58  1  0.856900  0.754300  0.144400  1.0  -0.0447
  C  C59  1  0.734500  0.752800  0.194000  1.0  -0.1086
  C  C60  1  0.584400  0.774600  0.019800  1.0  0.6954
  C  C61  1  0.943100  0.775500  0.035400  1.0  0.6798
  C  C62  1  0.261800  0.752500  0.235300  1.0  0.7019
  C  C63  1  0.417400  0.839300  0.255100  1.0  0.6899
  C  C64  1  0.197600  0.180100  0.463500  1.0  -0.2946
  C  C65  1  0.273300  0.205500  0.401300  1.0  0.0839
  C  C66  1  0.337100  0.263000  0.396600  1.0  -0.0903
  C  C67  1  0.395600  0.292200  0.342200  1.0  -0.0554
  C  C68  1  0.392700  0.263300  0.290000  1.0  -0.0721
  C  C69  1  0.335800  0.205400  0.294500  1.0  -0.0222
  C  C70  1  0.275300  0.176700  0.349300  1.0  -0.1077
  C  C71  1  0.468400  0.353600  0.341500  1.0  0.7311
  C  C72  1  0.425200  0.300800  0.229700  1.0  0.6871
  C  C73  1  0.081900  0.236400  0.492000  1.0  0.09
  C  C74  1  0.981100  0.279600  0.454400  1.0  -0.0905
  C  C75  1  0.886500  0.335700  0.473600  1.0  -0.0546
  C  C76  1  0.889900  0.350200  0.531700  1.0  -0.0669
  C  C77  1  0.981300  0.305600  0.571000  1.0  -0.0248
  C  C78  1  0.075300  0.248700  0.551500  1.0  -0.1214
  C  C79  1  0.780300  0.378900  0.430700  1.0  0.7402
  C  C80  1  0.816500  0.414400  0.549800  1.0  0.6151
  C  C81  1  0.350000  0.151900  0.499500  1.0  0.7001
  C  C82  1  0.090300  0.126900  0.463600  1.0  0.7089
  C  C83  1  0.825400  0.027300  0.300900  1.0  -0.2949
  C  C84  1  0.784600  0.003900  0.243600  1.0  0.0871
  C  C85  1  0.688600  0.048200  0.206200  1.0  -0.0643
  C  C86  1  0.654400  0.032600  0.152200  1.0  -0.1185
  C  C87  1  0.715000  0.971700  0.134400  1.0  -0.0118
  C  C88  1  0.807200  0.926500  0.173600  1.0  -0.0722
  C  C89  1  0.838600  0.942200  0.227400  1.0  -0.1229
  C  C90  1  0.565600  0.084800  0.111000  1.0  0.7382
  C  C91  1  0.716000  0.953800  0.072900  1.0  0.6365
  C  C92  1  0.864500  0.096700  0.285600  1.0  0.0841
  C  C93  1  0.981500  0.106600  0.235300  1.0  -0.0976
  C  C94  1  0.013800  0.167200  0.213600  1.0  -0.0896
  C  C95  1  0.927500  0.220300  0.243200  1.0  -0.0574
  C  C96  1  0.824400  0.209900  0.294700  1.0  -0.0181
  C  C97  1  0.790500  0.149000  0.316500  1.0  -0.1291
  C  C98  1  0.146800  0.171600  0.160300  1.0  0.7476
  C  C99  1  0.928700  0.289800  0.213100  1.0  0.7025
  C  C100  1  0.669800  0.021700  0.347900  1.0  0.7003
  C  C101  1  0.984100  0.985700  0.326100  1.0  0.698
  C  C102  1  0.563500  0.232800  0.755900  1.0  -0.2834
  C  C103  1  0.503400  0.277400  0.702700  1.0  0.0739
  C  C104  1  0.446700  0.342200  0.709500  1.0  -0.1077
  C  C105  1  0.405600  0.387400  0.661700  1.0  -0.0176
  C  C106  1  0.412600  0.366600  0.604900  1.0  -0.087
  C  C107  1  0.462100  0.301500  0.598200  1.0  -0.0433
  C  C108  1  0.512400  0.258000  0.645200  1.0  -0.1375
  C  C109  1  0.345600  0.455500  0.674200  1.0  0.7157
  C  C110  1  0.379700  0.410300  0.550600  1.0  0.6812
  C  C111  1  0.434100  0.239200  0.812300  1.0  0.0708
  C  C112  1  0.483700  0.231900  0.869900  1.0  -0.0759
  C  C113  1  0.362000  0.229500  0.920000  1.0  -0.0503
  C  C114  1  0.190800  0.233700  0.913200  1.0  -0.0468
  C  C115  1  0.143100  0.245700  0.855600  1.0  -0.0442
  C  C116  1  0.265500  0.247200  0.806000  1.0  -0.1087
  C  C117  1  0.415600  0.225400  0.980200  1.0  0.6964
  C  C118  1  0.056900  0.224500  0.964600  1.0  0.6806
  C  C119  1  0.738200  0.247500  0.764700  1.0  0.702
  C  C120  1  0.582600  0.160700  0.744900  1.0  0.6924
  C  C121  1  0.802400  0.819900  0.536500  1.0  -0.2963
  C  C122  1  0.726700  0.794500  0.598700  1.0  0.0841
  C  C123  1  0.662900  0.737000  0.603400  1.0  -0.0883
  C  C124  1  0.604400  0.707800  0.657800  1.0  -0.0561
  C  C125  1  0.607300  0.736700  0.710000  1.0  -0.0735
  C  C126  1  0.664200  0.794600  0.705500  1.0  -0.0213
  C  C127  1  0.724700  0.823300  0.650700  1.0  -0.1067
  C  C128  1  0.531600  0.646400  0.658500  1.0  0.7261
  C  C129  1  0.574800  0.699200  0.770300  1.0  0.6877
  C  C130  1  0.918100  0.763600  0.508000  1.0  0.089
  C  C131  1  0.018900  0.720400  0.545600  1.0  -0.0906
  C  C132  1  0.113500  0.664300  0.526400  1.0  -0.0557
  C  C133  1  0.110100  0.649800  0.468300  1.0  -0.068
  C  C134  1  0.018700  0.694400  0.429000  1.0  -0.0252
  C  C135  1  0.924700  0.751300  0.448500  1.0  -0.1223
  C  C136  1  0.219700  0.621100  0.569300  1.0  0.7397
  C  C137  1  0.183500  0.585600  0.450200  1.0  0.6174
  C  C138  1  0.650000  0.848100  0.500500  1.0  0.7013
  C  C139  1  0.909700  0.873100  0.536400  1.0  0.7103
  C  C140  1  0.174600  0.972700  0.699100  1.0  -0.2961
  C  C141  1  0.215400  0.996100  0.756400  1.0  0.0876
  C  C142  1  0.311400  0.951800  0.793800  1.0  -0.0616
  C  C143  1  0.345600  0.967400  0.847800  1.0  -0.1208
  C  C144  1  0.285000  0.028300  0.865600  1.0  -0.0123
  C  C145  1  0.192800  0.073500  0.826400  1.0  -0.0709
  C  C146  1  0.161400  0.057800  0.772600  1.0  -0.1221
  C  C147  1  0.434400  0.915200  0.889000  1.0  0.7361
  C  C148  1  0.284000  0.046200  0.927100  1.0  0.6362
  C  C149  1  0.135500  0.903300  0.714400  1.0  0.0838
  C  C150  1  0.018500  0.893400  0.764700  1.0  -0.0987
  C  C151  1  0.986200  0.832800  0.786400  1.0  -0.0878
  C  C152  1  0.072500  0.779700  0.756800  1.0  -0.0572
  C  C153  1  0.175600  0.790100  0.705300  1.0  -0.0183
  C  C154  1  0.209500  0.851000  0.683500  1.0  -0.1286
  C  C155  1  0.853200  0.828400  0.839700  1.0  0.7451
  C  C156  1  0.071300  0.710200  0.786900  1.0  0.6986
  C  C157  1  0.330200  0.978300  0.652100  1.0  0.6996
  C  C158  1  0.015900  0.014300  0.673900  1.0  0.6977
  O  O159  1  0.793300  0.531700  0.294000  1.0  -0.6513
  O  O160  1  0.568100  0.500100  0.343660  1.0  -0.732
  O  O161  1  0.562300  0.537100  0.457800  1.0  -0.6576
  O  O162  1  0.692500  0.607000  0.489030  1.0  -0.5734
  O  O163  1  0.648900  0.809300  0.976190  1.0  -0.7108
  O  O164  1  0.479000  0.740200  0.010200  1.0  -0.6532
  O  O165  1  0.942100  0.832800  0.010900  1.0  -0.7067
  O  O166  1  0.052100  0.729000  0.021400  1.0  -0.4151
  O  O167  1  0.614100  0.355100  0.314350  1.0  -0.6622
  O  O168  1  0.379600  0.397200  0.370000  1.0  -0.6171
  O  O169  1  0.498600  0.269200  0.186000  1.0  -0.6929
  O  O170  1  0.373300  0.360200  0.224400  1.0  -0.4558
  O  O171  1  0.857100  0.392800  0.378580  1.0  -0.6673
  O  O172  1  0.627300  0.397400  0.446530  1.0  -0.5637
  O  O173  1  0.746900  0.422500  0.602360  1.0  -0.5679
  O  O174  1  0.823900  0.461600  0.510000  1.0  -0.5471
  O  O175  1  0.557400  0.141500  0.121800  1.0  -0.6486
  O  O176  1  0.506900  0.067500  0.066700  1.0  -0.6379
  O  O177  1  0.610200  0.921900  0.059100  1.0  -0.5738
  O  O178  1  0.836100  0.969100  0.034100  1.0  -0.6062
  O  O179  1  0.238100  0.214200  0.156900  1.0  -0.6548
  O  O180  1  0.161800  0.129400  0.124800  1.0  -0.689
  O  O181  1  0.930000  0.331700  0.247400  1.0  -0.7167
  O  O182  1  0.917900  0.298700  0.158400  1.0  -0.4378
  O  O183  1  0.206700  0.468300  0.706000  1.0  -0.6491
  O  O184  1  0.431900  0.499900  0.656340  1.0  -0.7136
  O  O185  1  0.437700  0.462900  0.542200  1.0  -0.6671
  O  O186  1  0.307500  0.393000  0.510970  1.0  -0.5735
  O  O187  1  0.351100  0.190700  0.023810  1.0  -0.711
  O  O188  1  0.521000  0.259800  0.989800  1.0  -0.656
  O  O189  1  0.057900  0.167200  0.989100  1.0  -0.7078
  O  O190  1  0.947900  0.271000  0.978600  1.0  -0.4329
  O  O191  1  0.385900  0.644900  0.685650  1.0  -0.6641
  O  O192  1  0.620400  0.602800  0.630000  1.0  -0.6189
  O  O193  1  0.501400  0.730800  0.814000  1.0  -0.6912
  O  O194  1  0.626700  0.639800  0.775600  1.0  -0.4531
  O  O195  1  0.142900  0.607200  0.621420  1.0  -0.6661
  O  O196  1  0.372700  0.602600  0.553470  1.0  -0.5624
  O  O197  1  0.253100  0.577500  0.397640  1.0  -0.5633
  O  O198  1  0.176100  0.538400  0.490000  1.0  -0.5439
  O  O199  1  0.442600  0.858500  0.878200  1.0  -0.6484
  O  O200  1  0.493100  0.932500  0.933300  1.0  -0.6381
  O  O201  1  0.389800  0.078100  0.940900  1.0  -0.5726
  O  O202  1  0.163900  0.030900  0.965900  1.0  -0.6193
  O  O203  1  0.761900  0.785800  0.843100  1.0  -0.6553
  O  O204  1  0.838200  0.870600  0.875200  1.0  -0.6889
  O  O205  1  0.070000  0.668300  0.752600  1.0  -0.7333
  O  O206  1  0.082100  0.701300  0.841600  1.0  -0.4371
  F  F207  1  0.160800  0.747500  0.286600  1.0  -0.1933
  F  F208  1  0.176300  0.799500  0.198840  1.0  -0.2048
  F  F209  1  0.272600  0.698400  0.210370  1.0  -0.1797
  F  F210  1  0.286300  0.855600  0.296770  1.0  -0.1972
  F  F211  1  0.555800  0.852300  0.273870  1.0  -0.1758
  F  F212  1  0.387100  0.878400  0.206000  1.0  -0.1893
  F  F213  1  0.431900  0.196970  0.510790  1.0  -0.17
  F  F214  1  0.462400  0.109900  0.469000  1.0  -0.1956
  F  F215  1  0.302000  0.120300  0.552120  1.0  -0.2002
  F  F216  1  0.007600  0.113300  0.517270  1.0  -0.1995
  F  F217  1  0.180400  0.072420  0.446810  1.0  -0.1816
  F  F218  1  0.972300  0.145770  0.425940  1.0  -0.1916
  F  F219  1  0.623200  0.964090  0.351890  1.0  -0.1965
  F  F220  1  0.536900  0.064290  0.332420  1.0  -0.1822
  F  F221  1  0.696900  0.031800  0.402260  1.0  -0.1839
  F  F222  1  0.955300  0.926280  0.349710  1.0  -0.1979
  F  F223  1  0.114800  0.978140  0.283610  1.0  -0.181
  F  F224  1  0.031400  0.012500  0.369500  1.0  -0.1915
  F  F225  1  0.839200  0.252500  0.713400  1.0  -0.1932
  F  F226  1  0.823700  0.200500  0.801160  1.0  -0.2037
  F  F227  1  0.727400  0.301600  0.789630  1.0  -0.1766
  F  F228  1  0.713700  0.144400  0.703230  1.0  -0.1992
  F  F229  1  0.444200  0.147700  0.726130  1.0  -0.1759
  F  F230  1  0.612900  0.121600  0.794000  1.0  -0.189
  F  F231  1  0.568100  0.803030  0.489210  1.0  -0.1692
  F  F232  1  0.537600  0.890100  0.531000  1.0  -0.1952
  F  F233  1  0.698000  0.879700  0.447880  1.0  -0.2008
  F  F234  1  0.992400  0.886700  0.482730  1.0  -0.2011
  F  F235  1  0.819600  0.927580  0.553190  1.0  -0.1828
  F  F236  1  0.027700  0.854230  0.574060  1.0  -0.1914
  F  F237  1  0.376800  0.035910  0.648110  1.0  -0.1966
  F  F238  1  0.463100  0.935710  0.667580  1.0  -0.1846
  F  F239  1  0.303100  0.968200  0.597740  1.0  -0.1829
  F  F240  1  0.044700  0.073720  0.650290  1.0  -0.1978
  F  F241  1  0.885200  0.021860  0.716390  1.0  -0.1802
  F  F242  1  0.968600  0.987500  0.630500  1.0  -0.1908
