# generated using pymatgen
data_Co5H38C48(N3O7)2
_symmetry_space_group_name_H-M   'P 1'
_cell_length_a   10.97500000
_cell_length_b   12.13900000
_cell_length_c   13.72800000
_cell_angle_alpha   67.25000000
_cell_angle_beta   80.94000000
_cell_angle_gamma   70.26000000
_symmetry_Int_Tables_number   1
_chemical_formula_structural   Co5H38C48(N3O7)2
_chemical_formula_sum   'Co5 H38 C48 N6 O14'
_cell_volume   1586.75682237
_cell_formula_units_Z   1
loop_
 _symmetry_equiv_pos_site_id
 _symmetry_equiv_pos_as_xyz
  1  'x, y, z'
loop_
 _atom_site_type_symbol
 _atom_site_label
 _atom_site_symmetry_multiplicity
 _atom_site_fract_x
 _atom_site_fract_y
 _atom_site_fract_z
 _atom_site_occupancy
 _atom_site_charge
  Co  Co1  1  0.043000  0.405820  0.815000  1.0  0.7171
  Co  Co2  1  0.132020  0.671450  0.812490  1.0  0.8562
  Co  Co3  1  0.957000  0.594180  0.185000  1.0  0.7218
  Co  Co4  1  0.867980  0.328550  0.187510  1.0  0.8557
  Co  Co5  1  0.000000  0.500000  0.000000  1.0  1.0317
  H  H6  1  0.207500  0.464600  0.857400  1.0  0.4267
  H  H7  1  0.865500  0.716800  0.515300  1.0  0.0979
  H  H8  1  0.947000  0.900200  0.520200  1.0  0.088
  H  H9  1  0.789600  0.827200  0.350100  1.0  0.1137
  H  H10  1  0.728600  0.968000  0.180600  1.0  0.1108
  H  H11  1  0.767500  0.153000  0.114100  1.0  0.0871
  H  H12  1  0.915300  0.085600  0.378200  1.0  0.0731
  H  H13  1  0.604200  0.428600  0.922600  1.0  0.0941
  H  H14  1  0.733700  0.560200  0.755900  1.0  0.0883
  H  H15  1  0.631300  0.594300  0.583300  1.0  0.1207
  H  H16  1  0.443700  0.645700  0.499800  1.0  0.1085
  H  H17  1  0.247800  0.677300  0.586700  1.0  0.0966
  H  H18  1  0.420100  0.580000  0.846900  1.0  0.0745
  H  H19  1  0.151500  0.077000  0.192700  1.0  0.1152
  H  H20  1  0.135800  0.002500  0.033100  1.0  0.0957
  H  H21  1  0.237500  0.856900  0.299500  1.0  0.1109
  H  H22  1  0.215400  0.669600  0.416600  1.0  0.1076
  H  H23  1  0.099900  0.570600  0.374600  1.0  0.0967
  H  H24  1  0.053200  0.824400  0.090100  1.0  0.0741
  H  H25  1  0.792500  0.535400  0.142600  1.0  0.4266
  H  H26  1  0.134500  0.283200  0.484700  1.0  0.0969
  H  H27  1  0.053000  0.099800  0.479800  1.0  0.0877
  H  H28  1  0.210400  0.172800  0.649900  1.0  0.1135
  H  H29  1  0.271400  0.032000  0.819400  1.0  0.1109
  H  H30  1  0.232500  0.847000  0.885900  1.0  0.0842
  H  H31  1  0.084700  0.914400  0.621800  1.0  0.0736
  H  H32  1  0.395800  0.571400  0.077400  1.0  0.0961
  H  H33  1  0.266300  0.439800  0.244100  1.0  0.0882
  H  H34  1  0.368700  0.405700  0.416700  1.0  0.1213
  H  H35  1  0.556300  0.354300  0.500200  1.0  0.1089
  H  H36  1  0.752200  0.322700  0.413300  1.0  0.0963
  H  H37  1  0.579900  0.420000  0.153100  1.0  0.0748
  H  H38  1  0.848500  0.923000  0.807300  1.0  0.1172
  H  H39  1  0.864200  0.997500  0.966900  1.0  0.0951
  H  H40  1  0.762500  0.143100  0.700500  1.0  0.111
  H  H41  1  0.784600  0.330400  0.583400  1.0  0.1079
  H  H42  1  0.900100  0.429400  0.625400  1.0  0.0969
  H  H43  1  0.946800  0.175600  0.909900  1.0  0.0738
  C  C44  1  0.971100  0.672400  0.646500  1.0  0.6988
  C  C45  1  0.908900  0.751700  0.542700  1.0  -0.2856
  C  C46  1  0.910500  0.864400  0.488100  1.0  -0.0158
  C  C47  1  0.862600  0.943300  0.382400  1.0  -0.0489
  C  C48  1  0.804200  0.904800  0.323300  1.0  -0.0685
  C  C49  1  0.769400  0.989100  0.222300  1.0  -0.1702
  C  C50  1  0.792700  0.100500  0.182500  1.0  0.161
  C  C51  1  0.880000  0.059600  0.336700  1.0  0.1338
  C  C52  1  0.782100  0.431500  0.955600  1.0  0.7006
  C  C53  1  0.671400  0.462100  0.890500  1.0  -0.2608
  C  C54  1  0.662500  0.534100  0.789600  1.0  -0.0525
  C  C55  1  0.547700  0.575900  0.726800  1.0  -0.0091
  C  C56  1  0.552700  0.600400  0.621000  1.0  -0.0748
  C  C57  1  0.440200  0.634000  0.571100  1.0  -0.1446
  C  C58  1  0.322600  0.650700  0.623900  1.0  0.1349
  C  C59  1  0.424500  0.594000  0.775000  1.0  0.1589
  C  C60  1  0.097600  0.222200  0.048300  1.0  0.6966
  C  C61  1  0.131600  0.090800  0.124700  1.0  -0.24
  C  C62  1  0.135600  0.992100  0.103800  1.0  -0.054
  C  C63  1  0.139800  0.868500  0.181600  1.0  0.0052
  C  C64  1  0.192400  0.816000  0.280600  1.0  -0.1098
  C  C65  1  0.178500  0.704800  0.350700  1.0  -0.1403
  C  C66  1  0.111100  0.644800  0.324900  1.0  0.1271
  C  C67  1  0.080400  0.796600  0.158800  1.0  0.139
  C  C68  1  0.028900  0.327600  0.353500  1.0  0.6994
  C  C69  1  0.091100  0.248300  0.457300  1.0  -0.2814
  C  C70  1  0.089500  0.135600  0.511900  1.0  -0.0149
  C  C71  1  0.137400  0.056700  0.617600  1.0  -0.0488
  C  C72  1  0.195800  0.095200  0.676700  1.0  -0.0658
  C  C73  1  0.230600  0.010900  0.777700  1.0  -0.17
  C  C74  1  0.207300  0.899500  0.817500  1.0  0.1592
  C  C75  1  0.120000  0.940400  0.663300  1.0  0.134
  C  C76  1  0.217900  0.568500  0.044400  1.0  0.7013
  C  C77  1  0.328600  0.537900  0.109500  1.0  -0.2614
  C  C78  1  0.337500  0.465900  0.210400  1.0  -0.0537
  C  C79  1  0.452300  0.424100  0.273200  1.0  -0.0096
  C  C80  1  0.447300  0.399600  0.379000  1.0  -0.0746
  C  C81  1  0.559800  0.366000  0.428900  1.0  -0.1525
  C  C82  1  0.677400  0.349300  0.376100  1.0  0.1345
  C  C83  1  0.575500  0.406000  0.225000  1.0  0.1578
  C  C84  1  0.902400  0.777800  0.951700  1.0  0.696
  C  C85  1  0.868400  0.909200  0.875300  1.0  -0.2405
  C  C86  1  0.864400  0.007900  0.896200  1.0  -0.0539
  C  C87  1  0.860200  0.131500  0.818400  1.0  0.0061
  C  C88  1  0.807600  0.184000  0.719400  1.0  -0.1278
  C  C89  1  0.821500  0.295200  0.649300  1.0  -0.1396
  C  C90  1  0.888900  0.355200  0.675100  1.0  0.1262
  C  C91  1  0.919600  0.203400  0.841200  1.0  0.1412
  N  N92  1  0.850400  0.140000  0.236600  1.0  -0.3289
  N  N93  1  0.312200  0.629400  0.729000  1.0  -0.3435
  N  N94  1  0.059400  0.691200  0.227600  1.0  -0.3356
  N  N95  1  0.149600  0.860000  0.763400  1.0  -0.3273
  N  N96  1  0.687800  0.370600  0.271000  1.0  -0.343
  N  N97  1  0.940600  0.308800  0.772400  1.0  -0.3347
  O  O98  1  0.027400  0.723600  0.682800  1.0  -0.6024
  O  O99  1  0.965200  0.564500  0.689100  1.0  -0.5907
  O  O100  1  0.773200  0.364600  0.051600  1.0  -0.5967
  O  O101  1  0.874500  0.474000  0.912400  1.0  -0.6223
  O  O102  1  0.111400  0.238400  0.950800  1.0  -0.5884
  O  O103  1  0.055300  0.305600  0.088500  1.0  -0.609
  O  O104  1  0.128200  0.489700  0.875500  1.0  -0.9261
  O  O105  1  0.972600  0.276400  0.317200  1.0  -0.6023
  O  O106  1  0.034800  0.435500  0.310900  1.0  -0.5902
  O  O107  1  0.226800  0.635400  0.948400  1.0  -0.5972
  O  O108  1  0.125500  0.526000  0.087600  1.0  -0.6236
  O  O109  1  0.888600  0.761600  0.049200  1.0  -0.5877
  O  O110  1  0.944700  0.694400  0.911500  1.0  -0.6087
  O  O111  1  0.871800  0.510300  0.124500  1.0  -0.9284
