# generated using pymatgen
data_Cu2Mo2H9C10(NO2)3
_symmetry_space_group_name_H-M   'P 1'
_cell_length_a   7.52330000
_cell_length_b   9.25370000
_cell_length_c   27.45990000
_cell_angle_alpha   90.00000000
_cell_angle_beta   90.00000000
_cell_angle_gamma   108.27000000
_symmetry_Int_Tables_number   1
_chemical_formula_structural   Cu2Mo2H9C10(NO2)3
_chemical_formula_sum   'Cu8 Mo8 H36 C40 N12 O24'
_cell_volume   1815.34330158
_cell_formula_units_Z   4
loop_
 _symmetry_equiv_pos_site_id
 _symmetry_equiv_pos_as_xyz
  1  'x, y, z'
loop_
 _atom_site_type_symbol
 _atom_site_label
 _atom_site_symmetry_multiplicity
 _atom_site_fract_x
 _atom_site_fract_y
 _atom_site_fract_z
 _atom_site_occupancy
 _atom_site_charge
  Cu  Cu1  1  0.368710  0.510150  0.452560  1.0  1.0109
  Cu  Cu2  1  0.810500  0.202090  0.531410  1.0  0.6692
  Cu  Cu3  1  0.631290  0.989850  0.952560  1.0  1.0114
  Cu  Cu4  1  0.189500  0.297910  0.031410  1.0  0.6696
  Cu  Cu5  1  0.631290  0.489850  0.547440  1.0  1.0112
  Cu  Cu6  1  0.189500  0.797910  0.468590  1.0  0.6704
  Cu  Cu7  1  0.368710  0.010150  0.047440  1.0  1.0106
  Cu  Cu8  1  0.810500  0.702090  0.968590  1.0  0.6695
  Mo  Mo9  1  0.709700  0.809150  0.492940  1.0  1.3701
  Mo  Mo10  1  0.851760  0.451690  0.443300  1.0  1.2245
  Mo  Mo11  1  0.290300  0.690850  0.992940  1.0  1.3699
  Mo  Mo12  1  0.148240  0.048310  0.943300  1.0  1.2253
  Mo  Mo13  1  0.290300  0.190850  0.507060  1.0  1.3695
  Mo  Mo14  1  0.148240  0.548310  0.556700  1.0  1.2245
  Mo  Mo15  1  0.709700  0.309150  0.007060  1.0  1.3691
  Mo  Mo16  1  0.851760  0.951690  0.056700  1.0  1.2237
  H  H17  1  0.225100  0.327600  0.363900  1.0  0.0848
  H  H18  1  0.250300  0.349900  0.281100  1.0  0.1243
  H  H19  1  0.624400  0.763400  0.299300  1.0  0.1277
  H  H20  1  0.599700  0.725900  0.381400  1.0  0.0565
  H  H21  1  0.063000  0.242100  0.137900  1.0  0.0452
  H  H22  1  0.149600  0.353700  0.212400  1.0  0.1316
  H  H23  1  0.543000  0.668000  0.223700  1.0  0.2789
  H  H24  1  0.598600  0.647700  0.147400  1.0  0.1201
  H  H25  1  0.499200  0.527700  0.075000  1.0  0.0883
  H  H26  1  0.774900  0.172400  0.863900  1.0  0.0851
  H  H27  1  0.749700  0.150100  0.781100  1.0  0.1243
  H  H28  1  0.375600  0.736600  0.799300  1.0  0.1282
  H  H29  1  0.400300  0.774100  0.881400  1.0  0.0556
  H  H30  1  0.937000  0.257900  0.637900  1.0  0.0461
  H  H31  1  0.850400  0.146300  0.712400  1.0  0.1314
  H  H32  1  0.457000  0.832000  0.723700  1.0  0.2876
  H  H33  1  0.401400  0.852300  0.647400  1.0  0.1187
  H  H34  1  0.500800  0.972300  0.575000  1.0  0.0882
  H  H35  1  0.774900  0.672400  0.636100  1.0  0.0852
  H  H36  1  0.749700  0.650100  0.718900  1.0  0.125
  H  H37  1  0.375600  0.236600  0.700700  1.0  0.1285
  H  H38  1  0.400300  0.274100  0.618600  1.0  0.0558
  H  H39  1  0.937000  0.757900  0.862100  1.0  0.0463
  H  H40  1  0.850400  0.646300  0.787600  1.0  0.1322
  H  H41  1  0.457000  0.332000  0.776300  1.0  0.2873
  H  H42  1  0.401400  0.352300  0.852600  1.0  0.1188
  H  H43  1  0.500800  0.472300  0.925000  1.0  0.0893
  H  H44  1  0.225100  0.827600  0.136100  1.0  0.0843
  H  H45  1  0.250300  0.849900  0.218900  1.0  0.125
  H  H46  1  0.624400  0.263400  0.200700  1.0  0.1273
  H  H47  1  0.599700  0.225900  0.118600  1.0  0.0577
  H  H48  1  0.063000  0.742100  0.362100  1.0  0.0452
  H  H49  1  0.149600  0.853700  0.287600  1.0  0.1314
  H  H50  1  0.543000  0.168000  0.276300  1.0  0.2794
  H  H51  1  0.598600  0.147700  0.352600  1.0  0.1196
  H  H52  1  0.499200  0.027700  0.425000  1.0  0.089
  C  C53  1  0.306100  0.416400  0.350700  1.0  0.1992
  C  C54  1  0.319000  0.429800  0.300800  1.0  -0.3041
  C  C55  1  0.434700  0.562500  0.279900  1.0  0.2913
  C  C56  1  0.541700  0.673800  0.311600  1.0  -0.3196
  C  C57  1  0.524900  0.651200  0.361000  1.0  0.1977
  C  C58  1  0.171200  0.325300  0.139800  1.0  0.199
  C  C59  1  0.223000  0.390900  0.185100  1.0  -0.2921
  C  C60  1  0.385800  0.512800  0.189100  1.0  0.2609
  C  C61  1  0.489500  0.565200  0.146300  1.0  -0.2769
  C  C62  1  0.427800  0.493300  0.102800  1.0  0.185
  C  C63  1  0.693900  0.083600  0.850700  1.0  0.198
  C  C64  1  0.681000  0.070200  0.800800  1.0  -0.3029
  C  C65  1  0.565300  0.937500  0.779900  1.0  0.2911
  C  C66  1  0.458300  0.826200  0.811600  1.0  -0.3224
  C  C67  1  0.475100  0.848800  0.861000  1.0  0.1982
  C  C68  1  0.828800  0.174700  0.639800  1.0  0.1983
  C  C69  1  0.777000  0.109100  0.685100  1.0  -0.2935
  C  C70  1  0.614200  0.987200  0.689100  1.0  0.261
  C  C71  1  0.510500  0.934800  0.646300  1.0  -0.2781
  C  C72  1  0.572200  0.006700  0.602800  1.0  0.185
  C  C73  1  0.693900  0.583600  0.649300  1.0  0.1983
  C  C74  1  0.681000  0.570200  0.699200  1.0  -0.3047
  C  C75  1  0.565300  0.437500  0.720100  1.0  0.2911
  C  C76  1  0.458300  0.326200  0.688400  1.0  -0.3228
  C  C77  1  0.475100  0.348800  0.639000  1.0  0.1986
  C  C78  1  0.828800  0.674700  0.860200  1.0  0.1978
  C  C79  1  0.777000  0.609100  0.814900  1.0  -0.2939
  C  C80  1  0.614200  0.487200  0.810900  1.0  0.2607
  C  C81  1  0.510500  0.434800  0.853700  1.0  -0.2774
  C  C82  1  0.572200  0.506700  0.897200  1.0  0.1843
  C  C83  1  0.306100  0.916400  0.149300  1.0  0.1988
  C  C84  1  0.319000  0.929800  0.199200  1.0  -0.3058
  C  C85  1  0.434700  0.062500  0.220100  1.0  0.2913
  C  C86  1  0.541700  0.173800  0.188400  1.0  -0.3196
  C  C87  1  0.524900  0.151200  0.139000  1.0  0.1979
  C  C88  1  0.171200  0.825300  0.360200  1.0  0.1989
  C  C89  1  0.223000  0.890900  0.314900  1.0  -0.2935
  C  C90  1  0.385800  0.012800  0.310900  1.0  0.2608
  C  C91  1  0.489500  0.065200  0.353700  1.0  -0.2768
  C  C92  1  0.427800  0.993300  0.397200  1.0  0.1845
  N  N93  1  0.405200  0.526000  0.381300  1.0  -0.4111
  N  N94  1  0.460600  0.594800  0.231000  1.0  -0.3696
  N  N95  1  0.267000  0.374000  0.098400  1.0  -0.3329
  N  N96  1  0.594800  0.974000  0.881300  1.0  -0.4073
  N  N97  1  0.539400  0.905200  0.731000  1.0  -0.3683
  N  N98  1  0.733000  0.126000  0.598400  1.0  -0.332
  N  N99  1  0.594800  0.474000  0.618700  1.0  -0.4163
  N  N100  1  0.539400  0.405200  0.769000  1.0  -0.3679
  N  N101  1  0.733000  0.626000  0.901600  1.0  -0.3301
  N  N102  1  0.405200  0.026000  0.118700  1.0  -0.4199
  N  N103  1  0.460600  0.094800  0.269000  1.0  -0.3694
  N  N104  1  0.267000  0.874000  0.401600  1.0  -0.3298
  O  O105  1  0.488100  0.730500  0.463600  1.0  -0.7199
  O  O106  1  0.720300  0.994900  0.507500  1.0  -0.6826
  O  O107  1  0.726500  0.712500  0.547900  1.0  -0.7134
  O  O108  1  0.678300  0.512200  0.475100  1.0  -0.8393
  O  O109  1  0.838400  0.265800  0.460800  1.0  -0.6332
  O  O110  1  0.085700  0.577500  0.452700  1.0  -0.7689
  O  O111  1  0.511900  0.769500  0.963600  1.0  -0.7204
  O  O112  1  0.279700  0.505100  0.007500  1.0  -0.6847
  O  O113  1  0.273500  0.787500  0.047900  1.0  -0.7136
  O  O114  1  0.321700  0.987800  0.975100  1.0  -0.8401
  O  O115  1  0.161600  0.234200  0.960800  1.0  -0.6335
  O  O116  1  0.914300  0.922500  0.952700  1.0  -0.7689
  O  O117  1  0.511900  0.269500  0.536400  1.0  -0.7204
  O  O118  1  0.279700  0.005100  0.492500  1.0  -0.6829
  O  O119  1  0.273500  0.287500  0.452100  1.0  -0.7144
  O  O120  1  0.321700  0.487800  0.524900  1.0  -0.8406
  O  O121  1  0.161600  0.734200  0.539200  1.0  -0.6346
  O  O122  1  0.914300  0.422500  0.547300  1.0  -0.769
  O  O123  1  0.488100  0.230500  0.036400  1.0  -0.7198
  O  O124  1  0.720300  0.494900  0.992500  1.0  -0.6815
  O  O125  1  0.726500  0.212500  0.952100  1.0  -0.7142
  O  O126  1  0.678300  0.012200  0.024900  1.0  -0.8395
  O  O127  1  0.838400  0.765800  0.039200  1.0  -0.6339
  O  O128  1  0.085700  0.077500  0.047300  1.0  -0.7688
