# generated using pymatgen
data_Cu(CO2)3
_symmetry_space_group_name_H-M   'P 1'
_cell_length_a   14.29700000
_cell_length_b   10.47200000
_cell_length_c   18.53900000
_cell_angle_alpha   90.00000000
_cell_angle_beta   114.06800000
_cell_angle_gamma   90.00000000
_symmetry_Int_Tables_number   1
_chemical_formula_structural   Cu(CO2)3
_chemical_formula_sum   'Cu8 C24 O48'
_cell_volume   2534.31833971
_cell_formula_units_Z   8
loop_
 _symmetry_equiv_pos_site_id
 _symmetry_equiv_pos_as_xyz
  1  'x, y, z'
loop_
 _atom_site_type_symbol
 _atom_site_label
 _atom_site_symmetry_multiplicity
 _atom_site_fract_x
 _atom_site_fract_y
 _atom_site_fract_z
 _atom_site_occupancy
 _atom_site_charge
  Cu  Cu1  1  0.420070  0.373950  0.091310  1.0  0.7544
  Cu  Cu2  1  0.920070  0.873950  0.091310  1.0  0.7544
  Cu  Cu3  1  0.579930  0.373950  0.408690  1.0  0.7554
  Cu  Cu4  1  0.079930  0.873950  0.408690  1.0  0.7554
  Cu  Cu5  1  0.579930  0.626050  0.908690  1.0  0.7556
  Cu  Cu6  1  0.079930  0.126050  0.908690  1.0  0.7556
  Cu  Cu7  1  0.420070  0.626050  0.591310  1.0  0.7547
  Cu  Cu8  1  0.920070  0.126050  0.591310  1.0  0.7547
  C  C9  1  0.280000  0.219000  0.977100  1.0  0.603
  C  C10  1  0.550900  0.462600  0.020200  1.0  0.673
  C  C11  1  0.780000  0.719000  0.977100  1.0  0.603
  C  C12  1  0.050900  0.962600  0.020200  1.0  0.673
  C  C13  1  0.720000  0.219000  0.522900  1.0  0.6028
  C  C14  1  0.449100  0.462600  0.479800  1.0  0.6743
  C  C15  1  0.220000  0.719000  0.522900  1.0  0.6028
  C  C16  1  0.949100  0.962600  0.479800  1.0  0.6743
  C  C17  1  0.720000  0.781000  0.022900  1.0  0.6029
  C  C18  1  0.449100  0.537400  0.979800  1.0  0.6747
  C  C19  1  0.220000  0.281000  0.022900  1.0  0.6029
  C  C20  1  0.949100  0.037400  0.979800  1.0  0.6747
  C  C21  1  0.280000  0.781000  0.477100  1.0  0.6043
  C  C22  1  0.550900  0.537400  0.520200  1.0  0.6736
  C  C23  1  0.780000  0.281000  0.477100  1.0  0.6043
  C  C24  1  0.050900  0.037400  0.520200  1.0  0.6736
  C  C25  1  0.500000  0.433500  0.250000  1.0  0.6256
  C  C26  1  0.500000  0.287200  0.250000  1.0  0.592
  C  C27  1  0.000000  0.933500  0.250000  1.0  0.6256
  C  C28  1  0.000000  0.787200  0.250000  1.0  0.592
  C  C29  1  0.500000  0.566500  0.750000  1.0  0.6269
  C  C30  1  0.500000  0.712800  0.750000  1.0  0.5911
  C  C31  1  0.000000  0.066500  0.750000  1.0  0.6269
  C  C32  1  0.000000  0.212800  0.750000  1.0  0.5911
  O  O33  1  0.373300  0.247200  0.002700  1.0  -0.4516
  O  O34  1  0.269300  0.350800  0.079600  1.0  -0.4342
  O  O35  1  0.560400  0.396000  0.079200  1.0  -0.452
  O  O36  1  0.383700  0.526400  0.006900  1.0  -0.4351
  O  O37  1  0.462900  0.489400  0.184500  1.0  -0.4477
  O  O38  1  0.473200  0.234200  0.183900  1.0  -0.4189
  O  O39  1  0.873300  0.747200  0.002700  1.0  -0.4516
  O  O40  1  0.769300  0.850800  0.079600  1.0  -0.4342
  O  O41  1  0.060400  0.896000  0.079200  1.0  -0.452
  O  O42  1  0.883700  0.026400  0.006900  1.0  -0.4351
  O  O43  1  0.962900  0.989400  0.184500  1.0  -0.4477
  O  O44  1  0.973200  0.734200  0.183900  1.0  -0.4189
  O  O45  1  0.626700  0.247200  0.497300  1.0  -0.4519
  O  O46  1  0.730700  0.350800  0.420400  1.0  -0.4334
  O  O47  1  0.439600  0.396000  0.420800  1.0  -0.4527
  O  O48  1  0.616300  0.526400  0.493100  1.0  -0.4356
  O  O49  1  0.537100  0.489400  0.315500  1.0  -0.4473
  O  O50  1  0.526800  0.234200  0.316100  1.0  -0.4199
  O  O51  1  0.126700  0.747200  0.497300  1.0  -0.4519
  O  O52  1  0.230700  0.850800  0.420400  1.0  -0.4334
  O  O53  1  0.939600  0.896000  0.420800  1.0  -0.4527
  O  O54  1  0.116300  0.026400  0.493100  1.0  -0.4356
  O  O55  1  0.037100  0.989400  0.315500  1.0  -0.4473
  O  O56  1  0.026800  0.734200  0.316100  1.0  -0.4199
  O  O57  1  0.626700  0.752800  0.997300  1.0  -0.4522
  O  O58  1  0.730700  0.649200  0.920400  1.0  -0.4341
  O  O59  1  0.439600  0.604000  0.920800  1.0  -0.4543
  O  O60  1  0.616300  0.473600  0.993100  1.0  -0.4362
  O  O61  1  0.537100  0.510600  0.815500  1.0  -0.4489
  O  O62  1  0.526800  0.765800  0.816100  1.0  -0.4157
  O  O63  1  0.126700  0.252800  0.997300  1.0  -0.4522
  O  O64  1  0.230700  0.149200  0.920400  1.0  -0.4341
  O  O65  1  0.939600  0.104000  0.920800  1.0  -0.4543
  O  O66  1  0.116300  0.973600  0.993100  1.0  -0.4362
  O  O67  1  0.037100  0.010600  0.815500  1.0  -0.4489
  O  O68  1  0.026800  0.265800  0.816100  1.0  -0.4157
  O  O69  1  0.373300  0.752800  0.502700  1.0  -0.452
  O  O70  1  0.269300  0.649200  0.579600  1.0  -0.4355
  O  O71  1  0.560400  0.604000  0.579200  1.0  -0.4517
  O  O72  1  0.383700  0.473600  0.506900  1.0  -0.4357
  O  O73  1  0.462900  0.510600  0.684500  1.0  -0.4506
  O  O74  1  0.473200  0.765800  0.683900  1.0  -0.4174
  O  O75  1  0.873300  0.252800  0.502700  1.0  -0.452
  O  O76  1  0.769300  0.149200  0.579600  1.0  -0.4355
  O  O77  1  0.060400  0.104000  0.579200  1.0  -0.4517
  O  O78  1  0.883700  0.973600  0.506900  1.0  -0.4357
  O  O79  1  0.962900  0.010600  0.684500  1.0  -0.4506
  O  O80  1  0.973200  0.265800  0.683900  1.0  -0.4174
