# generated using pymatgen
data_CoH25C33N5O4
_symmetry_space_group_name_H-M   'P 1'
_cell_length_a   13.43740000
_cell_length_b   13.66450000
_cell_length_c   16.62770000
_cell_angle_alpha   90.00000000
_cell_angle_beta   90.00000000
_cell_angle_gamma   95.37900000
_symmetry_Int_Tables_number   1
_chemical_formula_structural   CoH25C33N5O4
_chemical_formula_sum   'Co4 H100 C132 N20 O16'
_cell_volume   3039.65632808
_cell_formula_units_Z   4
loop_
 _symmetry_equiv_pos_site_id
 _symmetry_equiv_pos_as_xyz
  1  'x, y, z'
loop_
 _atom_site_type_symbol
 _atom_site_label
 _atom_site_symmetry_multiplicity
 _atom_site_fract_x
 _atom_site_fract_y
 _atom_site_fract_z
 _atom_site_occupancy
 _atom_site_charge
  Co  Co1  1  0.127120  0.218610  0.232650  1.0  0.8441
  Co  Co2  1  0.372880  0.281390  0.732650  1.0  0.844
  Co  Co3  1  0.872880  0.781390  0.767350  1.0  0.8438
  Co  Co4  1  0.627120  0.718610  0.267350  1.0  0.8438
  H  H5  1  0.238600  0.063700  0.147100  1.0  0.0845
  H  H6  1  0.313000  0.207600  0.342900  1.0  0.0756
  H  H7  1  0.449400  0.969800  0.288000  1.0  0.1081
  H  H8  1  0.210800  0.918200  0.106500  1.0  0.0964
  H  H9  1  0.486800  0.878600  0.182900  1.0  0.0945
  H  H10  1  0.352500  0.698600  0.017600  1.0  0.0979
  H  H11  1  0.214000  0.785300  0.023000  1.0  0.0921
  H  H12  1  0.368000  0.187700  0.464500  1.0  0.1068
  H  H13  1  0.620700  0.143200  0.580600  1.0  0.0915
  H  H14  1  0.675900  0.062800  0.469400  1.0  0.1049
  H  H15  1  0.578400  0.046300  0.355300  1.0  0.0864
  H  H16  1  0.209200  0.387300  0.356400  1.0  0.1054
  H  H17  1  0.303400  0.562900  0.178000  1.0  0.1313
  H  H18  1  0.240100  0.404000  0.122900  1.0  0.1079
  H  H19  1  0.350800  0.616900  0.337200  1.0  0.1077
  H  H20  1  0.287000  0.554200  0.401200  1.0  0.1055
  H  H21  1  0.095000  0.561400  0.391200  1.0  0.1105
  H  H22  1  0.971800  0.665900  0.379500  1.0  0.1113
  H  H23  1  0.168200  0.868800  0.282900  1.0  0.0826
  H  H24  1  0.291200  0.763300  0.292700  1.0  0.0991
  H  H25  1  0.913000  0.808200  0.308700  1.0  0.1061
  H  H26  1  0.964100  0.871700  0.378400  1.0  0.1234
  H  H27  1  0.042100  0.039500  0.343100  1.0  0.1003
  H  H28  1  0.028100  0.036300  0.108900  1.0  0.1028
  H  H29  1  0.971100  0.871000  0.155400  1.0  0.1351
  H  H30  1  0.261400  0.436300  0.647100  1.0  0.0845
  H  H31  1  0.187000  0.292400  0.842900  1.0  0.0754
  H  H32  1  0.050600  0.530200  0.788000  1.0  0.1079
  H  H33  1  0.289200  0.581800  0.606500  1.0  0.0969
  H  H34  1  0.013200  0.621400  0.682900  1.0  0.0953
  H  H35  1  0.147500  0.801400  0.517600  1.0  0.0983
  H  H36  1  0.286000  0.714700  0.523000  1.0  0.0916
  H  H37  1  0.132000  0.312300  0.964500  1.0  0.1068
  H  H38  1  0.879300  0.356800  0.080600  1.0  0.0916
  H  H39  1  0.824100  0.437200  0.969400  1.0  0.105
  H  H40  1  0.921600  0.453700  0.855300  1.0  0.0864
  H  H41  1  0.290800  0.112700  0.856400  1.0  0.1055
  H  H42  1  0.196600  0.937100  0.678000  1.0  0.1312
  H  H43  1  0.259900  0.096000  0.622900  1.0  0.1059
  H  H44  1  0.149200  0.883100  0.837200  1.0  0.1083
  H  H45  1  0.213000  0.945800  0.901200  1.0  0.1045
  H  H46  1  0.405000  0.938600  0.891200  1.0  0.1104
  H  H47  1  0.528200  0.834100  0.879500  1.0  0.1114
  H  H48  1  0.331800  0.631200  0.782900  1.0  0.0822
  H  H49  1  0.208800  0.736700  0.792700  1.0  0.099
  H  H50  1  0.587000  0.691800  0.808700  1.0  0.1059
  H  H51  1  0.535900  0.628300  0.878400  1.0  0.1245
  H  H52  1  0.457900  0.460500  0.843100  1.0  0.0997
  H  H53  1  0.471900  0.463700  0.608900  1.0  0.1028
  H  H54  1  0.528900  0.629000  0.655400  1.0  0.1354
  H  H55  1  0.761400  0.936300  0.852900  1.0  0.0837
  H  H56  1  0.687000  0.792400  0.657100  1.0  0.0753
  H  H57  1  0.550600  0.030200  0.712000  1.0  0.1078
  H  H58  1  0.789200  0.081800  0.893500  1.0  0.0974
  H  H59  1  0.513200  0.121400  0.817100  1.0  0.0947
  H  H60  1  0.647500  0.301400  0.982400  1.0  0.0981
  H  H61  1  0.786000  0.214700  0.977000  1.0  0.0919
  H  H62  1  0.632000  0.812300  0.535500  1.0  0.1067
  H  H63  1  0.379300  0.856800  0.419400  1.0  0.0915
  H  H64  1  0.324100  0.937200  0.530600  1.0  0.1051
  H  H65  1  0.421600  0.953700  0.644700  1.0  0.0863
  H  H66  1  0.790800  0.612700  0.643600  1.0  0.1061
  H  H67  1  0.696600  0.437100  0.822000  1.0  0.1316
  H  H68  1  0.759900  0.596000  0.877100  1.0  0.1075
  H  H69  1  0.649200  0.383100  0.662800  1.0  0.1079
  H  H70  1  0.713000  0.445800  0.598800  1.0  0.105
  H  H71  1  0.905000  0.438600  0.608800  1.0  0.11
  H  H72  1  0.028200  0.334100  0.620500  1.0  0.1115
  H  H73  1  0.831800  0.131200  0.717100  1.0  0.082
  H  H74  1  0.708800  0.236700  0.707300  1.0  0.0991
  H  H75  1  0.087000  0.191800  0.691300  1.0  0.1056
  H  H76  1  0.035900  0.128300  0.621600  1.0  0.1245
  H  H77  1  0.957900  0.960500  0.656900  1.0  0.0997
  H  H78  1  0.971900  0.963700  0.891100  1.0  0.102
  H  H79  1  0.028900  0.129000  0.844600  1.0  0.1348
  H  H80  1  0.738600  0.563700  0.352900  1.0  0.0835
  H  H81  1  0.813000  0.707600  0.157100  1.0  0.076
  H  H82  1  0.949400  0.469800  0.212000  1.0  0.1081
  H  H83  1  0.710800  0.418200  0.393500  1.0  0.0966
  H  H84  1  0.986800  0.378600  0.317100  1.0  0.094
  H  H85  1  0.852500  0.198600  0.482400  1.0  0.0979
  H  H86  1  0.714000  0.285300  0.477000  1.0  0.0924
  H  H87  1  0.868000  0.687700  0.035500  1.0  0.1065
  H  H88  1  0.120700  0.643200  0.919400  1.0  0.0913
  H  H89  1  0.175900  0.562800  0.030600  1.0  0.1049
  H  H90  1  0.078400  0.546300  0.144700  1.0  0.0865
  H  H91  1  0.709200  0.887300  0.143600  1.0  0.106
  H  H92  1  0.803400  0.062900  0.322000  1.0  0.1313
  H  H93  1  0.740100  0.904000  0.377100  1.0  0.1056
  H  H94  1  0.850800  0.116900  0.162800  1.0  0.1071
  H  H95  1  0.787000  0.054200  0.098800  1.0  0.1055
  H  H96  1  0.595000  0.061400  0.108800  1.0  0.1102
  H  H97  1  0.471800  0.165900  0.120500  1.0  0.1113
  H  H98  1  0.668200  0.368800  0.217100  1.0  0.0826
  H  H99  1  0.791200  0.263300  0.207300  1.0  0.0991
  H  H100  1  0.413000  0.308200  0.191300  1.0  0.1059
  H  H101  1  0.464100  0.371700  0.121600  1.0  0.1239
  H  H102  1  0.542100  0.539500  0.156900  1.0  0.1001
  H  H103  1  0.528100  0.536300  0.391100  1.0  0.1021
  H  H104  1  0.471100  0.371000  0.344600  1.0  0.135
  C  C105  1  0.276200  0.069230  0.194140  1.0  0.1243
  C  C106  1  0.321640  0.155430  0.308470  1.0  0.1242
  C  C107  1  0.395680  0.094570  0.326680  1.0  -0.0201
  C  C108  1  0.403400  0.014480  0.276070  1.0  -0.0787
  C  C109  1  0.344020  0.999920  0.208300  1.0  -0.018
  C  C110  1  0.348900  0.914270  0.153680  1.0  0.0165
  C  C111  1  0.267400  0.883900  0.105080  1.0  -0.1109
  C  C112  1  0.431600  0.859990  0.150750  1.0  -0.0716
  C  C113  1  0.433300  0.778360  0.100610  1.0  -0.1394
  C  C114  1  0.351600  0.751900  0.052230  1.0  -0.0522
  C  C115  1  0.269100  0.804200  0.055200  1.0  -0.1004
  C  C116  1  0.522700  0.719800  0.097200  1.0  0.658
  C  C117  1  0.460960  0.112580  0.398180  1.0  0.0149
  C  C118  1  0.429800  0.162290  0.465270  1.0  -0.0822
  C  C119  1  0.489390  0.174690  0.533370  1.0  -0.1349
  C  C120  1  0.581100  0.136400  0.534750  1.0  -0.0475
  C  C121  1  0.614000  0.088100  0.468370  1.0  -0.0883
  C  C122  1  0.555000  0.077400  0.400360  1.0  -0.0969
  C  C123  1  0.451900  0.222750  0.606630  1.0  0.615
  C  C124  1  0.224600  0.410700  0.304900  1.0  0.1292
  C  C125  1  0.277200  0.508400  0.207100  1.0  -0.1464
  C  C126  1  0.241600  0.420600  0.177130  1.0  0.0316
  C  C127  1  0.286000  0.581600  0.347500  1.0  -0.0697
  C  C128  1  0.205900  0.651700  0.342300  1.0  0.021
  C  C129  1  0.109800  0.623400  0.368600  1.0  -0.1148
  C  C130  1  0.036100  0.685900  0.361800  1.0  -0.1037
  C  C131  1  0.056700  0.778200  0.328920  1.0  0.0455
  C  C132  1  0.152900  0.806300  0.304200  1.0  -0.1238
  C  C133  1  0.226800  0.743300  0.310400  1.0  -0.1105
  C  C134  1  0.974600  0.845700  0.325100  1.0  -0.0928
  C  C135  1  0.031400  0.018800  0.290240  1.0  0.1365
  C  C136  1  0.023700  0.016400  0.162340  1.0  0.0233
  C  C137  1  0.991900  0.924900  0.187400  1.0  -0.1648
  C  C138  1  0.223800  0.430770  0.694140  1.0  0.1242
  C  C139  1  0.178360  0.344570  0.808470  1.0  0.1267
  C  C140  1  0.104320  0.405430  0.826680  1.0  -0.0206
  C  C141  1  0.096600  0.485520  0.776070  1.0  -0.0793
  C  C142  1  0.155980  0.500080  0.708300  1.0  -0.0184
  C  C143  1  0.151100  0.585730  0.653680  1.0  0.0168
  C  C144  1  0.232600  0.616100  0.605080  1.0  -0.1127
  C  C145  1  0.068400  0.640010  0.650750  1.0  -0.0718
  C  C146  1  0.066700  0.721640  0.600610  1.0  -0.1395
  C  C147  1  0.148400  0.748100  0.552230  1.0  -0.0518
  C  C148  1  0.230900  0.695800  0.555200  1.0  -0.1002
  C  C149  1  0.977300  0.780200  0.597200  1.0  0.6588
  C  C150  1  0.039040  0.387420  0.898180  1.0  0.0155
  C  C151  1  0.070200  0.337710  0.965270  1.0  -0.0848
  C  C152  1  0.010610  0.325310  0.033370  1.0  -0.1346
  C  C153  1  0.918900  0.363600  0.034750  1.0  -0.0459
  C  C154  1  0.886000  0.411900  0.968370  1.0  -0.0872
  C  C155  1  0.945000  0.422600  0.900360  1.0  -0.0961
  C  C156  1  0.048100  0.277250  0.106630  1.0  0.6162
  C  C157  1  0.275400  0.089300  0.804900  1.0  0.1288
  C  C158  1  0.222800  0.991600  0.707100  1.0  -0.1462
  C  C159  1  0.258400  0.079400  0.677130  1.0  0.0317
  C  C160  1  0.214000  0.918400  0.847500  1.0  -0.0692
  C  C161  1  0.294100  0.848300  0.842300  1.0  0.0213
  C  C162  1  0.390200  0.876600  0.868600  1.0  -0.1145
  C  C163  1  0.463900  0.814100  0.861800  1.0  -0.1064
  C  C164  1  0.443300  0.721800  0.828920  1.0  0.0461
  C  C165  1  0.347100  0.693700  0.804200  1.0  -0.124
  C  C166  1  0.273200  0.756700  0.810400  1.0  -0.1102
  C  C167  1  0.525400  0.654300  0.825100  1.0  -0.0916
  C  C168  1  0.468600  0.481200  0.790240  1.0  0.1367
  C  C169  1  0.476300  0.483600  0.662340  1.0  0.0235
  C  C170  1  0.508100  0.575100  0.687400  1.0  -0.1645
  C  C171  1  0.723800  0.930770  0.805860  1.0  0.1233
  C  C172  1  0.678360  0.844570  0.691530  1.0  0.1252
  C  C173  1  0.604320  0.905430  0.673320  1.0  -0.0202
  C  C174  1  0.596600  0.985520  0.723930  1.0  -0.0792
  C  C175  1  0.655980  0.000080  0.791700  1.0  -0.0186
  C  C176  1  0.651100  0.085730  0.846320  1.0  0.0164
  C  C177  1  0.732600  0.116100  0.894920  1.0  -0.1123
  C  C178  1  0.568400  0.140010  0.849250  1.0  -0.0723
  C  C179  1  0.566700  0.221640  0.899390  1.0  -0.1392
  C  C180  1  0.648400  0.248100  0.947770  1.0  -0.0509
  C  C181  1  0.730900  0.195800  0.944800  1.0  -0.1006
  C  C182  1  0.477300  0.280200  0.902800  1.0  0.6554
  C  C183  1  0.539040  0.887420  0.601820  1.0  0.0154
  C  C184  1  0.570200  0.837710  0.534730  1.0  -0.085
  C  C185  1  0.510610  0.825310  0.466630  1.0  -0.1341
  C  C186  1  0.418900  0.863600  0.465250  1.0  -0.0472
  C  C187  1  0.386000  0.911900  0.531630  1.0  -0.087
  C  C188  1  0.445000  0.922600  0.599640  1.0  -0.096
  C  C189  1  0.548100  0.777250  0.393370  1.0  0.6159
  C  C190  1  0.775400  0.589300  0.695100  1.0  0.128
  C  C191  1  0.722800  0.491600  0.792900  1.0  -0.1459
  C  C192  1  0.758400  0.579400  0.822870  1.0  0.0325
  C  C193  1  0.714000  0.418400  0.652500  1.0  -0.068
  C  C194  1  0.794100  0.348300  0.657700  1.0  0.0205
  C  C195  1  0.890200  0.376600  0.631400  1.0  -0.1139
  C  C196  1  0.963900  0.314100  0.638200  1.0  -0.1056
  C  C197  1  0.943300  0.221800  0.671080  1.0  0.0454
  C  C198  1  0.847100  0.193700  0.695800  1.0  -0.1239
  C  C199  1  0.773200  0.256700  0.689600  1.0  -0.1108
  C  C200  1  0.025400  0.154300  0.674900  1.0  -0.0917
  C  C201  1  0.968600  0.981200  0.709760  1.0  0.1363
  C  C202  1  0.976300  0.983600  0.837660  1.0  0.0245
  C  C203  1  0.008100  0.075100  0.812600  1.0  -0.1637
  C  C204  1  0.776200  0.569230  0.305860  1.0  0.1227
  C  C205  1  0.821640  0.655430  0.191530  1.0  0.1235
  C  C206  1  0.895680  0.594570  0.173320  1.0  -0.0198
  C  C207  1  0.903400  0.514480  0.223930  1.0  -0.0785
  C  C208  1  0.844020  0.499920  0.291700  1.0  -0.018
  C  C209  1  0.848900  0.414270  0.346320  1.0  0.0159
  C  C210  1  0.767400  0.383900  0.394920  1.0  -0.1102
  C  C211  1  0.931600  0.359990  0.349250  1.0  -0.0721
  C  C212  1  0.933300  0.278360  0.399390  1.0  -0.1394
  C  C213  1  0.851600  0.251900  0.447770  1.0  -0.0517
  C  C214  1  0.769100  0.304200  0.444800  1.0  -0.1006
  C  C215  1  0.022700  0.219800  0.402800  1.0  0.6555
  C  C216  1  0.960960  0.612580  0.101820  1.0  0.0151
  C  C217  1  0.929800  0.662290  0.034730  1.0  -0.0826
  C  C218  1  0.989390  0.674690  0.966630  1.0  -0.1347
  C  C219  1  0.081100  0.636400  0.965250  1.0  -0.0485
  C  C220  1  0.114000  0.588100  0.031630  1.0  -0.0881
  C  C221  1  0.055000  0.577400  0.099640  1.0  -0.0973
  C  C222  1  0.951900  0.722750  0.893370  1.0  0.6156
  C  C223  1  0.724600  0.910700  0.195100  1.0  0.1285
  C  C224  1  0.777200  0.008400  0.292900  1.0  -0.145
  C  C225  1  0.741600  0.920600  0.322870  1.0  0.0328
  C  C226  1  0.786000  0.081600  0.152500  1.0  -0.0691
  C  C227  1  0.705900  0.151700  0.157700  1.0  0.0203
  C  C228  1  0.609800  0.123400  0.131400  1.0  -0.1139
  C  C229  1  0.536100  0.185900  0.138200  1.0  -0.1038
  C  C230  1  0.556700  0.278200  0.171080  1.0  0.0447
  C  C231  1  0.652900  0.306300  0.195800  1.0  -0.1241
  C  C232  1  0.726800  0.243300  0.189600  1.0  -0.1111
  C  C233  1  0.474600  0.345700  0.174900  1.0  -0.0915
  C  C234  1  0.531400  0.518800  0.209760  1.0  0.1361
  C  C235  1  0.523700  0.516400  0.337660  1.0  0.0242
  C  C236  1  0.491900  0.424900  0.312600  1.0  -0.1651
  N  N237  1  0.262220  0.143120  0.244200  1.0  -0.3318
  N  N238  1  0.207800  0.359200  0.238660  1.0  -0.3766
  N  N239  1  0.267140  0.501830  0.288530  1.0  0.0424
  N  N240  1  0.996530  0.927520  0.269160  1.0  0.0593
  N  N241  1  0.048730  0.075820  0.227020  1.0  -0.3882
  N  N242  1  0.237780  0.356880  0.744200  1.0  -0.3314
  N  N243  1  0.292200  0.140800  0.738660  1.0  -0.3762
  N  N244  1  0.232860  0.998170  0.788530  1.0  0.0421
  N  N245  1  0.503470  0.572480  0.769160  1.0  0.0598
  N  N246  1  0.451270  0.424180  0.727020  1.0  -0.389
  N  N247  1  0.737780  0.856880  0.755800  1.0  -0.3314
  N  N248  1  0.792200  0.640800  0.761340  1.0  -0.3762
  N  N249  1  0.732860  0.498170  0.711470  1.0  0.0418
  N  N250  1  0.003470  0.072480  0.730840  1.0  0.0599
  N  N251  1  0.951270  0.924180  0.772980  1.0  -0.389
  N  N252  1  0.762220  0.643120  0.255800  1.0  -0.3318
  N  N253  1  0.707800  0.859200  0.261340  1.0  -0.3766
  N  N254  1  0.767140  0.001830  0.211470  1.0  0.0422
  N  N255  1  0.496530  0.427520  0.230840  1.0  0.0593
  N  N256  1  0.548730  0.575820  0.272980  1.0  -0.3883
  O  O257  1  0.373880  0.268380  0.602500  1.0  -0.5827
  O  O258  1  0.495640  0.215220  0.672540  1.0  -0.5654
  O  O259  1  0.526100  0.659150  0.041570  1.0  -0.6084
  O  O260  1  0.590300  0.734850  0.149850  1.0  -0.6311
  O  O261  1  0.126120  0.231620  0.102500  1.0  -0.5822
  O  O262  1  0.004360  0.284780  0.172540  1.0  -0.5653
  O  O263  1  0.973900  0.840850  0.541570  1.0  -0.6075
  O  O264  1  0.909700  0.765150  0.649850  1.0  -0.6305
  O  O265  1  0.626120  0.731620  0.397500  1.0  -0.5824
  O  O266  1  0.504360  0.784780  0.327460  1.0  -0.5653
  O  O267  1  0.473900  0.340850  0.958430  1.0  -0.6089
  O  O268  1  0.409700  0.265150  0.850150  1.0  -0.6319
  O  O269  1  0.873880  0.768380  0.897500  1.0  -0.5818
  O  O270  1  0.995640  0.715220  0.827460  1.0  -0.5651
  O  O271  1  0.026100  0.159150  0.458430  1.0  -0.6086
  O  O272  1  0.090300  0.234850  0.350150  1.0  -0.6336
