# generated using pymatgen
data_Be3P4(HO3)4
_symmetry_space_group_name_H-M   'P 1'
_cell_length_a   8.47870000
_cell_length_b   15.24560000
_cell_length_c   13.38060000
_cell_angle_alpha   90.00000000
_cell_angle_beta   90.00000000
_cell_angle_gamma   90.00000000
_symmetry_Int_Tables_number   1
_chemical_formula_structural   Be3P4(HO3)4
_chemical_formula_sum   'Be12 P16 H16 O48'
_cell_volume   1729.61474119
_cell_formula_units_Z   4
loop_
 _symmetry_equiv_pos_site_id
 _symmetry_equiv_pos_as_xyz
  1  'x, y, z'
loop_
 _atom_site_type_symbol
 _atom_site_label
 _atom_site_symmetry_multiplicity
 _atom_site_fract_x
 _atom_site_fract_y
 _atom_site_fract_z
 _atom_site_occupancy
 _atom_site_charge
  Be  Be1  1  0.465400  0.411700  0.609500  1.0  1.1234
  Be  Be2  1  0.034600  0.088300  0.109500  1.0  1.1235
  Be  Be3  1  0.534600  0.411700  0.890500  1.0  1.123
  Be  Be4  1  0.965400  0.088300  0.390500  1.0  1.1224
  Be  Be5  1  0.534600  0.588300  0.390500  1.0  1.1225
  Be  Be6  1  0.965400  0.911700  0.890500  1.0  1.123
  Be  Be7  1  0.465400  0.588300  0.109500  1.0  1.1227
  Be  Be8  1  0.034600  0.911700  0.609500  1.0  1.1242
  Be  Be9  1  0.000000  0.237700  0.750000  1.0  1.1831
  Be  Be10  1  0.500000  0.262300  0.250000  1.0  1.1842
  Be  Be11  1  0.000000  0.762300  0.250000  1.0  1.1842
  Be  Be12  1  0.500000  0.737700  0.750000  1.0  1.1831
  P  P13  1  0.024820  0.098310  0.888520  1.0  1.5593
  P  P14  1  0.252590  0.369970  0.771110  1.0  1.6612
  P  P15  1  0.475180  0.401690  0.388520  1.0  1.5495
  P  P16  1  0.247410  0.130030  0.271110  1.0  1.6928
  P  P17  1  0.975180  0.098310  0.611480  1.0  1.5494
  P  P18  1  0.747410  0.369970  0.728890  1.0  1.6589
  P  P19  1  0.524820  0.401690  0.111480  1.0  1.5598
  P  P20  1  0.752590  0.130030  0.228890  1.0  1.6587
  P  P21  1  0.975180  0.901690  0.111480  1.0  1.5489
  P  P22  1  0.747410  0.630030  0.228890  1.0  1.6633
  P  P23  1  0.524820  0.598310  0.611480  1.0  1.5604
  P  P24  1  0.752590  0.869970  0.728890  1.0  1.6497
  P  P25  1  0.024820  0.901690  0.388520  1.0  1.5598
  P  P26  1  0.252590  0.630030  0.271110  1.0  1.6762
  P  P27  1  0.475180  0.598310  0.888520  1.0  1.548
  P  P28  1  0.247410  0.869970  0.771110  1.0  1.6644
  H  H29  1  0.156000  0.087600  0.839700  1.0  -0.1216
  H  H30  1  0.163000  0.442400  0.756600  1.0  -0.0858
  H  H31  1  0.344000  0.412400  0.339700  1.0  -0.1222
  H  H32  1  0.337000  0.057600  0.256600  1.0  -0.0855
  H  H33  1  0.844000  0.087600  0.660300  1.0  -0.1204
  H  H34  1  0.837000  0.442400  0.743400  1.0  -0.0851
  H  H35  1  0.656000  0.412400  0.160300  1.0  -0.121
  H  H36  1  0.663000  0.057600  0.243400  1.0  -0.0864
  H  H37  1  0.844000  0.912400  0.160300  1.0  -0.1206
  H  H38  1  0.837000  0.557600  0.243400  1.0  -0.0858
  H  H39  1  0.656000  0.587600  0.660300  1.0  -0.1206
  H  H40  1  0.663000  0.942400  0.743400  1.0  -0.0861
  H  H41  1  0.156000  0.912400  0.339700  1.0  -0.1219
  H  H42  1  0.163000  0.557600  0.256600  1.0  -0.0863
  H  H43  1  0.344000  0.587600  0.839700  1.0  -0.1219
  H  H44  1  0.337000  0.942400  0.756600  1.0  -0.0849
  O  O45  1  0.937000  0.174260  0.840230  1.0  -0.7698
  O  O46  1  0.066900  0.121660  0.995050  1.0  -0.8959
  O  O47  1  0.931900  0.014680  0.879430  1.0  -0.7361
  O  O48  1  0.141700  0.295400  0.794000  1.0  -0.7595
  O  O49  1  0.343900  0.355080  0.676270  1.0  -0.6889
  O  O50  1  0.352800  0.387010  0.862880  1.0  -0.8772
  O  O51  1  0.563000  0.325740  0.340230  1.0  -0.7718
  O  O52  1  0.433100  0.378340  0.495050  1.0  -0.8937
  O  O53  1  0.568100  0.485320  0.379430  1.0  -0.7399
  O  O54  1  0.358300  0.204600  0.294000  1.0  -0.759
  O  O55  1  0.156100  0.144920  0.176270  1.0  -0.6889
  O  O56  1  0.147200  0.112990  0.362880  1.0  -0.8775
  O  O57  1  0.063000  0.174260  0.659770  1.0  -0.7706
  O  O58  1  0.933100  0.121660  0.504950  1.0  -0.8934
  O  O59  1  0.068100  0.014680  0.620570  1.0  -0.7398
  O  O60  1  0.858300  0.295400  0.706000  1.0  -0.757
  O  O61  1  0.656100  0.355080  0.823730  1.0  -0.6894
  O  O62  1  0.647200  0.387010  0.637120  1.0  -0.8762
  O  O63  1  0.437000  0.325740  0.159770  1.0  -0.7693
  O  O64  1  0.566900  0.378340  0.004950  1.0  -0.8944
  O  O65  1  0.431900  0.485320  0.120570  1.0  -0.7365
  O  O66  1  0.641700  0.204600  0.206000  1.0  -0.7574
  O  O67  1  0.843900  0.144920  0.323730  1.0  -0.6918
  O  O68  1  0.852800  0.112990  0.137120  1.0  -0.8761
  O  O69  1  0.063000  0.825740  0.159770  1.0  -0.7708
  O  O70  1  0.933100  0.878340  0.004950  1.0  -0.894
  O  O71  1  0.068100  0.985320  0.120570  1.0  -0.74
  O  O72  1  0.858300  0.704600  0.206000  1.0  -0.7574
  O  O73  1  0.656100  0.644920  0.323730  1.0  -0.6918
  O  O74  1  0.647200  0.612990  0.137120  1.0  -0.8761
  O  O75  1  0.437000  0.674260  0.659770  1.0  -0.7689
  O  O76  1  0.566900  0.621660  0.504950  1.0  -0.896
  O  O77  1  0.431900  0.514680  0.620570  1.0  -0.7359
  O  O78  1  0.641700  0.795400  0.706000  1.0  -0.7571
  O  O79  1  0.843900  0.855080  0.823730  1.0  -0.6912
  O  O80  1  0.852800  0.887010  0.637120  1.0  -0.8764
  O  O81  1  0.937000  0.825740  0.340230  1.0  -0.7702
  O  O82  1  0.066900  0.878340  0.495050  1.0  -0.8956
  O  O83  1  0.931900  0.985320  0.379430  1.0  -0.7366
  O  O84  1  0.141700  0.704600  0.294000  1.0  -0.7597
  O  O85  1  0.343900  0.644920  0.176270  1.0  -0.6894
  O  O86  1  0.352800  0.612990  0.362880  1.0  -0.8774
  O  O87  1  0.563000  0.674260  0.840230  1.0  -0.7712
  O  O88  1  0.433100  0.621660  0.995050  1.0  -0.8926
  O  O89  1  0.568100  0.514680  0.879430  1.0  -0.7398
  O  O90  1  0.358300  0.795400  0.794000  1.0  -0.7595
  O  O91  1  0.156100  0.855080  0.676270  1.0  -0.6891
  O  O92  1  0.147200  0.887010  0.862880  1.0  -0.877
