# generated using pymatgen
data_Al4P7(HO3)7
_symmetry_space_group_name_H-M   'P 1'
_cell_length_a   13.13020000
_cell_length_b   13.13020000
_cell_length_c   17.45590000
_cell_angle_alpha   90.00000000
_cell_angle_beta   90.00000000
_cell_angle_gamma   120.00000000
_symmetry_Int_Tables_number   1
_chemical_formula_structural   Al4P7(HO3)7
_chemical_formula_sum   'Al16 P28 H28 O84'
_cell_volume   2606.24692357
_cell_formula_units_Z   4
loop_
 _symmetry_equiv_pos_site_id
 _symmetry_equiv_pos_as_xyz
  1  'x, y, z'
loop_
 _atom_site_type_symbol
 _atom_site_label
 _atom_site_symmetry_multiplicity
 _atom_site_fract_x
 _atom_site_fract_y
 _atom_site_fract_z
 _atom_site_occupancy
 _atom_site_charge
  Al  Al1  1  0.292040  0.856780  0.458590  1.0  1.8519
  Al  Al2  1  0.143220  0.435260  0.458590  1.0  1.8511
  Al  Al3  1  0.564740  0.707960  0.458590  1.0  1.8533
  Al  Al4  1  0.856780  0.292040  0.041410  1.0  1.8544
  Al  Al5  1  0.435260  0.143220  0.041410  1.0  1.8521
  Al  Al6  1  0.707960  0.564740  0.041410  1.0  1.8536
  Al  Al7  1  0.707960  0.143220  0.541410  1.0  1.8517
  Al  Al8  1  0.856780  0.564740  0.541410  1.0  1.8537
  Al  Al9  1  0.435260  0.292040  0.541410  1.0  1.8537
  Al  Al10  1  0.143220  0.707960  0.958590  1.0  1.8529
  Al  Al11  1  0.564740  0.856780  0.958590  1.0  1.8513
  Al  Al12  1  0.292040  0.435260  0.958590  1.0  1.8512
  Al  Al13  1  0.000000  0.000000  0.250000  1.0  1.7893
  Al  Al14  1  0.000000  0.000000  0.750000  1.0  1.7893
  Al  Al15  1  0.000000  0.000000  0.500000  1.0  1.8522
  Al  Al16  1  0.000000  0.000000  0.000000  1.0  1.8522
  P  P17  1  0.160090  0.973260  0.371180  1.0  1.5724
  P  P18  1  0.126230  0.630920  0.555150  1.0  1.7159
  P  P19  1  0.026740  0.186830  0.371180  1.0  1.5684
  P  P20  1  0.369080  0.495310  0.555150  1.0  1.7119
  P  P21  1  0.813170  0.839910  0.371180  1.0  1.5786
  P  P22  1  0.504690  0.873770  0.555150  1.0  1.715
  P  P23  1  0.973260  0.160090  0.128820  1.0  1.5758
  P  P24  1  0.630920  0.126230  0.944850  1.0  1.7153
  P  P25  1  0.186830  0.026740  0.128820  1.0  1.5756
  P  P26  1  0.495310  0.369080  0.944850  1.0  1.715
  P  P27  1  0.839910  0.813170  0.128820  1.0  1.569
  P  P28  1  0.873770  0.504690  0.944850  1.0  1.7118
  P  P29  1  0.839910  0.026740  0.628820  1.0  1.5638
  P  P30  1  0.873770  0.369080  0.444850  1.0  1.7135
  P  P31  1  0.973260  0.813170  0.628820  1.0  1.5771
  P  P32  1  0.630920  0.504690  0.444850  1.0  1.7136
  P  P33  1  0.186830  0.160090  0.628820  1.0  1.5757
  P  P34  1  0.495310  0.126230  0.444850  1.0  1.7153
  P  P35  1  0.026740  0.839910  0.871180  1.0  1.5796
  P  P36  1  0.369080  0.873770  0.055150  1.0  1.715
  P  P37  1  0.813170  0.973260  0.871180  1.0  1.5594
  P  P38  1  0.504690  0.630920  0.055150  1.0  1.7143
  P  P39  1  0.160090  0.186830  0.871180  1.0  1.5764
  P  P40  1  0.126230  0.495310  0.055150  1.0  1.7138
  P  P41  1  0.333333  0.666667  0.363050  1.0  1.5926
  P  P42  1  0.666667  0.333333  0.136950  1.0  1.5936
  P  P43  1  0.666667  0.333333  0.636950  1.0  1.5936
  P  P44  1  0.333333  0.666667  0.863050  1.0  1.5926
  H  H45  1  0.250000  0.055000  0.341300  1.0  -0.0547
  H  H46  1  0.191000  0.692000  0.624000  1.0  -0.0632
  H  H47  1  0.945000  0.195000  0.341300  1.0  -0.0551
  H  H48  1  0.308000  0.499000  0.624000  1.0  -0.0627
  H  H49  1  0.805000  0.750000  0.341300  1.0  -0.0532
  H  H50  1  0.501000  0.809000  0.624000  1.0  -0.0635
  H  H51  1  0.055000  0.250000  0.158700  1.0  -0.0525
  H  H52  1  0.692000  0.191000  0.876000  1.0  -0.0611
  H  H53  1  0.195000  0.945000  0.158700  1.0  -0.0536
  H  H54  1  0.499000  0.308000  0.876000  1.0  -0.0612
  H  H55  1  0.750000  0.805000  0.158700  1.0  -0.0552
  H  H56  1  0.809000  0.501000  0.876000  1.0  -0.0594
  H  H57  1  0.750000  0.945000  0.658700  1.0  -0.0537
  H  H58  1  0.809000  0.308000  0.376000  1.0  -0.0601
  H  H59  1  0.055000  0.805000  0.658700  1.0  -0.0563
  H  H60  1  0.692000  0.501000  0.376000  1.0  -0.0608
  H  H61  1  0.195000  0.250000  0.658700  1.0  -0.0529
  H  H62  1  0.499000  0.191000  0.376000  1.0  -0.061
  H  H63  1  0.945000  0.750000  0.841300  1.0  -0.054
  H  H64  1  0.308000  0.809000  0.124000  1.0  -0.0638
  H  H65  1  0.805000  0.055000  0.841300  1.0  -0.0555
  H  H66  1  0.501000  0.692000  0.124000  1.0  -0.063
  H  H67  1  0.250000  0.195000  0.841300  1.0  -0.0561
  H  H68  1  0.191000  0.499000  0.124000  1.0  -0.0627
  H  H69  1  0.333333  0.666667  0.281000  1.0  -0.069
  H  H70  1  0.666667  0.333333  0.219000  1.0  -0.0704
  H  H71  1  0.666667  0.333333  0.719000  1.0  -0.0704
  H  H72  1  0.333333  0.666667  0.781000  1.0  -0.069
  O  O73  1  0.190400  0.879500  0.392370  1.0  -0.8525
  O  O74  1  0.131200  0.024900  0.440150  1.0  -0.8894
  O  O75  1  0.065300  0.926300  0.309830  1.0  -0.8397
  O  O76  1  0.156600  0.724800  0.494400  1.0  -0.8613
  O  O77  1  0.996700  0.574700  0.575200  1.0  -0.8678
  O  O78  1  0.164700  0.544500  0.534500  1.0  -0.871
  O  O79  1  0.320100  0.771500  0.384400  1.0  -0.9578
  O  O80  1  0.120500  0.310900  0.392370  1.0  -0.8514
  O  O81  1  0.975100  0.106300  0.440150  1.0  -0.8897
  O  O82  1  0.073700  0.139000  0.309830  1.0  -0.8384
  O  O83  1  0.275200  0.431800  0.494400  1.0  -0.8617
  O  O84  1  0.425300  0.422000  0.575200  1.0  -0.8662
  O  O85  1  0.455500  0.620200  0.534500  1.0  -0.8694
  O  O86  1  0.228500  0.548600  0.384400  1.0  -0.9568
  O  O87  1  0.689100  0.809600  0.392370  1.0  -0.8528
  O  O88  1  0.893700  0.868800  0.440150  1.0  -0.8924
  O  O89  1  0.861000  0.934700  0.309830  1.0  -0.838
  O  O90  1  0.568200  0.843400  0.494400  1.0  -0.8618
  O  O91  1  0.578000  0.003300  0.575200  1.0  -0.8677
  O  O92  1  0.379800  0.835300  0.534500  1.0  -0.8689
  O  O93  1  0.451400  0.679900  0.384400  1.0  -0.9558
  O  O94  1  0.879500  0.190400  0.107630  1.0  -0.8521
  O  O95  1  0.024900  0.131200  0.059850  1.0  -0.8907
  O  O96  1  0.926300  0.065300  0.190170  1.0  -0.838
  O  O97  1  0.724800  0.156600  0.005600  1.0  -0.8623
  O  O98  1  0.574700  0.996700  0.924800  1.0  -0.8684
  O  O99  1  0.544500  0.164700  0.965500  1.0  -0.8688
  O  O100  1  0.771500  0.320100  0.115600  1.0  -0.9567
  O  O101  1  0.310900  0.120500  0.107630  1.0  -0.853
  O  O102  1  0.106300  0.975100  0.059850  1.0  -0.8901
  O  O103  1  0.139000  0.073700  0.190170  1.0  -0.8384
  O  O104  1  0.431800  0.275200  0.005600  1.0  -0.8618
  O  O105  1  0.422000  0.425300  0.924800  1.0  -0.8682
  O  O106  1  0.620200  0.455500  0.965500  1.0  -0.8709
  O  O107  1  0.548600  0.228500  0.115600  1.0  -0.9581
  O  O108  1  0.809600  0.689100  0.107630  1.0  -0.8514
  O  O109  1  0.868800  0.893700  0.059850  1.0  -0.8897
  O  O110  1  0.934700  0.861000  0.190170  1.0  -0.8397
  O  O111  1  0.843400  0.568200  0.005600  1.0  -0.8635
  O  O112  1  0.003300  0.578000  0.924800  1.0  -0.8668
  O  O113  1  0.835300  0.379800  0.965500  1.0  -0.87
  O  O114  1  0.679900  0.451400  0.115600  1.0  -0.9588
  O  O115  1  0.809600  0.120500  0.607630  1.0  -0.8528
  O  O116  1  0.868800  0.975100  0.559850  1.0  -0.8903
  O  O117  1  0.934700  0.073700  0.690170  1.0  -0.8388
  O  O118  1  0.843400  0.275200  0.505600  1.0  -0.861
  O  O119  1  0.003300  0.425300  0.424800  1.0  -0.8677
  O  O120  1  0.835300  0.455500  0.465500  1.0  -0.871
  O  O121  1  0.679900  0.228500  0.615600  1.0  -0.9573
  O  O122  1  0.879500  0.689100  0.607630  1.0  -0.8523
  O  O123  1  0.024900  0.893700  0.559850  1.0  -0.8899
  O  O124  1  0.926300  0.861000  0.690170  1.0  -0.8393
  O  O125  1  0.724800  0.568200  0.505600  1.0  -0.8638
  O  O126  1  0.574700  0.578000  0.424800  1.0  -0.8665
  O  O127  1  0.544500  0.379800  0.465500  1.0  -0.8699
  O  O128  1  0.771500  0.451400  0.615600  1.0  -0.9581
  O  O129  1  0.310900  0.190400  0.607630  1.0  -0.8507
  O  O130  1  0.106300  0.131200  0.559850  1.0  -0.8913
  O  O131  1  0.139000  0.065300  0.690170  1.0  -0.8389
  O  O132  1  0.431800  0.156600  0.505600  1.0  -0.8624
  O  O133  1  0.422000  0.996700  0.424800  1.0  -0.8679
  O  O134  1  0.620200  0.164700  0.465500  1.0  -0.8695
  O  O135  1  0.548600  0.320100  0.615600  1.0  -0.9559
  O  O136  1  0.120500  0.809600  0.892370  1.0  -0.8517
  O  O137  1  0.975100  0.868800  0.940150  1.0  -0.8934
  O  O138  1  0.073700  0.934700  0.809830  1.0  -0.8391
  O  O139  1  0.275200  0.843400  0.994400  1.0  -0.8619
  O  O140  1  0.425300  0.003300  0.075200  1.0  -0.8664
  O  O141  1  0.455500  0.835300  0.034500  1.0  -0.87
  O  O142  1  0.228500  0.679900  0.884400  1.0  -0.9557
  O  O143  1  0.689100  0.879500  0.892370  1.0  -0.853
  O  O144  1  0.893700  0.024900  0.940150  1.0  -0.8899
  O  O145  1  0.861000  0.926300  0.809830  1.0  -0.8396
  O  O146  1  0.568200  0.724800  0.994400  1.0  -0.8602
  O  O147  1  0.578000  0.574700  0.075200  1.0  -0.8675
  O  O148  1  0.379800  0.544500  0.034500  1.0  -0.8704
  O  O149  1  0.451400  0.771500  0.884400  1.0  -0.9573
  O  O150  1  0.190400  0.310900  0.892370  1.0  -0.8524
  O  O151  1  0.131200  0.106300  0.940150  1.0  -0.8902
  O  O152  1  0.065300  0.139000  0.809830  1.0  -0.8384
  O  O153  1  0.156600  0.431800  0.994400  1.0  -0.862
  O  O154  1  0.996700  0.422000  0.075200  1.0  -0.8658
  O  O155  1  0.164700  0.620200  0.034500  1.0  -0.8694
  O  O156  1  0.320100  0.548600  0.884400  1.0  -0.957
