# generated using pymatgen
data_K3Co14H60(C8O5)12
_symmetry_space_group_name_H-M   'P 1'
_cell_length_a   29.91550000
_cell_length_b   29.91550000
_cell_length_c   29.91550000
_cell_angle_alpha   33.40320000
_cell_angle_beta   33.40320000
_cell_angle_gamma   33.40320000
_symmetry_Int_Tables_number   1
_chemical_formula_structural   K3Co14H60(C8O5)12
_chemical_formula_sum   'K6 Co28 H120 C192 O120'
_cell_volume   7225.69656938
_cell_formula_units_Z   2
loop_
 _symmetry_equiv_pos_site_id
 _symmetry_equiv_pos_as_xyz
  1  'x, y, z'
loop_
 _atom_site_type_symbol
 _atom_site_label
 _atom_site_symmetry_multiplicity
 _atom_site_fract_x
 _atom_site_fract_y
 _atom_site_fract_z
 _atom_site_occupancy
 _atom_site_charge
  K  K1  1  0.361850  0.138150  0.750000  1.0  0.9819
  K  K2  1  0.750000  0.361850  0.138150  1.0  0.9828
  K  K3  1  0.138150  0.750000  0.361850  1.0  0.9862
  K  K4  1  0.638150  0.861850  0.250000  1.0  0.9844
  K  K5  1  0.250000  0.638150  0.861850  1.0  0.9842
  K  K6  1  0.861850  0.250000  0.638150  1.0  0.9818
  Co  Co7  1  0.354690  0.279190  0.542490  1.0  1.0806
  Co  Co8  1  0.259430  0.242190  0.561500  1.0  1.1567
  Co  Co9  1  0.542490  0.354690  0.279190  1.0  1.0807
  Co  Co10  1  0.561500  0.259430  0.242190  1.0  1.1565
  Co  Co11  1  0.279190  0.542490  0.354690  1.0  1.081
  Co  Co12  1  0.242190  0.561500  0.259430  1.0  1.1573
  Co  Co13  1  0.220810  0.145310  0.957510  1.0  1.0807
  Co  Co14  1  0.257810  0.240570  0.938500  1.0  1.1571
  Co  Co15  1  0.145310  0.957510  0.220810  1.0  1.0812
  Co  Co16  1  0.240570  0.938500  0.257810  1.0  1.1603
  Co  Co17  1  0.957510  0.220810  0.145310  1.0  1.0817
  Co  Co18  1  0.938500  0.257810  0.240570  1.0  1.1553
  Co  Co19  1  0.645310  0.720810  0.457510  1.0  1.0828
  Co  Co20  1  0.740570  0.757810  0.438500  1.0  1.1554
  Co  Co21  1  0.457510  0.645310  0.720810  1.0  1.0808
  Co  Co22  1  0.438500  0.740570  0.757810  1.0  1.1566
  Co  Co23  1  0.720810  0.457510  0.645310  1.0  1.0809
  Co  Co24  1  0.757810  0.438500  0.740570  1.0  1.1597
  Co  Co25  1  0.779190  0.854690  0.042490  1.0  1.0809
  Co  Co26  1  0.742190  0.759430  0.061500  1.0  1.1553
  Co  Co27  1  0.854690  0.042490  0.779190  1.0  1.0809
  Co  Co28  1  0.759430  0.061500  0.742190  1.0  1.157
  Co  Co29  1  0.042490  0.779190  0.854690  1.0  1.0807
  Co  Co30  1  0.061500  0.742190  0.759430  1.0  1.1575
  Co  Co31  1  0.358900  0.358900  0.358900  1.0  1.0785
  Co  Co32  1  0.141100  0.141100  0.141100  1.0  1.0791
  Co  Co33  1  0.641100  0.641100  0.641100  1.0  1.0791
  Co  Co34  1  0.858900  0.858900  0.858900  1.0  1.0785
  H  H35  1  0.141200  0.253900  0.833500  1.0  0.107
  H  H36  1  0.069400  0.200200  0.817400  1.0  0.1174
  H  H37  1  0.955900  0.174900  0.966100  1.0  0.1197
  H  H38  1  0.930800  0.195500  0.045600  1.0  0.0973
  H  H39  1  0.024300  0.395500  0.548100  1.0  0.1143
  H  H40  1  0.965700  0.498600  0.386900  1.0  0.1217
  H  H41  1  0.099100  0.514000  0.262700  1.0  0.1075
  H  H42  1  0.195100  0.470100  0.280800  1.0  0.1085
  H  H43  1  0.221200  0.106200  0.679200  1.0  0.3796
  H  H44  1  0.135900  0.192900  0.664900  1.0  0.2464
  H  H45  1  0.833500  0.141200  0.253900  1.0  0.1078
  H  H46  1  0.817400  0.069400  0.200200  1.0  0.1169
  H  H47  1  0.966100  0.955900  0.174900  1.0  0.1194
  H  H48  1  0.045600  0.930800  0.195500  1.0  0.0963
  H  H49  1  0.548100  0.024300  0.395500  1.0  0.1125
  H  H50  1  0.386900  0.965700  0.498600  1.0  0.1214
  H  H51  1  0.262700  0.099100  0.514000  1.0  0.1084
  H  H52  1  0.280800  0.195100  0.470100  1.0  0.109
  H  H53  1  0.679200  0.221200  0.106200  1.0  0.3743
  H  H54  1  0.664900  0.135900  0.192900  1.0  0.2489
  H  H55  1  0.253900  0.833500  0.141200  1.0  0.1077
  H  H56  1  0.200200  0.817400  0.069400  1.0  0.1177
  H  H57  1  0.174900  0.966100  0.955900  1.0  0.12
  H  H58  1  0.195500  0.045600  0.930800  1.0  0.0988
  H  H59  1  0.395500  0.548100  0.024300  1.0  0.1139
  H  H60  1  0.498600  0.386900  0.965700  1.0  0.1202
  H  H61  1  0.514000  0.262700  0.099100  1.0  0.1078
  H  H62  1  0.470100  0.280800  0.195100  1.0  0.1073
  H  H63  1  0.106200  0.679200  0.221200  1.0  0.3781
  H  H64  1  0.192900  0.664900  0.135900  1.0  0.2489
  H  H65  1  0.246100  0.358800  0.666500  1.0  0.1055
  H  H66  1  0.299800  0.430600  0.682600  1.0  0.1175
  H  H67  1  0.325100  0.544100  0.533900  1.0  0.1206
  H  H68  1  0.304500  0.569200  0.454400  1.0  0.0978
  H  H69  1  0.104500  0.475700  0.951900  1.0  0.1135
  H  H70  1  0.001400  0.534300  0.113100  1.0  0.1221
  H  H71  1  0.986000  0.400900  0.237300  1.0  0.1085
  H  H72  1  0.029900  0.304900  0.219200  1.0  0.108
  H  H73  1  0.393800  0.278800  0.820800  1.0  0.3748
  H  H74  1  0.307100  0.364100  0.835100  1.0  0.2486
  H  H75  1  0.358800  0.666500  0.246100  1.0  0.1068
  H  H76  1  0.430600  0.682600  0.299800  1.0  0.1175
  H  H77  1  0.544100  0.533900  0.325100  1.0  0.1196
  H  H78  1  0.569200  0.454400  0.304500  1.0  0.0992
  H  H79  1  0.475700  0.951900  0.104500  1.0  0.1143
  H  H80  1  0.534300  0.113100  0.001400  1.0  0.1215
  H  H81  1  0.400900  0.237300  0.986000  1.0  0.1093
  H  H82  1  0.304900  0.219200  0.029900  1.0  0.1074
  H  H83  1  0.278800  0.820800  0.393800  1.0  0.3773
  H  H84  1  0.364100  0.835100  0.307100  1.0  0.2465
  H  H85  1  0.666500  0.246100  0.358800  1.0  0.1059
  H  H86  1  0.682600  0.299800  0.430600  1.0  0.1181
  H  H87  1  0.533900  0.325100  0.544100  1.0  0.1201
  H  H88  1  0.454400  0.304500  0.569200  1.0  0.099
  H  H89  1  0.951900  0.104500  0.475700  1.0  0.1129
  H  H90  1  0.113100  0.001400  0.534300  1.0  0.1216
  H  H91  1  0.237300  0.986000  0.400900  1.0  0.1078
  H  H92  1  0.219200  0.029900  0.304900  1.0  0.1082
  H  H93  1  0.820800  0.393800  0.278800  1.0  0.3777
  H  H94  1  0.835100  0.307100  0.364100  1.0  0.2471
  H  H95  1  0.858800  0.746100  0.166500  1.0  0.1068
  H  H96  1  0.930600  0.799800  0.182600  1.0  0.1171
  H  H97  1  0.044100  0.825100  0.033900  1.0  0.1202
  H  H98  1  0.069200  0.804500  0.954400  1.0  0.0974
  H  H99  1  0.975700  0.604500  0.451900  1.0  0.1143
  H  H100  1  0.034300  0.501400  0.613100  1.0  0.1217
  H  H101  1  0.900900  0.486000  0.737300  1.0  0.109
  H  H102  1  0.804900  0.529900  0.719200  1.0  0.1092
  H  H103  1  0.778800  0.893800  0.320800  1.0  0.378
  H  H104  1  0.864100  0.807100  0.335100  1.0  0.245
  H  H105  1  0.166500  0.858800  0.746100  1.0  0.1075
  H  H106  1  0.182600  0.930600  0.799800  1.0  0.1173
  H  H107  1  0.033900  0.044100  0.825100  1.0  0.1192
  H  H108  1  0.954400  0.069200  0.804500  1.0  0.0967
  H  H109  1  0.451900  0.975700  0.604500  1.0  0.113
  H  H110  1  0.613100  0.034300  0.501400  1.0  0.1225
  H  H111  1  0.737300  0.900900  0.486000  1.0  0.1068
  H  H112  1  0.719200  0.804900  0.529900  1.0  0.1078
  H  H113  1  0.320800  0.778800  0.893800  1.0  0.3782
  H  H114  1  0.335100  0.864100  0.807100  1.0  0.2497
  H  H115  1  0.746100  0.166500  0.858800  1.0  0.1072
  H  H116  1  0.799800  0.182600  0.930600  1.0  0.1183
  H  H117  1  0.825100  0.033900  0.044100  1.0  0.12
  H  H118  1  0.804500  0.954400  0.069200  1.0  0.0991
  H  H119  1  0.604500  0.451900  0.975700  1.0  0.1142
  H  H120  1  0.501400  0.613100  0.034300  1.0  0.122
  H  H121  1  0.486000  0.737300  0.900900  1.0  0.1081
  H  H122  1  0.529900  0.719200  0.804900  1.0  0.1069
  H  H123  1  0.893800  0.320800  0.778800  1.0  0.3772
  H  H124  1  0.807100  0.335100  0.864100  1.0  0.2478
  H  H125  1  0.753900  0.641200  0.333500  1.0  0.1057
  H  H126  1  0.700200  0.569400  0.317400  1.0  0.1175
  H  H127  1  0.674900  0.455900  0.466100  1.0  0.1202
  H  H128  1  0.695500  0.430800  0.545600  1.0  0.0969
  H  H129  1  0.895500  0.524300  0.048100  1.0  0.1137
  H  H130  1  0.998600  0.465700  0.886900  1.0  0.1211
  H  H131  1  0.014000  0.599100  0.762700  1.0  0.1076
  H  H132  1  0.970100  0.695100  0.780800  1.0  0.108
  H  H133  1  0.606200  0.721200  0.179200  1.0  0.3801
  H  H134  1  0.692900  0.635900  0.164900  1.0  0.2486
  H  H135  1  0.641200  0.333500  0.753900  1.0  0.1072
  H  H136  1  0.569400  0.317400  0.700200  1.0  0.1173
  H  H137  1  0.455900  0.466100  0.674900  1.0  0.1194
  H  H138  1  0.430800  0.545600  0.695500  1.0  0.0983
  H  H139  1  0.524300  0.048100  0.895500  1.0  0.1138
  H  H140  1  0.465700  0.886900  0.998600  1.0  0.1207
  H  H141  1  0.599100  0.762700  0.014000  1.0  0.109
  H  H142  1  0.695100  0.780800  0.970100  1.0  0.1076
  H  H143  1  0.721200  0.179200  0.606200  1.0  0.3748
  H  H144  1  0.635900  0.164900  0.692900  1.0  0.2464
  H  H145  1  0.333500  0.753900  0.641200  1.0  0.106
  H  H146  1  0.317400  0.700200  0.569400  1.0  0.1177
  H  H147  1  0.466100  0.674900  0.455900  1.0  0.1199
  H  H148  1  0.545600  0.695500  0.430800  1.0  0.0988
  H  H149  1  0.048100  0.895500  0.524300  1.0  0.113
  H  H150  1  0.886900  0.998600  0.465700  1.0  0.1213
  H  H151  1  0.762700  0.014000  0.599100  1.0  0.1072
  H  H152  1  0.780800  0.970100  0.695100  1.0  0.1085
  H  H153  1  0.179200  0.606200  0.721200  1.0  0.3782
  H  H154  1  0.164900  0.692900  0.635900  1.0  0.2484
  C  C155  1  0.186520  0.249020  0.711520  1.0  0.7021
  C  C156  1  0.114570  0.232970  0.808970  1.0  -0.1727
  C  C157  1  0.032450  0.227750  0.947550  1.0  -0.1083
  C  C158  1  0.102460  0.240460  0.859160  1.0  -0.0632
  C  C159  1  0.015880  0.231880  0.007480  1.0  0.6719
  C  C160  1  0.060030  0.207330  0.850030  1.0  -0.038
  C  C161  1  0.991930  0.192430  0.938730  1.0  -0.1016
  C  C162  1  0.977750  0.203950  0.986450  1.0  -0.0558
  C  C163  1  0.895360  0.434560  0.562860  1.0  0.707
  C  C164  1  0.982060  0.444460  0.480660  1.0  -0.1339
  C  C165  1  0.118520  0.429620  0.416520  1.0  -0.1714
  C  C166  1  0.039360  0.419560  0.490560  1.0  0.0145
  C  C167  1  0.177540  0.401740  0.431340  1.0  0.7332
  C  C168  1  0.004020  0.480820  0.394620  1.0  -0.036
  C  C169  1  0.083950  0.490150  0.320150  1.0  -0.1185
  C  C170  1  0.141560  0.464260  0.330760  1.0  -0.0481
  C  C171  1  0.711520  0.186520  0.249020  1.0  0.7018
  C  C172  1  0.808970  0.114570  0.232970  1.0  -0.173
  C  C173  1  0.947550  0.032450  0.227750  1.0  -0.1105
  C  C174  1  0.859160  0.102460  0.240460  1.0  -0.0601
  C  C175  1  0.007480  0.015880  0.231880  1.0  0.6719
  C  C176  1  0.850030  0.060030  0.207330  1.0  -0.0396
  C  C177  1  0.938730  0.991930  0.192430  1.0  -0.099
  C  C178  1  0.986450  0.977750  0.203950  1.0  -0.0585
  C  C179  1  0.562860  0.895360  0.434560  1.0  0.7068
  C  C180  1  0.480660  0.982060  0.444460  1.0  -0.1307
  C  C181  1  0.416520  0.118520  0.429620  1.0  -0.1706
  C  C182  1  0.490560  0.039360  0.419560  1.0  0.0121
  C  C183  1  0.431340  0.177540  0.401740  1.0  0.7309
  C  C184  1  0.394620  0.004020  0.480820  1.0  -0.035
  C  C185  1  0.320150  0.083950  0.490150  1.0  -0.1235
  C  C186  1  0.330760  0.141560  0.464260  1.0  -0.0488
  C  C187  1  0.249020  0.711520  0.186520  1.0  0.7024
  C  C188  1  0.232970  0.808970  0.114570  1.0  -0.174
  C  C189  1  0.227750  0.947550  0.032450  1.0  -0.1139
  C  C190  1  0.240460  0.859160  0.102460  1.0  -0.0612
  C  C191  1  0.231880  0.007480  0.015880  1.0  0.6723
  C  C192  1  0.207330  0.850030  0.060030  1.0  -0.0412
  C  C193  1  0.192430  0.938730  0.991930  1.0  -0.0934
  C  C194  1  0.203950  0.986450  0.977750  1.0  -0.0567
  C  C195  1  0.434560  0.562860  0.895360  1.0  0.7129
  C  C196  1  0.444460  0.480660  0.982060  1.0  -0.1363
  C  C197  1  0.429620  0.416520  0.118520  1.0  -0.1746
  C  C198  1  0.419560  0.490560  0.039360  1.0  0.011
  C  C199  1  0.401740  0.431340  0.177540  1.0  0.7326
  C  C200  1  0.480820  0.394620  0.004020  1.0  -0.0288
  C  C201  1  0.490150  0.320150  0.083950  1.0  -0.1228
  C  C202  1  0.464260  0.330760  0.141560  1.0  -0.0455
  C  C203  1  0.250980  0.313480  0.788480  1.0  0.7026
  C  C204  1  0.267030  0.385430  0.691030  1.0  -0.1728
  C  C205  1  0.272250  0.467550  0.552450  1.0  -0.1123
  C  C206  1  0.259540  0.397540  0.640840  1.0  -0.0614
  C  C207  1  0.268120  0.484120  0.492520  1.0  0.6736
  C  C208  1  0.292670  0.439970  0.649970  1.0  -0.0378
  C  C209  1  0.307570  0.508070  0.561270  1.0  -0.0984
  C  C210  1  0.296050  0.522250  0.513550  1.0  -0.0556
  C  C211  1  0.065440  0.604640  0.937140  1.0  0.711
  C  C212  1  0.055540  0.517940  0.019340  1.0  -0.1387
  C  C213  1  0.070380  0.381480  0.083480  1.0  -0.171
  C  C214  1  0.080440  0.460640  0.009440  1.0  0.0131
  C  C215  1  0.098260  0.322460  0.068660  1.0  0.7303
  C  C216  1  0.019180  0.495980  0.105380  1.0  -0.0359
  C  C217  1  0.009850  0.416050  0.179850  1.0  -0.1169
  C  C218  1  0.035740  0.358440  0.169240  1.0  -0.0461
  C  C219  1  0.313480  0.788480  0.250980  1.0  0.7026
  C  C220  1  0.385430  0.691030  0.267030  1.0  -0.173
  C  C221  1  0.467550  0.552450  0.272250  1.0  -0.112
  C  C222  1  0.397540  0.640840  0.259540  1.0  -0.0623
  C  C223  1  0.484120  0.492520  0.268120  1.0  0.674
  C  C224  1  0.439970  0.649970  0.292670  1.0  -0.0403
  C  C225  1  0.508070  0.561270  0.307570  1.0  -0.1009
  C  C226  1  0.522250  0.513550  0.296050  1.0  -0.0558
  C  C227  1  0.604640  0.937140  0.065440  1.0  0.7061
  C  C228  1  0.517940  0.019340  0.055540  1.0  -0.136
  C  C229  1  0.381480  0.083480  0.070380  1.0  -0.1689
  C  C230  1  0.460640  0.009440  0.080440  1.0  0.0124
  C  C231  1  0.322460  0.068660  0.098260  1.0  0.7298
  C  C232  1  0.495980  0.105380  0.019180  1.0  -0.0345
  C  C233  1  0.416050  0.179850  0.009850  1.0  -0.1192
  C  C234  1  0.358440  0.169240  0.035740  1.0  -0.0511
  C  C235  1  0.788480  0.250980  0.313480  1.0  0.7012
  C  C236  1  0.691030  0.267030  0.385430  1.0  -0.1753
  C  C237  1  0.552450  0.272250  0.467550  1.0  -0.1089
  C  C238  1  0.640840  0.259540  0.397540  1.0  -0.0641
  C  C239  1  0.492520  0.268120  0.484120  1.0  0.6703
  C  C240  1  0.649970  0.292670  0.439970  1.0  -0.0427
  C  C241  1  0.561270  0.307570  0.508070  1.0  -0.0958
  C  C242  1  0.513550  0.296050  0.522250  1.0  -0.0577
  C  C243  1  0.937140  0.065440  0.604640  1.0  0.707
  C  C244  1  0.019340  0.055540  0.517940  1.0  -0.1374
  C  C245  1  0.083480  0.070380  0.381480  1.0  -0.1723
  C  C246  1  0.009440  0.080440  0.460640  1.0  0.0124
  C  C247  1  0.068660  0.098260  0.322460  1.0  0.7328
  C  C248  1  0.105380  0.019180  0.495980  1.0  -0.0312
  C  C249  1  0.179850  0.009850  0.416050  1.0  -0.1205
  C  C250  1  0.169240  0.035740  0.358440  1.0  -0.0445
  C  C251  1  0.813480  0.750980  0.288480  1.0  0.7022
  C  C252  1  0.885430  0.767030  0.191030  1.0  -0.1729
  C  C253  1  0.967550  0.772250  0.052450  1.0  -0.1089
  C  C254  1  0.897540  0.759540  0.140840  1.0  -0.0636
  C  C255  1  0.984120  0.768120  0.992520  1.0  0.6712
  C  C256  1  0.939970  0.792670  0.149970  1.0  -0.0401
  C  C257  1  0.008070  0.807570  0.061270  1.0  -0.1013
  C  C258  1  0.022250  0.796050  0.013550  1.0  -0.0553
  C  C259  1  0.104640  0.565440  0.437140  1.0  0.7064
  C  C260  1  0.017940  0.555540  0.519340  1.0  -0.1347
  C  C261  1  0.881480  0.570380  0.583480  1.0  -0.1701
  C  C262  1  0.960640  0.580440  0.509440  1.0  0.0131
  C  C263  1  0.822460  0.598260  0.568660  1.0  0.7324
  C  C264  1  0.995980  0.519180  0.605380  1.0  -0.0356
  C  C265  1  0.916050  0.509850  0.679850  1.0  -0.1186
  C  C266  1  0.858440  0.535740  0.669240  1.0  -0.0491
  C  C267  1  0.288480  0.813480  0.750980  1.0  0.7016
  C  C268  1  0.191030  0.885430  0.767030  1.0  -0.1743
  C  C269  1  0.052450  0.967550  0.772250  1.0  -0.1131
  C  C270  1  0.140840  0.897540  0.759540  1.0  -0.0613
  C  C271  1  0.992520  0.984120  0.768120  1.0  0.6727
  C  C272  1  0.149970  0.939970  0.792670  1.0  -0.0406
  C  C273  1  0.061270  0.008070  0.807570  1.0  -0.0982
  C  C274  1  0.013550  0.022250  0.796050  1.0  -0.0565
  C  C275  1  0.437140  0.104640  0.565440  1.0  0.7061
  C  C276  1  0.519340  0.017940  0.555540  1.0  -0.1319
  C  C277  1  0.583480  0.881480  0.570380  1.0  -0.1698
  C  C278  1  0.509440  0.960640  0.580440  1.0  0.0114
  C  C279  1  0.568660  0.822460  0.598260  1.0  0.7309
  C  C280  1  0.605380  0.995980  0.519180  1.0  -0.0347
  C  C281  1  0.679850  0.916050  0.509850  1.0  -0.1194
  C  C282  1  0.669240  0.858440  0.535740  1.0  -0.048
  C  C283  1  0.750980  0.288480  0.813480  1.0  0.7027
  C  C284  1  0.767030  0.191030  0.885430  1.0  -0.173
  C  C285  1  0.772250  0.052450  0.967550  1.0  -0.113
  C  C286  1  0.759540  0.140840  0.897540  1.0  -0.0609
  C  C287  1  0.768120  0.992520  0.984120  1.0  0.6714
  C  C288  1  0.792670  0.149970  0.939970  1.0  -0.0416
  C  C289  1  0.807570  0.061270  0.008070  1.0  -0.0947
  C  C290  1  0.796050  0.013550  0.022250  1.0  -0.0574
  C  C291  1  0.565440  0.437140  0.104640  1.0  0.7128
  C  C292  1  0.555540  0.519340  0.017940  1.0  -0.1391
  C  C293  1  0.570380  0.583480  0.881480  1.0  -0.1723
  C  C294  1  0.580440  0.509440  0.960640  1.0  0.0119
  C  C295  1  0.598260  0.568660  0.822460  1.0  0.7316
  C  C296  1  0.519180  0.605380  0.995980  1.0  -0.0292
  C  C297  1  0.509850  0.679850  0.916050  1.0  -0.1199
  C  C298  1  0.535740  0.669240  0.858440  1.0  -0.0479
  C  C299  1  0.749020  0.686520  0.211520  1.0  0.7022
  C  C300  1  0.732970  0.614570  0.308970  1.0  -0.1743
  C  C301  1  0.727750  0.532450  0.447550  1.0  -0.1126
  C  C302  1  0.740460  0.602460  0.359160  1.0  -0.0612
  C  C303  1  0.731880  0.515880  0.507480  1.0  0.6736
  C  C304  1  0.707330  0.560030  0.350030  1.0  -0.0366
  C  C305  1  0.692430  0.491930  0.438730  1.0  -0.1001
  C  C306  1  0.703950  0.477750  0.486450  1.0  -0.0558
  C  C307  1  0.934560  0.395360  0.062860  1.0  0.7098
  C  C308  1  0.944460  0.482060  0.980660  1.0  -0.1369
  C  C309  1  0.929620  0.618520  0.916520  1.0  -0.1729
  C  C310  1  0.919560  0.539360  0.990560  1.0  0.0145
  C  C311  1  0.901740  0.677540  0.931340  1.0  0.7305
  C  C312  1  0.980820  0.504020  0.894620  1.0  -0.0354
  C  C313  1  0.990150  0.583950  0.820150  1.0  -0.1181
  C  C314  1  0.964260  0.641560  0.830760  1.0  -0.0454
  C  C315  1  0.686520  0.211520  0.749020  1.0  0.7025
  C  C316  1  0.614570  0.308970  0.732970  1.0  -0.1741
  C  C317  1  0.532450  0.447550  0.727750  1.0  -0.1105
  C  C318  1  0.602460  0.359160  0.740460  1.0  -0.0619
  C  C319  1  0.515880  0.507480  0.731880  1.0  0.6732
  C  C320  1  0.560030  0.350030  0.707330  1.0  -0.0395
  C  C321  1  0.491930  0.438730  0.692430  1.0  -0.0994
  C  C322  1  0.477750  0.486450  0.703950  1.0  -0.0568
  C  C323  1  0.395360  0.062860  0.934560  1.0  0.7076
  C  C324  1  0.482060  0.980660  0.944460  1.0  -0.1332
  C  C325  1  0.618520  0.916520  0.929620  1.0  -0.1698
  C  C326  1  0.539360  0.990560  0.919560  1.0  0.0115
  C  C327  1  0.677540  0.931340  0.901740  1.0  0.7299
  C  C328  1  0.504020  0.894620  0.980820  1.0  -0.0336
  C  C329  1  0.583950  0.820150  0.990150  1.0  -0.1243
  C  C330  1  0.641560  0.830760  0.964260  1.0  -0.0474
  C  C331  1  0.211520  0.749020  0.686520  1.0  0.702
  C  C332  1  0.308970  0.732970  0.614570  1.0  -0.1726
  C  C333  1  0.447550  0.727750  0.532450  1.0  -0.1096
  C  C334  1  0.359160  0.740460  0.602460  1.0  -0.0651
  C  C335  1  0.507480  0.731880  0.515880  1.0  0.671
  C  C336  1  0.350030  0.707330  0.560030  1.0  -0.0418
  C  C337  1  0.438730  0.692430  0.491930  1.0  -0.0947
  C  C338  1  0.486450  0.703950  0.477750  1.0  -0.0559
  C  C339  1  0.062860  0.934560  0.395360  1.0  0.7067
  C  C340  1  0.980660  0.944460  0.482060  1.0  -0.1364
  C  C341  1  0.916520  0.929620  0.618520  1.0  -0.1744
  C  C342  1  0.990560  0.919560  0.539360  1.0  0.0119
  C  C343  1  0.931340  0.901740  0.677540  1.0  0.7333
  C  C344  1  0.894620  0.980820  0.504020  1.0  -0.0315
  C  C345  1  0.820150  0.990150  0.583950  1.0  -0.1232
  C  C346  1  0.830760  0.964260  0.641560  1.0  -0.0438
  O  O347  1  0.298150  0.331150  0.486650  1.0  -0.6922
  O  O348  1  0.174450  0.259450  0.671250  1.0  -0.6061
  O  O349  1  0.253180  0.247980  0.678480  1.0  -0.6252
  O  O350  1  0.934780  0.253180  0.070580  1.0  -0.6724
  O  O351  1  0.079380  0.210680  0.999680  1.0  -0.679
  O  O352  1  0.841200  0.464700  0.550400  1.0  -0.5998
  O  O353  1  0.882320  0.397520  0.639220  1.0  -0.5871
  O  O354  1  0.237500  0.429700  0.362800  1.0  -0.6351
  O  O355  1  0.165740  0.349740  0.511340  1.0  -0.5845
  O  O356  1  0.205360  0.164760  0.637860  1.0  -0.701
  O  O357  1  0.486650  0.298150  0.331150  1.0  -0.6925
  O  O358  1  0.671250  0.174450  0.259450  1.0  -0.6064
  O  O359  1  0.678480  0.253180  0.247980  1.0  -0.6282
  O  O360  1  0.070580  0.934780  0.253180  1.0  -0.6705
  O  O361  1  0.999680  0.079380  0.210680  1.0  -0.6822
  O  O362  1  0.550400  0.841200  0.464700  1.0  -0.599
  O  O363  1  0.639220  0.882320  0.397520  1.0  -0.5842
  O  O364  1  0.362800  0.237500  0.429700  1.0  -0.6371
  O  O365  1  0.511340  0.165740  0.349740  1.0  -0.5845
  O  O366  1  0.637860  0.205360  0.164760  1.0  -0.7022
  O  O367  1  0.331150  0.486650  0.298150  1.0  -0.6933
  O  O368  1  0.259450  0.671250  0.174450  1.0  -0.6059
  O  O369  1  0.247980  0.678480  0.253180  1.0  -0.6291
  O  O370  1  0.253180  0.070580  0.934780  1.0  -0.6657
  O  O371  1  0.210680  0.999680  0.079380  1.0  -0.6814
  O  O372  1  0.464700  0.550400  0.841200  1.0  -0.6008
  O  O373  1  0.397520  0.639220  0.882320  1.0  -0.5874
  O  O374  1  0.429700  0.362800  0.237500  1.0  -0.635
  O  O375  1  0.349740  0.511340  0.165740  1.0  -0.5847
  O  O376  1  0.164760  0.637860  0.205360  1.0  -0.7004
  O  O377  1  0.168850  0.201850  0.013350  1.0  -0.693
  O  O378  1  0.240550  0.325550  0.828750  1.0  -0.608
  O  O379  1  0.252020  0.246820  0.821520  1.0  -0.6295
  O  O380  1  0.246820  0.565220  0.429420  1.0  -0.6731
  O  O381  1  0.289320  0.420620  0.500320  1.0  -0.6791
  O  O382  1  0.035300  0.658800  0.949600  1.0  -0.5989
  O  O383  1  0.102480  0.617680  0.860780  1.0  -0.587
  O  O384  1  0.070300  0.262500  0.137200  1.0  -0.6358
  O  O385  1  0.150260  0.334260  0.988660  1.0  -0.5836
  O  O386  1  0.335240  0.294640  0.862140  1.0  -0.701
  O  O387  1  0.201850  0.013350  0.168850  1.0  -0.6936
  O  O388  1  0.325550  0.828750  0.240550  1.0  -0.6067
  O  O389  1  0.246820  0.821520  0.252020  1.0  -0.6265
  O  O390  1  0.565220  0.429420  0.246820  1.0  -0.6674
  O  O391  1  0.420620  0.500320  0.289320  1.0  -0.6785
  O  O392  1  0.658800  0.949600  0.035300  1.0  -0.6012
  O  O393  1  0.617680  0.860780  0.102480  1.0  -0.5861
  O  O394  1  0.262500  0.137200  0.070300  1.0  -0.6366
  O  O395  1  0.334260  0.988660  0.150260  1.0  -0.5845
  O  O396  1  0.294640  0.862140  0.335240  1.0  -0.7012
  O  O397  1  0.013350  0.168850  0.201850  1.0  -0.6938
  O  O398  1  0.828750  0.240550  0.325550  1.0  -0.6088
  O  O399  1  0.821520  0.252020  0.246820  1.0  -0.627
  O  O400  1  0.429420  0.246820  0.565220  1.0  -0.6708
  O  O401  1  0.500320  0.289320  0.420620  1.0  -0.6804
  O  O402  1  0.949600  0.035300  0.658800  1.0  -0.5961
  O  O403  1  0.860780  0.102480  0.617680  1.0  -0.5865
  O  O404  1  0.137200  0.070300  0.262500  1.0  -0.6355
  O  O405  1  0.988660  0.150260  0.334260  1.0  -0.5847
  O  O406  1  0.862140  0.335240  0.294640  1.0  -0.6997
  O  O407  1  0.701850  0.668850  0.513350  1.0  -0.6932
  O  O408  1  0.825550  0.740550  0.328750  1.0  -0.6073
  O  O409  1  0.746820  0.752020  0.321520  1.0  -0.6268
  O  O410  1  0.065220  0.746820  0.929420  1.0  -0.6689
  O  O411  1  0.920620  0.789320  0.000320  1.0  -0.6792
  O  O412  1  0.158800  0.535300  0.449600  1.0  -0.5996
  O  O413  1  0.117680  0.602480  0.360780  1.0  -0.5886
  O  O414  1  0.762500  0.570300  0.637200  1.0  -0.6349
  O  O415  1  0.834260  0.650260  0.488660  1.0  -0.584
  O  O416  1  0.794640  0.835240  0.362140  1.0  -0.702
  O  O417  1  0.513350  0.701850  0.668850  1.0  -0.6946
  O  O418  1  0.328750  0.825550  0.740550  1.0  -0.608
  O  O419  1  0.321520  0.746820  0.752020  1.0  -0.6279
  O  O420  1  0.929420  0.065220  0.746820  1.0  -0.6721
  O  O421  1  0.000320  0.920620  0.789320  1.0  -0.68
  O  O422  1  0.449600  0.158800  0.535300  1.0  -0.5989
  O  O423  1  0.360780  0.117680  0.602480  1.0  -0.5861
  O  O424  1  0.637200  0.762500  0.570300  1.0  -0.6364
  O  O425  1  0.488660  0.834260  0.650260  1.0  -0.5844
  O  O426  1  0.362140  0.794640  0.835240  1.0  -0.7015
  O  O427  1  0.668850  0.513350  0.701850  1.0  -0.694
  O  O428  1  0.740550  0.328750  0.825550  1.0  -0.6074
  O  O429  1  0.752020  0.321520  0.746820  1.0  -0.628
  O  O430  1  0.746820  0.929420  0.065220  1.0  -0.6679
  O  O431  1  0.789320  0.000320  0.920620  1.0  -0.6817
  O  O432  1  0.535300  0.449600  0.158800  1.0  -0.5993
  O  O433  1  0.602480  0.360780  0.117680  1.0  -0.5883
  O  O434  1  0.570300  0.637200  0.762500  1.0  -0.6355
  O  O435  1  0.650260  0.488660  0.834260  1.0  -0.5847
  O  O436  1  0.835240  0.362140  0.794640  1.0  -0.7017
  O  O437  1  0.831150  0.798150  0.986650  1.0  -0.6935
  O  O438  1  0.759450  0.674450  0.171250  1.0  -0.6071
  O  O439  1  0.747980  0.753180  0.178480  1.0  -0.6297
  O  O440  1  0.753180  0.434780  0.570580  1.0  -0.6731
  O  O441  1  0.710680  0.579380  0.499680  1.0  -0.6805
  O  O442  1  0.964700  0.341200  0.050400  1.0  -0.5996
  O  O443  1  0.897520  0.382320  0.139220  1.0  -0.5874
  O  O444  1  0.929700  0.737500  0.862800  1.0  -0.6363
  O  O445  1  0.849740  0.665740  0.011340  1.0  -0.5837
  O  O446  1  0.664760  0.705360  0.137860  1.0  -0.6985
  O  O447  1  0.798150  0.986650  0.831150  1.0  -0.6917
  O  O448  1  0.674450  0.171250  0.759450  1.0  -0.606
  O  O449  1  0.753180  0.178480  0.747980  1.0  -0.6259
  O  O450  1  0.434780  0.570580  0.753180  1.0  -0.6677
  O  O451  1  0.579380  0.499680  0.710680  1.0  -0.68
  O  O452  1  0.341200  0.050400  0.964700  1.0  -0.601
  O  O453  1  0.382320  0.139220  0.897520  1.0  -0.5851
  O  O454  1  0.737500  0.862800  0.929700  1.0  -0.6361
  O  O455  1  0.665740  0.011340  0.849740  1.0  -0.5853
  O  O456  1  0.705360  0.137860  0.664760  1.0  -0.6997
  O  O457  1  0.986650  0.831150  0.798150  1.0  -0.694
  O  O458  1  0.171250  0.759450  0.674450  1.0  -0.6072
  O  O459  1  0.178480  0.747980  0.753180  1.0  -0.6265
  O  O460  1  0.570580  0.753180  0.434780  1.0  -0.6702
  O  O461  1  0.499680  0.710680  0.579380  1.0  -0.6797
  O  O462  1  0.050400  0.964700  0.341200  1.0  -0.5975
  O  O463  1  0.139220  0.897520  0.382320  1.0  -0.5882
  O  O464  1  0.862800  0.929700  0.737500  1.0  -0.6354
  O  O465  1  0.011340  0.849740  0.665740  1.0  -0.5845
  O  O466  1  0.137860  0.664760  0.705360  1.0  -0.7021
