# generated using pymatgen
data_U14(SO4)19
_symmetry_space_group_name_H-M   'P 1'
_cell_length_a   28.02300000
_cell_length_b   28.02300000
_cell_length_c   19.68400000
_cell_angle_alpha   90.00000000
_cell_angle_beta   90.00000000
_cell_angle_gamma   90.00000000
_symmetry_Int_Tables_number   1
_chemical_formula_structural   U14(SO4)19
_chemical_formula_sum   'U56 S76 O304'
_cell_volume   15457.61940484
_cell_formula_units_Z   4
loop_
 _symmetry_equiv_pos_site_id
 _symmetry_equiv_pos_as_xyz
  1  'x, y, z'
loop_
 _atom_site_type_symbol
 _atom_site_label
 _atom_site_symmetry_multiplicity
 _atom_site_fract_x
 _atom_site_fract_y
 _atom_site_fract_z
 _atom_site_occupancy
 _atom_site_charge
  U  U1  1  0.000390  0.371440  0.216810  1.0  1.6756
  U  U2  1  0.809170  0.331370  0.804570  1.0  1.8575
  U  U3  1  0.707310  0.565520  0.837560  1.0  1.8322
  U  U4  1  0.500390  0.871440  0.716810  1.0  1.6756
  U  U5  1  0.309170  0.831370  0.304570  1.0  1.8575
  U  U6  1  0.207310  0.065520  0.337560  1.0  1.8322
  U  U7  1  0.999610  0.628560  0.216810  1.0  1.6762
  U  U8  1  0.190830  0.668630  0.804570  1.0  1.8568
  U  U9  1  0.292690  0.434480  0.837560  1.0  1.8324
  U  U10  1  0.499610  0.128560  0.716810  1.0  1.6762
  U  U11  1  0.690830  0.168630  0.304570  1.0  1.8568
  U  U12  1  0.792690  0.934480  0.337560  1.0  1.8324
  U  U13  1  0.628560  0.000390  0.216810  1.0  1.6763
  U  U14  1  0.668630  0.809170  0.804570  1.0  1.8569
  U  U15  1  0.434480  0.707310  0.837560  1.0  1.8341
  U  U16  1  0.128560  0.500390  0.716810  1.0  1.6763
  U  U17  1  0.168630  0.309170  0.304570  1.0  1.8569
  U  U18  1  0.934480  0.207310  0.337560  1.0  1.8341
  U  U19  1  0.371440  0.999610  0.216810  1.0  1.6749
  U  U20  1  0.331370  0.190830  0.804570  1.0  1.8569
  U  U21  1  0.565520  0.292690  0.837560  1.0  1.8315
  U  U22  1  0.871440  0.499610  0.716810  1.0  1.6749
  U  U23  1  0.831370  0.690830  0.304570  1.0  1.8569
  U  U24  1  0.065520  0.792690  0.337560  1.0  1.8315
  U  U25  1  0.999610  0.628560  0.783190  1.0  1.671
  U  U26  1  0.190830  0.668630  0.195430  1.0  1.8568
  U  U27  1  0.292690  0.434480  0.162440  1.0  1.8323
  U  U28  1  0.499610  0.128560  0.283190  1.0  1.671
  U  U29  1  0.690830  0.168630  0.695430  1.0  1.8568
  U  U30  1  0.792690  0.934480  0.662440  1.0  1.8323
  U  U31  1  0.000390  0.371440  0.783190  1.0  1.6703
  U  U32  1  0.809170  0.331370  0.195430  1.0  1.8576
  U  U33  1  0.707310  0.565520  0.162440  1.0  1.8321
  U  U34  1  0.500390  0.871440  0.283190  1.0  1.6703
  U  U35  1  0.309170  0.831370  0.695430  1.0  1.8576
  U  U36  1  0.207310  0.065520  0.662440  1.0  1.8321
  U  U37  1  0.371440  0.999610  0.783190  1.0  1.6694
  U  U38  1  0.331370  0.190830  0.195430  1.0  1.857
  U  U39  1  0.565520  0.292690  0.162440  1.0  1.8318
  U  U40  1  0.871440  0.499610  0.283190  1.0  1.6694
  U  U41  1  0.831370  0.690830  0.695430  1.0  1.857
  U  U42  1  0.065520  0.792690  0.662440  1.0  1.8318
  U  U43  1  0.628560  0.000390  0.783190  1.0  1.671
  U  U44  1  0.668630  0.809170  0.195430  1.0  1.857
  U  U45  1  0.434480  0.707310  0.162440  1.0  1.8337
  U  U46  1  0.128560  0.500390  0.283190  1.0  1.671
  U  U47  1  0.168630  0.309170  0.695430  1.0  1.857
  U  U48  1  0.934480  0.207310  0.662440  1.0  1.8337
  U  U49  1  0.823970  0.464950  0.000000  1.0  1.8349
  U  U50  1  0.323970  0.964950  0.500000  1.0  1.8349
  U  U51  1  0.176030  0.535050  0.000000  1.0  1.8361
  U  U52  1  0.676030  0.035050  0.500000  1.0  1.8361
  U  U53  1  0.535050  0.823970  0.000000  1.0  1.8347
  U  U54  1  0.035050  0.323970  0.500000  1.0  1.8347
  U  U55  1  0.464950  0.176030  0.000000  1.0  1.8334
  U  U56  1  0.964950  0.676030  0.500000  1.0  1.8334
  S  S57  1  0.899920  0.420540  0.132900  1.0  1.5679
  S  S58  1  0.774300  0.456350  0.826590  1.0  1.526
  S  S59  1  0.925960  0.271130  0.175290  1.0  1.5616
  S  S60  1  0.807970  0.219810  0.707940  1.0  1.5656
  S  S61  1  0.399920  0.920540  0.632900  1.0  1.5679
  S  S62  1  0.274300  0.956350  0.326590  1.0  1.526
  S  S63  1  0.425960  0.771130  0.675290  1.0  1.5616
  S  S64  1  0.307970  0.719810  0.207940  1.0  1.5656
  S  S65  1  0.100080  0.579460  0.132900  1.0  1.5683
  S  S66  1  0.225700  0.543650  0.826590  1.0  1.5263
  S  S67  1  0.074040  0.728870  0.175290  1.0  1.5606
  S  S68  1  0.192030  0.780190  0.707940  1.0  1.5647
  S  S69  1  0.600080  0.079460  0.632900  1.0  1.5683
  S  S70  1  0.725700  0.043650  0.326590  1.0  1.5263
  S  S71  1  0.574040  0.228870  0.675290  1.0  1.5606
  S  S72  1  0.692030  0.280190  0.207940  1.0  1.5647
  S  S73  1  0.579460  0.899920  0.132900  1.0  1.5675
  S  S74  1  0.543650  0.774300  0.826590  1.0  1.5269
  S  S75  1  0.728870  0.925960  0.175290  1.0  1.561
  S  S76  1  0.780190  0.807970  0.707940  1.0  1.5648
  S  S77  1  0.079460  0.399920  0.632900  1.0  1.5675
  S  S78  1  0.043650  0.274300  0.326590  1.0  1.5269
  S  S79  1  0.228870  0.425960  0.675290  1.0  1.561
  S  S80  1  0.280190  0.307970  0.207940  1.0  1.5648
  S  S81  1  0.420540  0.100080  0.132900  1.0  1.5676
  S  S82  1  0.456350  0.225700  0.826590  1.0  1.5273
  S  S83  1  0.271130  0.074040  0.175290  1.0  1.5596
  S  S84  1  0.219810  0.192030  0.707940  1.0  1.5647
  S  S85  1  0.920540  0.600080  0.632900  1.0  1.5676
  S  S86  1  0.956350  0.725700  0.326590  1.0  1.5273
  S  S87  1  0.771130  0.574040  0.675290  1.0  1.5596
  S  S88  1  0.719810  0.692030  0.207940  1.0  1.5647
  S  S89  1  0.100080  0.579460  0.867100  1.0  1.5682
  S  S90  1  0.225700  0.543650  0.173410  1.0  1.5261
  S  S91  1  0.074040  0.728870  0.824710  1.0  1.561
  S  S92  1  0.192030  0.780190  0.292060  1.0  1.5647
  S  S93  1  0.600080  0.079460  0.367100  1.0  1.5682
  S  S94  1  0.725700  0.043650  0.673410  1.0  1.5261
  S  S95  1  0.574040  0.228870  0.324710  1.0  1.561
  S  S96  1  0.692030  0.280190  0.792060  1.0  1.5647
  S  S97  1  0.899920  0.420540  0.867100  1.0  1.5676
  S  S98  1  0.774300  0.456350  0.173410  1.0  1.526
  S  S99  1  0.925960  0.271130  0.824710  1.0  1.562
  S  S100  1  0.807970  0.219810  0.292060  1.0  1.5655
  S  S101  1  0.399920  0.920540  0.367100  1.0  1.5676
  S  S102  1  0.274300  0.956350  0.673410  1.0  1.526
  S  S103  1  0.425960  0.771130  0.324710  1.0  1.562
  S  S104  1  0.307970  0.719810  0.792060  1.0  1.5655
  S  S105  1  0.420540  0.100080  0.867100  1.0  1.5674
  S  S106  1  0.456350  0.225700  0.173410  1.0  1.5273
  S  S107  1  0.271130  0.074040  0.824710  1.0  1.5599
  S  S108  1  0.219810  0.192030  0.292060  1.0  1.5648
  S  S109  1  0.920540  0.600080  0.367100  1.0  1.5674
  S  S110  1  0.956350  0.725700  0.673410  1.0  1.5273
  S  S111  1  0.771130  0.574040  0.324710  1.0  1.5599
  S  S112  1  0.719810  0.692030  0.792060  1.0  1.5648
  S  S113  1  0.579460  0.899920  0.867100  1.0  1.5673
  S  S114  1  0.543650  0.774300  0.173410  1.0  1.5268
  S  S115  1  0.728870  0.925960  0.824710  1.0  1.5616
  S  S116  1  0.780190  0.807970  0.292060  1.0  1.5649
  S  S117  1  0.079460  0.399920  0.367100  1.0  1.5673
  S  S118  1  0.043650  0.274300  0.673410  1.0  1.5268
  S  S119  1  0.228870  0.425960  0.324710  1.0  1.5616
  S  S120  1  0.280190  0.307970  0.792060  1.0  1.5649
  S  S121  1  0.697190  0.498990  0.000000  1.0  1.4689
  S  S122  1  0.197190  0.998990  0.500000  1.0  1.4689
  S  S123  1  0.302810  0.501010  0.000000  1.0  1.4703
  S  S124  1  0.802810  0.001010  0.500000  1.0  1.4703
  S  S125  1  0.501010  0.697190  0.000000  1.0  1.4704
  S  S126  1  0.001010  0.197190  0.500000  1.0  1.4704
  S  S127  1  0.498990  0.302810  0.000000  1.0  1.4696
  S  S128  1  0.998990  0.802810  0.500000  1.0  1.4696
  S  S129  1  0.000000  0.500000  0.250000  1.0  1.5793
  S  S130  1  0.500000  0.000000  0.250000  1.0  1.5793
  S  S131  1  0.000000  0.500000  0.750000  1.0  1.5793
  S  S132  1  0.500000  0.000000  0.750000  1.0  1.5793
  O  O133  1  0.008000  0.458100  0.206400  1.0  -0.7815
  O  O134  1  0.728500  0.482200  0.822800  1.0  -0.7514
  O  O135  1  0.892500  0.448000  0.070600  1.0  -0.7086
  O  O136  1  0.764800  0.404900  0.833500  1.0  -0.7893
  O  O137  1  0.947300  0.397800  0.127900  1.0  -0.7439
  O  O138  1  0.802300  0.251100  0.767500  1.0  -0.7572
  O  O139  1  0.802200  0.464800  0.764300  1.0  -0.7533
  O  O140  1  0.912300  0.248300  0.112600  1.0  -0.651
  O  O141  1  0.941100  0.234700  0.225100  1.0  -0.7102
  O  O142  1  0.801800  0.473700  0.885000  1.0  -0.7198
  O  O143  1  0.856200  0.199300  0.709800  1.0  -0.7227
  O  O144  1  0.899100  0.451200  0.192100  1.0  -0.7443
  O  O145  1  0.966600  0.303400  0.162300  1.0  -0.7413
  O  O146  1  0.773900  0.180000  0.717500  1.0  -0.7602
  O  O147  1  0.887200  0.298800  0.205200  1.0  -0.6852
  O  O148  1  0.863300  0.383900  0.137700  1.0  -0.7298
  O  O149  1  0.798900  0.244400  0.646200  1.0  -0.5553
  O  O150  1  0.685300  0.524100  0.060300  1.0  -0.7013
  O  O151  1  0.508000  0.958100  0.706400  1.0  -0.7815
  O  O152  1  0.228500  0.982200  0.322800  1.0  -0.7514
  O  O153  1  0.392500  0.948000  0.570600  1.0  -0.7086
  O  O154  1  0.264800  0.904900  0.333500  1.0  -0.7893
  O  O155  1  0.447300  0.897800  0.627900  1.0  -0.7439
  O  O156  1  0.302300  0.751100  0.267500  1.0  -0.7572
  O  O157  1  0.302200  0.964800  0.264300  1.0  -0.7533
  O  O158  1  0.412300  0.748300  0.612600  1.0  -0.651
  O  O159  1  0.441100  0.734700  0.725100  1.0  -0.7102
  O  O160  1  0.301800  0.973700  0.385000  1.0  -0.7198
  O  O161  1  0.356200  0.699300  0.209800  1.0  -0.7227
  O  O162  1  0.399100  0.951200  0.692100  1.0  -0.7443
  O  O163  1  0.466600  0.803400  0.662300  1.0  -0.7413
  O  O164  1  0.273900  0.680000  0.217500  1.0  -0.7602
  O  O165  1  0.387200  0.798800  0.705200  1.0  -0.6852
  O  O166  1  0.363300  0.883900  0.637700  1.0  -0.7298
  O  O167  1  0.298900  0.744400  0.146200  1.0  -0.5553
  O  O168  1  0.185300  0.024100  0.560300  1.0  -0.7013
  O  O169  1  0.992000  0.541900  0.206400  1.0  -0.7815
  O  O170  1  0.271500  0.517800  0.822800  1.0  -0.7541
  O  O171  1  0.107500  0.552000  0.070600  1.0  -0.707
  O  O172  1  0.235200  0.595100  0.833500  1.0  -0.7903
  O  O173  1  0.052700  0.602200  0.127900  1.0  -0.7424
  O  O174  1  0.197700  0.748900  0.767500  1.0  -0.7569
  O  O175  1  0.197800  0.535200  0.764300  1.0  -0.7527
  O  O176  1  0.087700  0.751700  0.112600  1.0  -0.653
  O  O177  1  0.058900  0.765300  0.225100  1.0  -0.7108
  O  O178  1  0.198200  0.526300  0.885000  1.0  -0.7201
  O  O179  1  0.143800  0.800700  0.709800  1.0  -0.7246
  O  O180  1  0.100900  0.548800  0.192100  1.0  -0.7449
  O  O181  1  0.033400  0.696600  0.162300  1.0  -0.7415
  O  O182  1  0.226100  0.820000  0.717500  1.0  -0.7592
  O  O183  1  0.112800  0.701200  0.205200  1.0  -0.685
  O  O184  1  0.136700  0.616100  0.137700  1.0  -0.7295
  O  O185  1  0.201100  0.755600  0.646200  1.0  -0.554
  O  O186  1  0.314700  0.475900  0.060300  1.0  -0.7006
  O  O187  1  0.492000  0.041900  0.706400  1.0  -0.7815
  O  O188  1  0.771500  0.017800  0.322800  1.0  -0.7541
  O  O189  1  0.607500  0.052000  0.570600  1.0  -0.707
  O  O190  1  0.735200  0.095100  0.333500  1.0  -0.7903
  O  O191  1  0.552700  0.102200  0.627900  1.0  -0.7424
  O  O192  1  0.697700  0.248900  0.267500  1.0  -0.7569
  O  O193  1  0.697800  0.035200  0.264300  1.0  -0.7527
  O  O194  1  0.587700  0.251700  0.612600  1.0  -0.653
  O  O195  1  0.558900  0.265300  0.725100  1.0  -0.7108
  O  O196  1  0.698200  0.026300  0.385000  1.0  -0.7201
  O  O197  1  0.643800  0.300700  0.209800  1.0  -0.7246
  O  O198  1  0.600900  0.048800  0.692100  1.0  -0.7449
  O  O199  1  0.533400  0.196600  0.662300  1.0  -0.7415
  O  O200  1  0.726100  0.320000  0.217500  1.0  -0.7592
  O  O201  1  0.612800  0.201200  0.705200  1.0  -0.685
  O  O202  1  0.636700  0.116100  0.637700  1.0  -0.7295
  O  O203  1  0.701100  0.255600  0.146200  1.0  -0.554
  O  O204  1  0.814700  0.975900  0.560300  1.0  -0.7006
  O  O205  1  0.541900  0.008000  0.206400  1.0  -0.7811
  O  O206  1  0.517800  0.728500  0.822800  1.0  -0.7561
  O  O207  1  0.552000  0.892500  0.070600  1.0  -0.7065
  O  O208  1  0.595100  0.764800  0.833500  1.0  -0.7881
  O  O209  1  0.602200  0.947300  0.127900  1.0  -0.744
  O  O210  1  0.748900  0.802300  0.767500  1.0  -0.7549
  O  O211  1  0.535200  0.802200  0.764300  1.0  -0.7537
  O  O212  1  0.751700  0.912300  0.112600  1.0  -0.6526
  O  O213  1  0.765300  0.941100  0.225100  1.0  -0.7099
  O  O214  1  0.526300  0.801800  0.885000  1.0  -0.7205
  O  O215  1  0.800700  0.856200  0.709800  1.0  -0.7225
  O  O216  1  0.548800  0.899100  0.192100  1.0  -0.7436
  O  O217  1  0.696600  0.966600  0.162300  1.0  -0.7448
  O  O218  1  0.820000  0.773900  0.717500  1.0  -0.7586
  O  O219  1  0.701200  0.887200  0.205200  1.0  -0.6856
  O  O220  1  0.616100  0.863300  0.137700  1.0  -0.7303
  O  O221  1  0.755600  0.798900  0.646200  1.0  -0.5528
  O  O222  1  0.475900  0.685300  0.060300  1.0  -0.6985
  O  O223  1  0.041900  0.508000  0.706400  1.0  -0.7811
  O  O224  1  0.017800  0.228500  0.322800  1.0  -0.7561
  O  O225  1  0.052000  0.392500  0.570600  1.0  -0.7065
  O  O226  1  0.095100  0.264800  0.333500  1.0  -0.7881
  O  O227  1  0.102200  0.447300  0.627900  1.0  -0.744
  O  O228  1  0.248900  0.302300  0.267500  1.0  -0.7549
  O  O229  1  0.035200  0.302200  0.264300  1.0  -0.7537
  O  O230  1  0.251700  0.412300  0.612600  1.0  -0.6526
  O  O231  1  0.265300  0.441100  0.725100  1.0  -0.7099
  O  O232  1  0.026300  0.301800  0.385000  1.0  -0.7205
  O  O233  1  0.300700  0.356200  0.209800  1.0  -0.7225
  O  O234  1  0.048800  0.399100  0.692100  1.0  -0.7436
  O  O235  1  0.196600  0.466600  0.662300  1.0  -0.7448
  O  O236  1  0.320000  0.273900  0.217500  1.0  -0.7586
  O  O237  1  0.201200  0.387200  0.705200  1.0  -0.6856
  O  O238  1  0.116100  0.363300  0.637700  1.0  -0.7303
  O  O239  1  0.255600  0.298900  0.146200  1.0  -0.5528
  O  O240  1  0.975900  0.185300  0.560300  1.0  -0.6985
  O  O241  1  0.458100  0.992000  0.206400  1.0  -0.78
  O  O242  1  0.482200  0.271500  0.822800  1.0  -0.7565
  O  O243  1  0.448000  0.107500  0.070600  1.0  -0.7066
  O  O244  1  0.404900  0.235200  0.833500  1.0  -0.7857
  O  O245  1  0.397800  0.052700  0.127900  1.0  -0.7437
  O  O246  1  0.251100  0.197700  0.767500  1.0  -0.756
  O  O247  1  0.464800  0.197800  0.764300  1.0  -0.7536
  O  O248  1  0.248300  0.087700  0.112600  1.0  -0.6511
  O  O249  1  0.234700  0.058900  0.225100  1.0  -0.7111
  O  O250  1  0.473700  0.198200  0.885000  1.0  -0.7205
  O  O251  1  0.199300  0.143800  0.709800  1.0  -0.7233
  O  O252  1  0.451200  0.100900  0.192100  1.0  -0.7428
  O  O253  1  0.303400  0.033400  0.162300  1.0  -0.744
  O  O254  1  0.180000  0.226100  0.717500  1.0  -0.7571
  O  O255  1  0.298800  0.112800  0.205200  1.0  -0.6867
  O  O256  1  0.383900  0.136700  0.137700  1.0  -0.7298
  O  O257  1  0.244400  0.201100  0.646200  1.0  -0.5525
  O  O258  1  0.524100  0.314700  0.060300  1.0  -0.6998
  O  O259  1  0.958100  0.492000  0.706400  1.0  -0.78
  O  O260  1  0.982200  0.771500  0.322800  1.0  -0.7565
  O  O261  1  0.948000  0.607500  0.570600  1.0  -0.7066
  O  O262  1  0.904900  0.735200  0.333500  1.0  -0.7857
  O  O263  1  0.897800  0.552700  0.627900  1.0  -0.7437
  O  O264  1  0.751100  0.697700  0.267500  1.0  -0.756
  O  O265  1  0.964800  0.697800  0.264300  1.0  -0.7536
  O  O266  1  0.748300  0.587700  0.612600  1.0  -0.6511
  O  O267  1  0.734700  0.558900  0.725100  1.0  -0.7111
  O  O268  1  0.973700  0.698200  0.385000  1.0  -0.7205
  O  O269  1  0.699300  0.643800  0.209800  1.0  -0.7233
  O  O270  1  0.951200  0.600900  0.692100  1.0  -0.7428
  O  O271  1  0.803400  0.533400  0.662300  1.0  -0.744
  O  O272  1  0.680000  0.726100  0.217500  1.0  -0.7571
  O  O273  1  0.798800  0.612800  0.705200  1.0  -0.6867
  O  O274  1  0.883900  0.636700  0.637700  1.0  -0.7298
  O  O275  1  0.744400  0.701100  0.146200  1.0  -0.5525
  O  O276  1  0.024100  0.814700  0.560300  1.0  -0.6998
  O  O277  1  0.992000  0.541900  0.793600  1.0  -0.7811
  O  O278  1  0.271500  0.517800  0.177200  1.0  -0.7539
  O  O279  1  0.107500  0.552000  0.929400  1.0  -0.708
  O  O280  1  0.235200  0.595100  0.166500  1.0  -0.79
  O  O281  1  0.052700  0.602200  0.872100  1.0  -0.7431
  O  O282  1  0.197700  0.748900  0.232500  1.0  -0.7565
  O  O283  1  0.197800  0.535200  0.235700  1.0  -0.7501
  O  O284  1  0.087700  0.751700  0.887400  1.0  -0.6504
  O  O285  1  0.058900  0.765300  0.774900  1.0  -0.7095
  O  O286  1  0.198200  0.526300  0.115000  1.0  -0.7188
  O  O287  1  0.143800  0.800700  0.290200  1.0  -0.7243
  O  O288  1  0.100900  0.548800  0.807900  1.0  -0.7447
  O  O289  1  0.033400  0.696600  0.837700  1.0  -0.7408
  O  O290  1  0.226100  0.820000  0.282500  1.0  -0.7588
  O  O291  1  0.112800  0.701200  0.794800  1.0  -0.6847
  O  O292  1  0.136700  0.616100  0.862300  1.0  -0.7285
  O  O293  1  0.201100  0.755600  0.353800  1.0  -0.5505
  O  O294  1  0.314700  0.475900  0.939700  1.0  -0.7016
  O  O295  1  0.492000  0.041900  0.293600  1.0  -0.7811
  O  O296  1  0.771500  0.017800  0.677200  1.0  -0.7539
  O  O297  1  0.607500  0.052000  0.429400  1.0  -0.708
  O  O298  1  0.735200  0.095100  0.666500  1.0  -0.79
  O  O299  1  0.552700  0.102200  0.372100  1.0  -0.7431
  O  O300  1  0.697700  0.248900  0.732500  1.0  -0.7565
  O  O301  1  0.697800  0.035200  0.735700  1.0  -0.7501
  O  O302  1  0.587700  0.251700  0.387400  1.0  -0.6504
  O  O303  1  0.558900  0.265300  0.274900  1.0  -0.7095
  O  O304  1  0.698200  0.026300  0.615000  1.0  -0.7188
  O  O305  1  0.643800  0.300700  0.790200  1.0  -0.7243
  O  O306  1  0.600900  0.048800  0.307900  1.0  -0.7447
  O  O307  1  0.533400  0.196600  0.337700  1.0  -0.7408
  O  O308  1  0.726100  0.320000  0.782500  1.0  -0.7588
  O  O309  1  0.612800  0.201200  0.294800  1.0  -0.6847
  O  O310  1  0.636700  0.116100  0.362300  1.0  -0.7285
  O  O311  1  0.701100  0.255600  0.853800  1.0  -0.5505
  O  O312  1  0.814700  0.975900  0.439700  1.0  -0.7016
  O  O313  1  0.008000  0.458100  0.793600  1.0  -0.7808
  O  O314  1  0.728500  0.482200  0.177200  1.0  -0.7513
  O  O315  1  0.892500  0.448000  0.929400  1.0  -0.7093
  O  O316  1  0.764800  0.404900  0.166500  1.0  -0.789
  O  O317  1  0.947300  0.397800  0.872100  1.0  -0.7436
  O  O318  1  0.802300  0.251100  0.232500  1.0  -0.756
  O  O319  1  0.802200  0.464800  0.235700  1.0  -0.7505
  O  O320  1  0.912300  0.248300  0.887400  1.0  -0.65
  O  O321  1  0.941100  0.234700  0.774900  1.0  -0.7093
  O  O322  1  0.801800  0.473700  0.115000  1.0  -0.718
  O  O323  1  0.856200  0.199300  0.290200  1.0  -0.7224
  O  O324  1  0.899100  0.451200  0.807900  1.0  -0.744
  O  O325  1  0.966600  0.303400  0.837700  1.0  -0.7411
  O  O326  1  0.773900  0.180000  0.282500  1.0  -0.7598
  O  O327  1  0.887200  0.298800  0.794800  1.0  -0.6842
  O  O328  1  0.863300  0.383900  0.862300  1.0  -0.7286
  O  O329  1  0.798900  0.244400  0.353800  1.0  -0.5527
  O  O330  1  0.685300  0.524100  0.939700  1.0  -0.7015
  O  O331  1  0.508000  0.958100  0.293600  1.0  -0.7808
  O  O332  1  0.228500  0.982200  0.677200  1.0  -0.7513
  O  O333  1  0.392500  0.948000  0.429400  1.0  -0.7093
  O  O334  1  0.264800  0.904900  0.666500  1.0  -0.789
  O  O335  1  0.447300  0.897800  0.372100  1.0  -0.7436
  O  O336  1  0.302300  0.751100  0.732500  1.0  -0.756
  O  O337  1  0.302200  0.964800  0.735700  1.0  -0.7505
  O  O338  1  0.412300  0.748300  0.387400  1.0  -0.65
  O  O339  1  0.441100  0.734700  0.274900  1.0  -0.7093
  O  O340  1  0.301800  0.973700  0.615000  1.0  -0.718
  O  O341  1  0.356200  0.699300  0.790200  1.0  -0.7224
  O  O342  1  0.399100  0.951200  0.307900  1.0  -0.744
  O  O343  1  0.466600  0.803400  0.337700  1.0  -0.7411
  O  O344  1  0.273900  0.680000  0.782500  1.0  -0.7598
  O  O345  1  0.387200  0.798800  0.294800  1.0  -0.6842
  O  O346  1  0.363300  0.883900  0.362300  1.0  -0.7286
  O  O347  1  0.298900  0.744400  0.853800  1.0  -0.5527
  O  O348  1  0.185300  0.024100  0.439700  1.0  -0.7015
  O  O349  1  0.458100  0.992000  0.793600  1.0  -0.7802
  O  O350  1  0.482200  0.271500  0.177200  1.0  -0.7557
  O  O351  1  0.448000  0.107500  0.929400  1.0  -0.7069
  O  O352  1  0.404900  0.235200  0.166500  1.0  -0.7854
  O  O353  1  0.397800  0.052700  0.872100  1.0  -0.7442
  O  O354  1  0.251100  0.197700  0.232500  1.0  -0.7554
  O  O355  1  0.464800  0.197800  0.235700  1.0  -0.752
  O  O356  1  0.248300  0.087700  0.887400  1.0  -0.6492
  O  O357  1  0.234700  0.058900  0.774900  1.0  -0.7102
  O  O358  1  0.473700  0.198200  0.115000  1.0  -0.7191
  O  O359  1  0.199300  0.143800  0.290200  1.0  -0.7231
  O  O360  1  0.451200  0.100900  0.807900  1.0  -0.7431
  O  O361  1  0.303400  0.033400  0.837700  1.0  -0.7438
  O  O362  1  0.180000  0.226100  0.282500  1.0  -0.7568
  O  O363  1  0.298800  0.112800  0.794800  1.0  -0.6857
  O  O364  1  0.383900  0.136700  0.862300  1.0  -0.7284
  O  O365  1  0.244400  0.201100  0.353800  1.0  -0.5491
  O  O366  1  0.524100  0.314700  0.939700  1.0  -0.7
  O  O367  1  0.958100  0.492000  0.293600  1.0  -0.7802
  O  O368  1  0.982200  0.771500  0.677200  1.0  -0.7557
  O  O369  1  0.948000  0.607500  0.429400  1.0  -0.7069
  O  O370  1  0.904900  0.735200  0.666500  1.0  -0.7854
  O  O371  1  0.897800  0.552700  0.372100  1.0  -0.7442
  O  O372  1  0.751100  0.697700  0.732500  1.0  -0.7554
  O  O373  1  0.964800  0.697800  0.735700  1.0  -0.752
  O  O374  1  0.748300  0.587700  0.387400  1.0  -0.6492
  O  O375  1  0.734700  0.558900  0.274900  1.0  -0.7102
  O  O376  1  0.973700  0.698200  0.615000  1.0  -0.7191
  O  O377  1  0.699300  0.643800  0.790200  1.0  -0.7231
  O  O378  1  0.951200  0.600900  0.307900  1.0  -0.7431
  O  O379  1  0.803400  0.533400  0.337700  1.0  -0.7438
  O  O380  1  0.680000  0.726100  0.782500  1.0  -0.7568
  O  O381  1  0.798800  0.612800  0.294800  1.0  -0.6857
  O  O382  1  0.883900  0.636700  0.362300  1.0  -0.7284
  O  O383  1  0.744400  0.701100  0.853800  1.0  -0.5491
  O  O384  1  0.024100  0.814700  0.439700  1.0  -0.7
  O  O385  1  0.541900  0.008000  0.793600  1.0  -0.7802
  O  O386  1  0.517800  0.728500  0.177200  1.0  -0.7561
  O  O387  1  0.552000  0.892500  0.929400  1.0  -0.7071
  O  O388  1  0.595100  0.764800  0.166500  1.0  -0.7876
  O  O389  1  0.602200  0.947300  0.872100  1.0  -0.744
  O  O390  1  0.748900  0.802300  0.232500  1.0  -0.7541
  O  O391  1  0.535200  0.802200  0.235700  1.0  -0.7509
  O  O392  1  0.751700  0.912300  0.887400  1.0  -0.651
  O  O393  1  0.765300  0.941100  0.774900  1.0  -0.7088
  O  O394  1  0.526300  0.801800  0.115000  1.0  -0.7188
  O  O395  1  0.800700  0.856200  0.290200  1.0  -0.7222
  O  O396  1  0.548800  0.899100  0.807900  1.0  -0.7436
  O  O397  1  0.696600  0.966600  0.837700  1.0  -0.7441
  O  O398  1  0.820000  0.773900  0.282500  1.0  -0.7582
  O  O399  1  0.701200  0.887200  0.794800  1.0  -0.6849
  O  O400  1  0.616100  0.863300  0.862300  1.0  -0.7289
  O  O401  1  0.755600  0.798900  0.353800  1.0  -0.5501
  O  O402  1  0.475900  0.685300  0.939700  1.0  -0.6989
  O  O403  1  0.041900  0.508000  0.293600  1.0  -0.7802
  O  O404  1  0.017800  0.228500  0.677200  1.0  -0.7561
  O  O405  1  0.052000  0.392500  0.429400  1.0  -0.7071
  O  O406  1  0.095100  0.264800  0.666500  1.0  -0.7876
  O  O407  1  0.102200  0.447300  0.372100  1.0  -0.744
  O  O408  1  0.248900  0.302300  0.732500  1.0  -0.7541
  O  O409  1  0.035200  0.302200  0.735700  1.0  -0.7509
  O  O410  1  0.251700  0.412300  0.387400  1.0  -0.651
  O  O411  1  0.265300  0.441100  0.274900  1.0  -0.7088
  O  O412  1  0.026300  0.301800  0.615000  1.0  -0.7188
  O  O413  1  0.300700  0.356200  0.790200  1.0  -0.7222
  O  O414  1  0.048800  0.399100  0.307900  1.0  -0.7436
  O  O415  1  0.196600  0.466600  0.337700  1.0  -0.7441
  O  O416  1  0.320000  0.273900  0.782500  1.0  -0.7582
  O  O417  1  0.201200  0.387200  0.294800  1.0  -0.6849
  O  O418  1  0.116100  0.363300  0.362300  1.0  -0.7289
  O  O419  1  0.255600  0.298900  0.853800  1.0  -0.5501
  O  O420  1  0.975900  0.185300  0.439700  1.0  -0.6989
  O  O421  1  0.744700  0.486900  0.000000  1.0  -0.6811
  O  O422  1  0.664900  0.460500  0.000000  1.0  -0.5823
  O  O423  1  0.244700  0.986900  0.500000  1.0  -0.6811
  O  O424  1  0.164900  0.960500  0.500000  1.0  -0.5823
  O  O425  1  0.255300  0.513100  0.000000  1.0  -0.681
  O  O426  1  0.335100  0.539500  0.000000  1.0  -0.5834
  O  O427  1  0.755300  0.013100  0.500000  1.0  -0.681
  O  O428  1  0.835100  0.039500  0.500000  1.0  -0.5834
  O  O429  1  0.513100  0.744700  0.000000  1.0  -0.6802
  O  O430  1  0.539500  0.664900  0.000000  1.0  -0.5831
  O  O431  1  0.013100  0.244700  0.500000  1.0  -0.6802
  O  O432  1  0.039500  0.164900  0.500000  1.0  -0.5831
  O  O433  1  0.486900  0.255300  0.000000  1.0  -0.6819
  O  O434  1  0.460500  0.335100  0.000000  1.0  -0.582
  O  O435  1  0.986900  0.755300  0.500000  1.0  -0.6819
  O  O436  1  0.960500  0.835100  0.500000  1.0  -0.582
