# generated using pymatgen
data_KAg3(CN)6
_symmetry_space_group_name_H-M   'P 1'
_cell_length_a   9.28990000
_cell_length_b   9.28990000
_cell_length_c   49.24800000
_cell_angle_alpha   90.00000000
_cell_angle_beta   90.00000000
_cell_angle_gamma   120.00000000
_symmetry_Int_Tables_number   1
_chemical_formula_structural   KAg3(CN)6
_chemical_formula_sum   'K6 Ag18 C36 N36'
_cell_volume   3680.79226885
_cell_formula_units_Z   6
loop_
 _symmetry_equiv_pos_site_id
 _symmetry_equiv_pos_as_xyz
  1  'x, y, z'
loop_
 _atom_site_type_symbol
 _atom_site_label
 _atom_site_symmetry_multiplicity
 _atom_site_fract_x
 _atom_site_fract_y
 _atom_site_fract_z
 _atom_site_occupancy
 _atom_site_charge
  K  K1  1  0.000000  0.000000  0.000000  1.0  0.9861
  K  K2  1  0.666667  0.333333  0.333333  1.0  0.9835
  K  K3  1  0.333333  0.666667  0.666667  1.0  0.9858
  K  K4  1  0.000000  0.000000  0.500000  1.0  0.9861
  K  K5  1  0.666667  0.333333  0.833330  1.0  0.9838
  K  K6  1  0.333333  0.666667  0.166670  1.0  0.986
  Ag  Ag7  1  0.865590  0.532260  0.083330  1.0  0.3267
  Ag  Ag8  1  0.198930  0.198930  0.750000  1.0  0.3404
  Ag  Ag9  1  0.467740  0.333333  0.083330  1.0  0.3468
  Ag  Ag10  1  0.666667  0.134410  0.083330  1.0  0.3459
  Ag  Ag11  1  0.333333  0.467740  0.416670  1.0  0.3458
  Ag  Ag12  1  0.532260  0.865590  0.416670  1.0  0.3267
  Ag  Ag13  1  0.000000  0.801070  0.750000  1.0  0.3274
  Ag  Ag14  1  0.134410  0.666667  0.416670  1.0  0.3469
  Ag  Ag15  1  0.801070  0.000000  0.750000  1.0  0.3277
  Ag  Ag16  1  0.134410  0.467740  0.916670  1.0  0.3278
  Ag  Ag17  1  0.801070  0.801070  0.250000  1.0  0.3417
  Ag  Ag18  1  0.532260  0.666667  0.916670  1.0  0.346
  Ag  Ag19  1  0.198930  0.000000  0.250000  1.0  0.3275
  Ag  Ag20  1  0.865590  0.333333  0.583330  1.0  0.346
  Ag  Ag21  1  0.333333  0.865590  0.916670  1.0  0.3463
  Ag  Ag22  1  0.000000  0.198930  0.250000  1.0  0.3276
  Ag  Ag23  1  0.467740  0.134410  0.583330  1.0  0.3277
  Ag  Ag24  1  0.666667  0.532260  0.583330  1.0  0.3462
  C  C25  1  0.808400  0.640700  0.051310  1.0  0.0892
  C  C26  1  0.475070  0.974030  0.384640  1.0  0.089
  C  C27  1  0.141730  0.307370  0.717980  1.0  0.0849
  C  C28  1  0.359300  0.167700  0.051310  1.0  0.0852
  C  C29  1  0.025970  0.501030  0.384640  1.0  0.0847
  C  C30  1  0.692630  0.834370  0.717980  1.0  0.0878
  C  C31  1  0.832300  0.191600  0.051310  1.0  0.0892
  C  C32  1  0.498970  0.524930  0.384640  1.0  0.0886
  C  C33  1  0.165630  0.858270  0.717980  1.0  0.0902
  C  C34  1  0.640700  0.808400  0.448690  1.0  0.0904
  C  C35  1  0.307370  0.141730  0.782020  1.0  0.0862
  C  C36  1  0.974030  0.475070  0.115360  1.0  0.0904
  C  C37  1  0.167700  0.359300  0.448690  1.0  0.0853
  C  C38  1  0.834370  0.692630  0.782020  1.0  0.0873
  C  C39  1  0.501030  0.025970  0.115360  1.0  0.0851
  C  C40  1  0.191600  0.832300  0.448690  1.0  0.0877
  C  C41  1  0.858270  0.165630  0.782020  1.0  0.0888
  C  C42  1  0.524930  0.498970  0.115360  1.0  0.0872
  C  C43  1  0.191600  0.359300  0.948690  1.0  0.0892
  C  C44  1  0.858270  0.692630  0.282020  1.0  0.0852
  C  C45  1  0.524930  0.025970  0.615360  1.0  0.0893
  C  C46  1  0.640700  0.832300  0.948690  1.0  0.0855
  C  C47  1  0.307370  0.165630  0.282020  1.0  0.0876
  C  C48  1  0.974030  0.498970  0.615360  1.0  0.0853
  C  C49  1  0.167700  0.808400  0.948690  1.0  0.0883
  C  C50  1  0.834370  0.141730  0.282020  1.0  0.09
  C  C51  1  0.501030  0.475070  0.615360  1.0  0.0878
  C  C52  1  0.359300  0.191600  0.551310  1.0  0.0908
  C  C53  1  0.025970  0.524930  0.884640  1.0  0.0906
  C  C54  1  0.692630  0.858270  0.217980  1.0  0.0861
  C  C55  1  0.832300  0.640700  0.551310  1.0  0.0854
  C  C56  1  0.498970  0.974030  0.884640  1.0  0.085
  C  C57  1  0.165630  0.307370  0.217980  1.0  0.0876
  C  C58  1  0.808400  0.167700  0.551310  1.0  0.0882
  C  C59  1  0.475070  0.501030  0.884640  1.0  0.0879
  C  C60  1  0.141730  0.834370  0.217980  1.0  0.0895
  N  N61  1  0.792900  0.710200  0.034770  1.0  -0.4228
  N  N62  1  0.459570  0.043530  0.368100  1.0  -0.4229
  N  N63  1  0.126230  0.376870  0.701440  1.0  -0.413
  N  N64  1  0.289800  0.082700  0.034770  1.0  -0.415
  N  N65  1  0.956470  0.416030  0.368100  1.0  -0.4153
  N  N66  1  0.623130  0.749370  0.701440  1.0  -0.4262
  N  N67  1  0.917300  0.207100  0.034770  1.0  -0.4243
  N  N68  1  0.583970  0.540430  0.368100  1.0  -0.4243
  N  N69  1  0.250630  0.873770  0.701440  1.0  -0.4222
  N  N70  1  0.710200  0.792900  0.465230  1.0  -0.421
  N  N71  1  0.376870  0.126230  0.798560  1.0  -0.4111
  N  N72  1  0.043530  0.459570  0.131900  1.0  -0.4212
  N  N73  1  0.082700  0.289800  0.465230  1.0  -0.4109
  N  N74  1  0.749370  0.623130  0.798560  1.0  -0.4242
  N  N75  1  0.416030  0.956470  0.131900  1.0  -0.4133
  N  N76  1  0.207100  0.917300  0.465230  1.0  -0.4265
  N  N77  1  0.873770  0.250630  0.798560  1.0  -0.4265
  N  N78  1  0.540430  0.583970  0.131900  1.0  -0.4265
  N  N79  1  0.207100  0.289800  0.965230  1.0  -0.4217
  N  N80  1  0.873770  0.623130  0.298560  1.0  -0.4119
  N  N81  1  0.540430  0.956470  0.631900  1.0  -0.4217
  N  N82  1  0.710200  0.917300  0.965230  1.0  -0.4161
  N  N83  1  0.376870  0.250630  0.298560  1.0  -0.4275
  N  N84  1  0.043530  0.583970  0.631900  1.0  -0.4165
  N  N85  1  0.082700  0.792900  0.965230  1.0  -0.4231
  N  N86  1  0.749370  0.126230  0.298560  1.0  -0.4208
  N  N87  1  0.416030  0.459570  0.631900  1.0  -0.4231
  N  N88  1  0.289800  0.207100  0.534770  1.0  -0.422
  N  N89  1  0.956470  0.540430  0.868100  1.0  -0.422
  N  N90  1  0.623130  0.873770  0.201440  1.0  -0.4119
  N  N91  1  0.917300  0.710200  0.534770  1.0  -0.4143
  N  N92  1  0.583970  0.043530  0.868100  1.0  -0.4147
  N  N93  1  0.250630  0.376870  0.201440  1.0  -0.4229
  N  N94  1  0.792900  0.082700  0.534770  1.0  -0.4272
  N  N95  1  0.459570  0.416030  0.868100  1.0  -0.4271
  N  N96  1  0.126230  0.749370  0.201440  1.0  -0.4271
