# generated using pymatgen
data_ZnH26C41N2O5
_symmetry_space_group_name_H-M   'P 1'
_cell_length_a   15.74900000
_cell_length_b   16.42500000
_cell_length_c   15.72500000
_cell_angle_alpha   90.00000000
_cell_angle_beta   90.00000000
_cell_angle_gamma   90.00000000
_symmetry_Int_Tables_number   1
_chemical_formula_structural   ZnH26C41N2O5
_chemical_formula_sum   'Zn4 H104 C164 N8 O20'
_cell_volume   4067.70093563
_cell_formula_units_Z   4
loop_
 _symmetry_equiv_pos_site_id
 _symmetry_equiv_pos_as_xyz
  1  'x, y, z'
loop_
 _atom_site_type_symbol
 _atom_site_label
 _atom_site_symmetry_multiplicity
 _atom_site_fract_x
 _atom_site_fract_y
 _atom_site_fract_z
 _atom_site_occupancy
 _atom_site_charge
  Zn  Zn1  1  0.374100  0.036600  0.135000  1.0  0.8603
  Zn  Zn2  1  0.625900  0.963400  0.135000  1.0  0.8591
  Zn  Zn3  1  0.874100  0.463400  0.135000  1.0  0.8598
  Zn  Zn4  1  0.125900  0.536600  0.135000  1.0  0.8596
  H  H5  1  0.366600  0.924600  0.295800  1.0  0.0768
  H  H6  1  0.555300  0.755600  0.178600  1.0  0.1545
  H  H7  1  0.352200  0.924400  0.434600  1.0  0.125
  H  H8  1  0.432100  0.157200  0.851600  1.0  0.111
  H  H9  1  0.417800  0.558900  0.148200  1.0  0.1237
  H  H10  1  0.305800  0.774100  0.123000  1.0  0.1158
  H  H11  1  0.400800  0.159500  0.286800  1.0  0.0968
  H  H12  1  0.429300  0.149900  0.986700  1.0  0.0987
  H  H13  1  0.354200  0.945300  0.850200  1.0  0.0814
  H  H14  1  0.403100  0.162500  0.436100  1.0  0.1026
  H  H15  1  0.789100  0.718100  0.267000  1.0  0.1283
  H  H16  1  0.903700  0.766700  0.350600  1.0  0.1424
  H  H17  1  0.658400  0.685100  0.173300  1.0  0.1196
  H  H18  1  0.695400  0.596700  0.182800  1.0  0.1301
  H  H19  1  0.539500  0.582400  0.459400  1.0  0.1104
  H  H20  1  0.517100  0.581400  0.327600  1.0  0.1448
  H  H21  1  0.680700  0.664200  0.673200  1.0  0.1387
  H  H22  1  0.853100  0.719500  0.675900  1.0  0.1224
  H  H23  1  0.949500  0.818200  0.447400  1.0  0.24
  H  H24  1  0.556000  0.614500  0.599000  1.0  0.1931
  H  H25  1  0.961100  0.775500  0.598400  1.0  0.1108
  H  H26  1  0.328800  0.947900  0.556300  1.0  0.1908
  H  H27  1  0.446700  0.150300  0.718200  1.0  0.1079
  H  H28  1  0.325900  0.942200  0.703100  1.0  0.1117
  H  H29  1  0.433900  0.159100  0.570600  1.0  0.1272
  H  H30  1  0.312100  0.946000  0.990000  1.0  0.117
  H  H31  1  0.633400  0.075400  0.295800  1.0  0.0769
  H  H32  1  0.444700  0.244400  0.178600  1.0  0.1539
  H  H33  1  0.647800  0.075600  0.434600  1.0  0.125
  H  H34  1  0.567900  0.842800  0.851600  1.0  0.1114
  H  H35  1  0.582200  0.441100  0.148200  1.0  0.1241
  H  H36  1  0.694200  0.225900  0.123000  1.0  0.1145
  H  H37  1  0.599200  0.840500  0.286800  1.0  0.0978
  H  H38  1  0.570700  0.850100  0.986700  1.0  0.0977
  H  H39  1  0.645800  0.054700  0.850200  1.0  0.0814
  H  H40  1  0.596900  0.837500  0.436100  1.0  0.1031
  H  H41  1  0.210900  0.281900  0.267000  1.0  0.1284
  H  H42  1  0.096300  0.233300  0.350600  1.0  0.1416
  H  H43  1  0.341600  0.314900  0.173300  1.0  0.1198
  H  H44  1  0.304600  0.403300  0.182800  1.0  0.1306
  H  H45  1  0.460500  0.417600  0.459400  1.0  0.1114
  H  H46  1  0.482900  0.418600  0.327600  1.0  0.1446
  H  H47  1  0.319300  0.335800  0.673200  1.0  0.1383
  H  H48  1  0.146900  0.280500  0.675900  1.0  0.122
  H  H49  1  0.050500  0.181800  0.447400  1.0  0.2394
  H  H50  1  0.444000  0.385500  0.599000  1.0  0.1917
  H  H51  1  0.038900  0.224500  0.598400  1.0  0.1111
  H  H52  1  0.671200  0.052100  0.556300  1.0  0.1914
  H  H53  1  0.553300  0.849700  0.718200  1.0  0.1083
  H  H54  1  0.674100  0.057800  0.703100  1.0  0.1109
  H  H55  1  0.566100  0.840900  0.570600  1.0  0.1271
  H  H56  1  0.687900  0.054000  0.990000  1.0  0.1181
  H  H57  1  0.866600  0.575400  0.295800  1.0  0.0768
  H  H58  1  0.055300  0.744400  0.178600  1.0  0.1544
  H  H59  1  0.852200  0.575600  0.434600  1.0  0.1248
  H  H60  1  0.932100  0.342800  0.851600  1.0  0.112
  H  H61  1  0.917800  0.941100  0.148200  1.0  0.1239
  H  H62  1  0.805800  0.725900  0.123000  1.0  0.116
  H  H63  1  0.900800  0.340500  0.286800  1.0  0.0971
  H  H64  1  0.929300  0.350100  0.986700  1.0  0.0977
  H  H65  1  0.854200  0.554700  0.850200  1.0  0.0821
  H  H66  1  0.903100  0.337500  0.436100  1.0  0.1026
  H  H67  1  0.289100  0.781900  0.267000  1.0  0.129
  H  H68  1  0.403700  0.733300  0.350600  1.0  0.1415
  H  H69  1  0.158400  0.814900  0.173300  1.0  0.1196
  H  H70  1  0.195400  0.903300  0.182800  1.0  0.1305
  H  H71  1  0.039500  0.917600  0.459400  1.0  0.1106
  H  H72  1  0.017100  0.918600  0.327600  1.0  0.145
  H  H73  1  0.180700  0.835800  0.673200  1.0  0.14
  H  H74  1  0.353100  0.780500  0.675900  1.0  0.122
  H  H75  1  0.449500  0.681800  0.447400  1.0  0.2403
  H  H76  1  0.056000  0.885500  0.599000  1.0  0.1923
  H  H77  1  0.461100  0.724500  0.598400  1.0  0.1107
  H  H78  1  0.828800  0.552100  0.556300  1.0  0.1911
  H  H79  1  0.946700  0.349700  0.718200  1.0  0.1086
  H  H80  1  0.825900  0.557800  0.703100  1.0  0.1116
  H  H81  1  0.933900  0.340900  0.570600  1.0  0.1274
  H  H82  1  0.812100  0.554000  0.990000  1.0  0.1179
  H  H83  1  0.133400  0.424600  0.295800  1.0  0.0762
  H  H84  1  0.944700  0.255600  0.178600  1.0  0.154
  H  H85  1  0.147800  0.424400  0.434600  1.0  0.1253
  H  H86  1  0.067900  0.657200  0.851600  1.0  0.1114
  H  H87  1  0.082200  0.058900  0.148200  1.0  0.1239
  H  H88  1  0.194200  0.274100  0.123000  1.0  0.1139
  H  H89  1  0.099200  0.659500  0.286800  1.0  0.0975
  H  H90  1  0.070700  0.649900  0.986700  1.0  0.0984
  H  H91  1  0.145800  0.445300  0.850200  1.0  0.0807
  H  H92  1  0.096900  0.662500  0.436100  1.0  0.1031
  H  H93  1  0.710900  0.218100  0.267000  1.0  0.1279
  H  H94  1  0.596300  0.266700  0.350600  1.0  0.1427
  H  H95  1  0.841600  0.185100  0.173300  1.0  0.1198
  H  H96  1  0.804600  0.096700  0.182800  1.0  0.1301
  H  H97  1  0.960500  0.082400  0.459400  1.0  0.1117
  H  H98  1  0.982900  0.081400  0.327600  1.0  0.1443
  H  H99  1  0.819300  0.164200  0.673200  1.0  0.14
  H  H100  1  0.646900  0.219500  0.675900  1.0  0.1225
  H  H101  1  0.550500  0.318200  0.447400  1.0  0.2398
  H  H102  1  0.944000  0.114500  0.599000  1.0  0.1921
  H  H103  1  0.538900  0.275500  0.598400  1.0  0.1114
  H  H104  1  0.171200  0.447900  0.556300  1.0  0.1912
  H  H105  1  0.053300  0.650300  0.718200  1.0  0.1078
  H  H106  1  0.174100  0.442200  0.703100  1.0  0.1112
  H  H107  1  0.066100  0.659100  0.570600  1.0  0.1271
  H  H108  1  0.187900  0.446000  0.990000  1.0  0.1183
  C  C109  1  0.435000  0.781000  0.131000  1.0  -0.1295
  C  C110  1  0.441000  0.873000  0.137000  1.0  0.6868
  C  C111  1  0.390000  0.050000  0.818000  1.0  -0.0505
  C  C112  1  0.369000  0.975000  0.323000  1.0  0.1997
  C  C113  1  0.508000  0.736000  0.150000  1.0  -0.0778
  C  C114  1  0.365000  0.973000  0.407000  1.0  -0.1761
  C  C115  1  0.265000  0.619000  0.123000  1.0  0.5688
  C  C116  1  0.350000  0.660000  0.121000  1.0  -0.0612
  C  C117  1  0.500000  0.650000  0.116000  1.0  0.0392
  C  C118  1  0.413000  0.109000  0.875000  1.0  -0.1202
  C  C119  1  0.389000  0.048000  0.726000  1.0  0.208
  C  C120  1  0.422000  0.613000  0.132000  1.0  -0.1266
  C  C121  1  0.355000  0.743000  0.125000  1.0  -0.0682
  C  C122  1  0.392000  0.111000  0.317000  1.0  0.1462
  C  C123  1  0.410000  0.105000  0.956000  1.0  0.1407
  C  C124  1  0.364000  0.995000  0.877000  1.0  -0.118
  C  C125  1  0.394000  0.114000  0.408000  1.0  -0.1586
  C  C126  1  0.381000  0.044000  0.454000  1.0  0.0577
  C  C127  1  0.696000  0.690000  0.432000  1.0  -0.1943
  C  C128  1  0.690000  0.696000  0.343000  1.0  0.0632
  C  C129  1  0.778000  0.719000  0.325000  1.0  -0.0869
  C  C130  1  0.632000  0.644000  0.491000  1.0  -0.0396
  C  C131  1  0.856000  0.743000  0.376000  1.0  -0.1154
  C  C132  1  0.852000  0.727000  0.468000  1.0  -0.025
  C  C133  1  0.644000  0.641000  0.304000  1.0  -0.1075
  C  C134  1  0.648000  0.632000  0.198000  1.0  -0.0976
  C  C135  1  0.581000  0.612000  0.431000  1.0  -0.1145
  C  C136  1  0.565000  0.604000  0.352000  1.0  -0.1332
  C  C137  1  0.761000  0.714000  0.494000  1.0  -0.0604
  C  C138  1  0.679000  0.674000  0.615000  1.0  -0.0765
  C  C139  1  0.842000  0.734000  0.620000  1.0  -0.1014
  C  C140  1  0.920000  0.784000  0.480000  1.0  -0.1087
  C  C141  1  0.605000  0.636000  0.576000  1.0  -0.0698
  C  C142  1  0.754000  0.723000  0.590000  1.0  -0.0136
  C  C143  1  0.911000  0.766000  0.568000  1.0  -0.1566
  C  C144  1  0.350000  0.992000  0.586000  1.0  -0.1401
  C  C145  1  0.420000  0.109000  0.688000  1.0  -0.165
  C  C146  1  0.351000  0.987000  0.677000  1.0  -0.1742
  C  C147  1  0.413000  0.113000  0.598000  1.0  -0.1279
  C  C148  1  0.374000  0.047000  0.545000  1.0  0.2355
  C  C149  1  0.345000  0.986000  0.964000  1.0  0.0215
  C  C150  1  0.565000  0.219000  0.131000  1.0  -0.1309
  C  C151  1  0.559000  0.127000  0.137000  1.0  0.6872
  C  C152  1  0.610000  0.950000  0.818000  1.0  -0.0508
  C  C153  1  0.631000  0.025000  0.323000  1.0  0.1997
  C  C154  1  0.492000  0.264000  0.150000  1.0  -0.0766
  C  C155  1  0.635000  0.027000  0.407000  1.0  -0.1751
  C  C156  1  0.735000  0.381000  0.123000  1.0  0.5683
  C  C157  1  0.650000  0.340000  0.121000  1.0  -0.0584
  C  C158  1  0.500000  0.350000  0.116000  1.0  0.0399
  C  C159  1  0.587000  0.891000  0.875000  1.0  -0.1209
  C  C160  1  0.611000  0.952000  0.726000  1.0  0.2079
  C  C161  1  0.578000  0.387000  0.132000  1.0  -0.1273
  C  C162  1  0.645000  0.257000  0.125000  1.0  -0.0688
  C  C163  1  0.608000  0.889000  0.317000  1.0  0.1471
  C  C164  1  0.590000  0.895000  0.956000  1.0  0.1435
  C  C165  1  0.636000  0.005000  0.877000  1.0  -0.1196
  C  C166  1  0.606000  0.886000  0.408000  1.0  -0.1586
  C  C167  1  0.619000  0.956000  0.454000  1.0  0.0569
  C  C168  1  0.304000  0.310000  0.432000  1.0  -0.1941
  C  C169  1  0.310000  0.304000  0.343000  1.0  0.0624
  C  C170  1  0.222000  0.281000  0.325000  1.0  -0.0885
  C  C171  1  0.368000  0.356000  0.491000  1.0  -0.0386
  C  C172  1  0.144000  0.257000  0.376000  1.0  -0.117
  C  C173  1  0.148000  0.273000  0.468000  1.0  -0.0254
  C  C174  1  0.356000  0.359000  0.304000  1.0  -0.1075
  C  C175  1  0.352000  0.368000  0.198000  1.0  -0.0945
  C  C176  1  0.419000  0.388000  0.431000  1.0  -0.1158
  C  C177  1  0.435000  0.396000  0.352000  1.0  -0.1325
  C  C178  1  0.239000  0.286000  0.494000  1.0  -0.0613
  C  C179  1  0.321000  0.326000  0.615000  1.0  -0.0752
  C  C180  1  0.158000  0.266000  0.620000  1.0  -0.1027
  C  C181  1  0.080000  0.216000  0.480000  1.0  -0.1095
  C  C182  1  0.395000  0.364000  0.576000  1.0  -0.0665
  C  C183  1  0.246000  0.277000  0.590000  1.0  -0.0116
  C  C184  1  0.089000  0.234000  0.568000  1.0  -0.1556
  C  C185  1  0.650000  0.008000  0.586000  1.0  -0.1351
  C  C186  1  0.580000  0.891000  0.688000  1.0  -0.1626
  C  C187  1  0.649000  0.013000  0.677000  1.0  -0.1731
  C  C188  1  0.587000  0.887000  0.598000  1.0  -0.1279
  C  C189  1  0.626000  0.953000  0.545000  1.0  0.235
  C  C190  1  0.655000  0.014000  0.964000  1.0  0.0226
  C  C191  1  0.935000  0.719000  0.131000  1.0  -0.1308
  C  C192  1  0.941000  0.627000  0.137000  1.0  0.6867
  C  C193  1  0.890000  0.450000  0.818000  1.0  -0.0496
  C  C194  1  0.869000  0.525000  0.323000  1.0  0.1997
  C  C195  1  0.008000  0.764000  0.150000  1.0  -0.0766
  C  C196  1  0.865000  0.527000  0.407000  1.0  -0.1764
  C  C197  1  0.765000  0.881000  0.123000  1.0  0.5695
  C  C198  1  0.850000  0.840000  0.121000  1.0  -0.0581
  C  C199  1  0.000000  0.850000  0.116000  1.0  0.0394
  C  C200  1  0.913000  0.391000  0.875000  1.0  -0.12
  C  C201  1  0.889000  0.452000  0.726000  1.0  0.2091
  C  C202  1  0.922000  0.887000  0.132000  1.0  -0.1274
  C  C203  1  0.855000  0.757000  0.125000  1.0  -0.0683
  C  C204  1  0.892000  0.389000  0.317000  1.0  0.1469
  C  C205  1  0.910000  0.395000  0.956000  1.0  0.1421
  C  C206  1  0.864000  0.505000  0.877000  1.0  -0.1197
  C  C207  1  0.894000  0.386000  0.408000  1.0  -0.1576
  C  C208  1  0.881000  0.456000  0.454000  1.0  0.0573
  C  C209  1  0.196000  0.810000  0.432000  1.0  -0.1944
  C  C210  1  0.190000  0.804000  0.343000  1.0  0.062
  C  C211  1  0.278000  0.781000  0.325000  1.0  -0.0868
  C  C212  1  0.132000  0.856000  0.491000  1.0  -0.0399
  C  C213  1  0.356000  0.757000  0.376000  1.0  -0.1169
  C  C214  1  0.352000  0.773000  0.468000  1.0  -0.0252
  C  C215  1  0.144000  0.859000  0.304000  1.0  -0.1078
  C  C216  1  0.148000  0.868000  0.198000  1.0  -0.0956
  C  C217  1  0.081000  0.888000  0.431000  1.0  -0.1159
  C  C218  1  0.065000  0.896000  0.352000  1.0  -0.1326
  C  C219  1  0.261000  0.786000  0.494000  1.0  -0.0612
  C  C220  1  0.179000  0.826000  0.615000  1.0  -0.0759
  C  C221  1  0.342000  0.766000  0.620000  1.0  -0.1028
  C  C222  1  0.420000  0.716000  0.480000  1.0  -0.1096
  C  C223  1  0.105000  0.864000  0.576000  1.0  -0.0687
  C  C224  1  0.254000  0.777000  0.590000  1.0  -0.0122
  C  C225  1  0.411000  0.734000  0.568000  1.0  -0.155
  C  C226  1  0.850000  0.508000  0.586000  1.0  -0.1383
  C  C227  1  0.920000  0.391000  0.688000  1.0  -0.1629
  C  C228  1  0.851000  0.513000  0.677000  1.0  -0.1734
  C  C229  1  0.913000  0.387000  0.598000  1.0  -0.1268
  C  C230  1  0.874000  0.453000  0.545000  1.0  0.2362
  C  C231  1  0.845000  0.514000  0.964000  1.0  0.0208
  C  C232  1  0.065000  0.281000  0.131000  1.0  -0.1298
  C  C233  1  0.059000  0.373000  0.137000  1.0  0.6874
  C  C234  1  0.110000  0.550000  0.818000  1.0  -0.0514
  C  C235  1  0.131000  0.475000  0.323000  1.0  0.1999
  C  C236  1  0.992000  0.236000  0.150000  1.0  -0.0777
  C  C237  1  0.135000  0.473000  0.407000  1.0  -0.1745
  C  C238  1  0.235000  0.119000  0.123000  1.0  0.5676
  C  C239  1  0.150000  0.160000  0.121000  1.0  -0.0607
  C  C240  1  0.000000  0.150000  0.116000  1.0  0.0395
  C  C241  1  0.087000  0.609000  0.875000  1.0  -0.1213
  C  C242  1  0.111000  0.548000  0.726000  1.0  0.207
  C  C243  1  0.078000  0.113000  0.132000  1.0  -0.1267
  C  C244  1  0.145000  0.243000  0.125000  1.0  -0.0687
  C  C245  1  0.108000  0.611000  0.317000  1.0  0.1465
  C  C246  1  0.090000  0.605000  0.956000  1.0  0.1428
  C  C247  1  0.136000  0.495000  0.877000  1.0  -0.1192
  C  C248  1  0.106000  0.614000  0.408000  1.0  -0.1594
  C  C249  1  0.119000  0.544000  0.454000  1.0  0.0571
  C  C250  1  0.804000  0.190000  0.432000  1.0  -0.1941
  C  C251  1  0.810000  0.196000  0.343000  1.0  0.0636
  C  C252  1  0.722000  0.219000  0.325000  1.0  -0.0886
  C  C253  1  0.868000  0.144000  0.491000  1.0  -0.0389
  C  C254  1  0.644000  0.243000  0.376000  1.0  -0.1157
  C  C255  1  0.648000  0.227000  0.468000  1.0  -0.0252
  C  C256  1  0.856000  0.141000  0.304000  1.0  -0.1072
  C  C257  1  0.852000  0.132000  0.198000  1.0  -0.0965
  C  C258  1  0.919000  0.112000  0.431000  1.0  -0.1146
  C  C259  1  0.935000  0.104000  0.352000  1.0  -0.1335
  C  C260  1  0.739000  0.214000  0.494000  1.0  -0.0606
  C  C261  1  0.821000  0.174000  0.615000  1.0  -0.0757
  C  C262  1  0.658000  0.234000  0.620000  1.0  -0.1017
  C  C263  1  0.580000  0.284000  0.480000  1.0  -0.1079
  C  C264  1  0.895000  0.136000  0.576000  1.0  -0.0688
  C  C265  1  0.746000  0.223000  0.590000  1.0  -0.0136
  C  C266  1  0.589000  0.266000  0.568000  1.0  -0.1577
  C  C267  1  0.150000  0.492000  0.586000  1.0  -0.1367
  C  C268  1  0.080000  0.609000  0.688000  1.0  -0.1645
  C  C269  1  0.149000  0.487000  0.677000  1.0  -0.1746
  C  C270  1  0.087000  0.613000  0.598000  1.0  -0.1283
  C  C271  1  0.126000  0.547000  0.545000  1.0  0.2346
  C  C272  1  0.155000  0.486000  0.964000  1.0  0.0233
  N  N273  1  0.377000  0.040000  0.271000  1.0  -0.3768
  N  N274  1  0.384000  0.044000  0.996000  1.0  -0.173
  N  N275  1  0.623000  0.960000  0.271000  1.0  -0.3769
  N  N276  1  0.616000  0.956000  0.996000  1.0  -0.1738
  N  N277  1  0.877000  0.460000  0.271000  1.0  -0.3771
  N  N278  1  0.884000  0.456000  0.996000  1.0  -0.1728
  N  N279  1  0.123000  0.540000  0.271000  1.0  -0.3767
  N  N280  1  0.116000  0.544000  0.996000  1.0  -0.1731
  O  O281  1  0.374000  0.913100  0.142000  1.0  -0.5769
  O  O282  1  0.260000  0.542000  0.136000  1.0  -0.5924
  O  O283  1  0.198000  0.663000  0.144000  1.0  -0.6078
  O  O284  1  0.512000  0.903000  0.137000  1.0  -0.6271
  O  O285  1  0.570000  0.599000  0.166000  1.0  -0.4081
  O  O286  1  0.626000  0.086900  0.142000  1.0  -0.5761
  O  O287  1  0.740000  0.458000  0.136000  1.0  -0.592
  O  O288  1  0.802000  0.337000  0.144000  1.0  -0.61
  O  O289  1  0.488000  0.097000  0.137000  1.0  -0.6257
  O  O290  1  0.430000  0.401000  0.166000  1.0  -0.409
  O  O291  1  0.874000  0.586900  0.142000  1.0  -0.5764
  O  O292  1  0.760000  0.958000  0.136000  1.0  -0.5918
  O  O293  1  0.698000  0.837000  0.144000  1.0  -0.6081
  O  O294  1  0.012000  0.597000  0.137000  1.0  -0.6258
  O  O295  1  0.070000  0.901000  0.166000  1.0  -0.409
  O  O296  1  0.126000  0.413100  0.142000  1.0  -0.5765
  O  O297  1  0.240000  0.042000  0.136000  1.0  -0.5924
  O  O298  1  0.302000  0.163000  0.144000  1.0  -0.6098
  O  O299  1  0.988000  0.403000  0.137000  1.0  -0.6266
  O  O300  1  0.930000  0.099000  0.166000  1.0  -0.4069
