# generated using pymatgen
data_KLa3H10(C6O5)5
_symmetry_space_group_name_H-M   'P 1'
_cell_length_a   10.87200000
_cell_length_b   16.73700000
_cell_length_c   17.38000000
_cell_angle_alpha   114.48000000
_cell_angle_beta   92.95000000
_cell_angle_gamma   99.63000000
_symmetry_Int_Tables_number   1
_chemical_formula_structural   KLa3H10(C6O5)5
_chemical_formula_sum   'K2 La6 H20 C60 O50'
_cell_volume   2811.86629290
_cell_formula_units_Z   2
loop_
 _symmetry_equiv_pos_site_id
 _symmetry_equiv_pos_as_xyz
  1  'x, y, z'
loop_
 _atom_site_type_symbol
 _atom_site_label
 _atom_site_symmetry_multiplicity
 _atom_site_fract_x
 _atom_site_fract_y
 _atom_site_fract_z
 _atom_site_occupancy
 _atom_site_charge
  K  K1  1  0.730140  0.256330  0.018240  1.0  0.9401
  K  K2  1  0.269860  0.743670  0.981760  1.0  0.9407
  La  La3  1  0.082600  0.140790  0.012610  1.0  2.1359
  La  La4  1  0.370690  0.343640  0.996110  1.0  2.226
  La  La5  1  0.438600  0.864830  0.405780  1.0  2.195
  La  La6  1  0.917400  0.859210  0.987390  1.0  2.1308
  La  La7  1  0.629310  0.656360  0.003890  1.0  2.2254
  La  La8  1  0.561400  0.135170  0.594220  1.0  2.1942
  H  H9  1  0.119500  0.977800  0.796300  1.0  0.1236
  H  H10  1  0.055200  0.441500  0.872400  1.0  0.1298
  H  H11  1  0.859700  0.504000  0.876900  1.0  0.114
  H  H12  1  0.393800  0.054300  0.139400  1.0  0.1224
  H  H13  1  0.132000  0.870700  0.645100  1.0  0.1286
  H  H14  1  0.807300  0.784100  0.728800  1.0  0.1198
  H  H15  1  0.588600  0.984700  0.128100  1.0  0.1123
  H  H16  1  0.187600  0.587300  0.399800  1.0  0.122
  H  H17  1  0.663200  0.766400  0.598400  1.0  0.1234
  H  H18  1  0.064600  0.428600  0.314800  1.0  0.1249
  H  H19  1  0.880500  0.022200  0.203700  1.0  0.124
  H  H20  1  0.944800  0.558500  0.127600  1.0  0.1301
  H  H21  1  0.140300  0.496000  0.123100  1.0  0.1145
  H  H22  1  0.606200  0.945700  0.860600  1.0  0.1225
  H  H23  1  0.868000  0.129300  0.354900  1.0  0.1294
  H  H24  1  0.192700  0.215900  0.271200  1.0  0.12
  H  H25  1  0.411400  0.015300  0.871900  1.0  0.1132
  H  H26  1  0.812400  0.412700  0.600200  1.0  0.1218
  H  H27  1  0.336800  0.233600  0.401600  1.0  0.1237
  H  H28  1  0.935400  0.571400  0.685200  1.0  0.1242
  C  C29  1  0.414800  0.187400  0.070800  1.0  0.7488
  C  C30  1  0.492800  0.132100  0.089500  1.0  0.0576
  C  C31  1  0.261600  0.973600  0.644000  1.0  0.0388
  C  C32  1  0.194100  0.420100  0.233600  1.0  0.0829
  C  C33  1  0.662000  0.429100  0.950600  1.0  0.7374
  C  C34  1  0.249200  0.067100  0.774300  1.0  0.0547
  C  C35  1  0.787800  0.061400  0.055000  1.0  0.735
  C  C36  1  0.960700  0.364900  0.924800  1.0  0.0488
  C  C37  1  0.661700  0.073500  0.080400  1.0  0.0463
  C  C38  1  0.041300  0.310100  0.943800  1.0  0.7272
  C  C39  1  0.163200  0.335000  0.156000  1.0  0.7267
  C  C40  1  0.790400  0.419400  0.928200  1.0  0.0614
  C  C41  1  0.169400  0.989400  0.758700  1.0  -0.1626
  C  C42  1  0.286000  0.153000  0.850200  1.0  0.7027
  C  C43  1  0.981900  0.425600  0.892600  1.0  -0.1475
  C  C44  1  0.897900  0.969300  0.848000  1.0  0.701
  C  C45  1  0.872400  0.460600  0.895000  1.0  -0.1497
  C  C46  1  0.617700  0.937900  0.608100  1.0  0.7547
  C  C47  1  0.467300  0.069500  0.119000  1.0  -0.1428
  C  C48  1  0.689100  0.903600  0.658100  1.0  0.065
  C  C49  1  0.815300  0.918000  0.767500  1.0  0.1344
  C  C50  1  0.177000  0.929500  0.674400  1.0  -0.1399
  C  C51  1  0.308900  0.946000  0.561100  1.0  0.7456
  C  C52  1  0.782600  0.829600  0.718300  1.0  -0.1714
  C  C53  1  0.577500  0.030400  0.112800  1.0  -0.1489
  C  C54  1  0.205600  0.545100  0.348900  1.0  -0.1237
  C  C55  1  0.299400  0.556600  0.308100  1.0  0.0954
  C  C56  1  0.700600  0.819800  0.645100  1.0  -0.1643
  C  C57  1  0.136300  0.456200  0.301300  1.0  -0.1616
  C  C58  1  0.406700  0.633000  0.326100  1.0  0.7189
  C  C59  1  0.585200  0.812600  0.929200  1.0  0.7481
  C  C60  1  0.507200  0.867900  0.910500  1.0  0.0574
  C  C61  1  0.738400  0.026400  0.356000  1.0  0.0399
  C  C62  1  0.805900  0.579900  0.766400  1.0  0.0827
  C  C63  1  0.338000  0.570900  0.049400  1.0  0.7387
  C  C64  1  0.750800  0.932900  0.225700  1.0  0.0558
  C  C65  1  0.212200  0.938600  0.945000  1.0  0.7357
  C  C66  1  0.039300  0.635100  0.075200  1.0  0.0499
  C  C67  1  0.338300  0.926500  0.919600  1.0  0.0449
  C  C68  1  0.958700  0.689900  0.056200  1.0  0.7266
  C  C69  1  0.836800  0.665000  0.844000  1.0  0.7268
  C  C70  1  0.209600  0.580600  0.071800  1.0  0.0616
  C  C71  1  0.830600  0.010600  0.241300  1.0  -0.1612
  C  C72  1  0.714000  0.847000  0.149800  1.0  0.7043
  C  C73  1  0.018100  0.574400  0.107400  1.0  -0.1482
  C  C74  1  0.102100  0.030700  0.152000  1.0  0.6994
  C  C75  1  0.127600  0.539400  0.105000  1.0  -0.1498
  C  C76  1  0.382300  0.062100  0.391900  1.0  0.7544
  C  C77  1  0.532700  0.930500  0.881000  1.0  -0.1433
  C  C78  1  0.310900  0.096400  0.341900  1.0  0.0657
  C  C79  1  0.184700  0.082000  0.232500  1.0  0.1327
  C  C80  1  0.823000  0.070500  0.325600  1.0  -0.1378
  C  C81  1  0.691100  0.054000  0.438900  1.0  0.7465
  C  C82  1  0.217400  0.170400  0.281700  1.0  -0.1722
  C  C83  1  0.422500  0.969600  0.887200  1.0  -0.1497
  C  C84  1  0.794400  0.454900  0.651100  1.0  -0.1233
  C  C85  1  0.700600  0.443400  0.691900  1.0  0.0938
  C  C86  1  0.299400  0.180200  0.354900  1.0  -0.1618
  C  C87  1  0.863700  0.543800  0.698700  1.0  -0.1604
  C  C88  1  0.593300  0.367000  0.673900  1.0  0.7218
  O  O89  1  0.818800  0.991300  0.051500  1.0  -0.6815
  O  O90  1  0.463500  0.238200  0.038300  1.0  -0.7182
  O  O91  1  0.304300  0.177300  0.088000  1.0  -0.7095
  O  O92  1  0.928800  0.926900  0.888000  1.0  -0.7213
  O  O93  1  0.992600  0.252700  0.968100  1.0  -0.6985
  O  O94  1  0.611800  0.136500  0.066300  1.0  -0.4141
  O  O95  1  0.841000  0.359200  0.947000  1.0  -0.3642
  O  O96  1  0.852300  0.122600  0.040300  1.0  -0.6897
  O  O97  1  0.226000  0.165700  0.912700  1.0  -0.7652
  O  O98  1  0.600000  0.372400  0.970300  1.0  -0.6933
  O  O99  1  0.153700  0.327600  0.931800  1.0  -0.7143
  O  O100  1  0.935000  0.052000  0.872600  1.0  -0.6374
  O  O101  1  0.759100  0.964500  0.732600  1.0  -0.2307
  O  O102  1  0.375200  0.211800  0.851100  1.0  -0.6453
  O  O103  1  0.219900  0.328000  0.093600  1.0  -0.7553
  O  O104  1  0.382400  0.002000  0.545400  1.0  -0.7722
  O  O105  1  0.296100  0.480800  0.237000  1.0  -0.2228
  O  O106  1  0.625100  0.494900  0.946200  1.0  -0.7245
  O  O107  1  0.078600  0.273800  0.155800  1.0  -0.6347
  O  O108  1  0.308300  0.058900  0.704000  1.0  -0.153
  O  O109  1  0.625800  0.022100  0.639600  1.0  -0.7422
  O  O110  1  0.274100  0.865200  0.508700  1.0  -0.6422
  O  O111  1  0.554600  0.880200  0.539600  1.0  -0.7272
  O  O112  1  0.393600  0.707000  0.382900  1.0  -0.6996
  O  O113  1  0.495900  0.618300  0.284600  1.0  -0.4345
  O  O114  1  0.181200  0.008700  0.948500  1.0  -0.6815
  O  O115  1  0.536500  0.761800  0.961700  1.0  -0.712
  O  O116  1  0.695700  0.822700  0.912000  1.0  -0.7122
  O  O117  1  0.071200  0.073100  0.112000  1.0  -0.7212
  O  O118  1  0.007400  0.747300  0.031900  1.0  -0.7008
  O  O119  1  0.388200  0.863500  0.933700  1.0  -0.413
  O  O120  1  0.159000  0.640800  0.053000  1.0  -0.361
  O  O121  1  0.147700  0.877400  0.959700  1.0  -0.6897
  O  O122  1  0.774000  0.834300  0.087300  1.0  -0.7652
  O  O123  1  0.400000  0.627600  0.029700  1.0  -0.6935
  O  O124  1  0.846300  0.672400  0.068200  1.0  -0.7137
  O  O125  1  0.065000  0.948000  0.127400  1.0  -0.6363
  O  O126  1  0.240900  0.035500  0.267400  1.0  -0.2295
  O  O127  1  0.624800  0.788200  0.148900  1.0  -0.6441
  O  O128  1  0.780100  0.672000  0.906400  1.0  -0.7554
  O  O129  1  0.617600  0.998000  0.454600  1.0  -0.7725
  O  O130  1  0.703900  0.519200  0.763000  1.0  -0.2228
  O  O131  1  0.374900  0.505100  0.053800  1.0  -0.7266
  O  O132  1  0.921400  0.726200  0.844200  1.0  -0.6352
  O  O133  1  0.691700  0.941100  0.296000  1.0  -0.1542
  O  O134  1  0.374200  0.977900  0.360400  1.0  -0.7418
  O  O135  1  0.725900  0.134800  0.491300  1.0  -0.6429
  O  O136  1  0.445400  0.119800  0.460400  1.0  -0.7274
  O  O137  1  0.606400  0.293000  0.617100  1.0  -0.7026
  O  O138  1  0.504100  0.381700  0.715400  1.0  -0.4355
