# generated using pymatgen
data_KCe3H10(C6O5)5
_symmetry_space_group_name_H-M   'P 1'
_cell_length_a   10.81900000
_cell_length_b   16.73000000
_cell_length_c   17.37000000
_cell_angle_alpha   114.65000000
_cell_angle_beta   93.04000000
_cell_angle_gamma   99.62000000
_symmetry_Int_Tables_number   1
_chemical_formula_structural   KCe3H10(C6O5)5
_chemical_formula_sum   'K2 Ce6 H20 C60 O50'
_cell_volume   2790.76457209
_cell_formula_units_Z   2
loop_
 _symmetry_equiv_pos_site_id
 _symmetry_equiv_pos_as_xyz
  1  'x, y, z'
loop_
 _atom_site_type_symbol
 _atom_site_label
 _atom_site_symmetry_multiplicity
 _atom_site_fract_x
 _atom_site_fract_y
 _atom_site_fract_z
 _atom_site_occupancy
 _atom_site_charge
  K  K1  1  0.732150  0.257780  0.020000  1.0  0.9333
  K  K2  1  0.267850  0.742220  0.980000  1.0  0.9338
  Ce  Ce3  1  0.082820  0.140970  0.012800  1.0  2.2354
  Ce  Ce4  1  0.371440  0.343570  0.996000  1.0  2.3221
  Ce  Ce5  1  0.437990  0.865730  0.405610  1.0  2.1665
  Ce  Ce6  1  0.917180  0.859030  0.987200  1.0  2.2282
  Ce  Ce7  1  0.628560  0.656430  0.004000  1.0  2.319
  Ce  Ce8  1  0.562010  0.134270  0.594390  1.0  2.1646
  H  H9  1  0.118500  0.976500  0.795400  1.0  0.1241
  H  H10  1  0.057000  0.439800  0.870300  1.0  0.1298
  H  H11  1  0.861200  0.505100  0.877300  1.0  0.1068
  H  H12  1  0.394100  0.054300  0.139000  1.0  0.1261
  H  H13  1  0.131400  0.868900  0.645000  1.0  0.1266
  H  H14  1  0.808300  0.780100  0.722600  1.0  0.1203
  H  H15  1  0.589400  0.985100  0.127200  1.0  0.1127
  H  H16  1  0.182500  0.587600  0.400800  1.0  0.1269
  H  H17  1  0.661600  0.765500  0.596500  1.0  0.1268
  H  H18  1  0.060500  0.429800  0.312300  1.0  0.1126
  H  H19  1  0.881500  0.023500  0.204600  1.0  0.1241
  H  H20  1  0.943000  0.560200  0.129700  1.0  0.1294
  H  H21  1  0.138800  0.494900  0.122700  1.0  0.1065
  H  H22  1  0.605900  0.945700  0.861000  1.0  0.1264
  H  H23  1  0.868600  0.131100  0.355000  1.0  0.1271
  H  H24  1  0.191700  0.219900  0.277400  1.0  0.1202
  H  H25  1  0.410600  0.014900  0.872800  1.0  0.1135
  H  H26  1  0.817500  0.412400  0.599200  1.0  0.1268
  H  H27  1  0.338400  0.234500  0.403500  1.0  0.1266
  H  H28  1  0.939500  0.570200  0.687700  1.0  0.1114
  C  C29  1  0.414300  0.189300  0.072400  1.0  0.7428
  C  C30  1  0.493100  0.133400  0.090300  1.0  0.055
  C  C31  1  0.260700  0.972300  0.642500  1.0  0.0308
  C  C32  1  0.192800  0.420800  0.233200  1.0  0.0793
  C  C33  1  0.663400  0.430500  0.950900  1.0  0.7388
  C  C34  1  0.249400  0.065400  0.773900  1.0  0.06
  C  C35  1  0.788300  0.061400  0.054100  1.0  0.7078
  C  C36  1  0.962400  0.363500  0.923400  1.0  0.0436
  C  C37  1  0.662300  0.073500  0.080500  1.0  0.0558
  C  C38  1  0.042100  0.308700  0.941700  1.0  0.7294
  C  C39  1  0.162700  0.335900  0.154500  1.0  0.7191
  C  C40  1  0.790200  0.420000  0.928900  1.0  0.0419
  C  C41  1  0.169000  0.988000  0.757900  1.0  -0.1697
  C  C42  1  0.285300  0.152200  0.851300  1.0  0.7063
  C  C43  1  0.983700  0.424600  0.891100  1.0  -0.1435
  C  C44  1  0.898800  0.966700  0.848100  1.0  0.7005
  C  C45  1  0.873500  0.461300  0.894900  1.0  -0.1367
  C  C46  1  0.619500  0.938300  0.606200  1.0  0.7382
  C  C47  1  0.468000  0.070000  0.118900  1.0  -0.1418
  C  C48  1  0.692100  0.902300  0.656300  1.0  0.067
  C  C49  1  0.816600  0.915300  0.765200  1.0  0.0843
  C  C50  1  0.176200  0.928000  0.674000  1.0  -0.1422
  C  C51  1  0.309500  0.944800  0.560300  1.0  0.7387
  C  C52  1  0.783200  0.826500  0.713700  1.0  -0.18
  C  C53  1  0.578400  0.031000  0.112300  1.0  -0.1449
  C  C54  1  0.202300  0.546000  0.350000  1.0  -0.1548
  C  C55  1  0.300200  0.558600  0.310700  1.0  0.0979
  C  C56  1  0.701300  0.818600  0.643100  1.0  -0.1624
  C  C57  1  0.133800  0.457500  0.300300  1.0  -0.159
  C  C58  1  0.406600  0.634800  0.329000  1.0  0.7274
  C  C59  1  0.585700  0.810700  0.927600  1.0  0.7417
  C  C60  1  0.506900  0.866600  0.909700  1.0  0.0542
  C  C61  1  0.739300  0.027700  0.357500  1.0  0.0339
  C  C62  1  0.807200  0.579200  0.766800  1.0  0.0791
  C  C63  1  0.336600  0.569500  0.049100  1.0  0.7394
  C  C64  1  0.750600  0.934600  0.226100  1.0  0.0608
  C  C65  1  0.211700  0.938600  0.945900  1.0  0.7084
  C  C66  1  0.037600  0.636500  0.076600  1.0  0.0441
  C  C67  1  0.337700  0.926500  0.919500  1.0  0.0539
  C  C68  1  0.957900  0.691300  0.058300  1.0  0.7279
  C  C69  1  0.837300  0.664100  0.845500  1.0  0.7195
  C  C70  1  0.209800  0.580000  0.071100  1.0  0.044
  C  C71  1  0.831000  0.012000  0.242100  1.0  -0.1691
  C  C72  1  0.714700  0.847800  0.148700  1.0  0.7069
  C  C73  1  0.016300  0.575400  0.108900  1.0  -0.1429
  C  C74  1  0.101200  0.033300  0.151900  1.0  0.6999
  C  C75  1  0.126500  0.538700  0.105100  1.0  -0.1357
  C  C76  1  0.380500  0.061700  0.393800  1.0  0.7382
  C  C77  1  0.532000  0.930000  0.881100  1.0  -0.1409
  C  C78  1  0.307900  0.097700  0.343700  1.0  0.0683
  C  C79  1  0.183400  0.084700  0.234800  1.0  0.0832
  C  C80  1  0.823800  0.072000  0.326000  1.0  -0.1404
  C  C81  1  0.690500  0.055200  0.439700  1.0  0.7405
  C  C82  1  0.216800  0.173500  0.286300  1.0  -0.1814
  C  C83  1  0.421600  0.969000  0.887700  1.0  -0.1451
  C  C84  1  0.797700  0.454000  0.650000  1.0  -0.1553
  C  C85  1  0.699800  0.441400  0.689300  1.0  0.0971
  C  C86  1  0.298700  0.181400  0.356900  1.0  -0.1608
  C  C87  1  0.866200  0.542500  0.699700  1.0  -0.1596
  C  C88  1  0.593400  0.365200  0.671000  1.0  0.73
  O  O89  1  0.817600  0.990500  0.049200  1.0  -0.7014
  O  O90  1  0.462900  0.239800  0.039400  1.0  -0.7187
  O  O91  1  0.303000  0.179300  0.089800  1.0  -0.709
  O  O92  1  0.929400  0.922800  0.886100  1.0  -0.7285
  O  O93  1  0.993600  0.251300  0.966800  1.0  -0.7449
  O  O94  1  0.611900  0.137600  0.066800  1.0  -0.3773
  O  O95  1  0.841100  0.358700  0.946500  1.0  -0.3583
  O  O96  1  0.854100  0.122600  0.040500  1.0  -0.6954
  O  O97  1  0.226300  0.165200  0.913900  1.0  -0.775
  O  O98  1  0.599800  0.373900  0.972300  1.0  -0.7086
  O  O99  1  0.154800  0.326100  0.930700  1.0  -0.7201
  O  O100  1  0.936600  0.050100  0.873800  1.0  -0.6207
  O  O101  1  0.761400  0.962900  0.731300  1.0  -0.1996
  O  O102  1  0.376100  0.211300  0.851700  1.0  -0.6489
  O  O103  1  0.222800  0.330400  0.093000  1.0  -0.7831
  O  O104  1  0.383500  0.001800  0.545700  1.0  -0.7906
  O  O105  1  0.297800  0.482400  0.238500  1.0  -0.2195
  O  O106  1  0.625600  0.495800  0.946700  1.0  -0.7374
  O  O107  1  0.077300  0.275000  0.153300  1.0  -0.6316
  O  O108  1  0.306900  0.057400  0.703900  1.0  -0.1347
  O  O109  1  0.628200  0.022100  0.638600  1.0  -0.7276
  O  O110  1  0.272300  0.864500  0.506900  1.0  -0.6263
  O  O111  1  0.554900  0.880200  0.537700  1.0  -0.7044
  O  O112  1  0.393600  0.709400  0.384400  1.0  -0.6907
  O  O113  1  0.498100  0.620100  0.288000  1.0  -0.451
  O  O114  1  0.182400  0.009500  0.950800  1.0  -0.7015
  O  O115  1  0.537100  0.760200  0.960600  1.0  -0.7163
  O  O116  1  0.697000  0.820700  0.910200  1.0  -0.7114
  O  O117  1  0.070600  0.077200  0.113900  1.0  -0.7296
  O  O118  1  0.006400  0.748700  0.033200  1.0  -0.7465
  O  O119  1  0.388100  0.862400  0.933200  1.0  -0.3721
  O  O120  1  0.158900  0.641300  0.053500  1.0  -0.3566
  O  O121  1  0.145900  0.877400  0.959500  1.0  -0.6951
  O  O122  1  0.773700  0.834800  0.086100  1.0  -0.7753
  O  O123  1  0.400200  0.626100  0.027700  1.0  -0.7093
  O  O124  1  0.845200  0.673900  0.069300  1.0  -0.7204
  O  O125  1  0.063400  0.949900  0.126200  1.0  -0.6193
  O  O126  1  0.238600  0.037100  0.268700  1.0  -0.1958
  O  O127  1  0.623900  0.788700  0.148300  1.0  -0.6455
  O  O128  1  0.777200  0.669600  0.907000  1.0  -0.7838
  O  O129  1  0.616500  0.998200  0.454300  1.0  -0.7897
  O  O130  1  0.702200  0.517600  0.761500  1.0  -0.2189
  O  O131  1  0.374400  0.504200  0.053300  1.0  -0.7383
  O  O132  1  0.922700  0.725000  0.846700  1.0  -0.6329
  O  O133  1  0.693100  0.942600  0.296100  1.0  -0.1327
  O  O134  1  0.371800  0.977900  0.361400  1.0  -0.7285
  O  O135  1  0.727700  0.135500  0.493100  1.0  -0.6251
  O  O136  1  0.445100  0.119800  0.462300  1.0  -0.7046
  O  O137  1  0.606400  0.290600  0.615600  1.0  -0.6926
  O  O138  1  0.501900  0.379900  0.712000  1.0  -0.4519
