# generated using pymatgen
data_KPr3H10(C6O5)5
_symmetry_space_group_name_H-M   'P 1'
_cell_length_a   10.78600000
_cell_length_b   16.72600000
_cell_length_c   17.38500000
_cell_angle_alpha   114.67000000
_cell_angle_beta   93.29000000
_cell_angle_gamma   99.58000000
_symmetry_Int_Tables_number   1
_chemical_formula_structural   KPr3H10(C6O5)5
_chemical_formula_sum   'K2 Pr6 H20 C60 O50'
_cell_volume   2782.05102330
_cell_formula_units_Z   2
loop_
 _symmetry_equiv_pos_site_id
 _symmetry_equiv_pos_as_xyz
  1  'x, y, z'
loop_
 _atom_site_type_symbol
 _atom_site_label
 _atom_site_symmetry_multiplicity
 _atom_site_fract_x
 _atom_site_fract_y
 _atom_site_fract_z
 _atom_site_occupancy
 _atom_site_charge
  K  K1  1  0.733800  0.258440  0.020040  1.0  0.9292
  K  K2  1  0.266200  0.741560  0.979960  1.0  0.9301
  Pr  Pr3  1  0.083630  0.140590  0.011750  1.0  2.2281
  Pr  Pr4  1  0.372490  0.343090  0.994300  1.0  2.277
  Pr  Pr5  1  0.437300  0.866770  0.405930  1.0  2.1431
  Pr  Pr6  1  0.916370  0.859410  0.988250  1.0  2.2265
  Pr  Pr7  1  0.627510  0.656910  0.005700  1.0  2.2745
  Pr  Pr8  1  0.562700  0.133230  0.594070  1.0  2.1425
  H  H9  1  0.117400  0.974700  0.794100  1.0  0.1141
  H  H10  1  0.058300  0.439800  0.870300  1.0  0.1347
  H  H11  1  0.862300  0.504500  0.877000  1.0  0.1079
  H  H12  1  0.394600  0.055700  0.139100  1.0  0.1171
  H  H13  1  0.129200  0.867400  0.643200  1.0  0.136
  H  H14  1  0.801200  0.779000  0.722900  1.0  0.112
  H  H15  1  0.590200  0.985400  0.127100  1.0  0.1119
  H  H16  1  0.180300  0.588800  0.397900  1.0  0.1282
  H  H17  1  0.659000  0.763800  0.595400  1.0  0.133
  H  H18  1  0.058800  0.429900  0.307600  1.0  0.1124
  H  H19  1  0.882600  0.025300  0.205900  1.0  0.1136
  H  H20  1  0.941700  0.560200  0.129700  1.0  0.1347
  H  H21  1  0.137700  0.495500  0.123000  1.0  0.1075
  H  H22  1  0.605400  0.944300  0.860900  1.0  0.1172
  H  H23  1  0.870800  0.132600  0.356800  1.0  0.1368
  H  H24  1  0.198800  0.221000  0.277100  1.0  0.1127
  H  H25  1  0.409800  0.014600  0.872900  1.0  0.1129
  H  H26  1  0.819700  0.411200  0.602100  1.0  0.1285
  H  H27  1  0.341000  0.236200  0.404600  1.0  0.1335
  H  H28  1  0.941200  0.570100  0.692400  1.0  0.1117
  C  C29  1  0.415300  0.190300  0.071000  1.0  0.7601
  C  C30  1  0.492500  0.134800  0.090200  1.0  0.0542
  C  C31  1  0.260600  0.971600  0.642800  1.0  0.0276
  C  C32  1  0.194400  0.421900  0.232100  1.0  0.0872
  C  C33  1  0.663700  0.430500  0.951900  1.0  0.7293
  C  C34  1  0.247700  0.064500  0.773500  1.0  0.0559
  C  C35  1  0.790400  0.061500  0.053900  1.0  0.7032
  C  C36  1  0.962400  0.363300  0.922600  1.0  0.0489
  C  C37  1  0.664100  0.074000  0.080600  1.0  0.0556
  C  C38  1  0.044300  0.307600  0.941100  1.0  0.7352
  C  C39  1  0.166000  0.337400  0.153600  1.0  0.7178
  C  C40  1  0.791700  0.421100  0.929500  1.0  0.0507
  C  C41  1  0.167700  0.986500  0.756800  1.0  -0.1631
  C  C42  1  0.285700  0.152600  0.851600  1.0  0.6996
  C  C43  1  0.984700  0.424500  0.890900  1.0  -0.1518
  C  C44  1  0.897000  0.966000  0.848800  1.0  0.7014
  C  C45  1  0.874900  0.460900  0.895000  1.0  -0.1433
  C  C46  1  0.619900  0.937800  0.604900  1.0  0.7506
  C  C47  1  0.468400  0.071200  0.118900  1.0  -0.1283
  C  C48  1  0.691100  0.901600  0.655200  1.0  0.0599
  C  C49  1  0.814400  0.913900  0.766300  1.0  0.048
  C  C50  1  0.174500  0.926400  0.672700  1.0  -0.1422
  C  C51  1  0.309100  0.944600  0.560300  1.0  0.7423
  C  C52  1  0.778100  0.825800  0.713800  1.0  -0.1599
  C  C53  1  0.579500  0.031500  0.112300  1.0  -0.1355
  C  C54  1  0.201600  0.547400  0.347800  1.0  -0.1586
  C  C55  1  0.301500  0.560600  0.310300  1.0  0.0742
  C  C56  1  0.698500  0.817100  0.642200  1.0  -0.157
  C  C57  1  0.133300  0.457800  0.296900  1.0  -0.1219
  C  C58  1  0.407900  0.636300  0.328100  1.0  0.7273
  C  C59  1  0.584700  0.809700  0.929000  1.0  0.7584
  C  C60  1  0.507500  0.865200  0.909800  1.0  0.054
  C  C61  1  0.739400  0.028400  0.357200  1.0  0.0293
  C  C62  1  0.805600  0.578100  0.767900  1.0  0.0854
  C  C63  1  0.336300  0.569500  0.048100  1.0  0.7289
  C  C64  1  0.752300  0.935500  0.226500  1.0  0.0568
  C  C65  1  0.209600  0.938500  0.946100  1.0  0.7037
  C  C66  1  0.037600  0.636700  0.077400  1.0  0.0499
  C  C67  1  0.335900  0.926000  0.919400  1.0  0.0542
  C  C68  1  0.955700  0.692400  0.058900  1.0  0.7348
  C  C69  1  0.834000  0.662600  0.846400  1.0  0.7175
  C  C70  1  0.208300  0.578900  0.070500  1.0  0.0526
  C  C71  1  0.832300  0.013500  0.243200  1.0  -0.1617
  C  C72  1  0.714300  0.847400  0.148400  1.0  0.702
  C  C73  1  0.015300  0.575500  0.109100  1.0  -0.151
  C  C74  1  0.103000  0.034000  0.151200  1.0  0.6999
  C  C75  1  0.125100  0.539100  0.105000  1.0  -0.1421
  C  C76  1  0.380100  0.062200  0.395100  1.0  0.7511
  C  C77  1  0.531600  0.928800  0.881100  1.0  -0.1255
  C  C78  1  0.308900  0.098400  0.344800  1.0  0.0592
  C  C79  1  0.185600  0.086100  0.233700  1.0  0.0485
  C  C80  1  0.825500  0.073600  0.327300  1.0  -0.1394
  C  C81  1  0.690900  0.055400  0.439700  1.0  0.7431
  C  C82  1  0.221900  0.174200  0.286200  1.0  -0.1621
  C  C83  1  0.420500  0.968500  0.887700  1.0  -0.1363
  C  C84  1  0.798400  0.452600  0.652200  1.0  -0.1569
  C  C85  1  0.698500  0.439400  0.689700  1.0  0.0721
  C  C86  1  0.301500  0.182900  0.357800  1.0  -0.1527
  C  C87  1  0.866700  0.542200  0.703100  1.0  -0.1228
  C  C88  1  0.592100  0.363700  0.671900  1.0  0.7286
  O  O89  1  0.819600  0.991200  0.049400  1.0  -0.6802
  O  O90  1  0.462900  0.239900  0.037900  1.0  -0.6922
  O  O91  1  0.304100  0.179900  0.088200  1.0  -0.7071
  O  O92  1  0.926300  0.920500  0.886200  1.0  -0.7508
  O  O93  1  0.995500  0.250500  0.965200  1.0  -0.6703
  O  O94  1  0.613700  0.138500  0.066300  1.0  -0.3714
  O  O95  1  0.842800  0.358500  0.946400  1.0  -0.3483
  O  O96  1  0.855300  0.122500  0.039500  1.0  -0.6905
  O  O97  1  0.226300  0.164600  0.913700  1.0  -0.7765
  O  O98  1  0.600300  0.374300  0.972600  1.0  -0.6979
  O  O99  1  0.157000  0.325200  0.928500  1.0  -0.7198
  O  O100  1  0.937900  0.048400  0.873400  1.0  -0.6022
  O  O101  1  0.762500  0.962900  0.730600  1.0  -0.1892
  O  O102  1  0.375700  0.210700  0.851900  1.0  -0.6424
  O  O103  1  0.225800  0.331400  0.091200  1.0  -0.7889
  O  O104  1  0.385300  0.001600  0.545900  1.0  -0.8197
  O  O105  1  0.298700  0.483200  0.237800  1.0  -0.2607
  O  O106  1  0.627800  0.497700  0.949400  1.0  -0.7581
  O  O107  1  0.080000  0.274700  0.150000  1.0  -0.6216
  O  O108  1  0.307300  0.057400  0.704200  1.0  -0.1294
  O  O109  1  0.630500  0.021400  0.636800  1.0  -0.7221
  O  O110  1  0.272600  0.864800  0.505900  1.0  -0.65
  O  O111  1  0.555200  0.880100  0.536100  1.0  -0.727
  O  O112  1  0.391400  0.711500  0.384000  1.0  -0.7123
  O  O113  1  0.499100  0.622000  0.289200  1.0  -0.4298
  O  O114  1  0.180400  0.008800  0.950600  1.0  -0.68
  O  O115  1  0.537100  0.760100  0.962100  1.0  -0.692
  O  O116  1  0.695900  0.820100  0.911800  1.0  -0.7103
  O  O117  1  0.073700  0.079500  0.113800  1.0  -0.7516
  O  O118  1  0.004500  0.749500  0.034800  1.0  -0.6726
  O  O119  1  0.386300  0.861500  0.933700  1.0  -0.3681
  O  O120  1  0.157200  0.641500  0.053600  1.0  -0.3468
  O  O121  1  0.144700  0.877500  0.960500  1.0  -0.6952
  O  O122  1  0.773700  0.835400  0.086300  1.0  -0.7743
  O  O123  1  0.399700  0.625700  0.027400  1.0  -0.6964
  O  O124  1  0.843000  0.674800  0.071500  1.0  -0.7187
  O  O125  1  0.062100  0.951600  0.126600  1.0  -0.6028
  O  O126  1  0.237500  0.037100  0.269400  1.0  -0.1855
  O  O127  1  0.624300  0.789300  0.148100  1.0  -0.6394
  O  O128  1  0.774200  0.668600  0.908800  1.0  -0.7889
  O  O129  1  0.614700  0.998400  0.454100  1.0  -0.8181
  O  O130  1  0.701300  0.516800  0.762200  1.0  -0.2601
  O  O131  1  0.372200  0.502300  0.050600  1.0  -0.759
  O  O132  1  0.920000  0.725300  0.850000  1.0  -0.6244
  O  O133  1  0.692700  0.942600  0.295800  1.0  -0.1311
  O  O134  1  0.369500  0.978600  0.363200  1.0  -0.7235
  O  O135  1  0.727400  0.135200  0.494100  1.0  -0.6498
  O  O136  1  0.444800  0.119900  0.463900  1.0  -0.7269
  O  O137  1  0.608600  0.288500  0.616000  1.0  -0.7108
  O  O138  1  0.500900  0.378000  0.710800  1.0  -0.4292
