# generated using pymatgen
data_CdH12(C3O)4
_symmetry_space_group_name_H-M   'P 1'
_cell_length_a   7.79000000
_cell_length_b   21.48700000
_cell_length_c   20.66600000
_cell_angle_alpha   90.00000000
_cell_angle_beta   90.00000000
_cell_angle_gamma   90.00000000
_symmetry_Int_Tables_number   1
_chemical_formula_structural   CdH12(C3O)4
_chemical_formula_sum   'Cd8 H96 C96 O32'
_cell_volume   3459.15216418
_cell_formula_units_Z   8
loop_
 _symmetry_equiv_pos_site_id
 _symmetry_equiv_pos_as_xyz
  1  'x, y, z'
loop_
 _atom_site_type_symbol
 _atom_site_label
 _atom_site_symmetry_multiplicity
 _atom_site_fract_x
 _atom_site_fract_y
 _atom_site_fract_z
 _atom_site_occupancy
 _atom_site_charge
  Cd  Cd1  1  0.204000  0.497360  0.836230  1.0  1.0914
  Cd  Cd2  1  0.204000  0.002640  0.336230  1.0  1.0914
  Cd  Cd3  1  0.796000  0.997360  0.836230  1.0  1.0911
  Cd  Cd4  1  0.322990  0.456060  0.372880  1.0  0.8727
  Cd  Cd5  1  0.796000  0.502640  0.336230  1.0  1.0911
  Cd  Cd6  1  0.322990  0.043940  0.872880  1.0  0.8725
  Cd  Cd7  1  0.677010  0.543940  0.872880  1.0  0.8711
  Cd  Cd8  1  0.677010  0.956060  0.372880  1.0  0.8712
  H  H9  1  0.737300  0.777400  0.687600  1.0  0.1347
  H  H10  1  0.416900  0.875600  0.193400  1.0  0.1402
  H  H11  1  0.069700  0.295000  0.676300  1.0  0.1429
  H  H12  1  0.590000  0.134600  0.509500  1.0  0.1456
  H  H13  1  0.944300  0.313900  0.962400  1.0  0.1395
  H  H14  1  0.410000  0.634600  0.509500  1.0  0.1444
  H  H15  1  0.584900  0.383700  0.504500  1.0  0.1462
  H  H16  1  0.082400  0.185300  0.979900  1.0  0.1352
  H  H17  1  0.415100  0.616300  0.004500  1.0  0.1462
  H  H18  1  0.330100  0.863100  0.569900  1.0  0.1225
  H  H19  1  0.465900  0.910900  0.716100  1.0  0.1346
  H  H20  1  0.477100  0.338200  0.142000  1.0  0.1413
  H  H21  1  0.183000  0.335600  0.191600  1.0  0.1377
  H  H22  1  0.438100  0.110400  0.466500  1.0  0.1359
  H  H23  1  0.038400  0.377300  0.221700  1.0  0.1333
  H  H24  1  0.917600  0.814700  0.479900  1.0  0.1362
  H  H25  1  0.191300  0.159000  0.213200  1.0  0.1334
  H  H26  1  0.055700  0.686100  0.462400  1.0  0.1391
  H  H27  1  0.069700  0.205000  0.176300  1.0  0.1428
  H  H28  1  0.989500  0.318500  0.180800  1.0  0.1309
  H  H29  1  0.808700  0.841000  0.713200  1.0  0.1356
  H  H30  1  0.221100  0.898400  0.517700  1.0  0.1338
  H  H31  1  0.112300  0.798900  0.470000  1.0  0.1296
  H  H32  1  0.010500  0.681500  0.680800  1.0  0.1306
  H  H33  1  0.449300  0.867700  0.655300  1.0  0.1266
  H  H34  1  0.038400  0.122700  0.721700  1.0  0.1321
  H  H35  1  0.584900  0.116300  0.004500  1.0  0.1466
  H  H36  1  0.863000  0.798600  0.977300  1.0  0.1313
  H  H37  1  0.930300  0.705000  0.176300  1.0  0.1425
  H  H38  1  0.534100  0.410900  0.716100  1.0  0.1354
  H  H39  1  0.262700  0.277400  0.687600  1.0  0.1349
  H  H40  1  0.534100  0.089100  0.216100  1.0  0.1353
  H  H41  1  0.090200  0.357000  0.935400  1.0  0.1358
  H  H42  1  0.401200  0.154700  0.525200  1.0  0.1347
  H  H43  1  0.401200  0.345300  0.025200  1.0  0.1348
  H  H44  1  0.082400  0.314700  0.479900  1.0  0.1352
  H  H45  1  0.284600  0.896900  0.686600  1.0  0.1434
  H  H46  1  0.817000  0.664400  0.691600  1.0  0.1384
  H  H47  1  0.416900  0.624400  0.693400  1.0  0.1391
  H  H48  1  0.669900  0.363100  0.569900  1.0  0.1227
  H  H49  1  0.090200  0.143000  0.435400  1.0  0.1354
  H  H50  1  0.909800  0.857000  0.935400  1.0  0.1352
  H  H51  1  0.715400  0.103100  0.186600  1.0  0.1419
  H  H52  1  0.778900  0.101600  0.017700  1.0  0.1335
  H  H53  1  0.598800  0.654700  0.525200  1.0  0.1338
  H  H54  1  0.808700  0.659000  0.213200  1.0  0.1335
  H  H55  1  0.055700  0.813900  0.962400  1.0  0.1384
  H  H56  1  0.550700  0.132300  0.155300  1.0  0.1266
  H  H57  1  0.583100  0.375600  0.193400  1.0  0.1398
  H  H58  1  0.037900  0.861900  0.444000  1.0  0.1205
  H  H59  1  0.415100  0.883700  0.504500  1.0  0.1461
  H  H60  1  0.550700  0.367700  0.655300  1.0  0.1266
  H  H61  1  0.438100  0.389600  0.966500  1.0  0.1356
  H  H62  1  0.962100  0.138100  0.944000  1.0  0.1197
  H  H63  1  0.037900  0.638100  0.944000  1.0  0.1193
  H  H64  1  0.989500  0.181500  0.680800  1.0  0.1307
  H  H65  1  0.284600  0.603100  0.186600  1.0  0.1432
  H  H66  1  0.465900  0.589100  0.216100  1.0  0.1343
  H  H67  1  0.262700  0.222600  0.187600  1.0  0.1346
  H  H68  1  0.598800  0.845300  0.025200  1.0  0.1341
  H  H69  1  0.817000  0.835600  0.191600  1.0  0.1389
  H  H70  1  0.449300  0.632300  0.155300  1.0  0.1261
  H  H71  1  0.522900  0.838200  0.142000  1.0  0.1408
  H  H72  1  0.137000  0.298600  0.977300  1.0  0.1315
  H  H73  1  0.666100  0.141600  0.626600  1.0  0.1324
  H  H74  1  0.930300  0.795000  0.676300  1.0  0.1427
  H  H75  1  0.477100  0.161800  0.642000  1.0  0.1411
  H  H76  1  0.863000  0.701400  0.477300  1.0  0.1311
  H  H77  1  0.778900  0.398400  0.517700  1.0  0.1336
  H  H78  1  0.887700  0.298900  0.470000  1.0  0.1306
  H  H79  1  0.917600  0.685300  0.979900  1.0  0.1361
  H  H80  1  0.583100  0.124400  0.693400  1.0  0.1385
  H  H81  1  0.887700  0.201100  0.970000  1.0  0.13
  H  H82  1  0.944300  0.186100  0.462400  1.0  0.1394
  H  H83  1  0.112300  0.701100  0.970000  1.0  0.1288
  H  H84  1  0.137000  0.201400  0.477300  1.0  0.1313
  H  H85  1  0.333900  0.858400  0.126600  1.0  0.1341
  H  H86  1  0.961600  0.622700  0.721700  1.0  0.1323
  H  H87  1  0.715400  0.396900  0.686600  1.0  0.1425
  H  H88  1  0.561900  0.610400  0.466500  1.0  0.1359
  H  H89  1  0.522900  0.661800  0.642000  1.0  0.1403
  H  H90  1  0.561900  0.889600  0.966500  1.0  0.1353
  H  H91  1  0.669900  0.136900  0.069900  1.0  0.1224
  H  H92  1  0.183000  0.164400  0.691600  1.0  0.1378
  H  H93  1  0.191300  0.341000  0.713200  1.0  0.1355
  H  H94  1  0.737300  0.722600  0.187600  1.0  0.1345
  H  H95  1  0.666100  0.358400  0.126600  1.0  0.132
  H  H96  1  0.962100  0.361900  0.444000  1.0  0.1209
  H  H97  1  0.010500  0.818500  0.180800  1.0  0.1308
  H  H98  1  0.961600  0.877300  0.221700  1.0  0.1332
  H  H99  1  0.909800  0.643000  0.435400  1.0  0.1361
  H  H100  1  0.330100  0.636900  0.069900  1.0  0.1224
  H  H101  1  0.590000  0.365400  0.009500  1.0  0.1449
  H  H102  1  0.221100  0.601600  0.017700  1.0  0.1339
  H  H103  1  0.410000  0.865400  0.009500  1.0  0.1447
  H  H104  1  0.333900  0.641600  0.626600  1.0  0.1344
  C  C105  1  0.931600  0.775890  0.885090  1.0  0.0861
  C  C106  1  0.495600  0.431020  0.119330  1.0  0.0424
  C  C107  1  0.068400  0.224110  0.385090  1.0  0.0864
  C  C108  1  0.579500  0.040090  0.132870  1.0  0.0536
  C  C109  1  0.438400  0.870180  0.147980  1.0  -0.3699
  C  C110  1  0.940900  0.814890  0.945510  1.0  -0.3696
  C  C111  1  0.495600  0.068980  0.619330  1.0  0.0421
  C  C112  1  0.475600  0.483010  0.158370  1.0  -0.1523
  C  C113  1  0.028200  0.212090  0.887600  1.0  0.049
  C  C114  1  0.579500  0.459910  0.632870  1.0  0.0573
  C  C115  1  0.382300  0.955790  0.567060  1.0  0.0614
  C  C116  1  0.438400  0.629820  0.647980  1.0  -0.3689
  C  C117  1  0.671500  0.993710  0.959870  1.0  0.726
  C  C118  1  0.028100  0.322220  0.330290  1.0  -0.138
  C  C119  1  0.328500  0.006290  0.459870  1.0  0.7261
  C  C120  1  0.971800  0.787910  0.387600  1.0  0.0486
  C  C121  1  0.961500  0.111720  0.831970  1.0  0.6943
  C  C122  1  0.162200  0.370450  0.824850  1.0  0.7017
  C  C123  1  0.038500  0.888280  0.331970  1.0  0.693
  C  C124  1  0.931600  0.724110  0.385090  1.0  0.0855
  C  C125  1  0.028100  0.177780  0.830290  1.0  -0.1382
  C  C126  1  0.929200  0.835460  0.210850  1.0  -0.379
  C  C127  1  0.835500  0.797950  0.705790  1.0  -0.3839
  C  C128  1  0.452600  0.065710  0.553420  1.0  0.0418
  C  C129  1  0.393900  0.009450  0.528270  1.0  -0.1011
  C  C130  1  0.971800  0.712090  0.887600  1.0  0.0487
  C  C131  1  0.112600  0.198220  0.325520  1.0  -0.1497
  C  C132  1  0.472200  0.121410  0.509680  1.0  -0.3745
  C  C133  1  0.068400  0.275890  0.885090  1.0  0.0863
  C  C134  1  0.013700  0.818640  0.451120  1.0  -0.3687
  C  C135  1  0.667300  0.105290  0.037080  1.0  -0.3836
  C  C136  1  0.882800  0.767460  0.768840  1.0  0.0696
  C  C137  1  0.164500  0.202050  0.205790  1.0  -0.3847
  C  C138  1  0.332700  0.894710  0.537080  1.0  -0.384
  C  C139  1  0.452600  0.434290  0.053420  1.0  0.0424
  C  C140  1  0.420500  0.540090  0.132870  1.0  0.0529
  C  C141  1  0.525400  0.480250  0.228940  1.0  0.7288
  C  C142  1  0.475600  0.016990  0.658370  1.0  -0.1522
  C  C143  1  0.837800  0.629550  0.324850  1.0  0.7007
  C  C144  1  0.547400  0.934290  0.053420  1.0  0.0421
  C  C145  1  0.420500  0.959910  0.632870  1.0  0.0541
  C  C146  1  0.328500  0.493710  0.959870  1.0  0.7259
  C  C147  1  0.596500  0.096290  0.176740  1.0  -0.3415
  C  C148  1  0.162200  0.129550  0.324850  1.0  0.7005
  C  C149  1  0.940900  0.685110  0.445510  1.0  -0.3697
  C  C150  1  0.882800  0.732540  0.268840  1.0  0.0694
  C  C151  1  0.606100  0.990550  0.028270  1.0  -0.101
  C  C152  1  0.059100  0.185110  0.445510  1.0  -0.3703
  C  C153  1  0.403500  0.903710  0.676740  1.0  -0.3416
  C  C154  1  0.887400  0.698220  0.325520  1.0  -0.1498
  C  C155  1  0.835500  0.702050  0.205790  1.0  -0.384
  C  C156  1  0.070800  0.335460  0.210850  1.0  -0.3789
  C  C157  1  0.382300  0.544210  0.067060  1.0  0.0589
  C  C158  1  0.926600  0.703520  0.770850  1.0  0.0942
  C  C159  1  0.547400  0.565710  0.553420  1.0  0.0415
  C  C160  1  0.606100  0.509450  0.528270  1.0  -0.1011
  C  C161  1  0.332700  0.605290  0.037080  1.0  -0.3844
  C  C162  1  0.117200  0.267460  0.768840  1.0  0.0694
  C  C163  1  0.073400  0.203520  0.770850  1.0  0.0944
  C  C164  1  0.971900  0.677780  0.830290  1.0  -0.138
  C  C165  1  0.070800  0.164540  0.710850  1.0  -0.3799
  C  C166  1  0.986300  0.318640  0.451120  1.0  -0.3688
  C  C167  1  0.671500  0.506290  0.459870  1.0  0.7262
  C  C168  1  0.596500  0.403710  0.676740  1.0  -0.3416
  C  C169  1  0.561600  0.129820  0.647980  1.0  -0.3701
  C  C170  1  0.403500  0.596290  0.176740  1.0  -0.3418
  C  C171  1  0.393900  0.490550  0.028270  1.0  -0.101
  C  C172  1  0.561600  0.370180  0.147980  1.0  -0.3702
  C  C173  1  0.617700  0.455790  0.567060  1.0  0.0602
  C  C174  1  0.073400  0.296480  0.270850  1.0  0.0949
  C  C175  1  0.504400  0.568980  0.619330  1.0  0.0423
  C  C176  1  0.837800  0.870450  0.824850  1.0  0.7018
  C  C177  1  0.524400  0.516990  0.658370  1.0  -0.1525
  C  C178  1  0.524400  0.983010  0.158370  1.0  -0.1525
  C  C179  1  0.986300  0.181360  0.951120  1.0  -0.3694
  C  C180  1  0.164500  0.297950  0.705790  1.0  -0.3843
  C  C181  1  0.929200  0.664540  0.710850  1.0  -0.38
  C  C182  1  0.527800  0.878590  0.009680  1.0  -0.3745
  C  C183  1  0.472200  0.378590  0.009680  1.0  -0.3748
  C  C184  1  0.887400  0.801780  0.825520  1.0  -0.15
  C  C185  1  0.525400  0.019750  0.728940  1.0  0.7288
  C  C186  1  0.013700  0.681360  0.951120  1.0  -0.3693
  C  C187  1  0.059100  0.314890  0.945510  1.0  -0.3702
  C  C188  1  0.667300  0.394710  0.537080  1.0  -0.3839
  C  C189  1  0.038500  0.611720  0.831970  1.0  0.6945
  C  C190  1  0.617700  0.044210  0.067060  1.0  0.06
  C  C191  1  0.504400  0.931020  0.119330  1.0  0.0426
  C  C192  1  0.117200  0.232540  0.268840  1.0  0.0693
  C  C193  1  0.926600  0.796480  0.270850  1.0  0.0947
  C  C194  1  0.961500  0.388280  0.331970  1.0  0.6925
  C  C195  1  0.112600  0.301780  0.825520  1.0  -0.1499
  C  C196  1  0.474600  0.980250  0.228940  1.0  0.7287
  C  C197  1  0.971900  0.822220  0.330290  1.0  -0.1378
  C  C198  1  0.028200  0.287910  0.387600  1.0  0.0489
  C  C199  1  0.474600  0.519750  0.728940  1.0  0.7286
  C  C200  1  0.527800  0.621410  0.509680  1.0  -0.3748
  O  O201  1  0.956700  0.589830  0.316610  1.0  -0.5643
  O  O202  1  0.572600  0.006330  0.913300  1.0  -0.69
  O  O203  1  0.314800  0.114920  0.333740  1.0  -0.59
  O  O204  1  0.314800  0.385080  0.833740  1.0  -0.5902
  O  O205  1  0.956700  0.910170  0.816610  1.0  -0.565
  O  O206  1  0.057000  0.064900  0.835360  1.0  -0.6988
  O  O207  1  0.825400  0.981880  0.950300  1.0  -0.5816
  O  O208  1  0.043300  0.410170  0.816610  1.0  -0.5652
  O  O209  1  0.803200  0.104810  0.829400  1.0  -0.5932
  O  O210  1  0.673900  0.001540  0.740630  1.0  -0.5943
  O  O211  1  0.196800  0.895190  0.329400  1.0  -0.5921
  O  O212  1  0.580000  0.540110  0.768440  1.0  -0.7228
  O  O213  1  0.427400  0.993670  0.413300  1.0  -0.6909
  O  O214  1  0.196800  0.604810  0.829400  1.0  -0.592
  O  O215  1  0.326100  0.501540  0.740630  1.0  -0.5944
  O  O216  1  0.420000  0.040110  0.768440  1.0  -0.7227
  O  O217  1  0.803200  0.395190  0.329400  1.0  -0.5932
  O  O218  1  0.174600  0.018120  0.450300  1.0  -0.5834
  O  O219  1  0.057000  0.435100  0.335360  1.0  -0.6983
  O  O220  1  0.673900  0.498460  0.240630  1.0  -0.5945
  O  O221  1  0.685200  0.885080  0.833740  1.0  -0.5904
  O  O222  1  0.943000  0.564900  0.835360  1.0  -0.6989
  O  O223  1  0.572600  0.493670  0.413300  1.0  -0.6929
  O  O224  1  0.685200  0.614920  0.333740  1.0  -0.5901
  O  O225  1  0.174600  0.481880  0.950300  1.0  -0.5838
  O  O226  1  0.825400  0.518120  0.450300  1.0  -0.5815
  O  O227  1  0.943000  0.935100  0.335360  1.0  -0.6984
  O  O228  1  0.043300  0.089830  0.316610  1.0  -0.5657
  O  O229  1  0.420000  0.459890  0.268440  1.0  -0.7223
  O  O230  1  0.580000  0.959890  0.268440  1.0  -0.7228
  O  O231  1  0.427400  0.506330  0.913300  1.0  -0.6887
  O  O232  1  0.326100  0.998460  0.240630  1.0  -0.5943
