# generated using pymatgen
data_K3Co14H48(C16O9)6
_symmetry_space_group_name_H-M   'P 1'
_cell_length_a   29.85370000
_cell_length_b   29.85370000
_cell_length_c   29.85370000
_cell_angle_alpha   32.93650000
_cell_angle_beta   32.93650000
_cell_angle_gamma   32.93650000
_symmetry_Int_Tables_number   1
_chemical_formula_structural   K3Co14H48(C16O9)6
_chemical_formula_sum   'K6 Co28 H96 C192 O108'
_cell_volume   6998.92259639
_cell_formula_units_Z   2
loop_
 _symmetry_equiv_pos_site_id
 _symmetry_equiv_pos_as_xyz
  1  'x, y, z'
loop_
 _atom_site_type_symbol
 _atom_site_label
 _atom_site_symmetry_multiplicity
 _atom_site_fract_x
 _atom_site_fract_y
 _atom_site_fract_z
 _atom_site_occupancy
 _atom_site_charge
  K  K1  1  0.349530  0.150470  0.750000  1.0  0.9804
  K  K2  1  0.750000  0.349530  0.150470  1.0  0.9787
  K  K3  1  0.150470  0.750000  0.349530  1.0  0.9824
  K  K4  1  0.650470  0.849530  0.250000  1.0  0.9789
  K  K5  1  0.250000  0.650470  0.849530  1.0  0.9826
  K  K6  1  0.849530  0.250000  0.650470  1.0  0.9805
  Co  Co7  1  0.348990  0.279990  0.548110  1.0  1.0721
  Co  Co8  1  0.257880  0.248040  0.563830  1.0  1.0626
  Co  Co9  1  0.548110  0.348990  0.279990  1.0  1.069
  Co  Co10  1  0.563830  0.257880  0.248040  1.0  1.0658
  Co  Co11  1  0.279990  0.548110  0.348990  1.0  1.0701
  Co  Co12  1  0.248040  0.563830  0.257880  1.0  1.0647
  Co  Co13  1  0.220010  0.151010  0.951890  1.0  1.0692
  Co  Co14  1  0.251960  0.242120  0.936170  1.0  1.0627
  Co  Co15  1  0.151010  0.951890  0.220010  1.0  1.0706
  Co  Co16  1  0.242120  0.936170  0.251960  1.0  1.0659
  Co  Co17  1  0.951890  0.220010  0.151010  1.0  1.0705
  Co  Co18  1  0.936170  0.251960  0.242120  1.0  1.0652
  Co  Co19  1  0.651010  0.720010  0.451890  1.0  1.0707
  Co  Co20  1  0.742120  0.751960  0.436170  1.0  1.0626
  Co  Co21  1  0.451890  0.651010  0.720010  1.0  1.0693
  Co  Co22  1  0.436170  0.742120  0.751960  1.0  1.0652
  Co  Co23  1  0.720010  0.451890  0.651010  1.0  1.0704
  Co  Co24  1  0.751960  0.436170  0.742120  1.0  1.0634
  Co  Co25  1  0.779990  0.848990  0.048110  1.0  1.0698
  Co  Co26  1  0.748040  0.757880  0.063830  1.0  1.0636
  Co  Co27  1  0.848990  0.048110  0.779990  1.0  1.0698
  Co  Co28  1  0.757880  0.063830  0.748040  1.0  1.0677
  Co  Co29  1  0.048110  0.779990  0.848990  1.0  1.0703
  Co  Co30  1  0.063830  0.748040  0.757880  1.0  1.065
  Co  Co31  1  0.359570  0.359570  0.359570  1.0  1.0707
  Co  Co32  1  0.140430  0.140430  0.140430  1.0  1.0701
  Co  Co33  1  0.640430  0.640430  0.640430  1.0  1.0701
  Co  Co34  1  0.859570  0.859570  0.859570  1.0  1.0707
  H  H35  1  0.137600  0.252100  0.837100  1.0  0.1087
  H  H36  1  0.039000  0.232200  0.816100  1.0  0.1242
  H  H37  1  0.921200  0.213900  0.964200  1.0  0.1248
  H  H38  1  0.906200  0.223700  0.044700  1.0  0.1031
  H  H39  1  0.030600  0.374300  0.561200  1.0  0.116
  H  H40  1  0.947300  0.522500  0.394300  1.0  0.1184
  H  H41  1  0.074100  0.552700  0.266700  1.0  0.1168
  H  H42  1  0.176700  0.495200  0.287600  1.0  0.1156
  H  H43  1  0.837100  0.137600  0.252100  1.0  0.1099
  H  H44  1  0.816100  0.039000  0.232200  1.0  0.1253
  H  H45  1  0.964200  0.921200  0.213900  1.0  0.1245
  H  H46  1  0.044700  0.906200  0.223700  1.0  0.104
  H  H47  1  0.561200  0.030600  0.374300  1.0  0.1145
  H  H48  1  0.394300  0.947300  0.522500  1.0  0.1189
  H  H49  1  0.266700  0.074100  0.552700  1.0  0.1187
  H  H50  1  0.287600  0.176700  0.495200  1.0  0.1135
  H  H51  1  0.252100  0.837100  0.137600  1.0  0.1046
  H  H52  1  0.232200  0.816100  0.039000  1.0  0.125
  H  H53  1  0.213900  0.964200  0.921200  1.0  0.1249
  H  H54  1  0.223700  0.044700  0.906200  1.0  0.1051
  H  H55  1  0.374300  0.561200  0.030600  1.0  0.1154
  H  H56  1  0.522500  0.394300  0.947300  1.0  0.119
  H  H57  1  0.552700  0.266700  0.074100  1.0  0.1161
  H  H58  1  0.495200  0.287600  0.176700  1.0  0.1139
  H  H59  1  0.247900  0.362400  0.662900  1.0  0.1086
  H  H60  1  0.267800  0.461000  0.683900  1.0  0.1244
  H  H61  1  0.286100  0.578800  0.535800  1.0  0.127
  H  H62  1  0.276300  0.593800  0.455300  1.0  0.1051
  H  H63  1  0.125700  0.469400  0.938800  1.0  0.115
  H  H64  1  0.977500  0.552700  0.105700  1.0  0.1188
  H  H65  1  0.947300  0.425900  0.233300  1.0  0.1177
  H  H66  1  0.004800  0.323300  0.212400  1.0  0.1142
  H  H67  1  0.362400  0.662900  0.247900  1.0  0.1086
  H  H68  1  0.461000  0.683900  0.267800  1.0  0.1246
  H  H69  1  0.578800  0.535800  0.286100  1.0  0.126
  H  H70  1  0.593800  0.455300  0.276300  1.0  0.1051
  H  H71  1  0.469400  0.938800  0.125700  1.0  0.1155
  H  H72  1  0.552700  0.105700  0.977500  1.0  0.1177
  H  H73  1  0.425900  0.233300  0.947300  1.0  0.1169
  H  H74  1  0.323300  0.212400  0.004800  1.0  0.1145
  H  H75  1  0.662900  0.247900  0.362400  1.0  0.1051
  H  H76  1  0.683900  0.267800  0.461000  1.0  0.1244
  H  H77  1  0.535800  0.286100  0.578800  1.0  0.1258
  H  H78  1  0.455300  0.276300  0.593800  1.0  0.1046
  H  H79  1  0.938800  0.125700  0.469400  1.0  0.1153
  H  H80  1  0.105700  0.977500  0.552700  1.0  0.1183
  H  H81  1  0.233300  0.947300  0.425900  1.0  0.1167
  H  H82  1  0.212400  0.004800  0.323300  1.0  0.1146
  H  H83  1  0.862400  0.747900  0.162900  1.0  0.1078
  H  H84  1  0.961000  0.767800  0.183900  1.0  0.1241
  H  H85  1  0.078800  0.786100  0.035800  1.0  0.1255
  H  H86  1  0.093800  0.776300  0.955300  1.0  0.1043
  H  H87  1  0.969400  0.625700  0.438800  1.0  0.1156
  H  H88  1  0.052700  0.477500  0.605700  1.0  0.1192
  H  H89  1  0.925900  0.447300  0.733300  1.0  0.1175
  H  H90  1  0.823300  0.504800  0.712400  1.0  0.1171
  H  H91  1  0.162900  0.862400  0.747900  1.0  0.1091
  H  H92  1  0.183900  0.961000  0.767800  1.0  0.1251
  H  H93  1  0.035800  0.078800  0.786100  1.0  0.1266
  H  H94  1  0.955300  0.093800  0.776300  1.0  0.1043
  H  H95  1  0.438800  0.969400  0.625700  1.0  0.1128
  H  H96  1  0.605700  0.052700  0.477500  1.0  0.1194
  H  H97  1  0.733300  0.925900  0.447300  1.0  0.1172
  H  H98  1  0.712400  0.823300  0.504800  1.0  0.1136
  H  H99  1  0.747900  0.162900  0.862400  1.0  0.1058
  H  H100  1  0.767800  0.183900  0.961000  1.0  0.1249
  H  H101  1  0.786100  0.035800  0.078800  1.0  0.1254
  H  H102  1  0.776300  0.955300  0.093800  1.0  0.1053
  H  H103  1  0.625700  0.438800  0.969400  1.0  0.1155
  H  H104  1  0.477500  0.605700  0.052700  1.0  0.1188
  H  H105  1  0.447300  0.733300  0.925900  1.0  0.1166
  H  H106  1  0.504800  0.712400  0.823300  1.0  0.114
  H  H107  1  0.752100  0.637600  0.337100  1.0  0.109
  H  H108  1  0.732200  0.539000  0.316100  1.0  0.1246
  H  H109  1  0.713900  0.421200  0.464200  1.0  0.1255
  H  H110  1  0.723700  0.406200  0.544700  1.0  0.1046
  H  H111  1  0.874300  0.530600  0.061200  1.0  0.1146
  H  H112  1  0.022500  0.447300  0.894300  1.0  0.1187
  H  H113  1  0.052700  0.574100  0.766700  1.0  0.1176
  H  H114  1  0.995200  0.676700  0.787600  1.0  0.114
  H  H115  1  0.637600  0.337100  0.752100  1.0  0.1093
  H  H116  1  0.539000  0.316100  0.732200  1.0  0.1248
  H  H117  1  0.421200  0.464200  0.713900  1.0  0.1239
  H  H118  1  0.406200  0.544700  0.723700  1.0  0.105
  H  H119  1  0.530600  0.061200  0.874300  1.0  0.1151
  H  H120  1  0.447300  0.894300  0.022500  1.0  0.1182
  H  H121  1  0.574100  0.766700  0.052700  1.0  0.1172
  H  H122  1  0.676700  0.787600  0.995200  1.0  0.1149
  H  H123  1  0.337100  0.752100  0.637600  1.0  0.1048
  H  H124  1  0.316100  0.732200  0.539000  1.0  0.1254
  H  H125  1  0.464200  0.713900  0.421200  1.0  0.125
  H  H126  1  0.544700  0.723700  0.406200  1.0  0.1053
  H  H127  1  0.061200  0.874300  0.530600  1.0  0.1159
  H  H128  1  0.894300  0.022500  0.447300  1.0  0.119
  H  H129  1  0.766700  0.052700  0.574100  1.0  0.1167
  H  H130  1  0.787600  0.995200  0.676700  1.0  0.1137
  C  C131  1  0.176710  0.252010  0.716510  1.0  0.7032
  C  C132  1  0.100430  0.244030  0.811330  1.0  -0.196
  C  C133  1  0.020420  0.237120  0.950420  1.0  -0.1497
  C  C134  1  0.093510  0.245510  0.862010  1.0  -0.0487
  C  C135  1  0.010560  0.235660  0.008960  1.0  0.686
  C  C136  1  0.034820  0.233120  0.850020  1.0  -0.0769
  C  C137  1  0.963900  0.223200  0.938000  1.0  -0.0964
  C  C138  1  0.956060  0.227360  0.986260  1.0  -0.0593
  C  C139  1  0.892650  0.431850  0.572150  1.0  0.7232
  C  C140  1  0.976850  0.445250  0.490450  1.0  -0.1469
  C  C141  1  0.114470  0.428070  0.426470  1.0  -0.1678
  C  C142  1  0.039200  0.410400  0.501800  1.0  -0.0008
  C  C143  1  0.180820  0.387820  0.442520  1.0  0.6963
  C  C144  1  0.989200  0.498800  0.402500  1.0  -0.0099
  C  C145  1  0.065020  0.517020  0.326220  1.0  -0.0679
  C  C146  1  0.126730  0.482130  0.338730  1.0  -0.0245
  C  C147  1  0.716510  0.176710  0.252010  1.0  0.7029
  C  C148  1  0.811330  0.100430  0.244030  1.0  -0.1991
  C  C149  1  0.950420  0.020420  0.237120  1.0  -0.1504
  C  C150  1  0.862010  0.093510  0.245510  1.0  -0.0477
  C  C151  1  0.008960  0.010560  0.235660  1.0  0.6882
  C  C152  1  0.850020  0.034820  0.233120  1.0  -0.0797
  C  C153  1  0.938000  0.963900  0.223200  1.0  -0.0947
  C  C154  1  0.986260  0.956060  0.227360  1.0  -0.062
  C  C155  1  0.572150  0.892650  0.431850  1.0  0.7284
  C  C156  1  0.490450  0.976850  0.445250  1.0  -0.1466
  C  C157  1  0.426470  0.114470  0.428070  1.0  -0.167
  C  C158  1  0.501800  0.039200  0.410400  1.0  -0.002
  C  C159  1  0.442520  0.180820  0.387820  1.0  0.6982
  C  C160  1  0.402500  0.989200  0.498800  1.0  -0.0097
  C  C161  1  0.326220  0.065020  0.517020  1.0  -0.0747
  C  C162  1  0.338730  0.126730  0.482130  1.0  -0.0173
  C  C163  1  0.252010  0.716510  0.176710  1.0  0.7029
  C  C164  1  0.244030  0.811330  0.100430  1.0  -0.1971
  C  C165  1  0.237120  0.950420  0.020420  1.0  -0.151
  C  C166  1  0.245510  0.862010  0.093510  1.0  -0.0477
  C  C167  1  0.235660  0.008960  0.010560  1.0  0.6882
  C  C168  1  0.233120  0.850020  0.034820  1.0  -0.08
  C  C169  1  0.223200  0.938000  0.963900  1.0  -0.0912
  C  C170  1  0.227360  0.986260  0.956060  1.0  -0.0586
  C  C171  1  0.431850  0.572150  0.892650  1.0  0.7271
  C  C172  1  0.445250  0.490450  0.976850  1.0  -0.1482
  C  C173  1  0.428070  0.426470  0.114470  1.0  -0.1691
  C  C174  1  0.410400  0.501800  0.039200  1.0  -0.0019
  C  C175  1  0.387820  0.442520  0.180820  1.0  0.6957
  C  C176  1  0.498800  0.402500  0.989200  1.0  -0.0058
  C  C177  1  0.517020  0.326220  0.065020  1.0  -0.0713
  C  C178  1  0.482130  0.338730  0.126730  1.0  -0.0265
  C  C179  1  0.247990  0.323290  0.783490  1.0  0.703
  C  C180  1  0.255970  0.399570  0.688670  1.0  -0.1967
  C  C181  1  0.262880  0.479580  0.549580  1.0  -0.1523
  C  C182  1  0.254490  0.406490  0.637990  1.0  -0.048
  C  C183  1  0.264340  0.489440  0.491040  1.0  0.6875
  C  C184  1  0.266880  0.465180  0.649980  1.0  -0.0773
  C  C185  1  0.276800  0.536100  0.562000  1.0  -0.0954
  C  C186  1  0.272640  0.543940  0.513740  1.0  -0.0613
  C  C187  1  0.068150  0.607350  0.927850  1.0  0.7255
  C  C188  1  0.054750  0.523150  0.009550  1.0  -0.149
  C  C189  1  0.071930  0.385530  0.073530  1.0  -0.1681
  C  C190  1  0.089600  0.460800  0.998200  1.0  0.0012
  C  C191  1  0.112180  0.319180  0.057480  1.0  0.6975
  C  C192  1  0.001200  0.510800  0.097500  1.0  -0.0094
  C  C193  1  0.982980  0.434980  0.173780  1.0  -0.0684
  C  C194  1  0.017870  0.373270  0.161270  1.0  -0.024
  C  C195  1  0.323290  0.783490  0.247990  1.0  0.7051
  C  C196  1  0.399570  0.688670  0.255970  1.0  -0.1979
  C  C197  1  0.479580  0.549580  0.262880  1.0  -0.1514
  C  C198  1  0.406490  0.637990  0.254490  1.0  -0.0485
  C  C199  1  0.489440  0.491040  0.264340  1.0  0.6893
  C  C200  1  0.465180  0.649980  0.266880  1.0  -0.0804
  C  C201  1  0.536100  0.562000  0.276800  1.0  -0.0957
  C  C202  1  0.543940  0.513740  0.272640  1.0  -0.0566
  C  C203  1  0.607350  0.927850  0.068150  1.0  0.7303
  C  C204  1  0.523150  0.009550  0.054750  1.0  -0.1452
  C  C205  1  0.385530  0.073530  0.071930  1.0  -0.1668
  C  C206  1  0.460800  0.998200  0.089600  1.0  -0.0056
  C  C207  1  0.319180  0.057480  0.112180  1.0  0.6963
  C  C208  1  0.510800  0.097500  0.001200  1.0  -0.0105
  C  C209  1  0.434980  0.173780  0.982980  1.0  -0.0723
  C  C210  1  0.373270  0.161270  0.017870  1.0  -0.0242
  C  C211  1  0.783490  0.247990  0.323290  1.0  0.7035
  C  C212  1  0.688670  0.255970  0.399570  1.0  -0.1979
  C  C213  1  0.549580  0.262880  0.479580  1.0  -0.1505
  C  C214  1  0.637990  0.254490  0.406490  1.0  -0.048
  C  C215  1  0.491040  0.264340  0.489440  1.0  0.6846
  C  C216  1  0.649980  0.266880  0.465180  1.0  -0.0794
  C  C217  1  0.562000  0.276800  0.536100  1.0  -0.0914
  C  C218  1  0.513740  0.272640  0.543940  1.0  -0.0643
  C  C219  1  0.927850  0.068150  0.607350  1.0  0.7231
  C  C220  1  0.009550  0.054750  0.523150  1.0  -0.1484
  C  C221  1  0.073530  0.071930  0.385530  1.0  -0.1682
  C  C222  1  0.998200  0.089600  0.460800  1.0  -1e-04
  C  C223  1  0.057480  0.112180  0.319180  1.0  0.698
  C  C224  1  0.097500  0.001200  0.510800  1.0  -0.0067
  C  C225  1  0.173780  0.982980  0.434980  1.0  -0.0717
  C  C226  1  0.161270  0.017870  0.373270  1.0  -0.0214
  C  C227  1  0.823290  0.747990  0.283490  1.0  0.7031
  C  C228  1  0.899570  0.755970  0.188670  1.0  -0.1969
  C  C229  1  0.979580  0.762880  0.049580  1.0  -0.1511
  C  C230  1  0.906490  0.754490  0.137990  1.0  -0.0498
  C  C231  1  0.989440  0.764340  0.991040  1.0  0.6842
  C  C232  1  0.965180  0.766880  0.149980  1.0  -0.0772
  C  C233  1  0.036100  0.776800  0.062000  1.0  -0.095
  C  C234  1  0.043940  0.772640  0.013740  1.0  -0.0568
  C  C235  1  0.107350  0.568150  0.427850  1.0  0.7243
  C  C236  1  0.023150  0.554750  0.509550  1.0  -0.1471
  C  C237  1  0.885530  0.571930  0.573530  1.0  -0.1656
  C  C238  1  0.960800  0.589600  0.498200  1.0  0.0015
  C  C239  1  0.819180  0.612180  0.557480  1.0  0.6971
  C  C240  1  0.010800  0.501200  0.597500  1.0  -0.0102
  C  C241  1  0.934980  0.482980  0.673780  1.0  -0.07
  C  C242  1  0.873270  0.517870  0.661270  1.0  -0.027
  C  C243  1  0.283490  0.823290  0.747990  1.0  0.7031
  C  C244  1  0.188670  0.899570  0.755970  1.0  -0.1987
  C  C245  1  0.049580  0.979580  0.762880  1.0  -0.1509
  C  C246  1  0.137990  0.906490  0.754490  1.0  -0.0475
  C  C247  1  0.991040  0.989440  0.764340  1.0  0.6885
  C  C248  1  0.149980  0.965180  0.766880  1.0  -0.0809
  C  C249  1  0.062000  0.036100  0.776800  1.0  -0.0951
  C  C250  1  0.013740  0.043940  0.772640  1.0  -0.0607
  C  C251  1  0.427850  0.107350  0.568150  1.0  0.7293
  C  C252  1  0.509550  0.023150  0.554750  1.0  -0.1442
  C  C253  1  0.573530  0.885530  0.571930  1.0  -0.1665
  C  C254  1  0.498200  0.960800  0.589600  1.0  -0.0038
  C  C255  1  0.557480  0.819180  0.612180  1.0  0.6975
  C  C256  1  0.597500  0.010800  0.501200  1.0  -0.01
  C  C257  1  0.673780  0.934980  0.482980  1.0  -0.0718
  C  C258  1  0.661270  0.873270  0.517870  1.0  -0.0195
  C  C259  1  0.747990  0.283490  0.823290  1.0  0.7034
  C  C260  1  0.755970  0.188670  0.899570  1.0  -0.1955
  C  C261  1  0.762880  0.049580  0.979580  1.0  -0.1512
  C  C262  1  0.754490  0.137990  0.906490  1.0  -0.0468
  C  C263  1  0.764340  0.991040  0.989440  1.0  0.6872
  C  C264  1  0.766880  0.149980  0.965180  1.0  -0.0794
  C  C265  1  0.776800  0.062000  0.036100  1.0  -0.0919
  C  C266  1  0.772640  0.013740  0.043940  1.0  -0.0611
  C  C267  1  0.568150  0.427850  0.107350  1.0  0.726
  C  C268  1  0.554750  0.509550  0.023150  1.0  -0.1497
  C  C269  1  0.571930  0.573530  0.885530  1.0  -0.169
  C  C270  1  0.589600  0.498200  0.960800  1.0  -0.0022
  C  C271  1  0.612180  0.557480  0.819180  1.0  0.6964
  C  C272  1  0.501200  0.597500  0.010800  1.0  -0.0053
  C  C273  1  0.482980  0.673780  0.934980  1.0  -0.0706
  C  C274  1  0.517870  0.661270  0.873270  1.0  -0.0249
  C  C275  1  0.752010  0.676710  0.216510  1.0  0.7012
  C  C276  1  0.744030  0.600430  0.311330  1.0  -0.1965
  C  C277  1  0.737120  0.520420  0.450420  1.0  -0.1519
  C  C278  1  0.745510  0.593510  0.362010  1.0  -0.0483
  C  C279  1  0.735660  0.510560  0.508960  1.0  0.6866
  C  C280  1  0.733120  0.534820  0.350020  1.0  -0.0768
  C  C281  1  0.723200  0.463900  0.438000  1.0  -0.0951
  C  C282  1  0.727360  0.456060  0.486260  1.0  -0.0626
  C  C283  1  0.931850  0.392650  0.072150  1.0  0.7261
  C  C284  1  0.945250  0.476850  0.990450  1.0  -0.1506
  C  C285  1  0.928070  0.614470  0.926470  1.0  -0.1687
  C  C286  1  0.910400  0.539200  0.001800  1.0  0.0
  C  C287  1  0.887820  0.680820  0.942520  1.0  0.6965
  C  C288  1  0.998800  0.489200  0.902500  1.0  -0.0098
  C  C289  1  0.017020  0.565020  0.826220  1.0  -0.0659
  C  C290  1  0.982130  0.626730  0.838730  1.0  -0.0248
  C  C291  1  0.676710  0.216510  0.752010  1.0  0.7045
  C  C292  1  0.600430  0.311330  0.744030  1.0  -0.1989
  C  C293  1  0.520420  0.450420  0.737120  1.0  -0.1494
  C  C294  1  0.593510  0.362010  0.745510  1.0  -0.0479
  C  C295  1  0.510560  0.508960  0.735660  1.0  0.6884
  C  C296  1  0.534820  0.350020  0.733120  1.0  -0.0805
  C  C297  1  0.463900  0.438000  0.723200  1.0  -0.0971
  C  C298  1  0.456060  0.486260  0.727360  1.0  -0.0565
  C  C299  1  0.392650  0.072150  0.931850  1.0  0.7273
  C  C300  1  0.476850  0.990450  0.945250  1.0  -0.1456
  C  C301  1  0.614470  0.926470  0.928070  1.0  -0.1675
  C  C302  1  0.539200  0.001800  0.910400  1.0  -0.0035
  C  C303  1  0.680820  0.942520  0.887820  1.0  0.6974
  C  C304  1  0.489200  0.902500  0.998800  1.0  -0.0095
  C  C305  1  0.565020  0.826220  0.017020  1.0  -0.0757
  C  C306  1  0.626730  0.838730  0.982130  1.0  -0.025
  C  C307  1  0.216510  0.752010  0.676710  1.0  0.7039
  C  C308  1  0.311330  0.744030  0.600430  1.0  -0.1969
  C  C309  1  0.450420  0.737120  0.520420  1.0  -0.1516
  C  C310  1  0.362010  0.745510  0.593510  1.0  -0.0486
  C  C311  1  0.508960  0.735660  0.510560  1.0  0.6868
  C  C312  1  0.350020  0.733120  0.534820  1.0  -0.0795
  C  C313  1  0.438000  0.723200  0.463900  1.0  -0.091
  C  C314  1  0.486260  0.727360  0.456060  1.0  -0.0568
  C  C315  1  0.072150  0.931850  0.392650  1.0  0.7243
  C  C316  1  0.990450  0.945250  0.476850  1.0  -0.1486
  C  C317  1  0.926470  0.928070  0.614470  1.0  -0.1711
  C  C318  1  0.001800  0.910400  0.539200  1.0  -0.0028
  C  C319  1  0.942520  0.887820  0.680820  1.0  0.6977
  C  C320  1  0.902500  0.998800  0.489200  1.0  -0.0065
  C  C321  1  0.826220  0.017020  0.565020  1.0  -0.0727
  C  C322  1  0.838730  0.982130  0.626730  1.0  -0.0199
  O  O323  1  0.295380  0.336380  0.486980  1.0  -0.714
  O  O324  1  0.167640  0.257640  0.677740  1.0  -0.5788
  O  O325  1  0.242250  0.252350  0.682850  1.0  -0.6249
  O  O326  1  0.930840  0.253940  0.075440  1.0  -0.6687
  O  O327  1  0.075730  0.215530  0.997130  1.0  -0.6854
  O  O328  1  0.839180  0.460480  0.559880  1.0  -0.6198
  O  O329  1  0.877760  0.394460  0.649960  1.0  -0.5796
  O  O330  1  0.233940  0.422340  0.378340  1.0  -0.6228
  O  O331  1  0.178940  0.320840  0.520140  1.0  -0.5811
  O  O332  1  0.486980  0.295380  0.336380  1.0  -0.7147
  O  O333  1  0.677740  0.167640  0.257640  1.0  -0.5788
  O  O334  1  0.682850  0.242250  0.252350  1.0  -0.6275
  O  O335  1  0.075440  0.930840  0.253940  1.0  -0.6695
  O  O336  1  0.997130  0.075730  0.215530  1.0  -0.6882
  O  O337  1  0.559880  0.839180  0.460480  1.0  -0.6181
  O  O338  1  0.649960  0.877760  0.394460  1.0  -0.5758
  O  O339  1  0.378340  0.233940  0.422340  1.0  -0.6228
  O  O340  1  0.520140  0.178940  0.320840  1.0  -0.5801
  O  O341  1  0.336380  0.486980  0.295380  1.0  -0.714
  O  O342  1  0.257640  0.677740  0.167640  1.0  -0.5785
  O  O343  1  0.252350  0.682850  0.242250  1.0  -0.6268
  O  O344  1  0.253940  0.075440  0.930840  1.0  -0.666
  O  O345  1  0.215530  0.997130  0.075730  1.0  -0.6882
  O  O346  1  0.460480  0.559880  0.839180  1.0  -0.6193
  O  O347  1  0.394460  0.649960  0.877760  1.0  -0.5802
  O  O348  1  0.422340  0.378340  0.233940  1.0  -0.6212
  O  O349  1  0.320840  0.520140  0.178940  1.0  -0.5821
  O  O350  1  0.163620  0.204620  0.013020  1.0  -0.7128
  O  O351  1  0.242360  0.332360  0.822260  1.0  -0.5766
  O  O352  1  0.247650  0.257750  0.817150  1.0  -0.6281
  O  O353  1  0.246060  0.569160  0.424560  1.0  -0.6709
  O  O354  1  0.284470  0.424270  0.502870  1.0  -0.6859
  O  O355  1  0.039520  0.660820  0.940120  1.0  -0.6191
  O  O356  1  0.105540  0.622240  0.850040  1.0  -0.5789
  O  O357  1  0.077660  0.266060  0.121660  1.0  -0.6225
  O  O358  1  0.179160  0.321060  0.979860  1.0  -0.5799
  O  O359  1  0.204620  0.013020  0.163620  1.0  -0.7132
  O  O360  1  0.332360  0.822260  0.242360  1.0  -0.576
  O  O361  1  0.257750  0.817150  0.247650  1.0  -0.6264
  O  O362  1  0.569160  0.424560  0.246060  1.0  -0.6675
  O  O363  1  0.424270  0.502870  0.284470  1.0  -0.6859
  O  O364  1  0.660820  0.940120  0.039520  1.0  -0.6203
  O  O365  1  0.622240  0.850040  0.105540  1.0  -0.5774
  O  O366  1  0.266060  0.121660  0.077660  1.0  -0.6226
  O  O367  1  0.321060  0.979860  0.179160  1.0  -0.5815
  O  O368  1  0.013020  0.163620  0.204620  1.0  -0.7157
  O  O369  1  0.822260  0.242360  0.332360  1.0  -0.5776
  O  O370  1  0.817150  0.247650  0.257750  1.0  -0.6259
  O  O371  1  0.424560  0.246060  0.569160  1.0  -0.6673
  O  O372  1  0.502870  0.284470  0.424270  1.0  -0.6861
  O  O373  1  0.940120  0.039520  0.660820  1.0  -0.6171
  O  O374  1  0.850040  0.105540  0.622240  1.0  -0.5752
  O  O375  1  0.121660  0.077660  0.266060  1.0  -0.6225
  O  O376  1  0.979860  0.179160  0.321060  1.0  -0.5818
  O  O377  1  0.704620  0.663620  0.513020  1.0  -0.7145
  O  O378  1  0.832360  0.742360  0.322260  1.0  -0.5767
  O  O379  1  0.757750  0.747650  0.317150  1.0  -0.625
  O  O380  1  0.069160  0.746060  0.924560  1.0  -0.6666
  O  O381  1  0.924270  0.784470  0.002870  1.0  -0.6851
  O  O382  1  0.160820  0.539520  0.440120  1.0  -0.6204
  O  O383  1  0.122240  0.605540  0.350040  1.0  -0.578
  O  O384  1  0.766060  0.577660  0.621660  1.0  -0.6223
  O  O385  1  0.821060  0.679160  0.479860  1.0  -0.5817
  O  O386  1  0.513020  0.704620  0.663620  1.0  -0.7152
  O  O387  1  0.322260  0.832360  0.742360  1.0  -0.5791
  O  O388  1  0.317150  0.757750  0.747650  1.0  -0.6274
  O  O389  1  0.924560  0.069160  0.746060  1.0  -0.6688
  O  O390  1  0.002870  0.924270  0.784470  1.0  -0.6881
  O  O391  1  0.440120  0.160820  0.539520  1.0  -0.6188
  O  O392  1  0.350040  0.122240  0.605540  1.0  -0.5793
  O  O393  1  0.621660  0.766060  0.577660  1.0  -0.6231
  O  O394  1  0.479860  0.821060  0.679160  1.0  -0.5814
  O  O395  1  0.663620  0.513020  0.704620  1.0  -0.7157
  O  O396  1  0.742360  0.322260  0.832360  1.0  -0.5767
  O  O397  1  0.747650  0.317150  0.757750  1.0  -0.6267
  O  O398  1  0.746060  0.924560  0.069160  1.0  -0.6654
  O  O399  1  0.784470  0.002870  0.924270  1.0  -0.6883
  O  O400  1  0.539520  0.440120  0.160820  1.0  -0.6188
  O  O401  1  0.605540  0.350040  0.122240  1.0  -0.5784
  O  O402  1  0.577660  0.621660  0.766060  1.0  -0.6217
  O  O403  1  0.679160  0.479860  0.821060  1.0  -0.581
  O  O404  1  0.836380  0.795380  0.986980  1.0  -0.7131
  O  O405  1  0.757640  0.667640  0.177740  1.0  -0.5795
  O  O406  1  0.752350  0.742250  0.182850  1.0  -0.6284
  O  O407  1  0.753940  0.430840  0.575440  1.0  -0.6707
  O  O408  1  0.715530  0.575730  0.497130  1.0  -0.6867
  O  O409  1  0.960480  0.339180  0.059880  1.0  -0.6192
  O  O410  1  0.894460  0.377760  0.149960  1.0  -0.5808
  O  O411  1  0.922340  0.733940  0.878340  1.0  -0.6229
  O  O412  1  0.820840  0.678940  0.020140  1.0  -0.5803
  O  O413  1  0.795380  0.986980  0.836380  1.0  -0.7121
  O  O414  1  0.667640  0.177740  0.757640  1.0  -0.5777
  O  O415  1  0.742250  0.182850  0.752350  1.0  -0.6256
  O  O416  1  0.430840  0.575440  0.753940  1.0  -0.6664
  O  O417  1  0.575730  0.497130  0.715530  1.0  -0.6862
  O  O418  1  0.339180  0.059880  0.960480  1.0  -0.6191
  O  O419  1  0.377760  0.149960  0.894460  1.0  -0.5786
  O  O420  1  0.733940  0.878340  0.922340  1.0  -0.6224
  O  O421  1  0.678940  0.020140  0.820840  1.0  -0.5812
  O  O422  1  0.986980  0.836380  0.795380  1.0  -0.7159
  O  O423  1  0.177740  0.757640  0.667640  1.0  -0.5779
  O  O424  1  0.182850  0.752350  0.742250  1.0  -0.6254
  O  O425  1  0.575440  0.753940  0.430840  1.0  -0.669
  O  O426  1  0.497130  0.715530  0.575730  1.0  -0.6856
  O  O427  1  0.059880  0.960480  0.339180  1.0  -0.6183
  O  O428  1  0.149960  0.894460  0.377760  1.0  -0.5766
  O  O429  1  0.878340  0.922340  0.733940  1.0  -0.622
  O  O430  1  0.020140  0.820840  0.678940  1.0  -0.5802
