# generated using pymatgen
data_CaH6(C3O)4
_symmetry_space_group_name_H-M   'P 1'
_cell_length_a   6.68700000
_cell_length_b   14.38900000
_cell_length_c   14.87400000
_cell_angle_alpha   90.00000000
_cell_angle_beta   90.00000000
_cell_angle_gamma   90.00000000
_symmetry_Int_Tables_number   1
_chemical_formula_structural   CaH6(C3O)4
_chemical_formula_sum   'Ca4 H24 C48 O16'
_cell_volume   1431.16502038
_cell_formula_units_Z   4
loop_
 _symmetry_equiv_pos_site_id
 _symmetry_equiv_pos_as_xyz
  1  'x, y, z'
loop_
 _atom_site_type_symbol
 _atom_site_label
 _atom_site_symmetry_multiplicity
 _atom_site_fract_x
 _atom_site_fract_y
 _atom_site_fract_z
 _atom_site_occupancy
 _atom_site_charge
  Ca  Ca1  1  0.136580  0.803850  0.458050  1.0  1.6118
  Ca  Ca2  1  0.363420  0.196150  0.958050  1.0  1.6123
  Ca  Ca3  1  0.863420  0.303850  0.041950  1.0  1.6113
  Ca  Ca4  1  0.636580  0.696150  0.541950  1.0  1.6122
  H  H5  1  0.151600  0.660100  0.751400  1.0  0.112
  H  H6  1  0.106800  0.548100  0.862600  1.0  0.0975
  H  H7  1  0.128300  0.494000  0.488600  1.0  0.1016
  H  H8  1  0.115400  0.339700  0.451600  1.0  0.11
  H  H9  1  0.129600  0.227800  0.563500  1.0  0.1002
  H  H10  1  0.135400  0.267600  0.710500  1.0  0.1116
  H  H11  1  0.348400  0.339900  0.251400  1.0  0.1125
  H  H12  1  0.393200  0.451900  0.362600  1.0  0.0974
  H  H13  1  0.371700  0.506000  0.988600  1.0  0.1015
  H  H14  1  0.384600  0.660300  0.951600  1.0  0.11
  H  H15  1  0.370400  0.772200  0.063500  1.0  0.1
  H  H16  1  0.364600  0.732400  0.210500  1.0  0.1115
  H  H17  1  0.848400  0.160100  0.748600  1.0  0.1123
  H  H18  1  0.893200  0.048100  0.637400  1.0  0.0976
  H  H19  1  0.871700  0.994000  0.011400  1.0  0.1019
  H  H20  1  0.884600  0.839700  0.048400  1.0  0.1101
  H  H21  1  0.870400  0.727800  0.936500  1.0  0.0996
  H  H22  1  0.864600  0.767600  0.789500  1.0  0.1118
  H  H23  1  0.651600  0.839900  0.248600  1.0  0.1126
  H  H24  1  0.606800  0.951900  0.137400  1.0  0.0979
  H  H25  1  0.628300  0.006000  0.511400  1.0  0.1027
  H  H26  1  0.615400  0.160300  0.548400  1.0  0.1099
  H  H27  1  0.629600  0.272200  0.436500  1.0  0.0995
  H  H28  1  0.635400  0.232400  0.289500  1.0  0.1115
  C  C29  1  0.136100  0.648700  0.579300  1.0  0.7251
  C  C30  1  0.109300  0.370100  0.861300  1.0  0.7621
  C  C31  1  0.135300  0.572900  0.648200  1.0  -0.1115
  C  C32  1  0.137800  0.597900  0.735600  1.0  -0.1083
  C  C33  1  0.119400  0.529400  0.803000  1.0  -0.0645
  C  C34  1  0.119400  0.437200  0.783800  1.0  -0.1499
  C  C35  1  0.126800  0.409100  0.692900  1.0  0.0495
  C  C36  1  0.126700  0.477400  0.623200  1.0  0.027
  C  C37  1  0.126000  0.449500  0.533900  1.0  -0.1449
  C  C38  1  0.122000  0.357500  0.511700  1.0  -0.1048
  C  C39  1  0.127800  0.290300  0.579300  1.0  -0.0914
  C  C40  1  0.130800  0.313800  0.666800  1.0  -0.1411
  C  C41  1  0.363900  0.351300  0.079300  1.0  0.7252
  C  C42  1  0.390700  0.629900  0.361300  1.0  0.7628
  C  C43  1  0.364700  0.427100  0.148200  1.0  -0.1113
  C  C44  1  0.362200  0.402100  0.235600  1.0  -0.1077
  C  C45  1  0.380600  0.470600  0.303000  1.0  -0.0641
  C  C46  1  0.380600  0.562800  0.283800  1.0  -0.1492
  C  C47  1  0.373200  0.590900  0.192900  1.0  0.0492
  C  C48  1  0.373300  0.522600  0.123200  1.0  0.0267
  C  C49  1  0.374000  0.550500  0.033900  1.0  -0.1459
  C  C50  1  0.378000  0.642500  0.011700  1.0  -0.105
  C  C51  1  0.372200  0.709700  0.079300  1.0  -0.0906
  C  C52  1  0.369200  0.686200  0.166800  1.0  -0.1416
  C  C53  1  0.863900  0.148700  0.920700  1.0  0.7251
  C  C54  1  0.890700  0.870100  0.638700  1.0  0.762
  C  C55  1  0.864700  0.072900  0.851800  1.0  -0.1107
  C  C56  1  0.862200  0.097900  0.764400  1.0  -0.1081
  C  C57  1  0.880600  0.029400  0.697000  1.0  -0.063
  C  C58  1  0.880600  0.937200  0.716200  1.0  -0.1496
  C  C59  1  0.873200  0.909100  0.807100  1.0  0.0496
  C  C60  1  0.873300  0.977400  0.876800  1.0  0.0268
  C  C61  1  0.874000  0.949500  0.966100  1.0  -0.1476
  C  C62  1  0.878000  0.857500  0.988300  1.0  -0.1059
  C  C63  1  0.872200  0.790300  0.920700  1.0  -0.0918
  C  C64  1  0.869200  0.813800  0.833200  1.0  -0.1411
  C  C65  1  0.636100  0.851300  0.420700  1.0  0.7255
  C  C66  1  0.609300  0.129900  0.138700  1.0  0.7609
  C  C67  1  0.635300  0.927100  0.351800  1.0  -0.1112
  C  C68  1  0.637800  0.902100  0.264400  1.0  -0.1079
  C  C69  1  0.619400  0.970600  0.197000  1.0  -0.0626
  C  C70  1  0.619400  0.062800  0.216200  1.0  -0.1493
  C  C71  1  0.626800  0.090900  0.307100  1.0  0.0494
  C  C72  1  0.626700  0.022600  0.376800  1.0  0.0269
  C  C73  1  0.626000  0.050500  0.466100  1.0  -0.1476
  C  C74  1  0.622000  0.142500  0.488300  1.0  -0.1058
  C  C75  1  0.627800  0.209700  0.420700  1.0  -0.0907
  C  C76  1  0.630800  0.186200  0.333200  1.0  -0.1419
  O  O77  1  0.991800  0.656700  0.525400  1.0  -0.7275
  O  O78  1  0.282000  0.704200  0.578400  1.0  -0.7544
  O  O79  1  0.994000  0.391400  0.924400  1.0  -0.6985
  O  O80  1  0.218100  0.299800  0.858700  1.0  -0.7149
  O  O81  1  0.508200  0.343300  0.025400  1.0  -0.727
  O  O82  1  0.218000  0.295800  0.078400  1.0  -0.753
  O  O83  1  0.506000  0.608600  0.424400  1.0  -0.6963
  O  O84  1  0.281900  0.700200  0.358700  1.0  -0.7138
  O  O85  1  0.008200  0.156700  0.974600  1.0  -0.7261
  O  O86  1  0.718000  0.204200  0.921600  1.0  -0.7538
  O  O87  1  0.006000  0.891400  0.575600  1.0  -0.6965
  O  O88  1  0.781900  0.799800  0.641300  1.0  -0.7142
  O  O89  1  0.491800  0.843300  0.474600  1.0  -0.7271
  O  O90  1  0.782000  0.795800  0.421600  1.0  -0.7525
  O  O91  1  0.494000  0.108600  0.075600  1.0  -0.6978
  O  O92  1  0.718100  0.200200  0.141300  1.0  -0.715
