# generated using pymatgen
data_CaH6(C3O)4
_symmetry_space_group_name_H-M   'P 1'
_cell_length_a   6.70170000
_cell_length_b   14.39580000
_cell_length_c   14.94050000
_cell_angle_alpha   90.00000000
_cell_angle_beta   90.00000000
_cell_angle_gamma   90.00000000
_symmetry_Int_Tables_number   1
_chemical_formula_structural   CaH6(C3O)4
_chemical_formula_sum   'Ca4 H24 C48 O16'
_cell_volume   1441.40465109
_cell_formula_units_Z   4
loop_
 _symmetry_equiv_pos_site_id
 _symmetry_equiv_pos_as_xyz
  1  'x, y, z'
loop_
 _atom_site_type_symbol
 _atom_site_label
 _atom_site_symmetry_multiplicity
 _atom_site_fract_x
 _atom_site_fract_y
 _atom_site_fract_z
 _atom_site_occupancy
 _atom_site_charge
  Ca  Ca1  1  0.863270  0.803860  0.458070  1.0  1.6078
  Ca  Ca2  1  0.636730  0.196140  0.958070  1.0  1.6077
  Ca  Ca3  1  0.136730  0.303860  0.041930  1.0  1.6069
  Ca  Ca4  1  0.363270  0.696140  0.541930  1.0  1.6078
  H  H5  1  0.853400  0.660200  0.751200  1.0  0.101
  H  H6  1  0.891300  0.548600  0.862500  1.0  0.0958
  H  H7  1  0.864900  0.267500  0.710100  1.0  0.103
  H  H8  1  0.868700  0.226300  0.563600  1.0  0.0981
  H  H9  1  0.878400  0.338800  0.451700  1.0  0.1044
  H  H10  1  0.875800  0.493100  0.488200  1.0  0.1024
  H  H11  1  0.646600  0.339800  0.251200  1.0  0.1014
  H  H12  1  0.608700  0.451400  0.362500  1.0  0.0964
  H  H13  1  0.635100  0.732500  0.210100  1.0  0.1026
  H  H14  1  0.631300  0.773700  0.063600  1.0  0.0979
  H  H15  1  0.621600  0.661200  0.951700  1.0  0.1044
  H  H16  1  0.624200  0.506900  0.988200  1.0  0.1029
  H  H17  1  0.146600  0.160200  0.748800  1.0  0.1016
  H  H18  1  0.108700  0.048600  0.637500  1.0  0.0965
  H  H19  1  0.135100  0.767500  0.789900  1.0  0.1024
  H  H20  1  0.131300  0.726300  0.936400  1.0  0.098
  H  H21  1  0.121600  0.838800  0.048300  1.0  0.1046
  H  H22  1  0.124200  0.993100  0.011800  1.0  0.1035
  H  H23  1  0.353400  0.839800  0.248800  1.0  0.1014
  H  H24  1  0.391300  0.951400  0.137500  1.0  0.0964
  H  H25  1  0.364900  0.232500  0.289900  1.0  0.1029
  H  H26  1  0.368700  0.273700  0.436400  1.0  0.0979
  H  H27  1  0.378400  0.161200  0.548300  1.0  0.1046
  H  H28  1  0.375800  0.006900  0.511800  1.0  0.1032
  C  C29  1  0.863200  0.649100  0.578780  1.0  0.7524
  C  C30  1  0.865600  0.572990  0.647920  1.0  -0.1615
  C  C31  1  0.864700  0.597840  0.735560  1.0  -0.0804
  C  C32  1  0.880600  0.529860  0.803060  1.0  -0.0733
  C  C33  1  0.880900  0.437730  0.783510  1.0  -0.1423
  C  C34  1  0.872500  0.408530  0.692530  1.0  0.0573
  C  C35  1  0.872200  0.477510  0.623670  1.0  0.0477
  C  C36  1  0.868700  0.313440  0.666380  1.0  -0.1243
  C  C37  1  0.870500  0.288830  0.579120  1.0  -0.0855
  C  C38  1  0.875000  0.356660  0.511510  1.0  -0.0938
  C  C39  1  0.874600  0.448670  0.533440  1.0  -0.1211
  C  C40  1  0.891400  0.370120  0.861710  1.0  0.7763
  C  C41  1  0.636800  0.350900  0.078780  1.0  0.7529
  C  C42  1  0.634400  0.427010  0.147920  1.0  -0.162
  C  C43  1  0.635300  0.402160  0.235560  1.0  -0.0814
  C  C44  1  0.619400  0.470140  0.303060  1.0  -0.0737
  C  C45  1  0.619100  0.562270  0.283510  1.0  -0.142
  C  C46  1  0.627500  0.591470  0.192530  1.0  0.0574
  C  C47  1  0.627800  0.522490  0.123670  1.0  0.0476
  C  C48  1  0.631300  0.686560  0.166380  1.0  -0.1253
  C  C49  1  0.629500  0.711170  0.079120  1.0  -0.0849
  C  C50  1  0.625000  0.643340  0.011510  1.0  -0.0936
  C  C51  1  0.625400  0.551330  0.033440  1.0  -0.1214
  C  C52  1  0.608600  0.629880  0.361710  1.0  0.7751
  C  C53  1  0.136800  0.149100  0.921220  1.0  0.7525
  C  C54  1  0.134400  0.072990  0.852080  1.0  -0.1618
  C  C55  1  0.135300  0.097840  0.764440  1.0  -0.0812
  C  C56  1  0.119400  0.029860  0.696940  1.0  -0.0709
  C  C57  1  0.119100  0.937730  0.716490  1.0  -0.1422
  C  C58  1  0.127500  0.908530  0.807470  1.0  0.0574
  C  C59  1  0.127800  0.977510  0.876330  1.0  0.0476
  C  C60  1  0.131300  0.813440  0.833620  1.0  -0.1242
  C  C61  1  0.129500  0.788830  0.920880  1.0  -0.0855
  C  C62  1  0.125000  0.856660  0.988490  1.0  -0.0924
  C  C63  1  0.125400  0.948670  0.966560  1.0  -0.1224
  C  C64  1  0.108600  0.870120  0.638290  1.0  0.7753
  C  C65  1  0.363200  0.850900  0.421220  1.0  0.7534
  C  C66  1  0.365600  0.927010  0.352080  1.0  -0.1617
  C  C67  1  0.364700  0.902160  0.264440  1.0  -0.0807
  C  C68  1  0.380600  0.970140  0.196940  1.0  -0.0693
  C  C69  1  0.380900  0.062270  0.216490  1.0  -0.1427
  C  C70  1  0.372500  0.091470  0.307470  1.0  0.0573
  C  C71  1  0.372200  0.022490  0.376330  1.0  0.0475
  C  C72  1  0.368700  0.186560  0.333620  1.0  -0.125
  C  C73  1  0.370500  0.211170  0.420880  1.0  -0.0856
  C  C74  1  0.375000  0.143340  0.488490  1.0  -0.0934
  C  C75  1  0.374600  0.051330  0.466560  1.0  -0.1237
  C  C76  1  0.391400  0.129880  0.138290  1.0  0.7757
  O  O77  1  0.718740  0.704530  0.578480  1.0  -0.754
  O  O78  1  0.008070  0.656530  0.525280  1.0  -0.7538
  O  O79  1  0.782800  0.299480  0.858910  1.0  -0.7364
  O  O80  1  0.007600  0.391300  0.924110  1.0  -0.7211
  O  O81  1  0.781260  0.295470  0.078480  1.0  -0.751
  O  O82  1  0.491930  0.343470  0.025280  1.0  -0.7545
  O  O83  1  0.717200  0.700520  0.358910  1.0  -0.7372
  O  O84  1  0.492400  0.608700  0.424110  1.0  -0.7211
  O  O85  1  0.281260  0.204530  0.921520  1.0  -0.7511
  O  O86  1  0.991930  0.156530  0.974720  1.0  -0.7548
  O  O87  1  0.217200  0.799480  0.641090  1.0  -0.7373
  O  O88  1  0.992400  0.891300  0.575890  1.0  -0.7215
  O  O89  1  0.218740  0.795470  0.421520  1.0  -0.7538
  O  O90  1  0.508070  0.843470  0.474720  1.0  -0.7534
  O  O91  1  0.282800  0.200520  0.141090  1.0  -0.7362
  O  O92  1  0.507600  0.108700  0.075890  1.0  -0.7209
