# generated using pymatgen
data_Co5H48C64(N2O11)2
_symmetry_space_group_name_H-M   'P 1'
_cell_length_a   11.84200000
_cell_length_b   11.75900000
_cell_length_c   27.43200000
_cell_angle_alpha   90.00000000
_cell_angle_beta   102.48000000
_cell_angle_gamma   90.00000000
_symmetry_Int_Tables_number   1
_chemical_formula_structural   Co5H48C64(N2O11)2
_chemical_formula_sum   'Co10 H96 C128 N8 O44'
_cell_volume   3729.64943761
_cell_formula_units_Z   2
loop_
 _symmetry_equiv_pos_site_id
 _symmetry_equiv_pos_as_xyz
  1  'x, y, z'
loop_
 _atom_site_type_symbol
 _atom_site_label
 _atom_site_symmetry_multiplicity
 _atom_site_fract_x
 _atom_site_fract_y
 _atom_site_fract_z
 _atom_site_occupancy
 _atom_site_charge
  Co  Co1  1  0.694980  0.364980  0.981660  1.0  0.9762
  Co  Co2  1  0.830990  0.351310  0.896980  1.0  1.0326
  Co  Co3  1  0.305020  0.864980  0.518340  1.0  0.975
  Co  Co4  1  0.169010  0.851310  0.603020  1.0  1.0347
  Co  Co5  1  0.305020  0.635020  0.018340  1.0  0.9763
  Co  Co6  1  0.169010  0.648690  0.103020  1.0  1.0349
  Co  Co7  1  0.694980  0.135020  0.481660  1.0  0.9777
  Co  Co8  1  0.830990  0.148690  0.396980  1.0  1.0329
  Co  Co9  1  0.000000  0.500000  0.000000  1.0  1.0643
  Co  Co10  1  0.000000  0.000000  0.500000  1.0  1.0623
  H  H11  1  0.635000  0.496400  0.820100  1.0  0.0928
  H  H12  1  0.422100  0.399100  0.786400  1.0  0.0987
  H  H13  1  0.338400  0.400700  0.699100  1.0  0.1101
  H  H14  1  0.467900  0.588500  0.602000  1.0  0.1337
  H  H15  1  0.621700  0.639100  0.666100  1.0  0.0923
  H  H16  1  0.633800  0.574200  0.746000  1.0  0.1084
  H  H17  1  0.207700  0.473900  0.540300  1.0  0.1376
  H  H18  1  0.341600  0.492200  0.549000  1.0  0.1069
  H  H19  1  0.896800  0.777500  0.874200  1.0  0.0996
  H  H20  1  0.851800  0.611700  0.803400  1.0  0.1133
  H  H21  1  0.833800  0.646700  0.718900  1.0  0.1124
  H  H22  1  0.842200  0.958900  0.661700  1.0  0.1147
  H  H23  1  0.880800  0.032500  0.741400  1.0  0.097
  H  H24  1  0.891100  0.916700  0.810500  1.0  0.1296
  H  H25  1  0.745700  0.872000  0.596600  1.0  0.0943
  H  H26  1  0.750000  0.761600  0.565200  1.0  0.1346
  H  H27  1  0.666500  0.201400  0.814900  1.0  0.072
  H  H28  1  0.631300  0.160600  0.731500  1.0  0.1115
  H  H29  1  0.884000  0.375800  0.718900  1.0  0.1223
  H  H30  1  0.910200  0.412600  0.802100  1.0  0.0724
  H  H31  1  0.610300  0.119700  0.655000  1.0  0.1006
  H  H32  1  0.596000  0.073600  0.573700  1.0  0.0848
  H  H33  1  0.850400  0.269900  0.564800  1.0  0.0781
  H  H34  1  0.872400  0.321200  0.646000  1.0  0.1213
  H  H35  1  0.365000  0.996400  0.679900  1.0  0.0926
  H  H36  1  0.577900  0.899100  0.713600  1.0  0.0981
  H  H37  1  0.661600  0.900700  0.800900  1.0  0.1104
  H  H38  1  0.532100  0.088500  0.898000  1.0  0.134
  H  H39  1  0.378300  0.139100  0.833900  1.0  0.0931
  H  H40  1  0.366200  0.074200  0.754000  1.0  0.1085
  H  H41  1  0.792300  0.973900  0.959700  1.0  0.1378
  H  H42  1  0.658400  0.992200  0.951000  1.0  0.1076
  H  H43  1  0.103200  0.277500  0.625800  1.0  0.0992
  H  H44  1  0.148200  0.111700  0.696600  1.0  0.1137
  H  H45  1  0.166200  0.146700  0.781100  1.0  0.1124
  H  H46  1  0.157800  0.458900  0.838300  1.0  0.1142
  H  H47  1  0.119200  0.532500  0.758600  1.0  0.0965
  H  H48  1  0.108900  0.416700  0.689500  1.0  0.1295
  H  H49  1  0.254300  0.372000  0.903400  1.0  0.0942
  H  H50  1  0.250000  0.261600  0.934800  1.0  0.1367
  H  H51  1  0.333500  0.701400  0.685100  1.0  0.0715
  H  H52  1  0.368700  0.660600  0.768500  1.0  0.1118
  H  H53  1  0.116000  0.875800  0.781100  1.0  0.1224
  H  H54  1  0.089800  0.912600  0.697900  1.0  0.0727
  H  H55  1  0.389700  0.619700  0.845000  1.0  0.1005
  H  H56  1  0.404000  0.573600  0.926300  1.0  0.0852
  H  H57  1  0.149600  0.769900  0.935200  1.0  0.0783
  H  H58  1  0.127600  0.821200  0.854000  1.0  0.1214
  H  H59  1  0.365000  0.503600  0.179900  1.0  0.092
  H  H60  1  0.577900  0.600900  0.213600  1.0  0.0984
  H  H61  1  0.661600  0.599300  0.300900  1.0  0.1105
  H  H62  1  0.532100  0.411500  0.398000  1.0  0.134
  H  H63  1  0.378300  0.360900  0.333900  1.0  0.093
  H  H64  1  0.366200  0.425800  0.254000  1.0  0.108
  H  H65  1  0.792300  0.526100  0.459700  1.0  0.1377
  H  H66  1  0.658400  0.507800  0.451000  1.0  0.1081
  H  H67  1  0.103200  0.222500  0.125800  1.0  0.1
  H  H68  1  0.148200  0.388300  0.196600  1.0  0.1139
  H  H69  1  0.166200  0.353300  0.281100  1.0  0.1124
  H  H70  1  0.157800  0.041100  0.338300  1.0  0.1144
  H  H71  1  0.119200  0.967500  0.258600  1.0  0.0965
  H  H72  1  0.108900  0.083300  0.189500  1.0  0.1299
  H  H73  1  0.254300  0.128000  0.403400  1.0  0.0946
  H  H74  1  0.250000  0.238400  0.434800  1.0  0.1369
  H  H75  1  0.333500  0.798600  0.185100  1.0  0.0716
  H  H76  1  0.368700  0.839400  0.268500  1.0  0.1116
  H  H77  1  0.116000  0.624200  0.281100  1.0  0.1223
  H  H78  1  0.089800  0.587400  0.197900  1.0  0.0725
  H  H79  1  0.389700  0.880300  0.345000  1.0  0.1003
  H  H80  1  0.404000  0.926400  0.426300  1.0  0.0848
  H  H81  1  0.149600  0.730100  0.435200  1.0  0.0783
  H  H82  1  0.127600  0.678800  0.354000  1.0  0.121
  H  H83  1  0.635000  0.003600  0.320100  1.0  0.0926
  H  H84  1  0.422100  0.100900  0.286400  1.0  0.0988
  H  H85  1  0.338400  0.099300  0.199100  1.0  0.1101
  H  H86  1  0.467900  0.911500  0.102000  1.0  0.1338
  H  H87  1  0.621700  0.860900  0.166100  1.0  0.0926
  H  H88  1  0.633800  0.925800  0.246000  1.0  0.1085
  H  H89  1  0.207700  0.026100  0.040300  1.0  0.137
  H  H90  1  0.341600  0.007800  0.049000  1.0  0.1076
  H  H91  1  0.896800  0.722500  0.374200  1.0  0.1005
  H  H92  1  0.851800  0.888300  0.303400  1.0  0.1135
  H  H93  1  0.833800  0.853300  0.218900  1.0  0.1128
  H  H94  1  0.842200  0.541100  0.161700  1.0  0.1147
  H  H95  1  0.880800  0.467500  0.241400  1.0  0.0971
  H  H96  1  0.891100  0.583300  0.310500  1.0  0.1293
  H  H97  1  0.745700  0.628000  0.096600  1.0  0.0936
  H  H98  1  0.750000  0.738400  0.065200  1.0  0.1356
  H  H99  1  0.666500  0.298600  0.314900  1.0  0.0717
  H  H100  1  0.631300  0.339400  0.231500  1.0  0.1117
  H  H101  1  0.884000  0.124200  0.218900  1.0  0.122
  H  H102  1  0.910200  0.087400  0.302100  1.0  0.0728
  H  H103  1  0.610300  0.380300  0.155000  1.0  0.1007
  H  H104  1  0.596000  0.426400  0.073700  1.0  0.0848
  H  H105  1  0.850400  0.230100  0.064800  1.0  0.0782
  H  H106  1  0.872400  0.178800  0.146000  1.0  0.1201
  C  C107  1  0.562700  0.406000  0.871640  1.0  0.7055
  C  C108  1  0.570100  0.454200  0.822620  1.0  -0.1537
  C  C109  1  0.487100  0.439200  0.782250  1.0  -0.0705
  C  C110  1  0.487200  0.479600  0.731450  1.0  0.0475
  C  C111  1  0.395100  0.449800  0.692730  1.0  -0.1685
  C  C112  1  0.386500  0.491600  0.645080  1.0  0.2272
  C  C113  1  0.472100  0.562000  0.634240  1.0  -0.2288
  C  C114  1  0.564100  0.591600  0.672820  1.0  -0.0862
  C  C115  1  0.571900  0.552300  0.720730  1.0  -0.1154
  C  C116  1  0.273700  0.509400  0.562090  1.0  -0.1243
  C  C117  1  0.255700  0.636700  0.560760  1.0  0.7434
  C  C118  1  0.891600  0.605900  0.896820  1.0  0.7067
  C  C119  1  0.885900  0.703900  0.861670  1.0  -0.197
  C  C120  1  0.865800  0.687000  0.813180  1.0  -0.0951
  C  C121  1  0.861700  0.768100  0.771810  1.0  0.0564
  C  C122  1  0.841800  0.724900  0.723620  1.0  -0.1577
  C  C123  1  0.833400  0.795000  0.682360  1.0  0.2598
  C  C124  1  0.847600  0.910900  0.689030  1.0  -0.2325
  C  C125  1  0.870000  0.954500  0.736890  1.0  -0.0652
  C  C126  1  0.876800  0.885400  0.778610  1.0  -0.1251
  C  C127  1  0.792800  0.806600  0.592670  1.0  -0.1246
  C  C128  1  0.905300  0.848400  0.579210  1.0  0.7345
  C  C129  1  0.711400  0.236900  0.795410  1.0  0.1809
  C  C130  1  0.690000  0.211200  0.745030  1.0  -0.1806
  C  C131  1  0.755900  0.260600  0.714720  1.0  0.0726
  C  C132  1  0.838700  0.338200  0.737600  1.0  -0.1905
  C  C133  1  0.854000  0.360000  0.787890  1.0  0.1698
  C  C134  1  0.741500  0.229700  0.661150  1.0  0.0892
  C  C135  1  0.660700  0.153100  0.637500  1.0  -0.2159
  C  C136  1  0.653000  0.125100  0.588260  1.0  0.1784
  C  C137  1  0.800500  0.238800  0.583070  1.0  0.188
  C  C138  1  0.813700  0.270800  0.632120  1.0  -0.181
  C  C139  1  0.437300  0.906000  0.628360  1.0  0.7063
  C  C140  1  0.429900  0.954200  0.677380  1.0  -0.1549
  C  C141  1  0.512900  0.939200  0.717750  1.0  -0.0703
  C  C142  1  0.512800  0.979600  0.768550  1.0  0.0469
  C  C143  1  0.604900  0.949800  0.807270  1.0  -0.1706
  C  C144  1  0.613500  0.991600  0.854920  1.0  0.2282
  C  C145  1  0.527900  0.062000  0.865760  1.0  -0.2308
  C  C146  1  0.435900  0.091600  0.827180  1.0  -0.0852
  C  C147  1  0.428100  0.052300  0.779270  1.0  -0.1146
  C  C148  1  0.726300  0.009400  0.937910  1.0  -0.1285
  C  C149  1  0.744300  0.136700  0.939240  1.0  0.7421
  C  C150  1  0.108400  0.105900  0.603180  1.0  0.7058
  C  C151  1  0.114100  0.203900  0.638330  1.0  -0.1972
  C  C152  1  0.134200  0.187000  0.686820  1.0  -0.0949
  C  C153  1  0.138300  0.268100  0.728190  1.0  0.056
  C  C154  1  0.158200  0.224900  0.776380  1.0  -0.1563
  C  C155  1  0.166600  0.295000  0.817640  1.0  0.2611
  C  C156  1  0.152400  0.410900  0.810970  1.0  -0.2325
  C  C157  1  0.130000  0.454500  0.763110  1.0  -0.066
  C  C158  1  0.123200  0.385400  0.721390  1.0  -0.1282
  C  C159  1  0.207200  0.306600  0.907330  1.0  -0.1253
  C  C160  1  0.094700  0.348400  0.920790  1.0  0.7324
  C  C161  1  0.288600  0.736900  0.704590  1.0  0.1807
  C  C162  1  0.310000  0.711200  0.754970  1.0  -0.1823
  C  C163  1  0.244100  0.760600  0.785280  1.0  0.0737
  C  C164  1  0.161300  0.838200  0.762400  1.0  -0.1903
  C  C165  1  0.146000  0.860000  0.712110  1.0  0.1712
  C  C166  1  0.258500  0.729700  0.838850  1.0  0.0872
  C  C167  1  0.339300  0.653100  0.862500  1.0  -0.2164
  C  C168  1  0.347000  0.625100  0.911740  1.0  0.1784
  C  C169  1  0.199500  0.738800  0.916930  1.0  0.1874
  C  C170  1  0.186300  0.770800  0.867880  1.0  -0.1811
  C  C171  1  0.437300  0.594000  0.128360  1.0  0.7067
  C  C172  1  0.429900  0.545800  0.177380  1.0  -0.1544
  C  C173  1  0.512900  0.560800  0.217750  1.0  -0.0696
  C  C174  1  0.512800  0.520400  0.268550  1.0  0.0466
  C  C175  1  0.604900  0.550200  0.307270  1.0  -0.1681
  C  C176  1  0.613500  0.508400  0.354920  1.0  0.2275
  C  C177  1  0.527900  0.438000  0.365760  1.0  -0.2308
  C  C178  1  0.435900  0.408400  0.327180  1.0  -0.0859
  C  C179  1  0.428100  0.447700  0.279270  1.0  -0.1142
  C  C180  1  0.726300  0.490600  0.437910  1.0  -0.1294
  C  C181  1  0.744300  0.363300  0.439240  1.0  0.7407
  C  C182  1  0.108400  0.394100  0.103180  1.0  0.705
  C  C183  1  0.114100  0.296100  0.138330  1.0  -0.1971
  C  C184  1  0.134200  0.313000  0.186820  1.0  -0.0975
  C  C185  1  0.138300  0.231900  0.228190  1.0  0.056
  C  C186  1  0.158200  0.275100  0.276380  1.0  -0.1581
  C  C187  1  0.166600  0.205000  0.317640  1.0  0.2611
  C  C188  1  0.152400  0.089100  0.310970  1.0  -0.2322
  C  C189  1  0.130000  0.045500  0.263110  1.0  -0.0662
  C  C190  1  0.123200  0.114600  0.221390  1.0  -0.1268
  C  C191  1  0.207200  0.193400  0.407330  1.0  -0.1263
  C  C192  1  0.094700  0.151600  0.420790  1.0  0.7334
  C  C193  1  0.288600  0.763100  0.204590  1.0  0.181
  C  C194  1  0.310000  0.788800  0.254970  1.0  -0.182
  C  C195  1  0.244100  0.739400  0.285280  1.0  0.0738
  C  C196  1  0.161300  0.661800  0.262400  1.0  -0.1903
  C  C197  1  0.146000  0.640000  0.212110  1.0  0.171
  C  C198  1  0.258500  0.770300  0.338850  1.0  0.0871
  C  C199  1  0.339300  0.846900  0.362500  1.0  -0.2165
  C  C200  1  0.347000  0.874900  0.411740  1.0  0.1787
  C  C201  1  0.199500  0.761200  0.416930  1.0  0.1873
  C  C202  1  0.186300  0.729200  0.367880  1.0  -0.1803
  C  C203  1  0.562700  0.094000  0.371640  1.0  0.7063
  C  C204  1  0.570100  0.045800  0.322620  1.0  -0.1537
  C  C205  1  0.487100  0.060800  0.282250  1.0  -0.07
  C  C206  1  0.487200  0.020400  0.231450  1.0  0.0471
  C  C207  1  0.395100  0.050200  0.192730  1.0  -0.1681
  C  C208  1  0.386500  0.008400  0.145080  1.0  0.2277
  C  C209  1  0.472100  0.938000  0.134240  1.0  -0.2292
  C  C210  1  0.564100  0.908400  0.172820  1.0  -0.0864
  C  C211  1  0.571900  0.947700  0.220730  1.0  -0.1152
  C  C212  1  0.273700  0.990600  0.062090  1.0  -0.1247
  C  C213  1  0.255700  0.863300  0.060760  1.0  0.7419
  C  C214  1  0.891600  0.894100  0.396820  1.0  0.7069
  C  C215  1  0.885900  0.796100  0.361670  1.0  -0.1972
  C  C216  1  0.865800  0.813000  0.313180  1.0  -0.0981
  C  C217  1  0.861700  0.731900  0.271810  1.0  0.0563
  C  C218  1  0.841800  0.775100  0.223620  1.0  -0.1599
  C  C219  1  0.833400  0.705000  0.182360  1.0  0.26
  C  C220  1  0.847600  0.589100  0.189030  1.0  -0.2318
  C  C221  1  0.870000  0.545500  0.236890  1.0  -0.0658
  C  C222  1  0.876800  0.614600  0.278610  1.0  -0.1243
  C  C223  1  0.792800  0.693400  0.092670  1.0  -0.1239
  C  C224  1  0.905300  0.651600  0.079210  1.0  0.7347
  C  C225  1  0.711400  0.263100  0.295410  1.0  0.1805
  C  C226  1  0.690000  0.288800  0.245030  1.0  -0.1807
  C  C227  1  0.755900  0.239400  0.214720  1.0  0.0733
  C  C228  1  0.838700  0.161800  0.237600  1.0  -0.1903
  C  C229  1  0.854000  0.140000  0.287890  1.0  0.1696
  C  C230  1  0.741500  0.270300  0.161150  1.0  0.0884
  C  C231  1  0.660700  0.346900  0.137500  1.0  -0.2163
  C  C232  1  0.653000  0.374900  0.088260  1.0  0.1788
  C  C233  1  0.800500  0.261200  0.083070  1.0  0.1877
  C  C234  1  0.813700  0.229200  0.132120  1.0  -0.1827
  N  N235  1  0.792800  0.309700  0.817510  1.0  -0.3216
  N  N236  1  0.721000  0.166300  0.560290  1.0  -0.3367
  N  N237  1  0.207200  0.809700  0.682490  1.0  -0.3212
  N  N238  1  0.279000  0.666300  0.939710  1.0  -0.3352
  N  N239  1  0.207200  0.690300  0.182490  1.0  -0.3209
  N  N240  1  0.279000  0.833700  0.439710  1.0  -0.3359
  N  N241  1  0.792800  0.190300  0.317510  1.0  -0.3212
  N  N242  1  0.721000  0.333700  0.060290  1.0  -0.3343
  O  O243  1  0.867000  0.381900  0.975170  1.0  -0.7159
  O  O244  1  0.659000  0.389900  0.902960  1.0  -0.6631
  O  O245  1  0.467100  0.383600  0.880920  1.0  -0.5527
  O  O246  1  0.204900  0.679800  0.592100  1.0  -0.5878
  O  O247  1  0.292500  0.689100  0.527050  1.0  -0.5982
  O  O248  1  0.860200  0.512600  0.877110  1.0  -0.5958
  O  O249  1  0.929800  0.622600  0.943100  1.0  -0.6132
  O  O250  1  0.891700  0.914500  0.542670  1.0  -0.6078
  O  O251  1  0.997400  0.808900  0.603980  1.0  -0.5984
  O  O252  1  0.288100  0.460600  0.610850  1.0  -0.2596
  O  O253  1  0.810500  0.740100  0.637100  1.0  -0.2725
  O  O254  1  0.133000  0.881900  0.524830  1.0  -0.716
  O  O255  1  0.341000  0.889900  0.597040  1.0  -0.6623
  O  O256  1  0.532900  0.883600  0.619080  1.0  -0.5553
  O  O257  1  0.795100  0.179800  0.907900  1.0  -0.5889
  O  O258  1  0.707500  0.189100  0.972950  1.0  -0.597
  O  O259  1  0.139800  0.012600  0.622890  1.0  -0.5962
  O  O260  1  0.070200  0.122600  0.556900  1.0  -0.6094
  O  O261  1  0.108300  0.414500  0.957330  1.0  -0.6103
  O  O262  1  0.002600  0.308900  0.896020  1.0  -0.5983
  O  O263  1  0.711900  0.960600  0.889150  1.0  -0.2587
  O  O264  1  0.189500  0.240100  0.862900  1.0  -0.2728
  O  O265  1  0.133000  0.618100  0.024830  1.0  -0.7157
  O  O266  1  0.341000  0.610100  0.097040  1.0  -0.6619
  O  O267  1  0.532900  0.616400  0.119080  1.0  -0.5555
  O  O268  1  0.795100  0.320200  0.407900  1.0  -0.5884
  O  O269  1  0.707500  0.310900  0.472950  1.0  -0.5974
  O  O270  1  0.139800  0.487400  0.122890  1.0  -0.5954
  O  O271  1  0.070200  0.377400  0.056900  1.0  -0.6093
  O  O272  1  0.108300  0.085500  0.457330  1.0  -0.6111
  O  O273  1  0.002600  0.191100  0.396020  1.0  -0.5977
  O  O274  1  0.711900  0.539400  0.389150  1.0  -0.2592
  O  O275  1  0.189500  0.259900  0.362900  1.0  -0.2719
  O  O276  1  0.867000  0.118100  0.475170  1.0  -0.7157
  O  O277  1  0.659000  0.110100  0.402960  1.0  -0.6629
  O  O278  1  0.467100  0.116400  0.380920  1.0  -0.552
  O  O279  1  0.204900  0.820200  0.092100  1.0  -0.5877
  O  O280  1  0.292500  0.810900  0.027050  1.0  -0.5985
  O  O281  1  0.860200  0.987400  0.377110  1.0  -0.5952
  O  O282  1  0.929800  0.877400  0.443100  1.0  -0.6122
  O  O283  1  0.891700  0.585500  0.042670  1.0  -0.6077
  O  O284  1  0.997400  0.691100  0.103980  1.0  -0.5981
  O  O285  1  0.288100  0.039400  0.110850  1.0  -0.2584
  O  O286  1  0.810500  0.759900  0.137100  1.0  -0.2726
