# generated using pymatgen
data_SrH6(C3O)4
_symmetry_space_group_name_H-M   'P 1'
_cell_length_a   6.90100000
_cell_length_b   14.70000000
_cell_length_c   15.01200000
_cell_angle_alpha   90.00000000
_cell_angle_beta   90.00000000
_cell_angle_gamma   90.00000000
_symmetry_Int_Tables_number   1
_chemical_formula_structural   SrH6(C3O)4
_chemical_formula_sum   'Sr4 H24 C48 O16'
_cell_volume   1522.88783640
_cell_formula_units_Z   4
loop_
 _symmetry_equiv_pos_site_id
 _symmetry_equiv_pos_as_xyz
  1  'x, y, z'
loop_
 _atom_site_type_symbol
 _atom_site_label
 _atom_site_symmetry_multiplicity
 _atom_site_fract_x
 _atom_site_fract_y
 _atom_site_fract_z
 _atom_site_occupancy
 _atom_site_charge
  Sr  Sr1  1  0.855600  0.192280  0.546380  1.0  1.6436
  Sr  Sr2  1  0.644400  0.807720  0.046380  1.0  1.6433
  Sr  Sr3  1  0.144400  0.692280  0.953620  1.0  1.6433
  Sr  Sr4  1  0.355600  0.307720  0.453620  1.0  1.6436
  H  H5  1  0.842900  0.345100  0.251600  1.0  0.0992
  H  H6  1  0.893900  0.452400  0.140700  1.0  0.0957
  H  H7  1  0.876000  0.507600  0.514100  1.0  0.1032
  H  H8  1  0.888600  0.657800  0.550600  1.0  0.1035
  H  H9  1  0.890500  0.768100  0.441200  1.0  0.0937
  H  H10  1  0.886200  0.729200  0.294300  1.0  0.1032
  H  H11  1  0.657100  0.654900  0.751600  1.0  0.0994
  H  H12  1  0.606100  0.547600  0.640700  1.0  0.0957
  H  H13  1  0.624000  0.492400  0.014100  1.0  0.1031
  H  H14  1  0.611400  0.342200  0.050600  1.0  0.1034
  H  H15  1  0.609500  0.231900  0.941200  1.0  0.0934
  H  H16  1  0.613800  0.270800  0.794300  1.0  0.1035
  H  H17  1  0.157100  0.845100  0.248400  1.0  0.0992
  H  H18  1  0.106100  0.952400  0.359300  1.0  0.0962
  H  H19  1  0.124000  0.007600  0.985900  1.0  0.1027
  H  H20  1  0.111400  0.157800  0.949400  1.0  0.1031
  H  H21  1  0.109500  0.268100  0.058800  1.0  0.0945
  H  H22  1  0.113800  0.229200  0.205700  1.0  0.1037
  H  H23  1  0.342900  0.154900  0.748400  1.0  0.099
  H  H24  1  0.393900  0.047600  0.859300  1.0  0.096
  H  H25  1  0.376000  0.992400  0.485900  1.0  0.1028
  H  H26  1  0.388600  0.842200  0.449400  1.0  0.1031
  H  H27  1  0.390500  0.731900  0.558800  1.0  0.0941
  H  H28  1  0.386200  0.770800  0.705700  1.0  0.1036
  C  C29  1  0.858700  0.354300  0.423400  1.0  0.721
  C  C30  1  0.909200  0.627200  0.141800  1.0  0.7197
  C  C31  1  0.863700  0.429700  0.354800  1.0  -0.1613
  C  C32  1  0.860700  0.405800  0.267100  1.0  -0.0569
  C  C33  1  0.884100  0.471100  0.199700  1.0  -0.0747
  C  C34  1  0.892800  0.560900  0.219400  1.0  -0.1307
  C  C35  1  0.884000  0.589600  0.311500  1.0  0.0281
  C  C36  1  0.878000  0.522300  0.377800  1.0  0.0407
  C  C37  1  0.879400  0.551000  0.469100  1.0  -0.1275
  C  C38  1  0.885700  0.640700  0.491000  1.0  -0.09
  C  C39  1  0.887800  0.707000  0.425100  1.0  -0.0805
  C  C40  1  0.886000  0.684000  0.337600  1.0  -0.1519
  C  C41  1  0.641300  0.645700  0.923400  1.0  0.7208
  C  C42  1  0.590800  0.372800  0.641800  1.0  0.7207
  C  C43  1  0.636300  0.570300  0.854800  1.0  -0.1608
  C  C44  1  0.639300  0.594200  0.767100  1.0  -0.0578
  C  C45  1  0.615900  0.528900  0.699700  1.0  -0.0752
  C  C46  1  0.607200  0.439100  0.719400  1.0  -0.1309
  C  C47  1  0.616000  0.410400  0.811500  1.0  0.0283
  C  C48  1  0.622000  0.477700  0.877800  1.0  0.0406
  C  C49  1  0.620600  0.449000  0.969100  1.0  -0.127
  C  C50  1  0.614300  0.359300  0.991000  1.0  -0.0899
  C  C51  1  0.612200  0.293000  0.925100  1.0  -0.0819
  C  C52  1  0.614000  0.316000  0.837600  1.0  -0.151
  C  C53  1  0.141300  0.854300  0.076600  1.0  0.7205
  C  C54  1  0.090800  0.127200  0.358200  1.0  0.7214
  C  C55  1  0.136300  0.929700  0.145200  1.0  -0.1626
  C  C56  1  0.139300  0.905800  0.232900  1.0  -0.057
  C  C57  1  0.115900  0.971100  0.300300  1.0  -0.0779
  C  C58  1  0.107200  0.060900  0.280600  1.0  -0.1303
  C  C59  1  0.116000  0.089600  0.188500  1.0  0.0278
  C  C60  1  0.122000  0.022300  0.122200  1.0  0.0406
  C  C61  1  0.120600  0.051000  0.030900  1.0  -0.1254
  C  C62  1  0.114300  0.140700  0.009000  1.0  -0.0897
  C  C63  1  0.112200  0.207000  0.074900  1.0  -0.0805
  C  C64  1  0.114000  0.184000  0.162400  1.0  -0.1512
  C  C65  1  0.358700  0.145700  0.576600  1.0  0.7209
  C  C66  1  0.409200  0.872800  0.858200  1.0  0.7203
  C  C67  1  0.363700  0.070300  0.645200  1.0  -0.1618
  C  C68  1  0.360700  0.094200  0.732900  1.0  -0.0576
  C  C69  1  0.384100  0.028900  0.800300  1.0  -0.0784
  C  C70  1  0.392800  0.939100  0.780600  1.0  -0.1305
  C  C71  1  0.384000  0.910400  0.688500  1.0  0.0281
  C  C72  1  0.378000  0.977700  0.622200  1.0  0.0407
  C  C73  1  0.379400  0.949000  0.530900  1.0  -0.1252
  C  C74  1  0.385700  0.859300  0.509000  1.0  -0.089
  C  C75  1  0.387800  0.793000  0.574900  1.0  -0.0819
  C  C76  1  0.386000  0.816000  0.662400  1.0  -0.1512
  O  O77  1  0.995000  0.347770  0.478210  1.0  -0.7189
  O  O78  1  0.719100  0.299600  0.419660  1.0  -0.7306
  O  O79  1  0.014900  0.602100  0.079000  1.0  -0.7194
  O  O80  1  0.813900  0.700300  0.145500  1.0  -0.7103
  O  O81  1  0.505000  0.652230  0.978210  1.0  -0.7197
  O  O82  1  0.780900  0.700400  0.919660  1.0  -0.7284
  O  O83  1  0.485100  0.397900  0.579000  1.0  -0.7172
  O  O84  1  0.686100  0.299700  0.645500  1.0  -0.7105
  O  O85  1  0.005000  0.847770  0.021790  1.0  -0.7213
  O  O86  1  0.280900  0.799600  0.080340  1.0  -0.7275
  O  O87  1  0.985100  0.102100  0.421000  1.0  -0.7168
  O  O88  1  0.186100  0.200300  0.354500  1.0  -0.7115
  O  O89  1  0.495000  0.152230  0.521790  1.0  -0.7212
  O  O90  1  0.219100  0.200400  0.580340  1.0  -0.7286
  O  O91  1  0.514900  0.897900  0.921000  1.0  -0.719
  O  O92  1  0.313900  0.799700  0.854500  1.0  -0.7098
