# generated using pymatgen
data_Ni2H22C39N4(O4F3)2
_symmetry_space_group_name_H-M   'P 1'
_cell_length_a   8.19840000
_cell_length_b   24.09400000
_cell_length_c   11.30700000
_cell_angle_alpha   90.00000000
_cell_angle_beta   90.00000000
_cell_angle_gamma   90.00000000
_symmetry_Int_Tables_number   1
_chemical_formula_structural   Ni2H22C39N4(O4F3)2
_chemical_formula_sum   'Ni4 H44 C78 N8 O16 F12'
_cell_volume   2233.49714623
_cell_formula_units_Z   2
loop_
 _symmetry_equiv_pos_site_id
 _symmetry_equiv_pos_as_xyz
  1  'x, y, z'
loop_
 _atom_site_type_symbol
 _atom_site_label
 _atom_site_symmetry_multiplicity
 _atom_site_fract_x
 _atom_site_fract_y
 _atom_site_fract_z
 _atom_site_occupancy
 _atom_site_charge
  Ni  Ni1  1  0.909340  0.815000  0.470600  1.0  0.8604
  Ni  Ni2  1  0.090660  0.185000  0.470600  1.0  0.854
  Ni  Ni3  1  0.409340  0.685000  0.529400  1.0  0.8565
  Ni  Ni4  1  0.590660  0.315000  0.529400  1.0  0.8597
  H  H5  1  0.400300  0.818800  0.742900  1.0  0.0806
  H  H6  1  0.376400  0.894900  0.864600  1.0  0.1143
  H  H7  1  0.657000  0.982100  0.640000  1.0  0.117
  H  H8  1  0.712300  0.770000  0.262200  1.0  0.071
  H  H9  1  0.707800  0.768400  0.061000  1.0  0.1178
  H  H10  1  0.090700  0.871400  0.061100  1.0  0.1242
  H  H11  1  0.084600  0.869800  0.263200  1.0  0.0839
  H  H12  1  0.820900  0.739000  0.881800  1.0  0.1187
  H  H13  1  0.831800  0.737900  0.679400  1.0  0.082
  H  H14  1  0.009500  0.887900  0.673400  1.0  0.0935
  H  H15  1  0.001300  0.893100  0.874600  1.0  0.1156
  H  H16  1  0.599700  0.181200  0.742900  1.0  0.0804
  H  H17  1  0.623600  0.105100  0.864600  1.0  0.114
  H  H18  1  0.343000  0.017900  0.640000  1.0  0.1158
  H  H19  1  0.287700  0.230000  0.262200  1.0  0.0712
  H  H20  1  0.292200  0.231600  0.061000  1.0  0.1173
  H  H21  1  0.909300  0.128600  0.061100  1.0  0.1238
  H  H22  1  0.915400  0.130200  0.263200  1.0  0.0838
  H  H23  1  0.179100  0.261000  0.881800  1.0  0.1185
  H  H24  1  0.168200  0.262100  0.679400  1.0  0.0814
  H  H25  1  0.990500  0.112100  0.673400  1.0  0.0933
  H  H26  1  0.998700  0.106900  0.874600  1.0  0.1164
  H  H27  1  0.900300  0.681200  0.257100  1.0  0.0807
  H  H28  1  0.876400  0.605100  0.135400  1.0  0.1144
  H  H29  1  0.157000  0.517900  0.360000  1.0  0.1167
  H  H30  1  0.212300  0.730000  0.737800  1.0  0.0706
  H  H31  1  0.207800  0.731600  0.939000  1.0  0.1177
  H  H32  1  0.590700  0.628600  0.938900  1.0  0.1236
  H  H33  1  0.584600  0.630200  0.736800  1.0  0.0838
  H  H34  1  0.320900  0.761000  0.118200  1.0  0.1191
  H  H35  1  0.331800  0.762100  0.320600  1.0  0.0818
  H  H36  1  0.509500  0.612100  0.326600  1.0  0.0934
  H  H37  1  0.501300  0.606900  0.125400  1.0  0.1159
  H  H38  1  0.099700  0.318800  0.257100  1.0  0.0806
  H  H39  1  0.123600  0.394900  0.135400  1.0  0.1137
  H  H40  1  0.843000  0.482100  0.360000  1.0  0.1165
  H  H41  1  0.787700  0.270000  0.737800  1.0  0.071
  H  H42  1  0.792200  0.268400  0.939000  1.0  0.1176
  H  H43  1  0.409300  0.371400  0.938900  1.0  0.1236
  H  H44  1  0.415400  0.369800  0.736800  1.0  0.0841
  H  H45  1  0.679100  0.239000  0.118200  1.0  0.1185
  H  H46  1  0.668200  0.237900  0.320600  1.0  0.082
  H  H47  1  0.490500  0.387900  0.326600  1.0  0.0934
  H  H48  1  0.498700  0.393100  0.125400  1.0  0.1158
  C  C49  1  0.618700  0.903000  0.587200  1.0  -0.0171
  C  C50  1  0.540000  0.853840  0.617200  1.0  -0.1523
  C  C51  1  0.451200  0.851780  0.721700  1.0  -0.007
  C  C52  1  0.436200  0.897290  0.794900  1.0  -0.1715
  C  C53  1  0.512200  0.947240  0.763200  1.0  0.0739
  C  C54  1  0.604200  0.949320  0.660400  1.0  -0.1025
  C  C55  1  0.710300  0.911000  0.471200  1.0  0.6683
  C  C56  1  0.547900  0.802540  0.540600  1.0  0.6745
  C  C57  1  0.655800  0.000100  0.919300  1.0  0.6817
  C  C58  1  0.790300  0.790420  0.221100  1.0  0.1863
  C  C59  1  0.787000  0.789030  0.100100  1.0  -0.2022
  C  C60  1  0.902700  0.818710  0.035600  1.0  0.0931
  C  C61  1  0.013200  0.849900  0.099900  1.0  -0.1924
  C  C62  1  0.008200  0.848900  0.221800  1.0  0.167
  C  C63  1  0.907400  0.816910  0.904100  1.0  0.0949
  C  C64  1  0.858500  0.770110  0.841400  1.0  -0.1969
  C  C65  1  0.865400  0.769650  0.719200  1.0  0.1824
  C  C66  1  0.969600  0.857800  0.715900  1.0  0.17
  C  C67  1  0.965200  0.861040  0.837000  1.0  -0.1825
  C  C68  1  0.381300  0.097000  0.587200  1.0  -0.0166
  C  C69  1  0.460000  0.146160  0.617200  1.0  -0.1517
  C  C70  1  0.548800  0.148220  0.721700  1.0  -0.0077
  C  C71  1  0.563800  0.102710  0.794900  1.0  -0.1741
  C  C72  1  0.487800  0.052760  0.763200  1.0  0.0742
  C  C73  1  0.395800  0.050680  0.660400  1.0  -0.1006
  C  C74  1  0.289700  0.089000  0.471200  1.0  0.6696
  C  C75  1  0.452100  0.197460  0.540600  1.0  0.6756
  C  C76  1  0.344200  0.999900  0.919300  1.0  0.6843
  C  C77  1  0.209700  0.209580  0.221100  1.0  0.1859
  C  C78  1  0.213000  0.210970  0.100100  1.0  -0.2031
  C  C79  1  0.097300  0.181290  0.035600  1.0  0.0928
  C  C80  1  0.986800  0.150100  0.099900  1.0  -0.1902
  C  C81  1  0.991800  0.151100  0.221800  1.0  0.1683
  C  C82  1  0.092600  0.183090  0.904100  1.0  0.0948
  C  C83  1  0.141500  0.229890  0.841400  1.0  -0.1989
  C  C84  1  0.134600  0.230350  0.719200  1.0  0.1834
  C  C85  1  0.030400  0.142200  0.715900  1.0  0.1698
  C  C86  1  0.034800  0.138960  0.837000  1.0  -0.1819
  C  C87  1  0.118700  0.597000  0.412800  1.0  -0.0136
  C  C88  1  0.040000  0.646160  0.382800  1.0  -0.1523
  C  C89  1  0.951200  0.648220  0.278300  1.0  -0.0077
  C  C90  1  0.936200  0.602710  0.205100  1.0  -0.1733
  C  C91  1  0.012200  0.552760  0.236800  1.0  0.0738
  C  C92  1  0.104200  0.550680  0.339600  1.0  -0.0998
  C  C93  1  0.210300  0.589000  0.528800  1.0  0.6701
  C  C94  1  0.047900  0.697460  0.459400  1.0  0.6751
  C  C95  1  0.155800  0.499900  0.080700  1.0  0.6808
  C  C96  1  0.290300  0.709580  0.778900  1.0  0.1862
  C  C97  1  0.287000  0.710970  0.899900  1.0  -0.2022
  C  C98  1  0.402700  0.681290  0.964400  1.0  0.0929
  C  C99  1  0.513200  0.650100  0.900100  1.0  -0.1909
  C  C100  1  0.508200  0.651100  0.778200  1.0  0.1663
  C  C101  1  0.407400  0.683090  0.095900  1.0  0.0937
  C  C102  1  0.358500  0.729890  0.158600  1.0  -0.1982
  C  C103  1  0.365400  0.730350  0.280800  1.0  0.1831
  C  C104  1  0.469600  0.642200  0.284100  1.0  0.1702
  C  C105  1  0.465200  0.638960  0.163000  1.0  -0.182
  C  C106  1  0.881300  0.403000  0.412800  1.0  -0.0131
  C  C107  1  0.960000  0.353840  0.382800  1.0  -0.1526
  C  C108  1  0.048800  0.351780  0.278300  1.0  -0.0071
  C  C109  1  0.063800  0.397290  0.205100  1.0  -0.1729
  C  C110  1  0.987800  0.447240  0.236800  1.0  0.0742
  C  C111  1  0.895800  0.449320  0.339600  1.0  -0.102
  C  C112  1  0.789700  0.411000  0.528800  1.0  0.6676
  C  C113  1  0.952100  0.302540  0.459400  1.0  0.6765
  C  C114  1  0.844200  0.500100  0.080700  1.0  0.6834
  C  C115  1  0.709700  0.290420  0.778900  1.0  0.186
  C  C116  1  0.713000  0.289030  0.899900  1.0  -0.2027
  C  C117  1  0.597300  0.318710  0.964400  1.0  0.0928
  C  C118  1  0.486800  0.349900  0.900100  1.0  -0.1914
  C  C119  1  0.491800  0.348900  0.778200  1.0  0.1675
  C  C120  1  0.592600  0.316910  0.095900  1.0  0.0937
  C  C121  1  0.641500  0.270110  0.158600  1.0  -0.1969
  C  C122  1  0.634600  0.269650  0.280800  1.0  0.1825
  C  C123  1  0.530400  0.357800  0.284100  1.0  0.1701
  C  C124  1  0.534800  0.361040  0.163000  1.0  -0.1826
  C  C125  1  0.500000  0.000000  0.841400  1.0  -0.2999
  C  C126  1  0.000000  0.500000  0.158600  1.0  -0.3013
  N  N127  1  0.899200  0.819380  0.283600  1.0  -0.3106
  N  N128  1  0.918300  0.812710  0.656200  1.0  -0.3485
  N  N129  1  0.100800  0.180620  0.283600  1.0  -0.3111
  N  N130  1  0.081700  0.187290  0.656200  1.0  -0.3487
  N  N131  1  0.399200  0.680620  0.716400  1.0  -0.3128
  N  N132  1  0.418300  0.687290  0.343800  1.0  -0.3442
  N  N133  1  0.600800  0.319380  0.716400  1.0  -0.3117
  N  N134  1  0.581700  0.312710  0.343800  1.0  -0.3447
  O  O135  1  0.633100  0.930720  0.388100  1.0  -0.5396
  O  O136  1  0.862100  0.899220  0.470900  1.0  -0.6371
  O  O137  1  0.664600  0.794840  0.471500  1.0  -0.5713
  O  O138  1  0.429700  0.769380  0.551800  1.0  -0.5887
  O  O139  1  0.366900  0.069280  0.388100  1.0  -0.5379
  O  O140  1  0.137900  0.100780  0.470900  1.0  -0.6376
  O  O141  1  0.335400  0.205160  0.471500  1.0  -0.5707
  O  O142  1  0.570300  0.230620  0.551800  1.0  -0.5891
  O  O143  1  0.133100  0.569280  0.611900  1.0  -0.5366
  O  O144  1  0.362100  0.600780  0.529100  1.0  -0.6362
  O  O145  1  0.164600  0.705160  0.528500  1.0  -0.5715
  O  O146  1  0.929700  0.730620  0.448200  1.0  -0.5883
  O  O147  1  0.866900  0.430720  0.611900  1.0  -0.5375
  O  O148  1  0.637900  0.399220  0.529100  1.0  -0.6368
  O  O149  1  0.835400  0.294840  0.528500  1.0  -0.5707
  O  O150  1  0.070300  0.269380  0.448200  1.0  -0.5889
  F  F151  1  0.675500  0.950360  0.971900  1.0  -0.2113
  F  F152  1  0.788500  0.010290  0.856900  1.0  -0.1921
  F  F153  1  0.649600  0.037290  0.007000  1.0  -0.2001
  F  F154  1  0.324500  0.049640  0.971900  1.0  -0.211
  F  F155  1  0.211500  0.989710  0.856900  1.0  -0.1919
  F  F156  1  0.350400  0.962710  0.007000  1.0  -0.2019
  F  F157  1  0.175500  0.549640  0.028100  1.0  -0.2101
  F  F158  1  0.288500  0.489710  0.143100  1.0  -0.1922
  F  F159  1  0.149600  0.462710  0.993000  1.0  -0.2001
  F  F160  1  0.824500  0.450360  0.028100  1.0  -0.2126
  F  F161  1  0.711500  0.510290  0.143100  1.0  -0.1921
  F  F162  1  0.850400  0.537290  0.993000  1.0  -0.1992
