# generated using pymatgen
data_BaH6(C3O)4
_symmetry_space_group_name_H-M   'P 1'
_cell_length_a   7.12690000
_cell_length_b   14.67240000
_cell_length_c   15.00270000
_cell_angle_alpha   90.00000000
_cell_angle_beta   90.00000000
_cell_angle_gamma   90.00000000
_symmetry_Int_Tables_number   1
_chemical_formula_structural   BaH6(C3O)4
_chemical_formula_sum   'Ba4 H24 C48 O16'
_cell_volume   1568.81324896
_cell_formula_units_Z   4
loop_
 _symmetry_equiv_pos_site_id
 _symmetry_equiv_pos_as_xyz
  1  'x, y, z'
loop_
 _atom_site_type_symbol
 _atom_site_label
 _atom_site_symmetry_multiplicity
 _atom_site_fract_x
 _atom_site_fract_y
 _atom_site_fract_z
 _atom_site_occupancy
 _atom_site_charge
  Ba  Ba1  1  0.927280  0.194120  0.439030  1.0  1.6172
  Ba  Ba2  1  0.572720  0.805880  0.939030  1.0  1.6158
  Ba  Ba3  1  0.072720  0.694120  0.060970  1.0  1.6166
  Ba  Ba4  1  0.427280  0.305880  0.560970  1.0  1.6163
  H  H5  1  0.857100  0.612200  0.698100  1.0  0.0921
  H  H6  1  0.930800  0.498100  0.597200  1.0  0.1063
  H  H7  1  0.870300  0.231700  0.760300  1.0  0.1057
  H  H8  1  0.829700  0.197900  0.906900  1.0  0.0978
  H  H9  1  0.796100  0.313300  0.012100  1.0  0.1058
  H  H10  1  0.793200  0.462300  0.968800  1.0  0.0986
  H  H11  1  0.642900  0.387800  0.198100  1.0  0.0925
  H  H12  1  0.569200  0.501900  0.097200  1.0  0.1067
  H  H13  1  0.629700  0.768300  0.260300  1.0  0.106
  H  H14  1  0.670300  0.802100  0.406900  1.0  0.0976
  H  H15  1  0.703900  0.686700  0.512100  1.0  0.1056
  H  H16  1  0.706800  0.537700  0.468800  1.0  0.0988
  H  H17  1  0.142900  0.112200  0.801900  1.0  0.0918
  H  H18  1  0.069200  0.998100  0.902800  1.0  0.1064
  H  H19  1  0.129700  0.731700  0.739700  1.0  0.1056
  H  H20  1  0.170300  0.697900  0.593100  1.0  0.0982
  H  H21  1  0.203900  0.813300  0.487900  1.0  0.1053
  H  H22  1  0.206800  0.962300  0.531200  1.0  0.0986
  H  H23  1  0.357100  0.887800  0.301900  1.0  0.0924
  H  H24  1  0.430800  0.001900  0.402800  1.0  0.1063
  H  H25  1  0.370300  0.268300  0.239700  1.0  0.1062
  H  H26  1  0.329700  0.302100  0.093100  1.0  0.0985
  H  H27  1  0.296100  0.186700  0.987900  1.0  0.1058
  H  H28  1  0.293200  0.037700  0.031200  1.0  0.099
  C  C29  1  0.916000  0.322800  0.608980  1.0  0.7372
  C  C30  1  0.894400  0.393400  0.681000  1.0  -0.1891
  C  C31  1  0.859300  0.370300  0.771100  1.0  0.0526
  C  C32  1  0.833200  0.441100  0.835200  1.0  0.048
  C  C33  1  0.828500  0.534100  0.804700  1.0  -0.136
  C  C34  1  0.861000  0.552100  0.717600  1.0  -0.0713
  C  C35  1  0.900500  0.482900  0.655700  1.0  -0.0909
  C  C36  1  0.855800  0.278700  0.801300  1.0  -0.1224
  C  C37  1  0.831800  0.258500  0.888700  1.0  -0.0878
  C  C38  1  0.810100  0.328000  0.952100  1.0  -0.0943
  C  C39  1  0.809400  0.416800  0.926300  1.0  -0.1267
  C  C40  1  0.781200  0.614700  0.863900  1.0  0.753
  C  C41  1  0.584000  0.677200  0.108980  1.0  0.7379
  C  C42  1  0.605600  0.606600  0.181000  1.0  -0.1906
  C  C43  1  0.640700  0.629700  0.271100  1.0  0.0526
  C  C44  1  0.666800  0.558900  0.335200  1.0  0.0483
  C  C45  1  0.671500  0.465900  0.304700  1.0  -0.1363
  C  C46  1  0.639000  0.447900  0.217600  1.0  -0.0715
  C  C47  1  0.599500  0.517100  0.155700  1.0  -0.0913
  C  C48  1  0.644200  0.721300  0.301300  1.0  -0.1228
  C  C49  1  0.668200  0.741500  0.388700  1.0  -0.0884
  C  C50  1  0.689900  0.672000  0.452100  1.0  -0.0945
  C  C51  1  0.690600  0.583200  0.426300  1.0  -0.1269
  C  C52  1  0.718800  0.385300  0.363900  1.0  0.7535
  C  C53  1  0.084000  0.822800  0.891020  1.0  0.7387
  C  C54  1  0.105600  0.893400  0.819000  1.0  -0.1903
  C  C55  1  0.140700  0.870300  0.728900  1.0  0.0525
  C  C56  1  0.166800  0.941100  0.664800  1.0  0.0478
  C  C57  1  0.171500  0.034100  0.695300  1.0  -0.1362
  C  C58  1  0.139000  0.052100  0.782400  1.0  -0.0711
  C  C59  1  0.099500  0.982900  0.844300  1.0  -0.0906
  C  C60  1  0.144200  0.778700  0.698700  1.0  -0.1213
  C  C61  1  0.168200  0.758500  0.611300  1.0  -0.0878
  C  C62  1  0.189900  0.828000  0.547900  1.0  -0.096
  C  C63  1  0.190600  0.916800  0.573700  1.0  -0.1257
  C  C64  1  0.218800  0.114700  0.636100  1.0  0.7528
  C  C65  1  0.416000  0.177200  0.391020  1.0  0.7387
  C  C66  1  0.394400  0.106600  0.319000  1.0  -0.1888
  C  C67  1  0.359300  0.129700  0.228900  1.0  0.0525
  C  C68  1  0.333200  0.058900  0.164800  1.0  0.0481
  C  C69  1  0.328500  0.965900  0.195300  1.0  -0.1374
  C  C70  1  0.361000  0.947900  0.282400  1.0  -0.072
  C  C71  1  0.400500  0.017100  0.344300  1.0  -0.0897
  C  C72  1  0.355800  0.221300  0.198700  1.0  -0.1228
  C  C73  1  0.331800  0.241500  0.111300  1.0  -0.0879
  C  C74  1  0.310100  0.172000  0.047900  1.0  -0.0963
  C  C75  1  0.309400  0.083200  0.073700  1.0  -0.1258
  C  C76  1  0.281200  0.885300  0.136100  1.0  0.754
  O  O77  1  0.792700  0.261840  0.602290  1.0  -0.7192
  O  O78  1  0.053700  0.331610  0.556390  1.0  -0.7548
  O  O79  1  0.684700  0.675500  0.829900  1.0  -0.6803
  O  O80  1  0.844900  0.616200  0.942500  1.0  -0.7429
  O  O81  1  0.707300  0.738160  0.102290  1.0  -0.7197
  O  O82  1  0.446300  0.668390  0.056390  1.0  -0.7569
  O  O83  1  0.815300  0.324500  0.329900  1.0  -0.6811
  O  O84  1  0.655100  0.383800  0.442500  1.0  -0.7441
  O  O85  1  0.207300  0.761840  0.897710  1.0  -0.7192
  O  O86  1  0.946300  0.831610  0.943610  1.0  -0.7548
  O  O87  1  0.315300  0.175500  0.670100  1.0  -0.6806
  O  O88  1  0.155100  0.116200  0.557500  1.0  -0.7383
  O  O89  1  0.292700  0.238160  0.397710  1.0  -0.7189
  O  O90  1  0.553700  0.168390  0.443610  1.0  -0.754
  O  O91  1  0.184700  0.824500  0.170100  1.0  -0.6794
  O  O92  1  0.344900  0.883800  0.057500  1.0  -0.7367
