# generated using pymatgen
data_SrH6(C3O)4
_symmetry_space_group_name_H-M   'P 1'
_cell_length_a   6.88830000
_cell_length_b   14.70740000
_cell_length_c   14.98100000
_cell_angle_alpha   90.00000000
_cell_angle_beta   90.00000000
_cell_angle_gamma   90.00000000
_symmetry_Int_Tables_number   1
_chemical_formula_structural   SrH6(C3O)4
_chemical_formula_sum   'Sr4 H24 C48 O16'
_cell_volume   1517.70988062
_cell_formula_units_Z   4
loop_
 _symmetry_equiv_pos_site_id
 _symmetry_equiv_pos_as_xyz
  1  'x, y, z'
loop_
 _atom_site_type_symbol
 _atom_site_label
 _atom_site_symmetry_multiplicity
 _atom_site_fract_x
 _atom_site_fract_y
 _atom_site_fract_z
 _atom_site_occupancy
 _atom_site_charge
  Sr  Sr1  1  0.855380  0.307680  0.546640  1.0  1.6415
  Sr  Sr2  1  0.644620  0.692320  0.046640  1.0  1.6415
  Sr  Sr3  1  0.144620  0.807680  0.953360  1.0  1.6414
  Sr  Sr4  1  0.355380  0.192320  0.453360  1.0  1.6415
  H  H5  1  0.844500  0.155700  0.251600  1.0  0.1018
  H  H6  1  0.893100  0.047000  0.139800  1.0  0.0957
  H  H7  1  0.876100  0.992300  0.514400  1.0  0.1019
  H  H8  1  0.894300  0.731800  0.441200  1.0  0.0971
  H  H9  1  0.888900  0.772000  0.293800  1.0  0.0989
  H  H10  1  0.891100  0.842200  0.551200  1.0  0.1017
  H  H11  1  0.655500  0.844300  0.751600  1.0  0.1019
  H  H12  1  0.606900  0.953000  0.639800  1.0  0.0957
  H  H13  1  0.623900  0.007700  0.014400  1.0  0.1017
  H  H14  1  0.605700  0.268200  0.941200  1.0  0.097
  H  H15  1  0.611100  0.228000  0.793800  1.0  0.0991
  H  H16  1  0.608900  0.157800  0.051200  1.0  0.1013
  H  H17  1  0.155500  0.655700  0.248400  1.0  0.1015
  H  H18  1  0.106900  0.547000  0.360200  1.0  0.0961
  H  H19  1  0.123900  0.492300  0.985600  1.0  0.1015
  H  H20  1  0.105700  0.231800  0.058800  1.0  0.0979
  H  H21  1  0.111100  0.272000  0.206200  1.0  0.0989
  H  H22  1  0.108900  0.342200  0.948800  1.0  0.1011
  H  H23  1  0.344500  0.344300  0.748400  1.0  0.1017
  H  H24  1  0.393100  0.453000  0.860200  1.0  0.0963
  H  H25  1  0.376100  0.507700  0.485600  1.0  0.1011
  H  H26  1  0.394300  0.768200  0.558800  1.0  0.0977
  H  H27  1  0.388900  0.728000  0.706200  1.0  0.0987
  H  H28  1  0.391100  0.657800  0.448800  1.0  0.101
  C  C29  1  0.865800  0.070180  0.354940  1.0  -0.1704
  C  C30  1  0.879100  0.977880  0.378460  1.0  0.0499
  C  C31  1  0.861900  0.095000  0.267000  1.0  -0.0828
  C  C32  1  0.884800  0.909800  0.311500  1.0  0.053
  C  C33  1  0.858000  0.145920  0.423360  1.0  0.7546
  C  C34  1  0.884300  0.028900  0.199200  1.0  -0.0665
  C  C35  1  0.893000  0.938700  0.220000  1.0  -0.1484
  C  C36  1  0.909700  0.872900  0.141800  1.0  0.7706
  C  C37  1  0.880400  0.948900  0.469300  1.0  -0.13
  C  C38  1  0.890700  0.792900  0.425400  1.0  -0.0868
  C  C39  1  0.888300  0.817000  0.337400  1.0  -0.1156
  C  C40  1  0.887900  0.859200  0.491400  1.0  -0.0837
  C  C41  1  0.634200  0.929820  0.854940  1.0  -0.1714
  C  C42  1  0.620900  0.022120  0.878460  1.0  0.0498
  C  C43  1  0.638100  0.905000  0.767000  1.0  -0.083
  C  C44  1  0.615200  0.090200  0.811500  1.0  0.0528
  C  C45  1  0.642000  0.854080  0.923360  1.0  0.7553
  C  C46  1  0.615700  0.971100  0.699200  1.0  -0.0659
  C  C47  1  0.607000  0.061300  0.720000  1.0  -0.1475
  C  C48  1  0.590300  0.127100  0.641800  1.0  0.7726
  C  C49  1  0.619600  0.051100  0.969300  1.0  -0.13
  C  C50  1  0.609300  0.207100  0.925400  1.0  -0.0872
  C  C51  1  0.611700  0.183000  0.837400  1.0  -0.116
  C  C52  1  0.612100  0.140800  0.991400  1.0  -0.0849
  C  C53  1  0.134200  0.570180  0.145060  1.0  -0.1723
  C  C54  1  0.120900  0.477880  0.121540  1.0  0.0499
  C  C55  1  0.138100  0.595000  0.233000  1.0  -0.0833
  C  C56  1  0.115200  0.409800  0.188500  1.0  0.053
  C  C57  1  0.142000  0.645920  0.076640  1.0  0.7544
  C  C58  1  0.115700  0.528900  0.300800  1.0  -0.0666
  C  C59  1  0.107000  0.438700  0.280000  1.0  -0.1477
  C  C60  1  0.090300  0.372900  0.358200  1.0  0.7726
  C  C61  1  0.119600  0.448900  0.030700  1.0  -0.1279
  C  C62  1  0.109300  0.292900  0.074600  1.0  -0.0872
  C  C63  1  0.111700  0.317000  0.162600  1.0  -0.1157
  C  C64  1  0.112100  0.359200  0.008600  1.0  -0.0841
  C  C65  1  0.365800  0.429820  0.645060  1.0  -0.1729
  C  C66  1  0.379100  0.522120  0.621540  1.0  0.0499
  C  C67  1  0.361900  0.405000  0.733000  1.0  -0.0827
  C  C68  1  0.384800  0.590200  0.688500  1.0  0.0527
  C  C69  1  0.358000  0.354080  0.576640  1.0  0.7545
  C  C70  1  0.384300  0.471100  0.800800  1.0  -0.066
  C  C71  1  0.393000  0.561300  0.780000  1.0  -0.148
  C  C72  1  0.409700  0.627100  0.858200  1.0  0.7709
  C  C73  1  0.380400  0.551100  0.530700  1.0  -0.1288
  C  C74  1  0.390700  0.707100  0.574600  1.0  -0.0869
  C  C75  1  0.388300  0.683000  0.662600  1.0  -0.1164
  C  C76  1  0.387900  0.640800  0.508600  1.0  -0.0842
  O  O77  1  0.719100  0.200350  0.419660  1.0  -0.7574
  O  O78  1  0.995100  0.152510  0.478780  1.0  -0.7542
  O  O79  1  0.816300  0.799700  0.145000  1.0  -0.736
  O  O80  1  0.013800  0.898200  0.078900  1.0  -0.7339
  O  O81  1  0.780900  0.799650  0.919660  1.0  -0.757
  O  O82  1  0.504900  0.847490  0.978780  1.0  -0.7553
  O  O83  1  0.683700  0.200300  0.645000  1.0  -0.7374
  O  O84  1  0.486200  0.101800  0.578900  1.0  -0.733
  O  O85  1  0.280900  0.700350  0.080340  1.0  -0.7574
  O  O86  1  0.004900  0.652510  0.021220  1.0  -0.7558
  O  O87  1  0.183700  0.299700  0.355000  1.0  -0.7373
  O  O88  1  0.986200  0.398200  0.421100  1.0  -0.7332
  O  O89  1  0.219100  0.299650  0.580340  1.0  -0.7563
  O  O90  1  0.495100  0.347490  0.521220  1.0  -0.7558
  O  O91  1  0.316300  0.700300  0.855000  1.0  -0.7361
  O  O92  1  0.513800  0.601800  0.921100  1.0  -0.733
