# generated using pymatgen
data_BaH6(C3O)4
_symmetry_space_group_name_H-M   'P 1'
_cell_length_a   7.13950000
_cell_length_b   14.67800000
_cell_length_c   15.01400000
_cell_angle_alpha   90.00000000
_cell_angle_beta   90.00000000
_cell_angle_gamma   90.00000000
_symmetry_Int_Tables_number   1
_chemical_formula_structural   BaH6(C3O)4
_chemical_formula_sum   'Ba4 H24 C48 O16'
_cell_volume   1573.37082513
_cell_formula_units_Z   4
loop_
 _symmetry_equiv_pos_site_id
 _symmetry_equiv_pos_as_xyz
  1  'x, y, z'
loop_
 _atom_site_type_symbol
 _atom_site_label
 _atom_site_symmetry_multiplicity
 _atom_site_fract_x
 _atom_site_fract_y
 _atom_site_fract_z
 _atom_site_occupancy
 _atom_site_charge
  Ba  Ba1  1  0.928020  0.194090  0.438910  1.0  1.6167
  Ba  Ba2  1  0.571980  0.805910  0.938910  1.0  1.6169
  Ba  Ba3  1  0.071980  0.694090  0.061090  1.0  1.6181
  Ba  Ba4  1  0.428020  0.305910  0.561090  1.0  1.6176
  H  H5  1  0.926300  0.498200  0.597500  1.0  0.094
  H  H6  1  0.867900  0.230600  0.761100  1.0  0.097
  H  H7  1  0.830400  0.197500  0.907500  1.0  0.0912
  H  H8  1  0.799100  0.312300  0.011900  1.0  0.0943
  H  H9  1  0.794500  0.461100  0.969200  1.0  0.0893
  H  H10  1  0.855700  0.612500  0.697900  1.0  0.0871
  H  H11  1  0.573700  0.501800  0.097500  1.0  0.0945
  H  H12  1  0.632100  0.769400  0.261100  1.0  0.0975
  H  H13  1  0.669600  0.802500  0.407500  1.0  0.091
  H  H14  1  0.700900  0.687700  0.511900  1.0  0.0941
  H  H15  1  0.705500  0.538900  0.469200  1.0  0.0896
  H  H16  1  0.644300  0.387500  0.197900  1.0  0.087
  H  H17  1  0.073700  0.998200  0.902500  1.0  0.0942
  H  H18  1  0.132100  0.730600  0.738900  1.0  0.0971
  H  H19  1  0.169600  0.697500  0.592500  1.0  0.0918
  H  H20  1  0.200900  0.812300  0.488100  1.0  0.0937
  H  H21  1  0.205500  0.961100  0.530800  1.0  0.0889
  H  H22  1  0.144300  0.112500  0.802100  1.0  0.0869
  H  H23  1  0.426300  0.001800  0.402500  1.0  0.0943
  H  H24  1  0.367900  0.269400  0.238900  1.0  0.0977
  H  H25  1  0.330400  0.302500  0.092500  1.0  0.0919
  H  H26  1  0.299100  0.187700  0.988100  1.0  0.0942
  H  H27  1  0.294500  0.038900  0.030800  1.0  0.0891
  H  H28  1  0.355700  0.887500  0.302100  1.0  0.0871
  C  C29  1  0.917200  0.322800  0.609500  1.0  0.71
  C  C30  1  0.780100  0.614000  0.865200  1.0  0.7426
  C  C31  1  0.898300  0.483100  0.656200  1.0  -0.0976
  C  C32  1  0.895800  0.394200  0.680800  1.0  -0.1235
  C  C33  1  0.856700  0.370100  0.771700  1.0  0.0448
  C  C34  1  0.854200  0.277700  0.802000  1.0  -0.1097
  C  C35  1  0.832100  0.258000  0.889100  1.0  -0.0848
  C  C36  1  0.811800  0.327100  0.951900  1.0  -0.1101
  C  C37  1  0.810300  0.415900  0.926400  1.0  -0.1339
  C  C38  1  0.832400  0.440800  0.835600  1.0  0.0457
  C  C39  1  0.826700  0.534200  0.805100  1.0  -0.1182
  C  C40  1  0.859300  0.552400  0.717500  1.0  -0.0947
  C  C41  1  0.582800  0.677200  0.109500  1.0  0.7102
  C  C42  1  0.719900  0.386000  0.365200  1.0  0.7434
  C  C43  1  0.601700  0.516900  0.156200  1.0  -0.0971
  C  C44  1  0.604200  0.605800  0.180800  1.0  -0.124
  C  C45  1  0.643300  0.629900  0.271700  1.0  0.0446
  C  C46  1  0.645800  0.722300  0.302000  1.0  -0.1097
  C  C47  1  0.667900  0.742000  0.389100  1.0  -0.0855
  C  C48  1  0.688200  0.672900  0.451900  1.0  -0.1108
  C  C49  1  0.689700  0.584100  0.426400  1.0  -0.1345
  C  C50  1  0.667600  0.559200  0.335600  1.0  0.0463
  C  C51  1  0.673300  0.465800  0.305100  1.0  -0.1184
  C  C52  1  0.640700  0.447600  0.217500  1.0  -0.0952
  C  C53  1  0.082800  0.822800  0.890500  1.0  0.7114
  C  C54  1  0.219900  0.114000  0.634800  1.0  0.7425
  C  C55  1  0.101700  0.983100  0.843800  1.0  -0.098
  C  C56  1  0.104200  0.894200  0.819200  1.0  -0.1242
  C  C57  1  0.143300  0.870100  0.728300  1.0  0.0448
  C  C58  1  0.145800  0.777700  0.698000  1.0  -0.1089
  C  C59  1  0.167900  0.758000  0.610900  1.0  -0.0852
  C  C60  1  0.188200  0.827100  0.548100  1.0  -0.1109
  C  C61  1  0.189700  0.915900  0.573600  1.0  -0.1332
  C  C62  1  0.167600  0.940800  0.664400  1.0  0.0456
  C  C63  1  0.173300  0.034200  0.694900  1.0  -0.1189
  C  C64  1  0.140700  0.052400  0.782500  1.0  -0.0944
  C  C65  1  0.417200  0.177200  0.390500  1.0  0.7115
  C  C66  1  0.280100  0.886000  0.134800  1.0  0.7437
  C  C67  1  0.398300  0.016900  0.343800  1.0  -0.098
  C  C68  1  0.395800  0.105800  0.319200  1.0  -0.1232
  C  C69  1  0.356700  0.129900  0.228300  1.0  0.0447
  C  C70  1  0.354200  0.222300  0.198000  1.0  -0.1094
  C  C71  1  0.332100  0.242000  0.110900  1.0  -0.0851
  C  C72  1  0.311800  0.172900  0.048100  1.0  -0.1109
  C  C73  1  0.310300  0.084100  0.073600  1.0  -0.1338
  C  C74  1  0.332400  0.059200  0.164400  1.0  0.0459
  C  C75  1  0.326700  0.965800  0.194900  1.0  -0.1184
  C  C76  1  0.359300  0.947600  0.282500  1.0  -0.0959
  O  O77  1  0.794300  0.260800  0.602720  1.0  -0.7284
  O  O78  1  0.053400  0.331410  0.557070  1.0  -0.7427
  O  O79  1  0.844400  0.615700  0.942600  1.0  -0.6802
  O  O80  1  0.683400  0.675300  0.830000  1.0  -0.6908
  O  O81  1  0.705700  0.739200  0.102720  1.0  -0.7277
  O  O82  1  0.446600  0.668590  0.057070  1.0  -0.744
  O  O83  1  0.655600  0.384300  0.442600  1.0  -0.6815
  O  O84  1  0.816600  0.324700  0.330000  1.0  -0.6908
  O  O85  1  0.205700  0.760800  0.897280  1.0  -0.7277
  O  O86  1  0.946600  0.831410  0.942930  1.0  -0.7423
  O  O87  1  0.155600  0.115700  0.557400  1.0  -0.6797
  O  O88  1  0.316600  0.175300  0.670000  1.0  -0.6905
  O  O89  1  0.294300  0.239200  0.397280  1.0  -0.7278
  O  O90  1  0.553400  0.168590  0.442930  1.0  -0.7416
  O  O91  1  0.344400  0.884300  0.057400  1.0  -0.6788
  O  O92  1  0.183400  0.824700  0.170000  1.0  -0.6897
