# generated using pymatgen
data_NaH3(C3O)2
_symmetry_space_group_name_H-M   'P 1'
_cell_length_a   8.68800000
_cell_length_b   18.21860000
_cell_length_c   18.21860000
_cell_angle_alpha   120.00000000
_cell_angle_beta   90.00000000
_cell_angle_gamma   90.00000000
_symmetry_Int_Tables_number   1
_chemical_formula_structural   NaH3(C3O)2
_chemical_formula_sum   'Na12 H36 C72 O24'
_cell_volume   2497.35594067
_cell_formula_units_Z   12
loop_
 _symmetry_equiv_pos_site_id
 _symmetry_equiv_pos_as_xyz
  1  'x, y, z'
loop_
 _atom_site_type_symbol
 _atom_site_label
 _atom_site_symmetry_multiplicity
 _atom_site_fract_x
 _atom_site_fract_y
 _atom_site_fract_z
 _atom_site_occupancy
 _atom_site_charge
  Na  Na1  1  0.823680  0.361650  0.725210  1.0  0.959
  Na  Na2  1  0.821610  0.259080  0.511050  1.0  0.9743
  Na  Na3  1  0.157010  0.363560  0.638350  1.0  0.9603
  Na  Na4  1  0.154940  0.251970  0.740920  1.0  0.9766
  Na  Na5  1  0.490350  0.274790  0.636440  1.0  0.9595
  Na  Na6  1  0.488280  0.488950  0.748030  1.0  0.9779
  Na  Na7  1  0.323680  0.638350  0.274790  1.0  0.9583
  Na  Na8  1  0.321610  0.740920  0.488950  1.0  0.974
  Na  Na9  1  0.657010  0.636440  0.361650  1.0  0.96
  Na  Na10  1  0.654940  0.748030  0.259080  1.0  0.9761
  Na  Na11  1  0.990350  0.725210  0.363560  1.0  0.9594
  Na  Na12  1  0.988280  0.511050  0.251970  1.0  0.9765
  H  H13  1  0.883500  0.056400  0.492300  1.0  0.0937
  H  H14  1  0.552800  0.875300  0.621500  1.0  0.0958
  H  H15  1  0.656400  0.163100  0.754700  1.0  0.1062
  H  H16  1  0.473700  0.964400  0.756900  1.0  0.0999
  H  H17  1  0.525200  0.107700  0.822800  1.0  0.0959
  H  H18  1  0.834700  0.913500  0.425200  1.0  0.0865
  H  H19  1  0.216830  0.435900  0.943600  1.0  0.0941
  H  H20  1  0.886130  0.746200  0.124700  1.0  0.0952
  H  H21  1  0.989730  0.591600  0.836900  1.0  0.1072
  H  H22  1  0.807030  0.792500  0.035600  1.0  0.101
  H  H23  1  0.858530  0.715100  0.892300  1.0  0.0965
  H  H24  1  0.168030  0.511700  0.086500  1.0  0.0855
  H  H25  1  0.550170  0.507700  0.564100  1.0  0.093
  H  H26  1  0.219470  0.378500  0.253800  1.0  0.0962
  H  H27  1  0.323070  0.245300  0.408400  1.0  0.1059
  H  H28  1  0.140370  0.243100  0.207500  1.0  0.1001
  H  H29  1  0.191870  0.177200  0.284900  1.0  0.0964
  H  H30  1  0.501370  0.574800  0.488300  1.0  0.0854
  H  H31  1  0.383500  0.943600  0.507700  1.0  0.0943
  H  H32  1  0.052800  0.124700  0.378500  1.0  0.0951
  H  H33  1  0.156400  0.836900  0.245300  1.0  0.1064
  H  H34  1  0.973700  0.035600  0.243100  1.0  0.099
  H  H35  1  0.025200  0.892300  0.177200  1.0  0.0955
  H  H36  1  0.334700  0.086500  0.574800  1.0  0.0862
  H  H37  1  0.716830  0.564100  0.056400  1.0  0.0942
  H  H38  1  0.386130  0.253800  0.875300  1.0  0.0955
  H  H39  1  0.489730  0.408400  0.163100  1.0  0.1064
  H  H40  1  0.307030  0.207500  0.964400  1.0  0.1006
  H  H41  1  0.358530  0.284900  0.107700  1.0  0.0961
  H  H42  1  0.668030  0.488300  0.913500  1.0  0.0856
  H  H43  1  0.050170  0.492300  0.435900  1.0  0.0938
  H  H44  1  0.719470  0.621500  0.746200  1.0  0.096
  H  H45  1  0.823070  0.754700  0.591600  1.0  0.1059
  H  H46  1  0.640370  0.756900  0.792500  1.0  0.1001
  H  H47  1  0.691870  0.822800  0.715100  1.0  0.0968
  H  H48  1  0.001370  0.425200  0.511700  1.0  0.0859
  C  C49  1  0.806000  0.181490  0.640900  1.0  0.7837
  C  C50  1  0.774800  0.087310  0.600510  1.0  -0.1127
  C  C51  1  0.658500  0.964170  0.601140  1.0  0.0751
  C  C52  1  0.692300  0.053010  0.643420  1.0  0.0371
  C  C53  1  0.826800  0.034350  0.520100  1.0  -0.0967
  C  C54  1  0.575100  0.932850  0.647080  1.0  -0.1341
  C  C55  1  0.637600  0.105110  0.727180  1.0  -0.11
  C  C56  1  0.527800  0.986100  0.727900  1.0  -0.1004
  C  C57  1  0.559000  0.072300  0.767600  1.0  -0.0901
  C  C58  1  0.796000  0.947870  0.479460  1.0  -0.0243
  C  C59  1  0.711100  0.911170  0.515850  1.0  -0.2082
  C  C60  1  0.671600  0.818380  0.461660  1.0  0.7834
  C  C61  1  0.139330  0.459410  0.818510  1.0  0.7821
  C  C62  1  0.108130  0.513200  0.912690  1.0  -0.1123
  C  C63  1  0.991830  0.636970  0.035830  1.0  0.0746
  C  C64  1  0.025630  0.590410  0.946990  1.0  0.0358
  C  C65  1  0.160130  0.485750  0.965650  1.0  -0.0953
  C  C66  1  0.908430  0.714230  0.067150  1.0  -0.1325
  C  C67  1  0.970930  0.622070  0.894890  1.0  -0.1107
  C  C68  1  0.861130  0.741800  0.013900  1.0  -0.0962
  C  C69  1  0.892330  0.695300  0.927700  1.0  -0.0893
  C  C70  1  0.129330  0.531590  0.052130  1.0  -0.0244
  C  C71  1  0.044430  0.604680  0.088830  1.0  -0.2089
  C  C72  1  0.004930  0.643280  0.181620  1.0  0.785
  C  C73  1  0.472670  0.359100  0.540590  1.0  0.7858
  C  C74  1  0.441470  0.399490  0.486800  1.0  -0.1122
  C  C75  1  0.325170  0.398860  0.363030  1.0  0.0745
  C  C76  1  0.358970  0.356580  0.409590  1.0  0.0354
  C  C77  1  0.493470  0.479900  0.514250  1.0  -0.0951
  C  C78  1  0.241770  0.352920  0.285770  1.0  -0.1314
  C  C79  1  0.304270  0.272820  0.377930  1.0  -0.1106
  C  C80  1  0.194470  0.272100  0.258200  1.0  -0.0987
  C  C81  1  0.225670  0.232400  0.304700  1.0  -0.0874
  C  C82  1  0.462670  0.520540  0.468410  1.0  -0.0233
  C  C83  1  0.377770  0.484150  0.395320  1.0  -0.2086
  C  C84  1  0.338270  0.538340  0.356720  1.0  0.7852
  C  C85  1  0.306000  0.818510  0.359100  1.0  0.7842
  C  C86  1  0.274800  0.912690  0.399490  1.0  -0.1126
  C  C87  1  0.158500  0.035830  0.398860  1.0  0.0752
  C  C88  1  0.192300  0.946990  0.356580  1.0  0.0365
  C  C89  1  0.326800  0.965650  0.479900  1.0  -0.0967
  C  C90  1  0.075100  0.067150  0.352920  1.0  -0.1323
  C  C91  1  0.137600  0.894890  0.272820  1.0  -0.1148
  C  C92  1  0.027800  0.013900  0.272100  1.0  -0.0984
  C  C93  1  0.059000  0.927700  0.232400  1.0  -0.0891
  C  C94  1  0.296000  0.052130  0.520540  1.0  -0.0254
  C  C95  1  0.211100  0.088830  0.484150  1.0  -0.2083
  C  C96  1  0.171600  0.181620  0.538340  1.0  0.7825
  C  C97  1  0.639330  0.540590  0.181490  1.0  0.7853
  C  C98  1  0.608130  0.486800  0.087310  1.0  -0.1118
  C  C99  1  0.491830  0.363030  0.964170  1.0  0.0744
  C  C100  1  0.525630  0.409590  0.053010  1.0  0.0362
  C  C101  1  0.660130  0.514250  0.034350  1.0  -0.0953
  C  C102  1  0.408430  0.285770  0.932850  1.0  -0.1321
  C  C103  1  0.470930  0.377930  0.105110  1.0  -0.1108
  C  C104  1  0.361130  0.258200  0.986100  1.0  -0.0972
  C  C105  1  0.392330  0.304700  0.072300  1.0  -0.0903
  C  C106  1  0.629330  0.468410  0.947870  1.0  -0.0226
  C  C107  1  0.544430  0.395320  0.911170  1.0  -0.2098
  C  C108  1  0.504930  0.356720  0.818380  1.0  0.7818
  C  C109  1  0.972670  0.640900  0.459410  1.0  0.7839
  C  C110  1  0.941470  0.600510  0.513200  1.0  -0.1125
  C  C111  1  0.825170  0.601140  0.636970  1.0  0.0745
  C  C112  1  0.858970  0.643420  0.590410  1.0  0.0359
  C  C113  1  0.993470  0.520100  0.485750  1.0  -0.0957
  C  C114  1  0.741770  0.647080  0.714230  1.0  -0.1316
  C  C115  1  0.804270  0.727180  0.622070  1.0  -0.1092
  C  C116  1  0.694470  0.727900  0.741800  1.0  -0.0998
  C  C117  1  0.725670  0.767600  0.695300  1.0  -0.0869
  C  C118  1  0.962670  0.479460  0.531590  1.0  -0.0236
  C  C119  1  0.877770  0.515850  0.604680  1.0  -0.2082
  C  C120  1  0.838270  0.461660  0.643280  1.0  0.7857
  O  O121  1  0.733400  0.219500  0.609970  1.0  -0.8868
  O  O122  1  0.897800  0.215870  0.700850  1.0  -0.7742
  O  O123  1  0.747500  0.776650  0.394290  1.0  -0.926
  O  O124  1  0.565600  0.786700  0.482500  1.0  -0.7376
  O  O125  1  0.066730  0.390470  0.780500  1.0  -0.884
  O  O126  1  0.231130  0.484980  0.784130  1.0  -0.7703
  O  O127  1  0.080830  0.617640  0.223350  1.0  -0.9252
  O  O128  1  0.898930  0.695800  0.213300  1.0  -0.7379
  O  O129  1  0.400070  0.390030  0.609530  1.0  -0.8882
  O  O130  1  0.564470  0.299150  0.515020  1.0  -0.7688
  O  O131  1  0.414170  0.605710  0.382360  1.0  -0.9224
  O  O132  1  0.232270  0.517500  0.304200  1.0  -0.7399
  O  O133  1  0.233400  0.780500  0.390030  1.0  -0.8861
  O  O134  1  0.397800  0.784130  0.299150  1.0  -0.7763
  O  O135  1  0.247500  0.223350  0.605710  1.0  -0.9254
  O  O136  1  0.065600  0.213300  0.517500  1.0  -0.7393
  O  O137  1  0.566730  0.609530  0.219500  1.0  -0.8839
  O  O138  1  0.731130  0.515020  0.215870  1.0  -0.7699
  O  O139  1  0.580830  0.382360  0.776650  1.0  -0.9253
  O  O140  1  0.398930  0.304200  0.786700  1.0  -0.7387
  O  O141  1  0.900070  0.609970  0.390470  1.0  -0.8884
  O  O142  1  0.064470  0.700850  0.484980  1.0  -0.7686
  O  O143  1  0.914170  0.394290  0.617640  1.0  -0.923
  O  O144  1  0.732270  0.482500  0.695800  1.0  -0.7393
