# generated using pymatgen
data_ZnH3C7NO4
_symmetry_space_group_name_H-M   'P 1'
_cell_length_a   14.62350000
_cell_length_b   12.28560000
_cell_length_c   14.13550000
_cell_angle_alpha   90.00000000
_cell_angle_beta   106.06800000
_cell_angle_gamma   90.00000000
_symmetry_Int_Tables_number   1
_chemical_formula_structural   ZnH3C7NO4
_chemical_formula_sum   'Zn8 H24 C56 N8 O32'
_cell_volume   2440.35149405
_cell_formula_units_Z   8
loop_
 _symmetry_equiv_pos_site_id
 _symmetry_equiv_pos_as_xyz
  1  'x, y, z'
loop_
 _atom_site_type_symbol
 _atom_site_label
 _atom_site_symmetry_multiplicity
 _atom_site_fract_x
 _atom_site_fract_y
 _atom_site_fract_z
 _atom_site_occupancy
 _atom_site_charge
  Zn  Zn1  1  0.341100  0.977500  0.646700  1.0  0.9852
  Zn  Zn2  1  0.422800  0.755900  0.799700  1.0  0.9954
  Zn  Zn3  1  0.158900  0.477500  0.853300  1.0  0.9864
  Zn  Zn4  1  0.077200  0.255900  0.700300  1.0  0.995
  Zn  Zn5  1  0.658900  0.022500  0.353300  1.0  0.9863
  Zn  Zn6  1  0.577200  0.244100  0.200300  1.0  0.9988
  Zn  Zn7  1  0.841100  0.522500  0.146700  1.0  0.9853
  Zn  Zn8  1  0.922800  0.744100  0.299700  1.0  0.999
  H  H9  1  0.257600  0.335400  0.483500  1.0  0.1162
  H  H10  1  0.360400  0.334100  0.385900  1.0  0.1158
  H  H11  1  0.428500  0.028900  0.467100  1.0  0.0857
  H  H12  1  0.621400  0.049700  0.982100  1.0  0.081
  H  H13  1  0.737200  0.957500  0.091600  1.0  0.1282
  H  H14  1  0.608600  0.680500  0.976500  1.0  0.1049
  H  H15  1  0.242400  0.835400  0.016500  1.0  0.1161
  H  H16  1  0.139600  0.834100  0.114100  1.0  0.1153
  H  H17  1  0.071500  0.528900  0.032900  1.0  0.0852
  H  H18  1  0.878600  0.549700  0.517900  1.0  0.0808
  H  H19  1  0.762800  0.457500  0.408400  1.0  0.1279
  H  H20  1  0.891400  0.180500  0.523500  1.0  0.1048
  H  H21  1  0.742400  0.664600  0.516500  1.0  0.1168
  H  H22  1  0.639600  0.665900  0.614100  1.0  0.1161
  H  H23  1  0.571500  0.971100  0.532900  1.0  0.0853
  H  H24  1  0.378600  0.950300  0.017900  1.0  0.0806
  H  H25  1  0.262800  0.042500  0.908400  1.0  0.1279
  H  H26  1  0.391400  0.319500  0.023500  1.0  0.1047
  H  H27  1  0.757600  0.164600  0.983500  1.0  0.1164
  H  H28  1  0.860400  0.165900  0.885900  1.0  0.1154
  H  H29  1  0.928500  0.471100  0.967100  1.0  0.0862
  H  H30  1  0.121400  0.450300  0.482100  1.0  0.0807
  H  H31  1  0.237200  0.542500  0.591600  1.0  0.1284
  H  H32  1  0.108600  0.819500  0.476500  1.0  0.1047
  C  C33  1  0.295400  0.187500  0.542200  1.0  0.1368
  C  C34  1  0.296400  0.275500  0.483200  1.0  -0.1064
  C  C35  1  0.356100  0.273300  0.423600  1.0  -0.0011
  C  C36  1  0.408900  0.183700  0.418900  1.0  -0.1682
  C  C37  1  0.398500  0.093600  0.475000  1.0  0.1577
  C  C38  1  0.477100  0.182000  0.358000  1.0  0.7536
  C  C39  1  0.233500  0.182100  0.610300  1.0  0.7484
  C  C40  1  0.551400  0.923400  0.912100  1.0  0.1194
  C  C41  1  0.620800  0.974000  0.980600  1.0  -0.0398
  C  C42  1  0.688800  0.920400  0.046500  1.0  -0.1475
  C  C43  1  0.685300  0.806800  0.045800  1.0  -0.1932
  C  C44  1  0.611700  0.756100  0.977500  1.0  0.1729
  C  C45  1  0.761900  0.743800  0.115200  1.0  0.7066
  C  C46  1  0.473600  0.986000  0.835900  1.0  0.696
  C  C47  1  0.204600  0.687500  0.957800  1.0  0.1366
  C  C48  1  0.203600  0.775500  0.016800  1.0  -0.106
  C  C49  1  0.143900  0.773300  0.076400  1.0  -0.0004
  C  C50  1  0.091100  0.683700  0.081100  1.0  -0.1688
  C  C51  1  0.101500  0.593600  0.025000  1.0  0.1574
  C  C52  1  0.022900  0.682000  0.142000  1.0  0.753
  C  C53  1  0.266500  0.682100  0.889700  1.0  0.7483
  C  C54  1  0.948600  0.423400  0.587900  1.0  0.1184
  C  C55  1  0.879200  0.474000  0.519400  1.0  -0.0394
  C  C56  1  0.811200  0.420400  0.453500  1.0  -0.1475
  C  C57  1  0.814700  0.306800  0.454200  1.0  -0.1956
  C  C58  1  0.888300  0.256100  0.522500  1.0  0.1737
  C  C59  1  0.738100  0.243800  0.384800  1.0  0.7076
  C  C60  1  0.026400  0.486000  0.664100  1.0  0.6961
  C  C61  1  0.704600  0.812500  0.457800  1.0  0.1362
  C  C62  1  0.703600  0.724500  0.516800  1.0  -0.1052
  C  C63  1  0.643900  0.726700  0.576400  1.0  -0.0021
  C  C64  1  0.591100  0.816300  0.581100  1.0  -0.1693
  C  C65  1  0.601500  0.906400  0.525000  1.0  0.1575
  C  C66  1  0.522900  0.818000  0.642000  1.0  0.7533
  C  C67  1  0.766500  0.817900  0.389700  1.0  0.7466
  C  C68  1  0.448600  0.076600  0.087900  1.0  0.1183
  C  C69  1  0.379200  0.026000  0.019400  1.0  -0.0409
  C  C70  1  0.311200  0.079600  0.953500  1.0  -0.1475
  C  C71  1  0.314700  0.193200  0.954200  1.0  -0.1952
  C  C72  1  0.388300  0.243900  0.022500  1.0  0.1736
  C  C73  1  0.238100  0.256200  0.884800  1.0  0.7081
  C  C74  1  0.526400  0.014000  0.164100  1.0  0.6966
  C  C75  1  0.795400  0.312500  0.042200  1.0  0.1368
  C  C76  1  0.796400  0.224500  0.983200  1.0  -0.1057
  C  C77  1  0.856100  0.226700  0.923600  1.0  -0.0017
  C  C78  1  0.908900  0.316300  0.918900  1.0  -0.1691
  C  C79  1  0.898500  0.406400  0.975000  1.0  0.1581
  C  C80  1  0.977100  0.318000  0.858000  1.0  0.7536
  C  C81  1  0.733500  0.317900  0.110300  1.0  0.7498
  C  C82  1  0.051400  0.576600  0.412100  1.0  0.1192
  C  C83  1  0.120800  0.526000  0.480600  1.0  -0.0402
  C  C84  1  0.188800  0.579600  0.546500  1.0  -0.148
  C  C85  1  0.185300  0.693200  0.545800  1.0  -0.193
  C  C86  1  0.111700  0.743900  0.477500  1.0  0.1735
  C  C87  1  0.261900  0.756200  0.615200  1.0  0.707
  C  C88  1  0.973600  0.514000  0.335900  1.0  0.6943
  N  N89  1  0.347000  0.096700  0.539800  1.0  -0.3089
  N  N90  1  0.542900  0.814300  0.911000  1.0  -0.3047
  N  N91  1  0.153000  0.596700  0.960200  1.0  -0.3091
  N  N92  1  0.957100  0.314300  0.589000  1.0  -0.3042
  N  N93  1  0.653000  0.903300  0.460200  1.0  -0.3099
  N  N94  1  0.457100  0.185700  0.089000  1.0  -0.3054
  N  N95  1  0.847000  0.403300  0.039800  1.0  -0.3097
  N  N96  1  0.042900  0.685700  0.411000  1.0  -0.3033
  O  O97  1  0.246500  0.098100  0.664700  1.0  -0.5921
  O  O98  1  0.172800  0.249600  0.611100  1.0  -0.5766
  O  O99  1  0.472800  0.246900  0.290900  1.0  -0.5747
  O  O100  1  0.538700  0.109700  0.385700  1.0  -0.6785
  O  O101  1  0.407900  0.925300  0.786200  1.0  -0.6845
  O  O102  1  0.477300  0.086500  0.823500  1.0  -0.5159
  O  O103  1  0.829400  0.790500  0.175700  1.0  -0.6091
  O  O104  1  0.749100  0.638900  0.109700  1.0  -0.604
  O  O105  1  0.253500  0.598100  0.835300  1.0  -0.5918
  O  O106  1  0.327200  0.749600  0.888900  1.0  -0.5765
  O  O107  1  0.027200  0.746900  0.209100  1.0  -0.5742
  O  O108  1  0.961300  0.609700  0.114300  1.0  -0.6788
  O  O109  1  0.092100  0.425300  0.713800  1.0  -0.6835
  O  O110  1  0.022700  0.586500  0.676500  1.0  -0.5164
  O  O111  1  0.670600  0.290500  0.324300  1.0  -0.6084
  O  O112  1  0.750900  0.138900  0.390300  1.0  -0.6045
  O  O113  1  0.753500  0.901900  0.335300  1.0  -0.5924
  O  O114  1  0.827200  0.750400  0.388900  1.0  -0.5766
  O  O115  1  0.527200  0.753100  0.709100  1.0  -0.5748
  O  O116  1  0.461300  0.890300  0.614300  1.0  -0.6787
  O  O117  1  0.592100  0.074700  0.213800  1.0  -0.6833
  O  O118  1  0.522700  0.913500  0.176500  1.0  -0.5135
  O  O119  1  0.170600  0.209500  0.824300  1.0  -0.6077
  O  O120  1  0.250900  0.361100  0.890300  1.0  -0.6022
  O  O121  1  0.746500  0.401900  0.164700  1.0  -0.5941
  O  O122  1  0.672800  0.250400  0.111100  1.0  -0.5766
  O  O123  1  0.972800  0.253100  0.790900  1.0  -0.5756
  O  O124  1  0.038700  0.390300  0.885700  1.0  -0.679
  O  O125  1  0.907900  0.574700  0.286200  1.0  -0.6843
  O  O126  1  0.977300  0.413500  0.323500  1.0  -0.5147
  O  O127  1  0.329400  0.709500  0.675700  1.0  -0.6089
  O  O128  1  0.249100  0.861100  0.609700  1.0  -0.6025
