# generated using pymatgen
data_ZnH3C7NO4
_symmetry_space_group_name_H-M   'P 1'
_cell_length_a   12.18000000
_cell_length_b   14.21070000
_cell_length_c   14.28340000
_cell_angle_alpha   105.09300000
_cell_angle_beta   90.00000000
_cell_angle_gamma   90.00000000
_symmetry_Int_Tables_number   1
_chemical_formula_structural   ZnH3C7NO4
_chemical_formula_sum   'Zn8 H24 C56 N8 O32'
_cell_volume   2386.97921871
_cell_formula_units_Z   8
loop_
 _symmetry_equiv_pos_site_id
 _symmetry_equiv_pos_as_xyz
  1  'x, y, z'
loop_
 _atom_site_type_symbol
 _atom_site_label
 _atom_site_symmetry_multiplicity
 _atom_site_fract_x
 _atom_site_fract_y
 _atom_site_fract_z
 _atom_site_occupancy
 _atom_site_charge
  Zn  Zn1  1  0.515500  0.845890  0.157910  1.0  0.9308
  Zn  Zn2  1  0.015500  0.654110  0.342090  1.0  0.9309
  Zn  Zn3  1  0.758100  0.438010  0.799090  1.0  1.0148
  Zn  Zn4  1  0.741900  0.938010  0.299090  1.0  1.0174
  Zn  Zn5  1  0.258100  0.061990  0.700910  1.0  1.0147
  Zn  Zn6  1  0.241900  0.561990  0.200910  1.0  1.0173
  Zn  Zn7  1  0.984500  0.345890  0.657910  1.0  0.9301
  Zn  Zn8  1  0.484500  0.154110  0.842090  1.0  0.9303
  H  H9  1  0.948400  0.744700  0.107400  1.0  0.1293
  H  H10  1  0.545800  0.865800  0.503400  1.0  0.0751
  H  H11  1  0.673900  0.619800  0.978200  1.0  0.1065
  H  H12  1  0.826100  0.119800  0.478200  1.0  0.105
  H  H13  1  0.187000  0.827000  0.867400  1.0  0.107
  H  H14  1  0.448400  0.755300  0.392600  1.0  0.1293
  H  H15  1  0.315900  0.220600  0.466600  1.0  0.1167
  H  H16  1  0.936400  0.534800  0.478800  1.0  0.1124
  H  H17  1  0.051600  0.255300  0.892600  1.0  0.1294
  H  H18  1  0.684100  0.779400  0.533400  1.0  0.1162
  H  H19  1  0.551600  0.244700  0.607400  1.0  0.1296
  H  H20  1  0.184100  0.720600  0.966600  1.0  0.1165
  H  H21  1  0.815900  0.279400  0.033400  1.0  0.1162
  H  H22  1  0.813000  0.173000  0.132600  1.0  0.1063
  H  H23  1  0.045800  0.634200  0.996600  1.0  0.0747
  H  H24  1  0.063600  0.465200  0.521200  1.0  0.1126
  H  H25  1  0.313000  0.327000  0.367400  1.0  0.1071
  H  H26  1  0.954200  0.365800  0.003400  1.0  0.0759
  H  H27  1  0.454200  0.134200  0.496600  1.0  0.0756
  H  H28  1  0.436400  0.965200  0.021200  1.0  0.1124
  H  H29  1  0.173900  0.880200  0.521800  1.0  0.1064
  H  H30  1  0.687000  0.673000  0.632600  1.0  0.1066
  H  H31  1  0.563600  0.034800  0.978800  1.0  0.1122
  H  H32  1  0.326100  0.380200  0.021800  1.0  0.1054
  C  C33  1  0.469600  0.866900  0.507500  1.0  -0.0926
  C  C34  1  0.587200  0.198300  0.558800  1.0  -0.141
  C  C35  1  0.823500  0.527300  0.633400  1.0  0.7538
  C  C36  1  0.750000  0.123900  0.481000  1.0  0.1682
  C  C37  1  0.030400  0.366900  0.007500  1.0  -0.0903
  C  C38  1  0.077800  0.434100  0.079700  1.0  0.1176
  C  C39  1  0.750000  0.623900  0.981000  1.0  0.1665
  C  C40  1  0.685100  0.094300  0.069900  1.0  -0.1436
  C  C41  1  0.764700  0.229200  0.023500  1.0  -0.1117
  C  C42  1  0.614000  0.085700  0.991300  1.0  0.2085
  C  C43  1  0.422200  0.934100  0.579700  1.0  0.1168
  C  C44  1  0.735300  0.729200  0.523500  1.0  -0.111
  C  C45  1  0.738300  0.666100  0.583000  1.0  -0.0058
  C  C46  1  0.323500  0.972700  0.866600  1.0  0.7556
  C  C47  1  0.176500  0.472700  0.366600  1.0  0.7531
  C  C48  1  0.701000  0.194900  0.553200  1.0  -0.196
  C  C49  1  0.250000  0.376100  0.019000  1.0  0.1677
  C  C50  1  0.233500  0.731800  0.375700  1.0  0.718
  C  C51  1  0.314900  0.905700  0.930100  1.0  -0.1442
  C  C52  1  0.238300  0.833900  0.917000  1.0  -0.0043
  C  C53  1  0.412800  0.801700  0.441200  1.0  -0.141
  C  C54  1  0.513300  0.991000  0.343100  1.0  0.6836
  C  C55  1  0.266500  0.231800  0.875700  1.0  0.7176
  C  C56  1  0.766500  0.268200  0.624300  1.0  0.7183
  C  C57  1  0.679600  0.279600  0.883100  1.0  0.7136
  C  C58  1  0.261700  0.333900  0.417000  1.0  -0.0039
  C  C59  1  0.689900  0.214900  0.949800  1.0  0.1372
  C  C60  1  0.201000  0.305100  0.946800  1.0  -0.1959
  C  C61  1  0.577800  0.065900  0.420300  1.0  0.1176
  C  C62  1  0.310100  0.785100  0.050200  1.0  0.1429
  C  C63  1  0.986700  0.491000  0.843100  1.0  0.6727
  C  C64  1  0.814900  0.594300  0.569900  1.0  -0.1444
  C  C65  1  0.179600  0.220400  0.616900  1.0  0.7157
  C  C66  1  0.733500  0.768200  0.124300  1.0  0.7181
  C  C67  1  0.810100  0.714900  0.449800  1.0  0.1378
  C  C68  1  0.799000  0.694900  0.053200  1.0  -0.1956
  C  C69  1  0.912800  0.698300  0.058800  1.0  -0.1413
  C  C70  1  0.299000  0.805100  0.446800  1.0  -0.197
  C  C71  1  0.886000  0.585700  0.491300  1.0  0.2083
  C  C72  1  0.087200  0.301700  0.941200  1.0  -0.1439
  C  C73  1  0.969600  0.633100  0.992500  1.0  -0.0917
  C  C74  1  0.235300  0.770800  0.976500  1.0  -0.1092
  C  C75  1  0.820400  0.779600  0.383100  1.0  0.7129
  C  C76  1  0.486700  0.009000  0.656900  1.0  0.673
  C  C77  1  0.013300  0.509000  0.156900  1.0  0.6826
  C  C78  1  0.114000  0.414300  0.508700  1.0  0.2077
  C  C79  1  0.530400  0.133100  0.492500  1.0  -0.0914
  C  C80  1  0.185100  0.405700  0.430100  1.0  -0.143
  C  C81  1  0.320400  0.720400  0.116900  1.0  0.715
  C  C82  1  0.761700  0.166100  0.083000  1.0  -0.0043
  C  C83  1  0.386000  0.914300  0.008700  1.0  0.2089
  C  C84  1  0.189900  0.285100  0.550200  1.0  0.1422
  C  C85  1  0.264700  0.270800  0.476500  1.0  -0.1098
  C  C86  1  0.922200  0.565900  0.920300  1.0  0.117
  C  C87  1  0.250000  0.876100  0.519000  1.0  0.166
  C  C88  1  0.676500  0.027300  0.133400  1.0  0.7576
  N  N89  1  0.688300  0.058700  0.412900  1.0  -0.2918
  N  N90  1  0.188300  0.441300  0.087100  1.0  -0.299
  N  N91  1  0.886800  0.643100  0.434800  1.0  -0.3058
  N  N92  1  0.386800  0.856900  0.065200  1.0  -0.3056
  N  N93  1  0.113200  0.356900  0.565200  1.0  -0.3039
  N  N94  1  0.613200  0.143100  0.934800  1.0  -0.3065
  N  N95  1  0.311700  0.941300  0.587100  1.0  -0.2998
  N  N96  1  0.811700  0.558700  0.912900  1.0  -0.2989
  O  O97  1  0.253600  0.656500  0.116300  1.0  -0.5648
  O  O98  1  0.602500  0.963800  0.106200  1.0  -0.655
  O  O99  1  0.096300  0.236900  0.672200  1.0  -0.5804
  O  O100  1  0.266900  0.965100  0.794300  1.0  -0.6007
  O  O101  1  0.277700  0.664700  0.313800  1.0  -0.609
  O  O102  1  0.222300  0.164700  0.813800  1.0  -0.6097
  O  O103  1  0.897500  0.463800  0.606200  1.0  -0.654
  O  O104  1  0.746400  0.343500  0.883700  1.0  -0.564
  O  O105  1  0.733100  0.034900  0.205700  1.0  -0.6018
  O  O106  1  0.414800  0.002000  0.323000  1.0  -0.5116
  O  O107  1  0.403700  0.736900  0.172200  1.0  -0.5792
  O  O108  1  0.397500  0.036200  0.893800  1.0  -0.6538
  O  O109  1  0.070500  0.581700  0.199400  1.0  -0.6709
  O  O110  1  0.766900  0.534900  0.705700  1.0  -0.6
  O  O111  1  0.129400  0.745600  0.381600  1.0  -0.6072
  O  O112  1  0.585200  0.998000  0.677000  1.0  -0.5148
  O  O113  1  0.903700  0.763100  0.327800  1.0  -0.5792
  O  O114  1  0.429500  0.081700  0.699400  1.0  -0.6704
  O  O115  1  0.914800  0.498000  0.177000  1.0  -0.5095
  O  O116  1  0.722300  0.335300  0.686200  1.0  -0.6113
  O  O117  1  0.777700  0.835300  0.186200  1.0  -0.6114
  O  O118  1  0.929500  0.418300  0.800600  1.0  -0.6687
  O  O119  1  0.629400  0.754400  0.118400  1.0  -0.6064
  O  O120  1  0.085200  0.502000  0.823000  1.0  -0.5145
  O  O121  1  0.370600  0.245600  0.881600  1.0  -0.6074
  O  O122  1  0.102500  0.536200  0.393800  1.0  -0.656
  O  O123  1  0.570500  0.918300  0.300600  1.0  -0.6693
  O  O124  1  0.596300  0.263100  0.827800  1.0  -0.5799
  O  O125  1  0.753600  0.843500  0.383700  1.0  -0.5645
  O  O126  1  0.870600  0.254400  0.618400  1.0  -0.6063
  O  O127  1  0.246400  0.156500  0.616300  1.0  -0.5639
  O  O128  1  0.233100  0.465100  0.294300  1.0  -0.6028
