# generated using pymatgen
data_ZnH3C7NO4
_symmetry_space_group_name_H-M   'P 1'
_cell_length_a   11.56410000
_cell_length_b   12.09130000
_cell_length_c   16.42020000
_cell_angle_alpha   90.00000000
_cell_angle_beta   106.26100000
_cell_angle_gamma   90.00000000
_symmetry_Int_Tables_number   1
_chemical_formula_structural   ZnH3C7NO4
_chemical_formula_sum   'Zn8 H24 C56 N8 O32'
_cell_volume   2204.10739962
_cell_formula_units_Z   8
loop_
 _symmetry_equiv_pos_site_id
 _symmetry_equiv_pos_as_xyz
  1  'x, y, z'
loop_
 _atom_site_type_symbol
 _atom_site_label
 _atom_site_symmetry_multiplicity
 _atom_site_fract_x
 _atom_site_fract_y
 _atom_site_fract_z
 _atom_site_occupancy
 _atom_site_charge
  Zn  Zn1  1  0.588300  0.498500  0.806300  1.0  0.96
  Zn  Zn2  1  0.252300  0.235700  0.400310  1.0  0.9891
  Zn  Zn3  1  0.752300  0.264300  0.900310  1.0  0.9854
  Zn  Zn4  1  0.911700  0.998500  0.693700  1.0  0.9602
  Zn  Zn5  1  0.747700  0.764300  0.599690  1.0  0.9855
  Zn  Zn6  1  0.411700  0.501500  0.193700  1.0  0.9603
  Zn  Zn7  1  0.247700  0.735700  0.099690  1.0  0.9892
  Zn  Zn8  1  0.088300  0.001500  0.306300  1.0  0.9599
  H  H9  1  0.474400  0.620300  0.937200  1.0  0.0793
  H  H10  1  0.441900  0.093800  0.219300  1.0  0.1137
  H  H11  1  0.549600  0.041100  0.385500  1.0  0.1104
  H  H12  1  0.419300  0.332300  0.573600  1.0  0.0855
  H  H13  1  0.080700  0.832300  0.926400  1.0  0.0851
  H  H14  1  0.523900  0.056400  0.108400  1.0  0.1153
  H  H15  1  0.974400  0.879700  0.437200  1.0  0.0792
  H  H16  1  0.476100  0.943600  0.891600  1.0  0.1153
  H  H17  1  0.946900  0.576000  0.777100  1.0  0.113
  H  H18  1  0.446900  0.924000  0.277100  1.0  0.1132
  H  H19  1  0.023900  0.443600  0.608400  1.0  0.1155
  H  H20  1  0.053100  0.424000  0.222900  1.0  0.1137
  H  H21  1  0.950400  0.541100  0.114500  1.0  0.1103
  H  H22  1  0.025600  0.120300  0.562800  1.0  0.08
  H  H23  1  0.580700  0.667700  0.426400  1.0  0.0857
  H  H24  1  0.941900  0.406200  0.719300  1.0  0.1146
  H  H25  1  0.049600  0.458900  0.885500  1.0  0.1107
  H  H26  1  0.919300  0.167700  0.073600  1.0  0.0861
  H  H27  1  0.058100  0.593800  0.280700  1.0  0.1147
  H  H28  1  0.976100  0.556400  0.391600  1.0  0.1151
  H  H29  1  0.553100  0.076000  0.722900  1.0  0.1138
  H  H30  1  0.558100  0.906200  0.780700  1.0  0.1149
  H  H31  1  0.450400  0.958900  0.614500  1.0  0.1104
  H  H32  1  0.525600  0.379700  0.062800  1.0  0.08
  C  C33  1  0.542700  0.849200  0.814300  1.0  -0.0852
  C  C34  1  0.415200  0.804000  0.999700  1.0  0.7427
  C  C35  1  0.994000  0.821200  0.406700  1.0  0.1993
  C  C36  1  0.506000  0.321200  0.093300  1.0  0.2004
  C  C37  1  0.995600  0.604800  0.827600  1.0  0.0109
  C  C38  1  0.377000  0.079600  0.533100  1.0  0.1094
  C  C39  1  0.494000  0.678800  0.906700  1.0  0.1986
  C  C40  1  0.006000  0.178800  0.593300  1.0  0.1988
  C  C41  1  0.004400  0.395200  0.172400  1.0  0.0137
  C  C42  1  0.968300  0.714300  0.427100  1.0  -0.1877
  C  C43  1  0.507100  0.128900  0.120300  1.0  0.0049
  C  C44  1  0.957300  0.349200  0.685700  1.0  -0.0856
  C  C45  1  0.509000  0.782300  0.338900  1.0  -0.2028
  C  C46  1  0.123000  0.579600  0.966900  1.0  0.11
  C  C47  1  0.305600  0.009700  0.459900  1.0  0.6471
  C  C48  1  0.924900  0.243600  0.082700  1.0  0.1924
  C  C49  1  0.457300  0.150800  0.185700  1.0  -0.0853
  C  C50  1  0.492900  0.871100  0.879700  1.0  0.0048
  C  C51  1  0.552600  0.298400  0.729200  1.0  0.6496
  C  C52  1  0.575100  0.743600  0.417300  1.0  0.1925
  C  C53  1  0.531700  0.214300  0.072900  1.0  -0.1875
  C  C54  1  0.947400  0.798400  0.770800  1.0  0.6501
  C  C55  1  0.069200  0.758500  0.299900  1.0  0.1196
  C  C56  1  0.031700  0.285700  0.572900  1.0  -0.1871
  C  C57  1  0.468300  0.785700  0.927100  1.0  -0.1877
  C  C58  1  0.504400  0.104800  0.672400  1.0  0.0136
  C  C59  1  0.495600  0.895200  0.327600  1.0  0.0107
  C  C60  1  0.378600  0.291100  0.270500  1.0  0.7049
  C  C61  1  0.694400  0.990300  0.540100  1.0  0.6471
  C  C62  1  0.447400  0.701600  0.270800  1.0  0.6499
  C  C63  1  0.945000  0.464800  0.107500  1.0  -0.0679
  C  C64  1  0.075100  0.756400  0.917300  1.0  0.194
  C  C65  1  0.084800  0.304000  0.500300  1.0  0.7438
  C  C66  1  0.555000  0.964800  0.392500  1.0  -0.0679
  C  C67  1  0.491000  0.217700  0.661100  1.0  -0.2022
  C  C68  1  0.007100  0.371100  0.620300  1.0  0.0052
  C  C69  1  0.009000  0.717700  0.838900  1.0  -0.2004
  C  C70  1  0.445000  0.035200  0.607500  1.0  -0.0651
  C  C71  1  0.992900  0.628900  0.379700  1.0  0.0048
  C  C72  1  0.623000  0.920400  0.466900  1.0  0.1095
  C  C73  1  0.621400  0.708900  0.729500  1.0  0.703
  C  C74  1  0.430800  0.258500  0.200100  1.0  0.1209
  C  C75  1  0.805600  0.490300  0.959900  1.0  0.6473
  C  C76  1  0.121400  0.791100  0.229500  1.0  0.7064
  C  C77  1  0.991000  0.282300  0.161100  1.0  -0.2036
  C  C78  1  0.877000  0.420400  0.033100  1.0  0.1089
  C  C79  1  0.878600  0.208900  0.770500  1.0  0.7057
  C  C80  1  0.042700  0.650800  0.314300  1.0  -0.085
  C  C81  1  0.194400  0.509700  0.040100  1.0  0.6483
  C  C82  1  0.424900  0.256400  0.582700  1.0  0.1944
  C  C83  1  0.569200  0.741500  0.799900  1.0  0.1203
  C  C84  1  0.052600  0.201600  0.229200  1.0  0.6501
  C  C85  1  0.915200  0.696000  0.499700  1.0  0.7431
  C  C86  1  0.584800  0.196000  0.000300  1.0  0.7444
  C  C87  1  0.055000  0.535200  0.892500  1.0  -0.0662
  C  C88  1  0.930800  0.241500  0.700100  1.0  0.1219
  N  N89  1  0.455000  0.343200  0.154800  1.0  -0.3075
  N  N90  1  0.955000  0.156800  0.654800  1.0  -0.3062
  N  N91  1  0.131800  0.688700  0.980700  1.0  -0.3097
  N  N92  1  0.631800  0.811300  0.480700  1.0  -0.3102
  N  N93  1  0.868200  0.311300  0.019300  1.0  -0.3118
  N  N94  1  0.545000  0.656800  0.845200  1.0  -0.3073
  N  N95  1  0.045000  0.843200  0.345200  1.0  -0.3053
  N  N96  1  0.368200  0.188700  0.519300  1.0  -0.3137
  O  O97  1  0.384900  0.737600  0.201700  1.0  -0.6497
  O  O98  1  0.034700  0.101600  0.208700  1.0  -0.5975
  O  O99  1  0.602700  0.282200  0.963700  1.0  -0.619
  O  O100  1  0.357300  0.218300  0.317300  1.0  -0.5764
  O  O101  1  0.111500  0.399700  0.484500  1.0  -0.5381
  O  O102  1  0.534700  0.398400  0.708700  1.0  -0.5966
  O  O103  1  0.310200  0.908300  0.466800  1.0  -0.5447
  O  O104  1  0.115100  0.237600  0.298300  1.0  -0.6492
  O  O105  1  0.746800  0.437400  0.894900  1.0  -0.6637
  O  O106  1  0.615100  0.262400  0.798300  1.0  -0.6494
  O  O107  1  0.364700  0.393900  0.279200  1.0  -0.6028
  O  O108  1  0.642700  0.781700  0.682700  1.0  -0.5754
  O  O109  1  0.857300  0.281700  0.817300  1.0  -0.5762
  O  O110  1  0.397300  0.717800  0.036300  1.0  -0.6192
  O  O111  1  0.135300  0.893900  0.220800  1.0  -0.6049
  O  O112  1  0.142700  0.718300  0.182700  1.0  -0.5765
  O  O113  1  0.253200  0.562600  0.105100  1.0  -0.6643
  O  O114  1  0.246800  0.062600  0.394900  1.0  -0.6639
  O  O115  1  0.388500  0.899700  0.015500  1.0  -0.539
  O  O116  1  0.884900  0.762400  0.701700  1.0  -0.6499
  O  O117  1  0.465300  0.601600  0.291300  1.0  -0.5969
  O  O118  1  0.864700  0.106100  0.779200  1.0  -0.6041
  O  O119  1  0.897300  0.782200  0.536300  1.0  -0.6188
  O  O120  1  0.965300  0.898400  0.791300  1.0  -0.5954
  O  O121  1  0.689800  0.091700  0.533200  1.0  -0.5438
  O  O122  1  0.611500  0.100300  0.984500  1.0  -0.5383
  O  O123  1  0.189800  0.408300  0.033200  1.0  -0.5436
  O  O124  1  0.635300  0.606100  0.720800  1.0  -0.6041
  O  O125  1  0.102700  0.217800  0.463700  1.0  -0.62
  O  O126  1  0.753200  0.937400  0.605100  1.0  -0.6637
  O  O127  1  0.888500  0.600300  0.515500  1.0  -0.5384
  O  O128  1  0.810200  0.591700  0.966800  1.0  -0.5456
