# generated using pymatgen
data_MnCu8H20C52(N2O9)2
_symmetry_space_group_name_H-M   'P 1'
_cell_length_a   22.50530000
_cell_length_b   22.50530000
_cell_length_c   36.44400000
_cell_angle_alpha   90.00000000
_cell_angle_beta   90.00000000
_cell_angle_gamma   120.00000000
_symmetry_Int_Tables_number   1
_chemical_formula_structural   MnCu8H20C52(N2O9)2
_chemical_formula_sum   'Mn6 Cu48 H120 C312 N24 O108'
_cell_volume   15985.50213168
_cell_formula_units_Z   6
loop_
 _symmetry_equiv_pos_site_id
 _symmetry_equiv_pos_as_xyz
  1  'x, y, z'
loop_
 _atom_site_type_symbol
 _atom_site_label
 _atom_site_symmetry_multiplicity
 _atom_site_fract_x
 _atom_site_fract_y
 _atom_site_fract_z
 _atom_site_occupancy
 _atom_site_charge
  Mn  Mn1  1  0.500000  0.000000  0.000000  1.0  0.9944
  Mn  Mn2  1  0.000000  0.500000  0.000000  1.0  0.9944
  Mn  Mn3  1  0.500000  0.500000  0.000000  1.0  0.9944
  Mn  Mn4  1  0.500000  0.000000  0.500000  1.0  0.9944
  Mn  Mn5  1  0.000000  0.500000  0.500000  1.0  0.9944
  Mn  Mn6  1  0.500000  0.500000  0.500000  1.0  0.9944
  Cu  Cu7  1  0.047550  0.683250  0.013450  1.0  0.5324
  Cu  Cu8  1  0.316750  0.364300  0.013450  1.0  0.5307
  Cu  Cu9  1  0.635700  0.952450  0.013450  1.0  0.535
  Cu  Cu10  1  0.952450  0.316750  0.513450  1.0  0.5323
  Cu  Cu11  1  0.683250  0.635700  0.513450  1.0  0.534
  Cu  Cu12  1  0.364300  0.047550  0.513450  1.0  0.534
  Cu  Cu13  1  0.683250  0.047550  0.486550  1.0  0.5343
  Cu  Cu14  1  0.364300  0.316750  0.486550  1.0  0.5346
  Cu  Cu15  1  0.952450  0.635700  0.486550  1.0  0.5332
  Cu  Cu16  1  0.316750  0.952450  0.986550  1.0  0.5357
  Cu  Cu17  1  0.635700  0.683250  0.986550  1.0  0.5323
  Cu  Cu18  1  0.047550  0.364300  0.986550  1.0  0.5316
  Cu  Cu19  1  0.952450  0.316750  0.986550  1.0  0.5329
  Cu  Cu20  1  0.683250  0.635700  0.986550  1.0  0.5338
  Cu  Cu21  1  0.364300  0.047550  0.986550  1.0  0.5347
  Cu  Cu22  1  0.047550  0.683250  0.486550  1.0  0.533
  Cu  Cu23  1  0.316750  0.364300  0.486550  1.0  0.532
  Cu  Cu24  1  0.635700  0.952450  0.486550  1.0  0.5351
  Cu  Cu25  1  0.316750  0.952450  0.513450  1.0  0.5347
  Cu  Cu26  1  0.635700  0.683250  0.513450  1.0  0.5321
  Cu  Cu27  1  0.047550  0.364300  0.513450  1.0  0.5313
  Cu  Cu28  1  0.683250  0.047550  0.013450  1.0  0.5341
  Cu  Cu29  1  0.364300  0.316750  0.013450  1.0  0.5334
  Cu  Cu30  1  0.952450  0.635700  0.013450  1.0  0.5325
  Cu  Cu31  1  0.000000  0.579610  0.084510  1.0  0.7717
  Cu  Cu32  1  0.420390  0.420390  0.084510  1.0  0.7698
  Cu  Cu33  1  0.579610  0.000000  0.084510  1.0  0.7731
  Cu  Cu34  1  0.000000  0.420390  0.584510  1.0  0.7731
  Cu  Cu35  1  0.579610  0.579610  0.584510  1.0  0.7755
  Cu  Cu36  1  0.420390  0.000000  0.584510  1.0  0.7703
  Cu  Cu37  1  0.579610  0.000000  0.415490  1.0  0.7761
  Cu  Cu38  1  0.420390  0.420390  0.415490  1.0  0.7743
  Cu  Cu39  1  0.000000  0.579610  0.415490  1.0  0.773
  Cu  Cu40  1  0.420390  0.000000  0.915490  1.0  0.7731
  Cu  Cu41  1  0.579610  0.579610  0.915490  1.0  0.7763
  Cu  Cu42  1  0.000000  0.420390  0.915490  1.0  0.7773
  Cu  Cu43  1  0.244190  0.729680  0.250000  1.0  0.521
  Cu  Cu44  1  0.270320  0.514510  0.250000  1.0  0.5211
  Cu  Cu45  1  0.485490  0.755810  0.250000  1.0  0.5207
  Cu  Cu46  1  0.755810  0.270320  0.750000  1.0  0.5205
  Cu  Cu47  1  0.729680  0.485490  0.750000  1.0  0.5218
  Cu  Cu48  1  0.514510  0.244190  0.750000  1.0  0.5224
  Cu  Cu49  1  0.729680  0.244190  0.250000  1.0  0.5217
  Cu  Cu50  1  0.514510  0.270320  0.250000  1.0  0.5204
  Cu  Cu51  1  0.755810  0.485490  0.250000  1.0  0.5204
  Cu  Cu52  1  0.270320  0.755810  0.750000  1.0  0.5209
  Cu  Cu53  1  0.485490  0.729680  0.750000  1.0  0.521
  Cu  Cu54  1  0.244190  0.514510  0.750000  1.0  0.5225
  H  H55  1  0.346200  0.937100  0.112800  1.0  0.1236
  H  H56  1  0.345700  0.746200  0.028800  1.0  0.125
  H  H57  1  0.380100  0.839200  0.126100  1.0  0.1095
  H  H58  1  0.186600  0.685400  0.136200  1.0  0.1077
  H  H59  1  0.252500  0.782300  0.040200  1.0  0.1145
  H  H60  1  0.062900  0.409100  0.112800  1.0  0.1234
  H  H61  1  0.253800  0.599500  0.028800  1.0  0.1243
  H  H62  1  0.160800  0.540900  0.126100  1.0  0.1087
  H  H63  1  0.314600  0.501200  0.136200  1.0  0.1073
  H  H64  1  0.217700  0.470200  0.040200  1.0  0.1133
  H  H65  1  0.590900  0.653800  0.112800  1.0  0.1217
  H  H66  1  0.400500  0.654300  0.028800  1.0  0.1245
  H  H67  1  0.459100  0.619900  0.126100  1.0  0.1104
  H  H68  1  0.498800  0.813400  0.136200  1.0  0.1084
  H  H69  1  0.529800  0.747500  0.040200  1.0  0.1139
  H  H70  1  0.653800  0.062900  0.612800  1.0  0.1224
  H  H71  1  0.654300  0.253800  0.528800  1.0  0.1245
  H  H72  1  0.619900  0.160800  0.626100  1.0  0.1096
  H  H73  1  0.813400  0.314600  0.636200  1.0  0.1069
  H  H74  1  0.747500  0.217700  0.540200  1.0  0.1136
  H  H75  1  0.937100  0.590900  0.612800  1.0  0.1239
  H  H76  1  0.746200  0.400500  0.528800  1.0  0.1247
  H  H77  1  0.839200  0.459100  0.626100  1.0  0.1091
  H  H78  1  0.685400  0.498800  0.636200  1.0  0.1066
  H  H79  1  0.782300  0.529800  0.540200  1.0  0.1137
  H  H80  1  0.409100  0.346200  0.612800  1.0  0.1223
  H  H81  1  0.599500  0.345700  0.528800  1.0  0.1249
  H  H82  1  0.540900  0.380100  0.626100  1.0  0.1102
  H  H83  1  0.501200  0.186600  0.636200  1.0  0.1082
  H  H84  1  0.470200  0.252500  0.540200  1.0  0.1143
  H  H85  1  0.937100  0.346200  0.387200  1.0  0.1215
  H  H86  1  0.746200  0.345700  0.471200  1.0  0.1245
  H  H87  1  0.839200  0.380100  0.373900  1.0  0.1109
  H  H88  1  0.685400  0.186600  0.363800  1.0  0.1092
  H  H89  1  0.782300  0.252500  0.459800  1.0  0.1129
  H  H90  1  0.409100  0.062900  0.387200  1.0  0.1225
  H  H91  1  0.599500  0.253800  0.471200  1.0  0.1251
  H  H92  1  0.540900  0.160800  0.373900  1.0  0.1098
  H  H93  1  0.501200  0.314600  0.363800  1.0  0.1076
  H  H94  1  0.470200  0.217700  0.459800  1.0  0.1137
  H  H95  1  0.653800  0.590900  0.387200  1.0  0.1223
  H  H96  1  0.654300  0.400500  0.471200  1.0  0.1244
  H  H97  1  0.619900  0.459100  0.373900  1.0  0.1093
  H  H98  1  0.813400  0.498800  0.363800  1.0  0.1077
  H  H99  1  0.747500  0.529800  0.459800  1.0  0.1128
  H  H100  1  0.062900  0.653800  0.887200  1.0  0.1211
  H  H101  1  0.253800  0.654300  0.971200  1.0  0.1249
  H  H102  1  0.160800  0.619900  0.873900  1.0  0.1107
  H  H103  1  0.314600  0.813400  0.863800  1.0  0.1082
  H  H104  1  0.217700  0.747500  0.959800  1.0  0.1135
  H  H105  1  0.590900  0.937100  0.887200  1.0  0.1222
  H  H106  1  0.400500  0.746200  0.971200  1.0  0.1243
  H  H107  1  0.459100  0.839200  0.873900  1.0  0.1099
  H  H108  1  0.498800  0.685400  0.863800  1.0  0.1079
  H  H109  1  0.529800  0.782300  0.959800  1.0  0.1129
  H  H110  1  0.346200  0.409100  0.887200  1.0  0.123
  H  H111  1  0.345700  0.599500  0.971200  1.0  0.1249
  H  H112  1  0.380100  0.540900  0.873900  1.0  0.1095
  H  H113  1  0.186600  0.501200  0.863800  1.0  0.1072
  H  H114  1  0.252500  0.470200  0.959800  1.0  0.1127
  H  H115  1  0.653800  0.062900  0.887200  1.0  0.1221
  H  H116  1  0.654300  0.253800  0.971200  1.0  0.1249
  H  H117  1  0.619900  0.160800  0.873900  1.0  0.1097
  H  H118  1  0.813400  0.314600  0.863800  1.0  0.1077
  H  H119  1  0.747500  0.217700  0.959800  1.0  0.1131
  H  H120  1  0.937100  0.590900  0.887200  1.0  0.1233
  H  H121  1  0.746200  0.400500  0.971200  1.0  0.1245
  H  H122  1  0.839200  0.459100  0.873900  1.0  0.1095
  H  H123  1  0.685400  0.498800  0.863800  1.0  0.1074
  H  H124  1  0.782300  0.529800  0.959800  1.0  0.113
  H  H125  1  0.409100  0.346200  0.887200  1.0  0.121
  H  H126  1  0.599500  0.345700  0.971200  1.0  0.1246
  H  H127  1  0.540900  0.380100  0.873900  1.0  0.1109
  H  H128  1  0.501200  0.186600  0.863800  1.0  0.1084
  H  H129  1  0.470200  0.252500  0.959800  1.0  0.1136
  H  H130  1  0.346200  0.937100  0.387200  1.0  0.1224
  H  H131  1  0.345700  0.746200  0.471200  1.0  0.1245
  H  H132  1  0.380100  0.839200  0.373900  1.0  0.1101
  H  H133  1  0.186600  0.685400  0.363800  1.0  0.1074
  H  H134  1  0.252500  0.782300  0.459800  1.0  0.1135
  H  H135  1  0.062900  0.409100  0.387200  1.0  0.1223
  H  H136  1  0.253800  0.599500  0.471200  1.0  0.1246
  H  H137  1  0.160800  0.540900  0.373900  1.0  0.1093
  H  H138  1  0.314600  0.501200  0.363800  1.0  0.1077
  H  H139  1  0.217700  0.470200  0.459800  1.0  0.1126
  H  H140  1  0.590900  0.653800  0.387200  1.0  0.1216
  H  H141  1  0.400500  0.654300  0.471200  1.0  0.1249
  H  H142  1  0.459100  0.619900  0.373900  1.0  0.111
  H  H143  1  0.498800  0.813400  0.363800  1.0  0.109
  H  H144  1  0.529800  0.747500  0.459800  1.0  0.1131
  H  H145  1  0.062900  0.653800  0.612800  1.0  0.122
  H  H146  1  0.253800  0.654300  0.528800  1.0  0.1245
  H  H147  1  0.160800  0.619900  0.626100  1.0  0.1103
  H  H148  1  0.314600  0.813400  0.636200  1.0  0.1079
  H  H149  1  0.217700  0.747500  0.540200  1.0  0.1145
  H  H150  1  0.590900  0.937100  0.612800  1.0  0.1227
  H  H151  1  0.400500  0.746200  0.528800  1.0  0.1246
  H  H152  1  0.459100  0.839200  0.626100  1.0  0.1093
  H  H153  1  0.498800  0.685400  0.636200  1.0  0.1074
  H  H154  1  0.529800  0.782300  0.540200  1.0  0.1137
  H  H155  1  0.346200  0.409100  0.612800  1.0  0.1239
  H  H156  1  0.345700  0.599500  0.528800  1.0  0.1247
  H  H157  1  0.380100  0.540900  0.626100  1.0  0.1089
  H  H158  1  0.186600  0.501200  0.636200  1.0  0.1067
  H  H159  1  0.252500  0.470200  0.540200  1.0  0.1136
  H  H160  1  0.937100  0.346200  0.112800  1.0  0.1216
  H  H161  1  0.746200  0.345700  0.028800  1.0  0.1249
  H  H162  1  0.839200  0.380100  0.126100  1.0  0.11
  H  H163  1  0.685400  0.186600  0.136200  1.0  0.1086
  H  H164  1  0.782300  0.252500  0.040200  1.0  0.1135
  H  H165  1  0.409100  0.062900  0.112800  1.0  0.1231
  H  H166  1  0.599500  0.253800  0.028800  1.0  0.1248
  H  H167  1  0.540900  0.160800  0.126100  1.0  0.1099
  H  H168  1  0.501200  0.314600  0.136200  1.0  0.1074
  H  H169  1  0.470200  0.217700  0.040200  1.0  0.1143
  H  H170  1  0.653800  0.590900  0.112800  1.0  0.1231
  H  H171  1  0.654300  0.400500  0.028800  1.0  0.1245
  H  H172  1  0.619900  0.459100  0.126100  1.0  0.1091
  H  H173  1  0.813400  0.498800  0.136200  1.0  0.1072
  H  H174  1  0.747500  0.529800  0.040200  1.0  0.1135
  C  C175  1  0.380100  0.965200  0.096230  1.0  -0.1666
  C  C176  1  0.404800  0.943200  0.066440  1.0  0.2034
  C  C177  1  0.380000  0.875300  0.056400  1.0  -0.0878
  C  C178  1  0.401800  0.854800  0.025580  1.0  0.2128
  C  C179  1  0.377100  0.784700  0.015690  1.0  -0.1595
  C  C180  1  0.325100  0.820600  0.079690  1.0  0.0802
  C  C181  1  0.336800  0.811800  0.115980  1.0  -0.034
  C  C182  1  0.284800  0.762500  0.137450  1.0  -0.147
  C  C183  1  0.221300  0.719100  0.121910  1.0  0.0345
  C  C184  1  0.209100  0.725600  0.085360  1.0  -0.1383
  C  C185  1  0.260800  0.776900  0.064580  1.0  -0.0268
  C  C186  1  0.295600  0.758000  0.177770  1.0  0.7117
  C  C187  1  0.139400  0.680100  0.068770  1.0  0.7274
  C  C188  1  0.034800  0.414900  0.096230  1.0  -0.1694
  C  C189  1  0.056800  0.461600  0.066440  1.0  0.2038
  C  C190  1  0.124700  0.504700  0.056400  1.0  -0.0885
  C  C191  1  0.145200  0.547000  0.025580  1.0  0.2128
  C  C192  1  0.215300  0.592400  0.015690  1.0  -0.1598
  C  C193  1  0.179400  0.504500  0.079690  1.0  0.0822
  C  C194  1  0.188200  0.525000  0.115980  1.0  -0.0347
  C  C195  1  0.237500  0.522300  0.137450  1.0  -0.1444
  C  C196  1  0.280900  0.502200  0.121910  1.0  0.0323
  C  C197  1  0.274400  0.483500  0.085360  1.0  -0.1415
  C  C198  1  0.223100  0.483900  0.064580  1.0  -0.0267
  C  C199  1  0.242000  0.537600  0.177770  1.0  0.7102
  C  C200  1  0.319900  0.459300  0.068770  1.0  0.7295
  C  C201  1  0.585100  0.619900  0.096230  1.0  -0.1691
  C  C202  1  0.538400  0.595200  0.066440  1.0  0.2028
  C  C203  1  0.495300  0.620000  0.056400  1.0  -0.0882
  C  C204  1  0.453000  0.598200  0.025580  1.0  0.2123
  C  C205  1  0.407600  0.622900  0.015690  1.0  -0.1595
  C  C206  1  0.495500  0.674900  0.079690  1.0  0.0808
  C  C207  1  0.475000  0.663200  0.115980  1.0  -0.0364
  C  C208  1  0.477700  0.715200  0.137450  1.0  -0.1458
  C  C209  1  0.497800  0.778700  0.121910  1.0  0.032
  C  C210  1  0.516500  0.790900  0.085360  1.0  -0.1415
  C  C211  1  0.516100  0.739200  0.064580  1.0  -0.0303
  C  C212  1  0.462400  0.704400  0.177770  1.0  0.7128
  C  C213  1  0.540700  0.860600  0.068770  1.0  0.7326
  C  C214  1  0.619900  0.034800  0.596230  1.0  -0.1646
  C  C215  1  0.595200  0.056800  0.566440  1.0  0.2037
  C  C216  1  0.620000  0.124700  0.556400  1.0  -0.0882
  C  C217  1  0.598200  0.145200  0.525580  1.0  0.2123
  C  C218  1  0.622900  0.215300  0.515690  1.0  -0.1581
  C  C219  1  0.674900  0.179400  0.579690  1.0  0.0807
  C  C220  1  0.663200  0.188200  0.615980  1.0  -0.0339
  C  C221  1  0.715200  0.237500  0.637450  1.0  -0.1454
  C  C222  1  0.778700  0.280900  0.621910  1.0  0.0346
  C  C223  1  0.790900  0.274400  0.585360  1.0  -0.1397
  C  C224  1  0.739200  0.223100  0.564580  1.0  -0.0276
  C  C225  1  0.704400  0.242000  0.677770  1.0  0.7124
  C  C226  1  0.860600  0.319900  0.568770  1.0  0.7294
  C  C227  1  0.965200  0.585100  0.596230  1.0  -0.1694
  C  C228  1  0.943200  0.538400  0.566440  1.0  0.2041
  C  C229  1  0.875300  0.495300  0.556400  1.0  -0.0884
  C  C230  1  0.854800  0.453000  0.525580  1.0  0.2133
  C  C231  1  0.784700  0.407600  0.515690  1.0  -0.1612
  C  C232  1  0.820600  0.495500  0.579690  1.0  0.0809
  C  C233  1  0.811800  0.475000  0.615980  1.0  -0.0327
  C  C234  1  0.762500  0.477700  0.637450  1.0  -0.1447
  C  C235  1  0.719100  0.497800  0.621910  1.0  0.0306
  C  C236  1  0.725600  0.516500  0.585360  1.0  -0.1395
  C  C237  1  0.776900  0.516100  0.564580  1.0  -0.0278
  C  C238  1  0.758000  0.462400  0.677770  1.0  0.7108
  C  C239  1  0.680100  0.540700  0.568770  1.0  0.7294
  C  C240  1  0.414900  0.380100  0.596230  1.0  -0.1685
  C  C241  1  0.461600  0.404800  0.566440  1.0  0.2028
  C  C242  1  0.504700  0.380000  0.556400  1.0  -0.0884
  C  C243  1  0.547000  0.401800  0.525580  1.0  0.2116
  C  C244  1  0.592400  0.377100  0.515690  1.0  -0.1591
  C  C245  1  0.504500  0.325100  0.579690  1.0  0.0797
  C  C246  1  0.525000  0.336800  0.615980  1.0  -0.0361
  C  C247  1  0.522300  0.284800  0.637450  1.0  -0.1466
  C  C248  1  0.502200  0.221300  0.621910  1.0  0.0339
  C  C249  1  0.483500  0.209100  0.585360  1.0  -0.1408
  C  C250  1  0.483900  0.260800  0.564580  1.0  -0.029
  C  C251  1  0.537600  0.295600  0.677770  1.0  0.7109
  C  C252  1  0.459300  0.139400  0.568770  1.0  0.7307
  C  C253  1  0.965200  0.380100  0.403770  1.0  -0.1682
  C  C254  1  0.943200  0.404800  0.433560  1.0  0.2028
  C  C255  1  0.875300  0.380000  0.443600  1.0  -0.088
  C  C256  1  0.854800  0.401800  0.474420  1.0  0.2122
  C  C257  1  0.784700  0.377100  0.484310  1.0  -0.1603
  C  C258  1  0.820600  0.325100  0.420310  1.0  0.081
  C  C259  1  0.811800  0.336800  0.384020  1.0  -0.0353
  C  C260  1  0.762500  0.284800  0.362550  1.0  -0.1474
  C  C261  1  0.719100  0.221300  0.378090  1.0  0.032
  C  C262  1  0.725600  0.209100  0.414640  1.0  -0.1428
  C  C263  1  0.776900  0.260800  0.435420  1.0  -0.028
  C  C264  1  0.758000  0.295600  0.322230  1.0  0.7147
  C  C265  1  0.680100  0.139400  0.431230  1.0  0.7336
  C  C266  1  0.414900  0.034800  0.403770  1.0  -0.1655
  C  C267  1  0.461600  0.056800  0.433560  1.0  0.2034
  C  C268  1  0.504700  0.124700  0.443600  1.0  -0.0882
  C  C269  1  0.547000  0.145200  0.474420  1.0  0.2121
  C  C270  1  0.592400  0.215300  0.484310  1.0  -0.1593
  C  C271  1  0.504500  0.179400  0.420310  1.0  0.0802
  C  C272  1  0.525000  0.188200  0.384020  1.0  -0.0334
  C  C273  1  0.522300  0.237500  0.362550  1.0  -0.1466
  C  C274  1  0.502200  0.280900  0.378090  1.0  0.0352
  C  C275  1  0.483500  0.274400  0.414640  1.0  -0.1386
  C  C276  1  0.483900  0.223100  0.435420  1.0  -0.026
  C  C277  1  0.537600  0.242000  0.322230  1.0  0.7144
  C  C278  1  0.459300  0.319900  0.431230  1.0  0.7278
  C  C279  1  0.619900  0.585100  0.403770  1.0  -0.1689
  C  C280  1  0.595200  0.538400  0.433560  1.0  0.2039
  C  C281  1  0.620000  0.495300  0.443600  1.0  -0.0876
  C  C282  1  0.598200  0.453000  0.474420  1.0  0.2128
  C  C283  1  0.622900  0.407600  0.484310  1.0  -0.1607
  C  C284  1  0.674900  0.495500  0.420310  1.0  0.0814
  C  C285  1  0.663200  0.475000  0.384020  1.0  -0.0337
  C  C286  1  0.715200  0.477700  0.362550  1.0  -0.1455
  C  C287  1  0.778700  0.497800  0.378090  1.0  0.0308
  C  C288  1  0.790900  0.516500  0.414640  1.0  -0.1405
  C  C289  1  0.739200  0.516100  0.435420  1.0  -0.0265
  C  C290  1  0.704400  0.462400  0.322230  1.0  0.7126
  C  C291  1  0.860600  0.540700  0.431230  1.0  0.7289
  C  C292  1  0.034800  0.619900  0.903770  1.0  -0.1684
  C  C293  1  0.056800  0.595200  0.933560  1.0  0.2028
  C  C294  1  0.124700  0.620000  0.943600  1.0  -0.0879
  C  C295  1  0.145200  0.598200  0.974420  1.0  0.2113
  C  C296  1  0.215300  0.622900  0.984310  1.0  -0.1595
  C  C297  1  0.179400  0.674900  0.920310  1.0  0.0792
  C  C298  1  0.188200  0.663200  0.884020  1.0  -0.0349
  C  C299  1  0.237500  0.715200  0.862550  1.0  -0.1474
  C  C300  1  0.280900  0.778700  0.878090  1.0  0.0332
  C  C301  1  0.274400  0.790900  0.914640  1.0  -0.1396
  C  C302  1  0.223100  0.739200  0.935420  1.0  -0.0282
  C  C303  1  0.242000  0.704400  0.822230  1.0  0.7148
  C  C304  1  0.319900  0.860600  0.931230  1.0  0.7336
  C  C305  1  0.585100  0.965200  0.903770  1.0  -0.1656
  C  C306  1  0.538400  0.943200  0.933560  1.0  0.2042
  C  C307  1  0.495300  0.875300  0.943600  1.0  -0.088
  C  C308  1  0.453000  0.854800  0.974420  1.0  0.2123
  C  C309  1  0.407600  0.784700  0.984310  1.0  -0.1589
  C  C310  1  0.495500  0.820600  0.920310  1.0  0.0805
  C  C311  1  0.475000  0.811800  0.884020  1.0  -0.0335
  C  C312  1  0.477700  0.762500  0.862550  1.0  -0.1473
  C  C313  1  0.497800  0.719100  0.878090  1.0  0.0341
  C  C314  1  0.516500  0.725600  0.914640  1.0  -0.1409
  C  C315  1  0.516100  0.776900  0.935420  1.0  -0.0267
  C  C316  1  0.462400  0.758000  0.822230  1.0  0.7143
  C  C317  1  0.540700  0.680100  0.931230  1.0  0.7312
  C  C318  1  0.380100  0.414900  0.903770  1.0  -0.1663
  C  C319  1  0.404800  0.461600  0.933560  1.0  0.2042
  C  C320  1  0.380000  0.504700  0.943600  1.0  -0.0887
  C  C321  1  0.401800  0.547000  0.974420  1.0  0.2129
  C  C322  1  0.377100  0.592400  0.984310  1.0  -0.1615
  C  C323  1  0.325100  0.504500  0.920310  1.0  0.0817
  C  C324  1  0.336800  0.525000  0.884020  1.0  -0.0335
  C  C325  1  0.284800  0.522300  0.862550  1.0  -0.1449
  C  C326  1  0.221300  0.502200  0.878090  1.0  0.032
  C  C327  1  0.209100  0.483500  0.914640  1.0  -0.142
  C  C328  1  0.260800  0.483900  0.935420  1.0  -0.026
  C  C329  1  0.295600  0.537600  0.822230  1.0  0.7119
  C  C330  1  0.139400  0.459300  0.931230  1.0  0.7323
  C  C331  1  0.619900  0.034800  0.903770  1.0  -0.1652
  C  C332  1  0.595200  0.056800  0.933560  1.0  0.2029
  C  C333  1  0.620000  0.124700  0.943600  1.0  -0.0881
  C  C334  1  0.598200  0.145200  0.974420  1.0  0.2124
  C  C335  1  0.622900  0.215300  0.984310  1.0  -0.1587
  C  C336  1  0.674900  0.179400  0.920310  1.0  0.0807
  C  C337  1  0.663200  0.188200  0.884020  1.0  -0.0328
  C  C338  1  0.715200  0.237500  0.862550  1.0  -0.1469
  C  C339  1  0.778700  0.280900  0.878090  1.0  0.034
  C  C340  1  0.790900  0.274400  0.914640  1.0  -0.1404
  C  C341  1  0.739200  0.223100  0.935420  1.0  -0.0267
  C  C342  1  0.704400  0.242000  0.822230  1.0  0.7142
  C  C343  1  0.860600  0.319900  0.931230  1.0  0.7307
  C  C344  1  0.965200  0.585100  0.903770  1.0  -0.1684
  C  C345  1  0.943200  0.538400  0.933560  1.0  0.2032
  C  C346  1  0.875300  0.495300  0.943600  1.0  -0.0884
  C  C347  1  0.854800  0.453000  0.974420  1.0  0.2136
  C  C348  1  0.784700  0.407600  0.984310  1.0  -0.1617
  C  C349  1  0.820600  0.495500  0.920310  1.0  0.0807
  C  C350  1  0.811800  0.475000  0.884020  1.0  -0.0332
  C  C351  1  0.762500  0.477700  0.862550  1.0  -0.1455
  C  C352  1  0.719100  0.497800  0.878090  1.0  0.031
  C  C353  1  0.725600  0.516500  0.914640  1.0  -0.1402
  C  C354  1  0.776900  0.516100  0.935420  1.0  -0.0272
  C  C355  1  0.758000  0.462400  0.822230  1.0  0.712
  C  C356  1  0.680100  0.540700  0.931230  1.0  0.7304
  C  C357  1  0.414900  0.380100  0.903770  1.0  -0.1668
  C  C358  1  0.461600  0.404800  0.933560  1.0  0.2022
  C  C359  1  0.504700  0.380000  0.943600  1.0  -0.0884
  C  C360  1  0.547000  0.401800  0.974420  1.0  0.2118
  C  C361  1  0.592400  0.377100  0.984310  1.0  -0.1598
  C  C362  1  0.504500  0.325100  0.920310  1.0  0.08
  C  C363  1  0.525000  0.336800  0.884020  1.0  -0.0352
  C  C364  1  0.522300  0.284800  0.862550  1.0  -0.1469
  C  C365  1  0.502200  0.221300  0.878090  1.0  0.0331
  C  C366  1  0.483500  0.209100  0.914640  1.0  -0.1416
  C  C367  1  0.483900  0.260800  0.935420  1.0  -0.0278
  C  C368  1  0.537600  0.295600  0.822230  1.0  0.7154
  C  C369  1  0.459300  0.139400  0.931230  1.0  0.7315
  C  C370  1  0.380100  0.965200  0.403770  1.0  -0.1653
  C  C371  1  0.404800  0.943200  0.433560  1.0  0.2029
  C  C372  1  0.380000  0.875300  0.443600  1.0  -0.0879
  C  C373  1  0.401800  0.854800  0.474420  1.0  0.213
  C  C374  1  0.377100  0.784700  0.484310  1.0  -0.1595
  C  C375  1  0.325100  0.820600  0.420310  1.0  0.0801
  C  C376  1  0.336800  0.811800  0.384020  1.0  -0.0337
  C  C377  1  0.284800  0.762500  0.362550  1.0  -0.1473
  C  C378  1  0.221300  0.719100  0.378090  1.0  0.0346
  C  C379  1  0.209100  0.725600  0.414640  1.0  -0.1391
  C  C380  1  0.260800  0.776900  0.435420  1.0  -0.0258
  C  C381  1  0.295600  0.758000  0.322230  1.0  0.7144
  C  C382  1  0.139400  0.680100  0.431230  1.0  0.728
  C  C383  1  0.034800  0.414900  0.403770  1.0  -0.1674
  C  C384  1  0.056800  0.461600  0.433560  1.0  0.2031
  C  C385  1  0.124700  0.504700  0.443600  1.0  -0.0881
  C  C386  1  0.145200  0.547000  0.474420  1.0  0.2129
  C  C387  1  0.215300  0.592400  0.484310  1.0  -0.1606
  C  C388  1  0.179400  0.504500  0.420310  1.0  0.0822
  C  C389  1  0.188200  0.525000  0.384020  1.0  -0.0334
  C  C390  1  0.237500  0.522300  0.362550  1.0  -0.145
  C  C391  1  0.280900  0.502200  0.378090  1.0  0.0311
  C  C392  1  0.274400  0.483500  0.414640  1.0  -0.142
  C  C393  1  0.223100  0.483900  0.435420  1.0  -0.0252
  C  C394  1  0.242000  0.537600  0.322230  1.0  0.7125
  C  C395  1  0.319900  0.459300  0.431230  1.0  0.7315
  C  C396  1  0.585100  0.619900  0.403770  1.0  -0.1692
  C  C397  1  0.538400  0.595200  0.433560  1.0  0.2018
  C  C398  1  0.495300  0.620000  0.443600  1.0  -0.0879
  C  C399  1  0.453000  0.598200  0.474420  1.0  0.2124
  C  C400  1  0.407600  0.622900  0.484310  1.0  -0.16
  C  C401  1  0.495500  0.674900  0.420310  1.0  0.0804
  C  C402  1  0.475000  0.663200  0.384020  1.0  -0.0352
  C  C403  1  0.477700  0.715200  0.362550  1.0  -0.1475
  C  C404  1  0.497800  0.778700  0.378090  1.0  0.0321
  C  C405  1  0.516500  0.790900  0.414640  1.0  -0.1412
  C  C406  1  0.516100  0.739200  0.435420  1.0  -0.0288
  C  C407  1  0.462400  0.704400  0.322230  1.0  0.7138
  C  C408  1  0.540700  0.860600  0.431230  1.0  0.7342
  C  C409  1  0.034800  0.619900  0.596230  1.0  -0.1681
  C  C410  1  0.056800  0.595200  0.566440  1.0  0.2019
  C  C411  1  0.124700  0.620000  0.556400  1.0  -0.0879
  C  C412  1  0.145200  0.598200  0.525580  1.0  0.2111
  C  C413  1  0.215300  0.622900  0.515690  1.0  -0.1589
  C  C414  1  0.179400  0.674900  0.579690  1.0  0.0797
  C  C415  1  0.188200  0.663200  0.615980  1.0  -0.0364
  C  C416  1  0.237500  0.715200  0.637450  1.0  -0.1471
  C  C417  1  0.280900  0.778700  0.621910  1.0  0.0334
  C  C418  1  0.274400  0.790900  0.585360  1.0  -0.1398
  C  C419  1  0.223100  0.739200  0.564580  1.0  -0.0294
  C  C420  1  0.242000  0.704400  0.677770  1.0  0.7108
  C  C421  1  0.319900  0.860600  0.568770  1.0  0.7327
  C  C422  1  0.585100  0.965200  0.596230  1.0  -0.1655
  C  C423  1  0.538400  0.943200  0.566440  1.0  0.2029
  C  C424  1  0.495300  0.875300  0.556400  1.0  -0.088
  C  C425  1  0.453000  0.854800  0.525580  1.0  0.2121
  C  C426  1  0.407600  0.784700  0.515690  1.0  -0.1586
  C  C427  1  0.495500  0.820600  0.579690  1.0  0.0804
  C  C428  1  0.475000  0.811800  0.615980  1.0  -0.0346
  C  C429  1  0.477700  0.762500  0.637450  1.0  -0.1455
  C  C430  1  0.497800  0.719100  0.621910  1.0  0.0351
  C  C431  1  0.516500  0.725600  0.585360  1.0  -0.1398
  C  C432  1  0.516100  0.776900  0.564580  1.0  -0.0278
  C  C433  1  0.462400  0.758000  0.677770  1.0  0.712
  C  C434  1  0.540700  0.680100  0.568770  1.0  0.7296
  C  C435  1  0.380100  0.414900  0.596230  1.0  -0.1699
  C  C436  1  0.404800  0.461600  0.566440  1.0  0.2029
  C  C437  1  0.380000  0.504700  0.556400  1.0  -0.0891
  C  C438  1  0.401800  0.547000  0.525580  1.0  0.2128
  C  C439  1  0.377100  0.592400  0.515690  1.0  -0.161
  C  C440  1  0.325100  0.504500  0.579690  1.0  0.0817
  C  C441  1  0.336800  0.525000  0.615980  1.0  -0.0335
  C  C442  1  0.284800  0.522300  0.637450  1.0  -0.1445
  C  C443  1  0.221300  0.502200  0.621910  1.0  0.0318
  C  C444  1  0.209100  0.483500  0.585360  1.0  -0.1411
  C  C445  1  0.260800  0.483900  0.564580  1.0  -0.0269
  C  C446  1  0.295600  0.537600  0.677770  1.0  0.7114
  C  C447  1  0.139400  0.459300  0.568770  1.0  0.7306
  C  C448  1  0.965200  0.380100  0.096230  1.0  -0.1698
  C  C449  1  0.943200  0.404800  0.066440  1.0  0.2014
  C  C450  1  0.875300  0.380000  0.056400  1.0  -0.0883
  C  C451  1  0.854800  0.401800  0.025580  1.0  0.2121
  C  C452  1  0.784700  0.377100  0.015690  1.0  -0.1596
  C  C453  1  0.820600  0.325100  0.079690  1.0  0.0809
  C  C454  1  0.811800  0.336800  0.115980  1.0  -0.0356
  C  C455  1  0.762500  0.284800  0.137450  1.0  -0.1455
  C  C456  1  0.719100  0.221300  0.121910  1.0  0.0325
  C  C457  1  0.725600  0.209100  0.085360  1.0  -0.1415
  C  C458  1  0.776900  0.260800  0.064580  1.0  -0.0295
  C  C459  1  0.758000  0.295600  0.177770  1.0  0.713
  C  C460  1  0.680100  0.139400  0.068770  1.0  0.7322
  C  C461  1  0.414900  0.034800  0.096230  1.0  -0.1661
  C  C462  1  0.461600  0.056800  0.066440  1.0  0.2021
  C  C463  1  0.504700  0.124700  0.056400  1.0  -0.0882
  C  C464  1  0.547000  0.145200  0.025580  1.0  0.212
  C  C465  1  0.592400  0.215300  0.015690  1.0  -0.159
  C  C466  1  0.504500  0.179400  0.079690  1.0  0.0803
  C  C467  1  0.525000  0.188200  0.115980  1.0  -0.0338
  C  C468  1  0.522300  0.237500  0.137450  1.0  -0.1466
  C  C469  1  0.502200  0.280900  0.121910  1.0  0.0347
  C  C470  1  0.483500  0.274400  0.085360  1.0  -0.1385
  C  C471  1  0.483900  0.223100  0.064580  1.0  -0.0267
  C  C472  1  0.537600  0.242000  0.177770  1.0  0.712
  C  C473  1  0.459300  0.319900  0.068770  1.0  0.7276
  C  C474  1  0.619900  0.585100  0.096230  1.0  -0.1683
  C  C475  1  0.595200  0.538400  0.066440  1.0  0.2032
  C  C476  1  0.620000  0.495300  0.056400  1.0  -0.0877
  C  C477  1  0.598200  0.453000  0.025580  1.0  0.2125
  C  C478  1  0.622900  0.407600  0.015690  1.0  -0.1599
  C  C479  1  0.674900  0.495500  0.079690  1.0  0.0816
  C  C480  1  0.663200  0.475000  0.115980  1.0  -0.0346
  C  C481  1  0.715200  0.477700  0.137450  1.0  -0.1446
  C  C482  1  0.778700  0.497800  0.121910  1.0  0.0319
  C  C483  1  0.790900  0.516500  0.085360  1.0  -0.14
  C  C484  1  0.739200  0.516100  0.064580  1.0  -0.0279
  C  C485  1  0.704400  0.462400  0.177770  1.0  0.7095
  C  C486  1  0.860600  0.540700  0.068770  1.0  0.7275
  N  N487  1  0.455200  0.000000  0.048070  1.0  -0.3988
  N  N488  1  0.000000  0.455200  0.048070  1.0  -0.3984
  N  N489  1  0.544800  0.544800  0.048070  1.0  -0.3983
  N  N490  1  0.544800  0.000000  0.548070  1.0  -0.3994
  N  N491  1  0.000000  0.544800  0.548070  1.0  -0.3991
  N  N492  1  0.455200  0.455200  0.548070  1.0  -0.3989
  N  N493  1  0.000000  0.455200  0.451930  1.0  -0.3979
  N  N494  1  0.455200  0.000000  0.451930  1.0  -0.3981
  N  N495  1  0.544800  0.544800  0.451930  1.0  -0.3979
  N  N496  1  0.000000  0.544800  0.951930  1.0  -0.3987
  N  N497  1  0.544800  0.000000  0.951930  1.0  -0.399
  N  N498  1  0.455200  0.455200  0.951930  1.0  -0.3984
  N  N499  1  0.448300  0.896600  0.000000  1.0  -0.4081
  N  N500  1  0.103400  0.551700  0.000000  1.0  -0.4121
  N  N501  1  0.448300  0.551700  0.000000  1.0  -0.4101
  N  N502  1  0.551700  0.103400  0.500000  1.0  -0.4085
  N  N503  1  0.896600  0.448300  0.500000  1.0  -0.4097
  N  N504  1  0.551700  0.448300  0.500000  1.0  -0.4114
  N  N505  1  0.551700  0.103400  0.000000  1.0  -0.4085
  N  N506  1  0.896600  0.448300  0.000000  1.0  -0.4097
  N  N507  1  0.551700  0.448300  0.000000  1.0  -0.4114
  N  N508  1  0.448300  0.896600  0.500000  1.0  -0.4081
  N  N509  1  0.103400  0.551700  0.500000  1.0  -0.4121
  N  N510  1  0.448300  0.551700  0.500000  1.0  -0.4101
  O  O511  1  0.354800  0.786200  0.189910  1.0  -0.4947
  O  O512  1  0.242460  0.727540  0.196960  1.0  -0.617
  O  O513  1  0.097770  0.630350  0.088770  1.0  -0.6061
  O  O514  1  0.127090  0.694060  0.037940  1.0  -0.5957
  O  O515  1  0.213800  0.568600  0.189910  1.0  -0.4952
  O  O516  1  0.272460  0.514920  0.196960  1.0  -0.6188
  O  O517  1  0.369650  0.467420  0.088770  1.0  -0.6024
  O  O518  1  0.305940  0.433030  0.037940  1.0  -0.5953
  O  O519  1  0.431400  0.645200  0.189910  1.0  -0.4938
  O  O520  1  0.485080  0.757540  0.196960  1.0  -0.6178
  O  O521  1  0.532580  0.902230  0.088770  1.0  -0.6058
  O  O522  1  0.566970  0.872910  0.037940  1.0  -0.5933
  O  O523  1  0.645200  0.213800  0.689910  1.0  -0.4931
  O  O524  1  0.757540  0.272460  0.696960  1.0  -0.6185
  O  O525  1  0.902230  0.369650  0.588770  1.0  -0.6048
  O  O526  1  0.872910  0.305940  0.537940  1.0  -0.5957
  O  O527  1  0.786200  0.431400  0.689910  1.0  -0.4965
  O  O528  1  0.727540  0.485080  0.696960  1.0  -0.6175
  O  O529  1  0.630350  0.532580  0.588770  1.0  -0.6021
  O  O530  1  0.694060  0.566970  0.537940  1.0  -0.5926
  O  O531  1  0.568600  0.354800  0.689910  1.0  -0.4953
  O  O532  1  0.514920  0.242460  0.696960  1.0  -0.6207
  O  O533  1  0.467420  0.097770  0.588770  1.0  -0.6055
  O  O534  1  0.433030  0.127090  0.537940  1.0  -0.5961
  O  O535  1  0.786200  0.354800  0.310090  1.0  -0.4935
  O  O536  1  0.727540  0.242460  0.303040  1.0  -0.6195
  O  O537  1  0.630350  0.097770  0.411230  1.0  -0.6072
  O  O538  1  0.694060  0.127090  0.462060  1.0  -0.5939
  O  O539  1  0.568600  0.213800  0.310090  1.0  -0.494
  O  O540  1  0.514920  0.272460  0.303040  1.0  -0.6181
  O  O541  1  0.467420  0.369650  0.411230  1.0  -0.6084
  O  O542  1  0.433030  0.305940  0.462060  1.0  -0.5977
  O  O543  1  0.645200  0.431400  0.310090  1.0  -0.496
  O  O544  1  0.757540  0.485080  0.303040  1.0  -0.6213
  O  O545  1  0.902230  0.532580  0.411230  1.0  -0.6039
  O  O546  1  0.872910  0.566970  0.462060  1.0  -0.5932
  O  O547  1  0.213800  0.645200  0.810090  1.0  -0.4952
  O  O548  1  0.272460  0.757540  0.803040  1.0  -0.6224
  O  O549  1  0.369650  0.902230  0.911230  1.0  -0.6078
  O  O550  1  0.305940  0.872910  0.962060  1.0  -0.5958
  O  O551  1  0.431400  0.786200  0.810090  1.0  -0.4944
  O  O552  1  0.485080  0.727540  0.803040  1.0  -0.6197
  O  O553  1  0.532580  0.630350  0.911230  1.0  -0.6065
  O  O554  1  0.566970  0.694060  0.962060  1.0  -0.5943
  O  O555  1  0.354800  0.568600  0.810090  1.0  -0.4955
  O  O556  1  0.242460  0.514920  0.803040  1.0  -0.6174
  O  O557  1  0.097770  0.467420  0.911230  1.0  -0.6051
  O  O558  1  0.127090  0.433030  0.962060  1.0  -0.5957
  O  O559  1  0.645200  0.213800  0.810090  1.0  -0.494
  O  O560  1  0.757540  0.272460  0.803040  1.0  -0.6205
  O  O561  1  0.902230  0.369650  0.911230  1.0  -0.6062
  O  O562  1  0.872910  0.305940  0.962060  1.0  -0.5964
  O  O563  1  0.786200  0.431400  0.810090  1.0  -0.4951
  O  O564  1  0.727540  0.485080  0.803040  1.0  -0.6203
  O  O565  1  0.630350  0.532580  0.911230  1.0  -0.6046
  O  O566  1  0.694060  0.566970  0.962060  1.0  -0.5928
  O  O567  1  0.568600  0.354800  0.810090  1.0  -0.495
  O  O568  1  0.514920  0.242460  0.803040  1.0  -0.6188
  O  O569  1  0.467420  0.097770  0.911230  1.0  -0.6079
  O  O570  1  0.433030  0.127090  0.962060  1.0  -0.5959
  O  O571  1  0.354800  0.786200  0.310090  1.0  -0.4945
  O  O572  1  0.242460  0.727540  0.303040  1.0  -0.6176
  O  O573  1  0.097770  0.630350  0.411230  1.0  -0.6087
  O  O574  1  0.127090  0.694060  0.462060  1.0  -0.596
  O  O575  1  0.213800  0.568600  0.310090  1.0  -0.4962
  O  O576  1  0.272460  0.514920  0.303040  1.0  -0.6193
  O  O577  1  0.369650  0.467420  0.411230  1.0  -0.6036
  O  O578  1  0.305940  0.433030  0.462060  1.0  -0.5961
  O  O579  1  0.431400  0.645200  0.310090  1.0  -0.4941
  O  O580  1  0.485080  0.757540  0.303040  1.0  -0.6221
  O  O581  1  0.532580  0.902230  0.411230  1.0  -0.6069
  O  O582  1  0.566970  0.872910  0.462060  1.0  -0.594
  O  O583  1  0.213800  0.645200  0.689910  1.0  -0.4945
  O  O584  1  0.272460  0.757540  0.696960  1.0  -0.6198
  O  O585  1  0.369650  0.902230  0.588770  1.0  -0.6054
  O  O586  1  0.305940  0.872910  0.537940  1.0  -0.5951
  O  O587  1  0.431400  0.786200  0.689910  1.0  -0.4935
  O  O588  1  0.485080  0.727540  0.696960  1.0  -0.6186
  O  O589  1  0.532580  0.630350  0.588770  1.0  -0.6058
  O  O590  1  0.566970  0.694060  0.537940  1.0  -0.5939
  O  O591  1  0.354800  0.568600  0.689910  1.0  -0.4964
  O  O592  1  0.242460  0.514920  0.696960  1.0  -0.6182
  O  O593  1  0.097770  0.467420  0.588770  1.0  -0.6036
  O  O594  1  0.127090  0.433030  0.537940  1.0  -0.5947
  O  O595  1  0.786200  0.354800  0.189910  1.0  -0.4939
  O  O596  1  0.727540  0.242460  0.196960  1.0  -0.6202
  O  O597  1  0.630350  0.097770  0.088770  1.0  -0.6056
  O  O598  1  0.694060  0.127090  0.037940  1.0  -0.5942
  O  O599  1  0.568600  0.213800  0.189910  1.0  -0.4942
  O  O600  1  0.514920  0.272460  0.196960  1.0  -0.6168
  O  O601  1  0.467420  0.369650  0.088770  1.0  -0.6055
  O  O602  1  0.433030  0.305940  0.037940  1.0  -0.5974
  O  O603  1  0.645200  0.431400  0.189910  1.0  -0.4953
  O  O604  1  0.757540  0.485080  0.196960  1.0  -0.6172
  O  O605  1  0.902230  0.532580  0.088770  1.0  -0.6007
  O  O606  1  0.872910  0.566970  0.037940  1.0  -0.5929
  O  O607  1  0.589190  0.000000  0.030940  1.0  -0.9964
  O  O608  1  0.000000  0.589190  0.030940  1.0  -0.9959
  O  O609  1  0.410810  0.410810  0.030940  1.0  -0.9948
  O  O610  1  0.410810  0.000000  0.530940  1.0  -0.9953
  O  O611  1  0.000000  0.410810  0.530940  1.0  -0.9948
  O  O612  1  0.589190  0.589190  0.530940  1.0  -0.9956
  O  O613  1  0.000000  0.589190  0.469060  1.0  -0.9945
  O  O614  1  0.589190  0.000000  0.469060  1.0  -0.9948
  O  O615  1  0.410810  0.410810  0.469060  1.0  -0.9936
  O  O616  1  0.000000  0.410810  0.969060  1.0  -0.9938
  O  O617  1  0.410810  0.000000  0.969060  1.0  -0.9937
  O  O618  1  0.589190  0.589190  0.969060  1.0  -0.9942
