# generated using pymatgen
data_CdH6(C3N)6
_symmetry_space_group_name_H-M   'P 1'
_cell_length_a   12.67510000
_cell_length_b   12.67510000
_cell_length_c   32.24300000
_cell_angle_alpha   90.00000000
_cell_angle_beta   90.00000000
_cell_angle_gamma   120.00000000
_symmetry_Int_Tables_number   1
_chemical_formula_structural   CdH6(C3N)6
_chemical_formula_sum   'Cd6 H36 C108 N36'
_cell_volume   4486.09910624
_cell_formula_units_Z   6
loop_
 _symmetry_equiv_pos_site_id
 _symmetry_equiv_pos_as_xyz
  1  'x, y, z'
loop_
 _atom_site_type_symbol
 _atom_site_label
 _atom_site_symmetry_multiplicity
 _atom_site_fract_x
 _atom_site_fract_y
 _atom_site_fract_z
 _atom_site_occupancy
 _atom_site_charge
  Cd  Cd1  1  0.333333  0.666667  0.166670  1.0  1.0278
  Cd  Cd2  1  0.000000  0.000000  0.500000  1.0  1.0362
  Cd  Cd3  1  0.666667  0.333333  0.833330  1.0  1.0271
  Cd  Cd4  1  0.000000  0.000000  0.000000  1.0  1.0416
  Cd  Cd5  1  0.666667  0.333333  0.333333  1.0  1.0313
  Cd  Cd6  1  0.333333  0.666667  0.666667  1.0  1.0321
  H  H7  1  0.831800  0.062600  0.106800  1.0  0.1154
  H  H8  1  0.999900  0.357500  0.181700  1.0  0.1194
  H  H9  1  0.498470  0.395930  0.440130  1.0  0.1151
  H  H10  1  0.666570  0.690830  0.515030  1.0  0.1189
  H  H11  1  0.165130  0.729270  0.773470  1.0  0.1154
  H  H12  1  0.333230  0.024170  0.848370  1.0  0.1194
  H  H13  1  0.937400  0.769200  0.106800  1.0  0.1151
  H  H14  1  0.642500  0.642400  0.181700  1.0  0.1192
  H  H15  1  0.604070  0.102530  0.440130  1.0  0.1148
  H  H16  1  0.309170  0.975730  0.515030  1.0  0.1187
  H  H17  1  0.270730  0.435870  0.773470  1.0  0.1151
  H  H18  1  0.975830  0.309070  0.848370  1.0  0.1192
  H  H19  1  0.230800  0.168200  0.106800  1.0  0.1146
  H  H20  1  0.357600  0.000100  0.181700  1.0  0.1195
  H  H21  1  0.897470  0.501530  0.440130  1.0  0.1143
  H  H22  1  0.024270  0.333430  0.515030  1.0  0.1198
  H  H23  1  0.564130  0.834870  0.773470  1.0  0.1146
  H  H24  1  0.690930  0.666770  0.848370  1.0  0.1195
  H  H25  1  0.168200  0.937400  0.893200  1.0  0.1145
  H  H26  1  0.000100  0.642500  0.818300  1.0  0.1188
  H  H27  1  0.834870  0.270730  0.226530  1.0  0.1145
  H  H28  1  0.666770  0.975830  0.151630  1.0  0.1188
  H  H29  1  0.501530  0.604070  0.559870  1.0  0.1142
  H  H30  1  0.333430  0.309170  0.484970  1.0  0.1183
  H  H31  1  0.062600  0.230800  0.893200  1.0  0.1145
  H  H32  1  0.357500  0.357600  0.818300  1.0  0.1194
  H  H33  1  0.729270  0.564130  0.226530  1.0  0.1145
  H  H34  1  0.024170  0.690930  0.151630  1.0  0.1194
  H  H35  1  0.395930  0.897470  0.559870  1.0  0.1142
  H  H36  1  0.690830  0.024270  0.484970  1.0  0.1189
  H  H37  1  0.769200  0.831800  0.893200  1.0  0.115
  H  H38  1  0.642400  0.999900  0.818300  1.0  0.119
  H  H39  1  0.435870  0.165130  0.226530  1.0  0.115
  H  H40  1  0.309070  0.333230  0.151630  1.0  0.119
  H  H41  1  0.102530  0.498470  0.559870  1.0  0.1147
  H  H42  1  0.975730  0.666570  0.484970  1.0  0.1192
  C  C43  1  0.040700  0.213900  0.074780  1.0  0.3741
  C  C44  1  0.139000  0.391200  0.119380  1.0  0.3679
  C  C45  1  0.934700  0.219700  0.139110  1.0  0.0352
  C  C46  1  0.833200  0.105600  0.131130  1.0  -0.048
  C  C47  1  0.932400  0.279700  0.175400  1.0  -0.0475
  C  C48  1  0.040000  0.275200  0.110900  1.0  -0.3479
  C  C49  1  0.707370  0.547230  0.408110  1.0  0.3741
  C  C50  1  0.805670  0.724530  0.452710  1.0  0.3679
  C  C51  1  0.601370  0.553030  0.472440  1.0  0.0352
  C  C52  1  0.499870  0.438930  0.464460  1.0  -0.0474
  C  C53  1  0.599070  0.613030  0.508730  1.0  -0.0546
  C  C54  1  0.706670  0.608530  0.444230  1.0  -0.348
  C  C55  1  0.374030  0.880570  0.741450  1.0  0.3741
  C  C56  1  0.472330  0.057870  0.786050  1.0  0.3679
  C  C57  1  0.268030  0.886370  0.805780  1.0  0.0352
  C  C58  1  0.166530  0.772270  0.797800  1.0  -0.048
  C  C59  1  0.265730  0.946370  0.842070  1.0  -0.0475
  C  C60  1  0.373330  0.941870  0.777570  1.0  -0.3479
  C  C61  1  0.786100  0.826800  0.074780  1.0  0.3743
  C  C62  1  0.608800  0.747800  0.119380  1.0  0.3679
  C  C63  1  0.780300  0.715000  0.139110  1.0  0.0349
  C  C64  1  0.894400  0.727600  0.131130  1.0  -0.0466
  C  C65  1  0.720300  0.652700  0.175400  1.0  -0.0426
  C  C66  1  0.724800  0.764800  0.110900  1.0  -0.348
  C  C67  1  0.452770  0.160130  0.408110  1.0  0.3743
  C  C68  1  0.275470  0.081130  0.452710  1.0  0.3679
  C  C69  1  0.446970  0.048330  0.472440  1.0  0.0349
  C  C70  1  0.561070  0.060930  0.464460  1.0  -0.05
  C  C71  1  0.386970  0.986030  0.508730  1.0  -0.052
  C  C72  1  0.391470  0.098130  0.444230  1.0  -0.348
  C  C73  1  0.119430  0.493470  0.741450  1.0  0.3743
  C  C74  1  0.942130  0.414470  0.786050  1.0  0.3679
  C  C75  1  0.113630  0.381670  0.805780  1.0  0.0349
  C  C76  1  0.227730  0.394270  0.797800  1.0  -0.0466
  C  C77  1  0.053630  0.319370  0.842070  1.0  -0.0426
  C  C78  1  0.058130  0.431470  0.777570  1.0  -0.348
  C  C79  1  0.173200  0.959300  0.074780  1.0  0.3738
  C  C80  1  0.252200  0.861000  0.119380  1.0  0.3653
  C  C81  1  0.285000  0.065300  0.139110  1.0  0.0351
  C  C82  1  0.272400  0.166800  0.131130  1.0  -0.0471
  C  C83  1  0.347300  0.067600  0.175400  1.0  -0.0504
  C  C84  1  0.235200  0.960000  0.110900  1.0  -0.3478
  C  C85  1  0.839870  0.292630  0.408110  1.0  0.3738
  C  C86  1  0.918870  0.194330  0.452710  1.0  0.3653
  C  C87  1  0.951670  0.398630  0.472440  1.0  0.035
  C  C88  1  0.939070  0.500130  0.464460  1.0  -0.0477
  C  C89  1  0.013970  0.400930  0.508730  1.0  -0.0456
  C  C90  1  0.901870  0.293330  0.444230  1.0  -0.3478
  C  C91  1  0.506530  0.625970  0.741450  1.0  0.3738
  C  C92  1  0.585530  0.527670  0.786050  1.0  0.3653
  C  C93  1  0.618330  0.731970  0.805780  1.0  0.0351
  C  C94  1  0.605730  0.833470  0.797800  1.0  -0.0471
  C  C95  1  0.680630  0.734270  0.842070  1.0  -0.0504
  C  C96  1  0.568530  0.626670  0.777570  1.0  -0.3478
  C  C97  1  0.959300  0.786100  0.925220  1.0  0.3723
  C  C98  1  0.861000  0.608800  0.880620  1.0  0.3652
  C  C99  1  0.065300  0.780300  0.860890  1.0  0.035
  C  C100  1  0.166800  0.894400  0.868870  1.0  -0.0487
  C  C101  1  0.067600  0.720300  0.824600  1.0  -0.0472
  C  C102  1  0.960000  0.724800  0.889100  1.0  -0.3494
  C  C103  1  0.625970  0.119430  0.258550  1.0  0.3723
  C  C104  1  0.527670  0.942130  0.213950  1.0  0.3652
  C  C105  1  0.731970  0.113630  0.194220  1.0  0.035
  C  C106  1  0.833470  0.227730  0.202200  1.0  -0.0487
  C  C107  1  0.734270  0.053630  0.157930  1.0  -0.0472
  C  C108  1  0.626670  0.058130  0.222430  1.0  -0.3494
  C  C109  1  0.292630  0.452770  0.591890  1.0  0.3723
  C  C110  1  0.194330  0.275470  0.547290  1.0  0.3652
  C  C111  1  0.398630  0.446970  0.527560  1.0  0.035
  C  C112  1  0.500130  0.561070  0.535540  1.0  -0.0485
  C  C113  1  0.400930  0.386970  0.491270  1.0  -0.0548
  C  C114  1  0.293330  0.391470  0.555770  1.0  -0.3494
  C  C115  1  0.213900  0.173200  0.925220  1.0  0.3725
  C  C116  1  0.391200  0.252200  0.880620  1.0  0.366
  C  C117  1  0.219700  0.285000  0.860890  1.0  0.0344
  C  C118  1  0.105600  0.272400  0.868870  1.0  -0.0457
  C  C119  1  0.279700  0.347300  0.824600  1.0  -0.0443
  C  C120  1  0.275200  0.235200  0.889100  1.0  -0.3485
  C  C121  1  0.880570  0.506530  0.258550  1.0  0.3725
  C  C122  1  0.057870  0.585530  0.213950  1.0  0.366
  C  C123  1  0.886370  0.618330  0.194220  1.0  0.0344
  C  C124  1  0.772270  0.605730  0.202200  1.0  -0.0457
  C  C125  1  0.946370  0.680630  0.157930  1.0  -0.0443
  C  C126  1  0.941870  0.568530  0.222430  1.0  -0.3485
  C  C127  1  0.547230  0.839870  0.591890  1.0  0.3725
  C  C128  1  0.724530  0.918870  0.547290  1.0  0.366
  C  C129  1  0.553030  0.951670  0.527560  1.0  0.0344
  C  C130  1  0.438930  0.939070  0.535540  1.0  -0.0498
  C  C131  1  0.613030  0.013970  0.491270  1.0  -0.0519
  C  C132  1  0.608530  0.901870  0.555770  1.0  -0.3485
  C  C133  1  0.826800  0.040700  0.925220  1.0  0.3713
  C  C134  1  0.747800  0.139000  0.880620  1.0  0.3644
  C  C135  1  0.715000  0.934700  0.860890  1.0  0.0364
  C  C136  1  0.727600  0.833200  0.868870  1.0  -0.047
  C  C137  1  0.652700  0.932400  0.824600  1.0  -0.0507
  C  C138  1  0.764800  0.040000  0.889100  1.0  -0.3495
  C  C139  1  0.493470  0.374030  0.258550  1.0  0.3713
  C  C140  1  0.414470  0.472330  0.213950  1.0  0.3644
  C  C141  1  0.381670  0.268030  0.194220  1.0  0.0364
  C  C142  1  0.394270  0.166530  0.202200  1.0  -0.047
  C  C143  1  0.319370  0.265730  0.157930  1.0  -0.0507
  C  C144  1  0.431470  0.373330  0.222430  1.0  -0.3495
  C  C145  1  0.160130  0.707370  0.591890  1.0  0.3713
  C  C146  1  0.081130  0.805670  0.547290  1.0  0.3644
  C  C147  1  0.048330  0.601370  0.527560  1.0  0.0363
  C  C148  1  0.060930  0.499870  0.535540  1.0  -0.0477
  C  C149  1  0.986030  0.599070  0.491270  1.0  -0.0452
  C  C150  1  0.098130  0.706670  0.555770  1.0  -0.3495
  N  N151  1  0.215850  0.488080  0.128140  1.0  -0.4737
  N  N152  1  0.035910  0.159190  0.045440  1.0  -0.4377
  N  N153  1  0.882520  0.821410  0.461470  1.0  -0.4737
  N  N154  1  0.702580  0.492520  0.378770  1.0  -0.4377
  N  N155  1  0.549180  0.154750  0.794810  1.0  -0.4737
  N  N156  1  0.369240  0.825860  0.712110  1.0  -0.4377
  N  N157  1  0.511920  0.727770  0.128140  1.0  -0.4669
  N  N158  1  0.840810  0.876720  0.045440  1.0  -0.438
  N  N159  1  0.178590  0.061100  0.461470  1.0  -0.4668
  N  N160  1  0.507480  0.210050  0.378770  1.0  -0.438
  N  N161  1  0.845250  0.394440  0.794810  1.0  -0.4669
  N  N162  1  0.174140  0.543390  0.712110  1.0  -0.438
  N  N163  1  0.272230  0.784150  0.128140  1.0  -0.4689
  N  N164  1  0.123280  0.964090  0.045440  1.0  -0.4367
  N  N165  1  0.938900  0.117480  0.461470  1.0  -0.4689
  N  N166  1  0.789950  0.297420  0.378770  1.0  -0.4367
  N  N167  1  0.605560  0.450820  0.794810  1.0  -0.4689
  N  N168  1  0.456610  0.630760  0.712110  1.0  -0.4367
  N  N169  1  0.784150  0.511920  0.871860  1.0  -0.4715
  N  N170  1  0.964090  0.840810  0.954560  1.0  -0.437
  N  N171  1  0.450820  0.845250  0.205190  1.0  -0.4715
  N  N172  1  0.630760  0.174140  0.287890  1.0  -0.437
  N  N173  1  0.117480  0.178590  0.538530  1.0  -0.4715
  N  N174  1  0.297420  0.507480  0.621230  1.0  -0.437
  N  N175  1  0.488080  0.272230  0.871860  1.0  -0.4691
  N  N176  1  0.159190  0.123280  0.954560  1.0  -0.4386
  N  N177  1  0.154750  0.605560  0.205190  1.0  -0.4691
  N  N178  1  0.825860  0.456610  0.287890  1.0  -0.4386
  N  N179  1  0.821410  0.938900  0.538530  1.0  -0.469
  N  N180  1  0.492520  0.789950  0.621230  1.0  -0.4386
  N  N181  1  0.727770  0.215850  0.871860  1.0  -0.4723
  N  N182  1  0.876720  0.035910  0.954560  1.0  -0.4373
  N  N183  1  0.394440  0.549180  0.205190  1.0  -0.4723
  N  N184  1  0.543390  0.369240  0.287890  1.0  -0.4373
  N  N185  1  0.061100  0.882520  0.538530  1.0  -0.4723
  N  N186  1  0.210050  0.702580  0.621230  1.0  -0.4373
