# generated using pymatgen
data_CeH12C12(NO3)3
_symmetry_space_group_name_H-M   'P 1'
_cell_length_a   7.86800000
_cell_length_b   11.13200000
_cell_length_c   22.30000000
_cell_angle_alpha   90.00000000
_cell_angle_beta   90.00000000
_cell_angle_gamma   99.15800000
_symmetry_Int_Tables_number   1
_chemical_formula_structural   CeH12C12(NO3)3
_chemical_formula_sum   'Ce4 H48 C48 N12 O36'
_cell_volume   1928.28383957
_cell_formula_units_Z   4
loop_
 _symmetry_equiv_pos_site_id
 _symmetry_equiv_pos_as_xyz
  1  'x, y, z'
loop_
 _atom_site_type_symbol
 _atom_site_label
 _atom_site_symmetry_multiplicity
 _atom_site_fract_x
 _atom_site_fract_y
 _atom_site_fract_z
 _atom_site_occupancy
 _atom_site_charge
  Ce  Ce1  1  0.379580  0.723370  0.720640  1.0  2.2857
  Ce  Ce2  1  0.120420  0.276630  0.220640  1.0  2.2859
  Ce  Ce3  1  0.620420  0.276630  0.279360  1.0  2.2856
  Ce  Ce4  1  0.879580  0.723370  0.779360  1.0  2.2852
  H  H5  1  0.236700  0.199200  0.692000  1.0  0.0916
  H  H6  1  0.262100  0.115000  0.637400  1.0  0.0897
  H  H7  1  0.993700  0.991200  0.676100  1.0  0.1452
  H  H8  1  0.048300  0.058700  0.736300  1.0  0.1371
  H  H9  1  0.783600  0.217300  0.461800  1.0  0.0845
  H  H10  1  0.910400  0.122000  0.465300  1.0  0.0895
  H  H11  1  0.035700  0.373000  0.451200  1.0  0.1296
  H  H12  1  0.143000  0.266900  0.442200  1.0  0.1288
  H  H13  1  0.882000  0.481300  0.686400  1.0  0.0637
  H  H14  1  0.801000  0.510700  0.625000  1.0  0.0721
  H  H15  1  0.574600  0.364000  0.646600  1.0  0.1274
  H  H16  1  0.653500  0.355300  0.710600  1.0  0.1215
  H  H17  1  0.263300  0.800800  0.192000  1.0  0.0911
  H  H18  1  0.237900  0.885000  0.137400  1.0  0.0898
  H  H19  1  0.506300  0.008800  0.176100  1.0  0.1439
  H  H20  1  0.451700  0.941300  0.236300  1.0  0.1372
  H  H21  1  0.716400  0.782700  0.961800  1.0  0.0835
  H  H22  1  0.589600  0.878000  0.965300  1.0  0.091
  H  H23  1  0.464300  0.627000  0.951200  1.0  0.1334
  H  H24  1  0.357000  0.733100  0.942200  1.0  0.1202
  H  H25  1  0.618000  0.518700  0.186400  1.0  0.065
  H  H26  1  0.699000  0.489300  0.125000  1.0  0.0718
  H  H27  1  0.925400  0.636000  0.146600  1.0  0.1275
  H  H28  1  0.846500  0.644700  0.210600  1.0  0.1203
  H  H29  1  0.763300  0.800800  0.308000  1.0  0.0908
  H  H30  1  0.737900  0.885000  0.362600  1.0  0.0895
  H  H31  1  0.006300  0.008800  0.323900  1.0  0.1428
  H  H32  1  0.951700  0.941300  0.263700  1.0  0.137
  H  H33  1  0.216400  0.782700  0.538200  1.0  0.0837
  H  H34  1  0.089600  0.878000  0.534700  1.0  0.0909
  H  H35  1  0.964300  0.627000  0.548800  1.0  0.1323
  H  H36  1  0.857000  0.733100  0.557800  1.0  0.1199
  H  H37  1  0.118000  0.518700  0.313600  1.0  0.0642
  H  H38  1  0.199000  0.489300  0.375000  1.0  0.0719
  H  H39  1  0.425400  0.636000  0.353400  1.0  0.126
  H  H40  1  0.346500  0.644700  0.289400  1.0  0.1229
  H  H41  1  0.736700  0.199200  0.808000  1.0  0.0927
  H  H42  1  0.762100  0.115000  0.862600  1.0  0.0884
  H  H43  1  0.493700  0.991200  0.823900  1.0  0.145
  H  H44  1  0.548300  0.058700  0.763700  1.0  0.1367
  H  H45  1  0.283600  0.217300  0.038200  1.0  0.0852
  H  H46  1  0.410400  0.122000  0.034700  1.0  0.0898
  H  H47  1  0.535700  0.373000  0.048800  1.0  0.1293
  H  H48  1  0.643000  0.266900  0.057800  1.0  0.129
  H  H49  1  0.382000  0.481300  0.813600  1.0  0.0631
  H  H50  1  0.301000  0.510700  0.875000  1.0  0.0715
  H  H51  1  0.074600  0.364000  0.853400  1.0  0.1273
  H  H52  1  0.153500  0.355300  0.789400  1.0  0.1236
  C  C53  1  0.036400  0.172300  0.568900  1.0  0.6175
  C  C54  1  0.842700  0.318100  0.563800  1.0  0.5845
  C  C55  1  0.957000  0.267400  0.659800  1.0  0.6288
  C  C56  1  0.177100  0.139700  0.664300  1.0  0.0923
  C  C57  1  0.091700  0.030900  0.698900  1.0  -0.4119
  C  C58  1  0.206600  0.939000  0.712900  1.0  0.7873
  C  C59  1  0.898600  0.205900  0.473600  1.0  0.0904
  C  C60  1  0.030200  0.290200  0.436900  1.0  -0.3792
  C  C61  1  0.983600  0.284500  0.371100  1.0  0.8199
  C  C62  1  0.806300  0.447000  0.654300  1.0  0.1085
  C  C63  1  0.644000  0.410100  0.677300  1.0  -0.3459
  C  C64  1  0.550900  0.509700  0.698800  1.0  0.7972
  C  C65  1  0.463600  0.827700  0.068900  1.0  0.6156
  C  C66  1  0.657300  0.681900  0.063800  1.0  0.5851
  C  C67  1  0.543000  0.732600  0.159800  1.0  0.6288
  C  C68  1  0.322900  0.860300  0.164300  1.0  0.091
  C  C69  1  0.408300  0.969100  0.198900  1.0  -0.4121
  C  C70  1  0.293400  0.061000  0.212900  1.0  0.7874
  C  C71  1  0.601400  0.794100  0.973600  1.0  0.0906
  C  C72  1  0.469800  0.709800  0.936900  1.0  -0.3819
  C  C73  1  0.516400  0.715500  0.871100  1.0  0.8202
  C  C74  1  0.693700  0.553000  0.154300  1.0  0.1069
  C  C75  1  0.856000  0.589900  0.177300  1.0  -0.3032
  C  C76  1  0.949100  0.490300  0.198800  1.0  0.7974
  C  C77  1  0.963600  0.827700  0.431100  1.0  0.616
  C  C78  1  0.157300  0.681900  0.436200  1.0  0.5829
  C  C79  1  0.043000  0.732600  0.340200  1.0  0.6283
  C  C80  1  0.822900  0.860300  0.335700  1.0  0.0922
  C  C81  1  0.908300  0.969100  0.301100  1.0  -0.4115
  C  C82  1  0.793400  0.061000  0.287100  1.0  0.7882
  C  C83  1  0.101400  0.794100  0.526400  1.0  0.0918
  C  C84  1  0.969800  0.709800  0.563100  1.0  -0.3829
  C  C85  1  0.016400  0.715500  0.628900  1.0  0.8196
  C  C86  1  0.193700  0.553000  0.345700  1.0  0.1064
  C  C87  1  0.356000  0.589900  0.322700  1.0  -0.2955
  C  C88  1  0.449100  0.490300  0.301200  1.0  0.8004
  C  C89  1  0.536400  0.172300  0.931100  1.0  0.618
  C  C90  1  0.342700  0.318100  0.936200  1.0  0.5826
  C  C91  1  0.457000  0.267400  0.840200  1.0  0.6283
  C  C92  1  0.677100  0.139700  0.835700  1.0  0.0933
  C  C93  1  0.591700  0.030900  0.801100  1.0  -0.412
  C  C94  1  0.706600  0.939000  0.787100  1.0  0.7874
  C  C95  1  0.398600  0.205900  0.026400  1.0  0.0913
  C  C96  1  0.530200  0.290200  0.063100  1.0  -0.3808
  C  C97  1  0.483600  0.284500  0.128900  1.0  0.8195
  C  C98  1  0.306300  0.447000  0.845700  1.0  0.1089
  C  C99  1  0.144000  0.410100  0.822700  1.0  -0.3329
  C  C100  1  0.050900  0.509700  0.801200  1.0  0.8
  N  N101  1  0.053300  0.195900  0.629500  1.0  -0.3165
  N  N102  1  0.921200  0.229500  0.538300  1.0  -0.2967
  N  N103  1  0.881600  0.345400  0.625000  1.0  -0.3249
  N  N104  1  0.446700  0.804100  0.129500  1.0  -0.317
  N  N105  1  0.578800  0.770500  0.038300  1.0  -0.2976
  N  N106  1  0.618400  0.654600  0.125000  1.0  -0.3257
  N  N107  1  0.946700  0.804100  0.370500  1.0  -0.3175
  N  N108  1  0.078800  0.770500  0.461700  1.0  -0.2972
  N  N109  1  0.118400  0.654600  0.375000  1.0  -0.3264
  N  N110  1  0.553300  0.195900  0.870500  1.0  -0.317
  N  N111  1  0.421200  0.229500  0.961700  1.0  -0.2971
  N  N112  1  0.381600  0.345400  0.875000  1.0  -0.3257
  O  O113  1  0.761500  0.380500  0.534000  1.0  -0.5044
  O  O114  1  0.960000  0.276600  0.713800  1.0  -0.5074
  O  O115  1  0.119500  0.105000  0.543500  1.0  -0.5149
  O  O116  1  0.345300  0.939400  0.685500  1.0  -0.6509
  O  O117  1  0.155100  0.856700  0.752100  1.0  -0.8613
  O  O118  1  0.099200  0.266600  0.334340  1.0  -0.7331
  O  O119  1  0.834200  0.301400  0.357500  1.0  -0.7657
  O  O120  1  0.622700  0.593500  0.733900  1.0  -0.8563
  O  O121  1  0.401300  0.508900  0.682100  1.0  -0.6423
  O  O122  1  0.738500  0.619500  0.034000  1.0  -0.5039
  O  O123  1  0.540000  0.723400  0.213800  1.0  -0.5069
  O  O124  1  0.380500  0.895000  0.043500  1.0  -0.515
  O  O125  1  0.154700  0.060600  0.185500  1.0  -0.6508
  O  O126  1  0.344900  0.143300  0.252100  1.0  -0.8617
  O  O127  1  0.400800  0.733400  0.834340  1.0  -0.7328
  O  O128  1  0.665800  0.698600  0.857500  1.0  -0.7635
  O  O129  1  0.877300  0.406500  0.233900  1.0  -0.8553
  O  O130  1  0.098700  0.491100  0.182100  1.0  -0.6413
  O  O131  1  0.238500  0.619500  0.466000  1.0  -0.504
  O  O132  1  0.040000  0.723400  0.286200  1.0  -0.507
  O  O133  1  0.880500  0.895000  0.456500  1.0  -0.5149
  O  O134  1  0.654700  0.060600  0.314500  1.0  -0.6526
  O  O135  1  0.844900  0.143300  0.247900  1.0  -0.8617
  O  O136  1  0.900800  0.733400  0.665660  1.0  -0.7359
  O  O137  1  0.165800  0.698600  0.642500  1.0  -0.7638
  O  O138  1  0.377300  0.406500  0.266100  1.0  -0.856
  O  O139  1  0.598700  0.491100  0.317900  1.0  -0.6422
  O  O140  1  0.261500  0.380500  0.966000  1.0  -0.5045
  O  O141  1  0.460000  0.276600  0.786200  1.0  -0.5079
  O  O142  1  0.619500  0.105000  0.956500  1.0  -0.5144
  O  O143  1  0.845300  0.939400  0.814500  1.0  -0.6506
  O  O144  1  0.655100  0.856700  0.747900  1.0  -0.8626
  O  O145  1  0.599200  0.266600  0.165660  1.0  -0.7353
  O  O146  1  0.334200  0.301400  0.142500  1.0  -0.765
  O  O147  1  0.122700  0.593500  0.766100  1.0  -0.8571
  O  O148  1  0.901300  0.508900  0.817900  1.0  -0.6437
