# generated using pymatgen
data_GdH12C12(NO3)3
_symmetry_space_group_name_H-M   'P 1'
_cell_length_a   7.64400000
_cell_length_b   11.14800000
_cell_length_c   22.26200000
_cell_angle_alpha   90.00000000
_cell_angle_beta   90.00000000
_cell_angle_gamma   98.82800000
_symmetry_Int_Tables_number   1
_chemical_formula_structural   GdH12C12(NO3)3
_chemical_formula_sum   'Gd4 H48 C48 N12 O36'
_cell_volume   1874.58971652
_cell_formula_units_Z   4
loop_
 _symmetry_equiv_pos_site_id
 _symmetry_equiv_pos_as_xyz
  1  'x, y, z'
loop_
 _atom_site_type_symbol
 _atom_site_label
 _atom_site_symmetry_multiplicity
 _atom_site_fract_x
 _atom_site_fract_y
 _atom_site_fract_z
 _atom_site_occupancy
 _atom_site_charge
  Gd  Gd1  1  0.605110  0.266330  0.778820  1.0  2.2331
  Gd  Gd2  1  0.894890  0.733670  0.278820  1.0  2.2321
  Gd  Gd3  1  0.394890  0.733670  0.221180  1.0  2.2321
  Gd  Gd4  1  0.105110  0.266330  0.721180  1.0  2.2329
  H  H5  1  0.404600  0.122600  0.535600  1.0  0.0891
  H  H6  1  0.270700  0.215900  0.538400  1.0  0.0879
  H  H7  1  0.521900  0.372700  0.552200  1.0  0.1257
  H  H8  1  0.637500  0.268900  0.560500  1.0  0.1336
  H  H9  1  0.303900  0.516500  0.374600  1.0  0.0816
  H  H10  1  0.411300  0.484000  0.317800  1.0  0.0793
  H  H11  1  0.098200  0.371400  0.339800  1.0  0.1434
  H  H12  1  0.203100  0.390200  0.279800  1.0  0.1313
  H  H13  1  0.768400  0.114600  0.366700  1.0  0.0907
  H  H14  1  0.750400  0.201800  0.312500  1.0  0.0934
  H  H15  1  0.562700  0.065200  0.263900  1.0  0.1415
  H  H16  1  0.498600  0.994400  0.322500  1.0  0.1477
  H  H17  1  0.095400  0.877400  0.035600  1.0  0.0899
  H  H18  1  0.229300  0.784100  0.038400  1.0  0.0876
  H  H19  1  0.978100  0.627300  0.052200  1.0  0.1276
  H  H20  1  0.862500  0.731100  0.060500  1.0  0.1318
  H  H21  1  0.196100  0.483500  0.874600  1.0  0.0815
  H  H22  1  0.088700  0.516000  0.817800  1.0  0.0803
  H  H23  1  0.401800  0.628600  0.839800  1.0  0.1404
  H  H24  1  0.296900  0.609800  0.779800  1.0  0.1329
  H  H25  1  0.731600  0.885400  0.866700  1.0  0.0899
  H  H26  1  0.749600  0.798200  0.812500  1.0  0.0919
  H  H27  1  0.937300  0.934800  0.763900  1.0  0.142
  H  H28  1  0.001400  0.005600  0.822500  1.0  0.1457
  H  H29  1  0.595400  0.877400  0.464400  1.0  0.0895
  H  H30  1  0.729300  0.784100  0.461600  1.0  0.0876
  H  H31  1  0.478100  0.627300  0.447800  1.0  0.1283
  H  H32  1  0.362500  0.731100  0.439500  1.0  0.1321
  H  H33  1  0.696100  0.483500  0.625400  1.0  0.0826
  H  H34  1  0.588700  0.516000  0.682200  1.0  0.0789
  H  H35  1  0.901800  0.628600  0.660200  1.0  0.1407
  H  H36  1  0.796900  0.609800  0.720200  1.0  0.1345
  H  H37  1  0.231600  0.885400  0.633300  1.0  0.0894
  H  H38  1  0.249600  0.798200  0.687500  1.0  0.0923
  H  H39  1  0.437300  0.934800  0.736100  1.0  0.1409
  H  H40  1  0.501400  0.005600  0.677500  1.0  0.146
  H  H41  1  0.904600  0.122600  0.964400  1.0  0.0885
  H  H42  1  0.770700  0.215900  0.961600  1.0  0.0874
  H  H43  1  0.021900  0.372700  0.947800  1.0  0.1262
  H  H44  1  0.137500  0.268900  0.939500  1.0  0.1337
  H  H45  1  0.803900  0.516500  0.125400  1.0  0.0825
  H  H46  1  0.911300  0.484000  0.182200  1.0  0.0781
  H  H47  1  0.598200  0.371400  0.160200  1.0  0.1426
  H  H48  1  0.703100  0.390200  0.220200  1.0  0.1341
  H  H49  1  0.268400  0.114600  0.133300  1.0  0.0911
  H  H50  1  0.250400  0.201800  0.187500  1.0  0.0923
  H  H51  1  0.062700  0.065200  0.236100  1.0  0.1399
  H  H52  1  0.998600  0.994400  0.177500  1.0  0.1473
  C  C53  1  0.539100  0.173800  0.433200  1.0  0.6176
  C  C54  1  0.323000  0.311000  0.437700  1.0  0.6437
  C  C55  1  0.456000  0.265000  0.341900  1.0  0.6412
  C  C56  1  0.390500  0.206000  0.527400  1.0  0.0902
  C  C57  1  0.519500  0.289500  0.565400  1.0  -0.3812
  C  C58  1  0.467000  0.278600  0.630900  1.0  0.8162
  C  C59  1  0.313000  0.455400  0.344300  1.0  0.1417
  C  C60  1  0.175000  0.431000  0.316300  1.0  -0.4368
  C  C61  1  0.067600  0.525800  0.298000  1.0  0.8071
  C  C62  1  0.685000  0.141300  0.338700  1.0  0.0795
  C  C63  1  0.602400  0.034900  0.301500  1.0  -0.4044
  C  C64  1  0.720300  0.943700  0.287900  1.0  0.7904
  C  C65  1  0.960900  0.826200  0.933200  1.0  0.6179
  C  C66  1  0.177000  0.689000  0.937700  1.0  0.6424
  C  C67  1  0.044000  0.735000  0.841900  1.0  0.6409
  C  C68  1  0.109500  0.794000  0.027400  1.0  0.0899
  C  C69  1  0.980500  0.710500  0.065400  1.0  -0.3831
  C  C70  1  0.033000  0.721400  0.130900  1.0  0.8173
  C  C71  1  0.187000  0.544600  0.844300  1.0  0.1427
  C  C72  1  0.325000  0.569000  0.816300  1.0  -0.4167
  C  C73  1  0.432400  0.474200  0.798000  1.0  0.8092
  C  C74  1  0.815000  0.858700  0.838700  1.0  0.0788
  C  C75  1  0.897600  0.965100  0.801500  1.0  -0.4034
  C  C76  1  0.779700  0.056300  0.787900  1.0  0.7936
  C  C77  1  0.460900  0.826200  0.566800  1.0  0.6187
  C  C78  1  0.677000  0.689000  0.562300  1.0  0.6429
  C  C79  1  0.544000  0.735000  0.658100  1.0  0.6409
  C  C80  1  0.609500  0.794000  0.472600  1.0  0.0889
  C  C81  1  0.480500  0.710500  0.434600  1.0  -0.3835
  C  C82  1  0.533000  0.721400  0.369100  1.0  0.8186
  C  C83  1  0.687000  0.544600  0.655700  1.0  0.1456
  C  C84  1  0.825000  0.569000  0.683700  1.0  -0.4218
  C  C85  1  0.932400  0.474200  0.702000  1.0  0.808
  C  C86  1  0.315000  0.858700  0.661300  1.0  0.078
  C  C87  1  0.397600  0.965100  0.698500  1.0  -0.4033
  C  C88  1  0.279700  0.056300  0.712100  1.0  0.7933
  C  C89  1  0.039100  0.173800  0.066800  1.0  0.6178
  C  C90  1  0.823000  0.311000  0.062300  1.0  0.6449
  C  C91  1  0.956000  0.265000  0.158100  1.0  0.6415
  C  C92  1  0.890500  0.206000  0.972600  1.0  0.0894
  C  C93  1  0.019500  0.289500  0.934600  1.0  -0.381
  C  C94  1  0.967000  0.278600  0.869100  1.0  0.8175
  C  C95  1  0.813000  0.455400  0.155700  1.0  0.1451
  C  C96  1  0.675000  0.431000  0.183700  1.0  -0.4399
  C  C97  1  0.567600  0.525800  0.202000  1.0  0.805
  C  C98  1  0.185000  0.141300  0.161300  1.0  0.0785
  C  C99  1  0.102400  0.034900  0.198500  1.0  -0.4044
  C  C100  1  0.220300  0.943700  0.212100  1.0  0.791
  N  N101  1  0.416200  0.230100  0.463500  1.0  -0.3025
  N  N102  1  0.337000  0.319000  0.376300  1.0  -0.3991
  N  N103  1  0.553600  0.196600  0.372300  1.0  -0.2982
  N  N104  1  0.083800  0.769900  0.963500  1.0  -0.3024
  N  N105  1  0.163000  0.681000  0.876300  1.0  -0.4001
  N  N106  1  0.946400  0.803400  0.872300  1.0  -0.2995
  N  N107  1  0.583800  0.769900  0.536500  1.0  -0.3029
  N  N108  1  0.663000  0.681000  0.623700  1.0  -0.399
  N  N109  1  0.446400  0.803400  0.627700  1.0  -0.2974
  N  N110  1  0.916200  0.230100  0.036500  1.0  -0.3023
  N  N111  1  0.837000  0.319000  0.123700  1.0  -0.3994
  N  N112  1  0.053600  0.196600  0.127700  1.0  -0.2963
  O  O113  1  0.460000  0.275800  0.287700  1.0  -0.5096
  O  O114  1  0.626800  0.109600  0.458700  1.0  -0.4998
  O  O115  1  0.229000  0.367000  0.466400  1.0  -0.5191
  O  O116  1  0.583700  0.260800  0.669000  1.0  -0.7372
  O  O117  1  0.312100  0.291100  0.643400  1.0  -0.7453
  O  O118  1  0.913700  0.522800  0.315800  1.0  -0.6388
  O  O119  1  0.135200  0.610400  0.263100  1.0  -0.8565
  O  O120  1  0.669700  0.861100  0.248400  1.0  -0.8415
  O  O121  1  0.862900  0.942300  0.314400  1.0  -0.6448
  O  O122  1  0.040000  0.724200  0.787700  1.0  -0.5094
  O  O123  1  0.873200  0.890400  0.958700  1.0  -0.4997
  O  O124  1  0.271000  0.633000  0.966400  1.0  -0.5193
  O  O125  1  0.916300  0.739200  0.169000  1.0  -0.738
  O  O126  1  0.187900  0.708900  0.143400  1.0  -0.7464
  O  O127  1  0.586300  0.477200  0.815800  1.0  -0.6386
  O  O128  1  0.364800  0.389600  0.763100  1.0  -0.8512
  O  O129  1  0.830300  0.138900  0.748400  1.0  -0.8413
  O  O130  1  0.637100  0.057700  0.814400  1.0  -0.6451
  O  O131  1  0.540000  0.724200  0.712300  1.0  -0.5093
  O  O132  1  0.373200  0.890400  0.541300  1.0  -0.5001
  O  O133  1  0.771000  0.633000  0.533600  1.0  -0.5193
  O  O134  1  0.416300  0.739200  0.331000  1.0  -0.7377
  O  O135  1  0.687900  0.708900  0.356600  1.0  -0.7469
  O  O136  1  0.086300  0.477200  0.684200  1.0  -0.6391
  O  O137  1  0.864800  0.389600  0.736900  1.0  -0.8519
  O  O138  1  0.330300  0.138900  0.751600  1.0  -0.8429
  O  O139  1  0.137100  0.057700  0.685600  1.0  -0.6447
  O  O140  1  0.960000  0.275800  0.212300  1.0  -0.5092
  O  O141  1  0.126800  0.109600  0.041300  1.0  -0.4996
  O  O142  1  0.729000  0.367000  0.033600  1.0  -0.5199
  O  O143  1  0.083700  0.260800  0.831000  1.0  -0.737
  O  O144  1  0.812100  0.291100  0.856600  1.0  -0.7476
  O  O145  1  0.413700  0.522800  0.184200  1.0  -0.6388
  O  O146  1  0.635200  0.610400  0.236900  1.0  -0.8567
  O  O147  1  0.169700  0.861100  0.251600  1.0  -0.8435
  O  O148  1  0.362900  0.942300  0.185600  1.0  -0.6445
