# generated using pymatgen
data_Cd3H32C54(NO6)2
_symmetry_space_group_name_H-M   'P 1'
_cell_length_a   9.30280000
_cell_length_b   14.90430000
_cell_length_c   15.20920000
_cell_angle_alpha   70.59400000
_cell_angle_beta   83.47200000
_cell_angle_gamma   84.97800000
_symmetry_Int_Tables_number   1
_chemical_formula_structural   Cd3H32C54(NO6)2
_chemical_formula_sum   'Cd3 H32 C54 N2 O12'
_cell_volume   1973.29321096
_cell_formula_units_Z   1
loop_
 _symmetry_equiv_pos_site_id
 _symmetry_equiv_pos_as_xyz
  1  'x, y, z'
loop_
 _atom_site_type_symbol
 _atom_site_label
 _atom_site_symmetry_multiplicity
 _atom_site_fract_x
 _atom_site_fract_y
 _atom_site_fract_z
 _atom_site_occupancy
 _atom_site_charge
  Cd  Cd1  1  0.656920  0.721320  0.034720  1.0  1.0254
  Cd  Cd2  1  0.343080  0.278680  0.965280  1.0  1.0243
  Cd  Cd3  1  0.500000  0.500000  0.000000  1.0  1.0305
  H  H4  1  0.197200  0.220500  0.902400  1.0  0.353
  H  H5  1  0.104900  0.308500  0.897800  1.0  0.3529
  H  H6  1  0.155900  0.502000  0.592200  1.0  0.1133
  H  H7  1  0.308900  0.572400  0.472200  1.0  0.1167
  H  H8  1  0.657700  0.060600  0.864700  1.0  0.1125
  H  H9  1  0.394000  0.638200  0.317300  1.0  0.1069
  H  H10  1  0.556400  0.207800  0.780400  1.0  0.1073
  H  H11  1  0.402900  0.265600  0.602700  1.0  0.1093
  H  H12  1  0.482800  0.377200  0.298000  1.0  0.1097
  H  H13  1  0.277100  0.944200  0.885800  1.0  0.1136
  H  H14  1  0.397900  0.310900  0.452700  1.0  0.1195
  H  H15  1  0.087500  0.585100  0.911900  1.0  0.1185
  H  H16  1  0.177400  0.090100  0.802100  1.0  0.1165
  H  H17  1  0.730900  0.550100  0.806000  1.0  0.1038
  H  H18  1  0.867600  0.465300  0.720100  1.0  0.0949
  H  H19  1  0.221500  0.491300  0.834400  1.0  0.0873
  H  H20  1  0.802800  0.779500  0.097600  1.0  0.3554
  H  H21  1  0.895100  0.691500  0.102200  1.0  0.3543
  H  H22  1  0.844100  0.498000  0.407800  1.0  0.1138
  H  H23  1  0.691100  0.427600  0.527800  1.0  0.1165
  H  H24  1  0.342300  0.939400  0.135300  1.0  0.1123
  H  H25  1  0.606000  0.361800  0.682700  1.0  0.1063
  H  H26  1  0.443600  0.792200  0.219600  1.0  0.1067
  H  H27  1  0.597100  0.734400  0.397300  1.0  0.1094
  H  H28  1  0.517200  0.622800  0.702000  1.0  0.11
  H  H29  1  0.722900  0.055800  0.114200  1.0  0.1137
  H  H30  1  0.602100  0.689100  0.547300  1.0  0.1182
  H  H31  1  0.912500  0.414900  0.088100  1.0  0.1194
  H  H32  1  0.822600  0.909900  0.197900  1.0  0.1151
  H  H33  1  0.269100  0.449900  0.194000  1.0  0.1043
  H  H34  1  0.132400  0.534700  0.279900  1.0  0.0961
  H  H35  1  0.778500  0.508700  0.165600  1.0  0.0889
  C  C36  1  0.355900  0.164300  0.781100  1.0  0.054
  C  C37  1  0.478700  0.987700  0.883300  1.0  -0.123
  C  C38  1  0.445100  0.514400  0.291100  1.0  -0.1129
  C  C39  1  0.809100  0.627800  0.924200  1.0  0.6715
  C  C40  1  0.546700  0.893200  0.936700  1.0  0.7002
  C  C41  1  0.059500  0.464400  0.770800  1.0  0.0818
  C  C42  1  0.192700  0.442000  0.626300  1.0  -0.09
  C  C43  1  0.342600  0.532800  0.437400  1.0  -0.1229
  C  C44  1  0.288800  0.391500  0.580100  1.0  -0.0358
  C  C45  1  0.561200  0.066400  0.851900  1.0  -0.0088
  C  C46  1  0.393800  0.572300  0.344400  1.0  -0.0353
  C  C47  1  0.894800  0.572400  0.869600  1.0  -0.0885
  C  C48  1  0.294000  0.259300  0.727300  1.0  -0.0192
  C  C49  1  0.341000  0.433800  0.479700  1.0  0.0228
  C  C50  1  0.500400  0.154800  0.801100  1.0  -0.1257
  C  C51  1  0.496300  0.556100  0.189400  1.0  0.664
  C  C52  1  0.338400  0.300200  0.632100  1.0  -0.1121
  C  C53  1  0.200700  0.312600  0.771600  1.0  0.0926
  C  C54  1  0.447000  0.416600  0.332700  1.0  -0.0755
  C  C55  1  0.333600  0.997000  0.864400  1.0  -0.064
  C  C56  1  0.395700  0.376800  0.425700  1.0  -0.1368
  C  C57  1  0.150400  0.405600  0.721300  1.0  -0.0228
  C  C58  1  0.042300  0.558100  0.876000  1.0  -0.1133
  C  C59  1  0.274200  0.084500  0.814100  1.0  -0.0966
  C  C60  1  0.829900  0.538400  0.811600  1.0  -0.0622
  C  C61  1  0.912000  0.486100  0.761100  1.0  -0.112
  C  C62  1  0.122700  0.502800  0.828100  1.0  -0.1
  C  C63  1  0.644100  0.835700  0.218900  1.0  0.0556
  C  C64  1  0.521300  0.012300  0.116700  1.0  -0.1205
  C  C65  1  0.554900  0.485600  0.708900  1.0  -0.1103
  C  C66  1  0.190900  0.372200  0.075800  1.0  0.6711
  C  C67  1  0.453300  0.106800  0.063300  1.0  0.7011
  C  C68  1  0.940500  0.535600  0.229200  1.0  0.0827
  C  C69  1  0.807300  0.558000  0.373700  1.0  -0.089
  C  C70  1  0.657400  0.467200  0.562600  1.0  -0.1233
  C  C71  1  0.711200  0.608500  0.419900  1.0  -0.037
  C  C72  1  0.438800  0.933600  0.148100  1.0  -0.0111
  C  C73  1  0.606200  0.427700  0.655600  1.0  -0.0325
  C  C74  1  0.105200  0.427600  0.130400  1.0  -0.0874
  C  C75  1  0.706000  0.740700  0.272700  1.0  -0.0166
  C  C76  1  0.659000  0.566200  0.520300  1.0  0.0208
  C  C77  1  0.499600  0.845200  0.198900  1.0  -0.1253
  C  C78  1  0.503700  0.443900  0.810600  1.0  0.6647
  C  C79  1  0.661600  0.699800  0.367900  1.0  -0.1103
  C  C80  1  0.799300  0.687400  0.228400  1.0  0.0943
  C  C81  1  0.553000  0.583400  0.667300  1.0  -0.0789
  C  C82  1  0.666400  0.003000  0.135600  1.0  -0.0644
  C  C83  1  0.604300  0.623200  0.574300  1.0  -0.1369
  C  C84  1  0.849600  0.594400  0.278700  1.0  -0.0224
  C  C85  1  0.957700  0.441900  0.124000  1.0  -0.1121
  C  C86  1  0.725800  0.915500  0.185900  1.0  -0.0964
  C  C87  1  0.170100  0.461600  0.188400  1.0  -0.0615
  C  C88  1  0.088000  0.513900  0.238900  1.0  -0.1141
  C  C89  1  0.877300  0.497200  0.171900  1.0  -0.0995
  N  N90  1  0.162500  0.275600  0.870400  1.0  -0.6138
  N  N91  1  0.837500  0.724400  0.129600  1.0  -0.6142
  O  O92  1  0.469200  0.819850  0.962400  1.0  -0.6043
  O  O93  1  0.674200  0.886140  0.957000  1.0  -0.6007
  O  O94  1  0.674200  0.615680  0.947340  1.0  -0.7336
  O  O95  1  0.867800  0.688600  0.946400  1.0  -0.6274
  O  O96  1  0.523500  0.499590  0.143680  1.0  -0.6354
  O  O97  1  0.509400  0.644980  0.157020  1.0  -0.598
  O  O98  1  0.530800  0.180150  0.037600  1.0  -0.604
  O  O99  1  0.325800  0.113860  0.043000  1.0  -0.6001
  O  O100  1  0.325800  0.384320  0.052660  1.0  -0.7337
  O  O101  1  0.132200  0.311400  0.053600  1.0  -0.6275
  O  O102  1  0.476500  0.500410  0.856320  1.0  -0.6358
  O  O103  1  0.490600  0.355020  0.842980  1.0  -0.5976
