# generated using pymatgen
data_Mn4H22C37N17O9
_symmetry_space_group_name_H-M   'P 1'
_cell_length_a   12.62610000
_cell_length_b   12.62610000
_cell_length_c   42.55900000
_cell_angle_alpha   90.00000000
_cell_angle_beta   90.00000000
_cell_angle_gamma   90.00000000
_symmetry_Int_Tables_number   1
_chemical_formula_structural   Mn4H22C37N17O9
_chemical_formula_sum   'Mn16 H88 C148 N68 O36'
_cell_volume   6784.68773710
_cell_formula_units_Z   4
loop_
 _symmetry_equiv_pos_site_id
 _symmetry_equiv_pos_as_xyz
  1  'x, y, z'
loop_
 _atom_site_type_symbol
 _atom_site_label
 _atom_site_symmetry_multiplicity
 _atom_site_fract_x
 _atom_site_fract_y
 _atom_site_fract_z
 _atom_site_occupancy
 _atom_site_charge
  Mn  Mn1  1  0.252530  0.709210  0.888900  1.0  1.0086
  Mn  Mn2  1  0.152220  0.920060  0.831090  1.0  1.0974
  Mn  Mn3  1  0.347810  0.420130  0.918960  1.0  1.038
  Mn  Mn4  1  0.247560  0.209320  0.861010  1.0  0.9978
  Mn  Mn5  1  0.747470  0.290790  0.388900  1.0  1.0089
  Mn  Mn6  1  0.847780  0.079940  0.331090  1.0  1.0985
  Mn  Mn7  1  0.652190  0.579870  0.418960  1.0  1.0399
  Mn  Mn8  1  0.752440  0.790680  0.361010  1.0  0.9982
  Mn  Mn9  1  0.709210  0.252530  0.611100  1.0  1.0081
  Mn  Mn10  1  0.920060  0.152220  0.668910  1.0  1.0969
  Mn  Mn11  1  0.420130  0.347810  0.581040  1.0  1.0386
  Mn  Mn12  1  0.209320  0.247560  0.638990  1.0  0.9991
  Mn  Mn13  1  0.290790  0.747470  0.111100  1.0  1.0078
  Mn  Mn14  1  0.079940  0.847780  0.168910  1.0  1.0976
  Mn  Mn15  1  0.579870  0.652190  0.081040  1.0  1.0399
  Mn  Mn16  1  0.790680  0.752440  0.138990  1.0  0.9987
  H  H17  1  0.570400  0.803000  0.881100  1.0  0.1122
  H  H18  1  0.927700  0.305100  0.866400  1.0  0.0994
  H  H19  1  0.828000  0.547800  0.892900  1.0  0.0977
  H  H20  1  0.744000  0.841200  0.870000  1.0  0.0886
  H  H21  1  0.655200  0.508000  0.905400  1.0  0.0999
  H  H22  1  0.015400  0.246400  0.760900  1.0  0.1111
  H  H23  1  0.435900  0.808300  0.940800  1.0  0.0865
  H  H24  1  0.266600  0.926400  0.029700  1.0  0.1077
  H  H25  1  0.846200  0.006200  0.845800  1.0  0.0934
  H  H26  1  0.227200  0.999200  0.980700  1.0  0.1072
  H  H27  1  0.671000  0.048000  0.855500  1.0  0.1015
  H  H28  1  0.063300  0.309700  0.808700  1.0  0.0829
  H  H29  1  0.481100  0.743900  0.989900  1.0  0.0848
  H  H30  1  0.278000  0.495600  0.768800  1.0  0.128
  H  H31  1  0.236900  0.423900  0.721500  1.0  0.0844
  H  H32  1  0.756400  0.343000  0.879300  1.0  0.0939
  H  H33  1  0.037700  0.877100  0.781000  1.0  0.4646
  H  H34  1  0.428800  0.482000  0.984000  1.0  0.1132
  H  H35  1  0.411500  0.191300  0.946900  1.0  0.113
  H  H36  1  0.449300  0.116700  0.995100  1.0  0.0865
  H  H37  1  0.467700  0.411900  0.032700  1.0  0.0924
  H  H38  1  0.480700  0.221900  0.042300  1.0  0.1505
  H  H39  1  0.429600  0.197000  0.381100  1.0  0.1117
  H  H40  1  0.072300  0.694900  0.366400  1.0  0.0992
  H  H41  1  0.172000  0.452200  0.392900  1.0  0.0978
  H  H42  1  0.256000  0.158800  0.370000  1.0  0.0889
  H  H43  1  0.344800  0.492000  0.405400  1.0  0.1008
  H  H44  1  0.984600  0.753600  0.260900  1.0  0.1112
  H  H45  1  0.564100  0.191700  0.440800  1.0  0.0862
  H  H46  1  0.733400  0.073600  0.529700  1.0  0.1079
  H  H47  1  0.153800  0.993800  0.345800  1.0  0.0937
  H  H48  1  0.772800  0.000800  0.480700  1.0  0.1071
  H  H49  1  0.329000  0.952000  0.355500  1.0  0.1017
  H  H50  1  0.936700  0.690300  0.308700  1.0  0.0829
  H  H51  1  0.518900  0.256100  0.489900  1.0  0.0853
  H  H52  1  0.722000  0.504400  0.268800  1.0  0.1283
  H  H53  1  0.763100  0.576100  0.221500  1.0  0.084
  H  H54  1  0.243600  0.657000  0.379300  1.0  0.0936
  H  H55  1  0.962300  0.122900  0.281000  1.0  0.4612
  H  H56  1  0.571200  0.518000  0.484000  1.0  0.1139
  H  H57  1  0.588500  0.808700  0.446900  1.0  0.1129
  H  H58  1  0.550700  0.883300  0.495100  1.0  0.0874
  H  H59  1  0.532300  0.588100  0.532700  1.0  0.0929
  H  H60  1  0.519300  0.778100  0.542300  1.0  0.1503
  H  H61  1  0.803000  0.570400  0.618900  1.0  0.1114
  H  H62  1  0.305100  0.927700  0.633600  1.0  0.0986
  H  H63  1  0.547800  0.828000  0.607100  1.0  0.0984
  H  H64  1  0.841200  0.744000  0.630000  1.0  0.09
  H  H65  1  0.508000  0.655200  0.594600  1.0  0.1
  H  H66  1  0.246400  0.015400  0.739100  1.0  0.1106
  H  H67  1  0.808300  0.435900  0.559200  1.0  0.0865
  H  H68  1  0.926400  0.266600  0.470300  1.0  0.1078
  H  H69  1  0.006200  0.846200  0.654200  1.0  0.0928
  H  H70  1  0.999200  0.227200  0.519300  1.0  0.1075
  H  H71  1  0.048000  0.671000  0.644500  1.0  0.1018
  H  H72  1  0.309700  0.063300  0.691300  1.0  0.0828
  H  H73  1  0.743900  0.481100  0.510100  1.0  0.0834
  H  H74  1  0.495600  0.278000  0.731200  1.0  0.1273
  H  H75  1  0.423900  0.236900  0.778500  1.0  0.0842
  H  H76  1  0.343000  0.756400  0.620700  1.0  0.0946
  H  H77  1  0.877100  0.037700  0.719000  1.0  0.4625
  H  H78  1  0.482000  0.428800  0.516000  1.0  0.1153
  H  H79  1  0.191300  0.411500  0.553100  1.0  0.1129
  H  H80  1  0.116700  0.449300  0.504900  1.0  0.0896
  H  H81  1  0.411900  0.467700  0.467300  1.0  0.0928
  H  H82  1  0.221900  0.480700  0.457700  1.0  0.149
  H  H83  1  0.197000  0.429600  0.118900  1.0  0.1108
  H  H84  1  0.694900  0.072300  0.133600  1.0  0.0982
  H  H85  1  0.452200  0.172000  0.107100  1.0  0.098
  H  H86  1  0.158800  0.256000  0.130000  1.0  0.0893
  H  H87  1  0.492000  0.344800  0.094600  1.0  0.1
  H  H88  1  0.753600  0.984600  0.239100  1.0  0.1113
  H  H89  1  0.191700  0.564100  0.059200  1.0  0.0868
  H  H90  1  0.073600  0.733400  0.970300  1.0  0.1072
  H  H91  1  0.993800  0.153800  0.154200  1.0  0.0932
  H  H92  1  0.000800  0.772800  0.019300  1.0  0.1078
  H  H93  1  0.952000  0.329000  0.144500  1.0  0.1018
  H  H94  1  0.690300  0.936700  0.191300  1.0  0.0828
  H  H95  1  0.256100  0.518900  0.010100  1.0  0.0831
  H  H96  1  0.504400  0.722000  0.231200  1.0  0.1278
  H  H97  1  0.576100  0.763100  0.278500  1.0  0.0847
  H  H98  1  0.657000  0.243600  0.120700  1.0  0.0944
  H  H99  1  0.122900  0.962300  0.219000  1.0  0.4626
  H  H100  1  0.518000  0.571200  0.016000  1.0  0.1146
  H  H101  1  0.808700  0.588500  0.053100  1.0  0.1128
  H  H102  1  0.883300  0.550700  0.004900  1.0  0.0875
  H  H103  1  0.588100  0.532300  0.967300  1.0  0.0922
  H  H104  1  0.778100  0.519300  0.957700  1.0  0.1494
  C  C105  1  0.018100  0.125100  0.849500  1.0  0.7279
  C  C106  1  0.480300  0.625300  0.900290  1.0  0.698
  C  C107  1  0.622500  0.751700  0.883800  1.0  -0.076
  C  C108  1  0.905700  0.149700  0.855400  1.0  -0.1529
  C  C109  1  0.595500  0.650100  0.894600  1.0  -0.1282
  C  C110  1  0.876400  0.252600  0.864900  1.0  -0.06
  C  C111  1  0.776500  0.600100  0.891100  1.0  -0.0701
  C  C112  1  0.726400  0.774200  0.877400  1.0  -0.0693
  C  C113  1  0.672600  0.575400  0.898200  1.0  -0.0708
  C  C114  1  0.089800  0.287800  0.703450  1.0  0.7255
  C  C115  1  0.207600  0.446600  0.825640  1.0  0.3055
  C  C116  1  0.120800  0.329800  0.735800  1.0  -0.1195
  C  C117  1  0.292300  0.946100  0.924480  1.0  0.3376
  C  C118  1  0.069900  0.295700  0.762500  1.0  -0.0986
  C  C119  1  0.915200  0.727200  0.875200  1.0  0.3386
  C  C120  1  0.380300  0.831300  0.014170  1.0  -0.1008
  C  C121  1  0.322800  0.905200  0.955360  1.0  -0.0134
  C  C122  1  0.585000  0.228800  0.873400  1.0  0.3609
  C  C123  1  0.177600  0.404400  0.793980  1.0  -0.0277
  C  C124  1  0.693100  0.198900  0.868000  1.0  -0.0934
  C  C125  1  0.400600  0.833000  0.958500  1.0  -0.0901
  C  C126  1  0.806000  0.699800  0.881600  1.0  -0.0938
  C  C127  1  0.302600  0.903600  0.011900  1.0  -0.0615
  C  C128  1  0.828200  0.074400  0.852100  1.0  -0.0451
  C  C129  1  0.276500  0.944700  0.982300  1.0  -0.0894
  C  C130  1  0.722600  0.099600  0.858200  1.0  -0.0563
  C  C131  1  0.098700  0.333333  0.790900  1.0  -0.0703
  C  C132  1  0.428400  0.795000  0.988150  1.0  -0.0358
  C  C133  1  0.410500  0.788700  0.046170  1.0  0.7122
  C  C134  1  0.227000  0.442600  0.767300  1.0  -0.1654
  C  C135  1  0.200000  0.402000  0.739300  1.0  -0.0415
  C  C136  1  0.773800  0.276000  0.871900  1.0  -0.1002
  C  C137  1  0.433200  0.409000  0.986500  1.0  0.0103
  C  C138  1  0.422600  0.234400  0.964300  1.0  0.1246
  C  C139  1  0.445900  0.190100  0.993700  1.0  -0.1318
  C  C140  1  0.456700  0.365300  0.016100  1.0  -0.1654
  C  C141  1  0.465300  0.251100  0.022700  1.0  -0.0907
  C  C142  1  0.981900  0.874900  0.349500  1.0  0.7289
  C  C143  1  0.519700  0.374700  0.400290  1.0  0.6983
  C  C144  1  0.377500  0.248300  0.383800  1.0  -0.0764
  C  C145  1  0.094300  0.850300  0.355400  1.0  -0.1527
  C  C146  1  0.404500  0.349900  0.394600  1.0  -0.1275
  C  C147  1  0.123600  0.747400  0.364900  1.0  -0.0592
  C  C148  1  0.223500  0.399900  0.391100  1.0  -0.0692
  C  C149  1  0.273600  0.225800  0.377400  1.0  -0.0698
  C  C150  1  0.327400  0.424600  0.398200  1.0  -0.0709
  C  C151  1  0.910200  0.712200  0.203450  1.0  0.7247
  C  C152  1  0.792400  0.553400  0.325640  1.0  0.3063
  C  C153  1  0.879200  0.670200  0.235800  1.0  -0.1203
  C  C154  1  0.707700  0.053900  0.424480  1.0  0.3373
  C  C155  1  0.930100  0.704300  0.262500  1.0  -0.0956
  C  C156  1  0.084800  0.272800  0.375200  1.0  0.3393
  C  C157  1  0.619700  0.168700  0.514170  1.0  -0.0985
  C  C158  1  0.677200  0.094800  0.455360  1.0  -0.0149
  C  C159  1  0.415000  0.771200  0.373400  1.0  0.3611
  C  C160  1  0.822400  0.595600  0.293980  1.0  -0.0272
  C  C161  1  0.306900  0.801100  0.368000  1.0  -0.0934
  C  C162  1  0.599400  0.167000  0.458500  1.0  -0.0904
  C  C163  1  0.194000  0.300200  0.381600  1.0  -0.0931
  C  C164  1  0.697400  0.096400  0.511900  1.0  -0.0589
  C  C165  1  0.171800  0.925600  0.352100  1.0  -0.0468
  C  C166  1  0.723500  0.055300  0.482300  1.0  -0.0885
  C  C167  1  0.277400  0.900400  0.358200  1.0  -0.0565
  C  C168  1  0.901300  0.666667  0.290900  1.0  -0.0711
  C  C169  1  0.571600  0.205000  0.488150  1.0  -0.0353
  C  C170  1  0.589500  0.211300  0.546170  1.0  0.7115
  C  C171  1  0.773000  0.557400  0.267300  1.0  -0.1657
  C  C172  1  0.800000  0.598000  0.239300  1.0  -0.0411
  C  C173  1  0.226200  0.724000  0.371900  1.0  -0.0998
  C  C174  1  0.566800  0.591000  0.486500  1.0  0.0109
  C  C175  1  0.577400  0.765600  0.464300  1.0  0.1243
  C  C176  1  0.554100  0.809900  0.493700  1.0  -0.1326
  C  C177  1  0.543300  0.634700  0.516100  1.0  -0.1654
  C  C178  1  0.534700  0.748900  0.522700  1.0  -0.0924
  C  C179  1  0.125100  0.018100  0.650500  1.0  0.7311
  C  C180  1  0.625300  0.480300  0.599710  1.0  0.6964
  C  C181  1  0.751700  0.622500  0.616200  1.0  -0.0748
  C  C182  1  0.149700  0.905700  0.644600  1.0  -0.1498
  C  C183  1  0.650100  0.595500  0.605400  1.0  -0.1287
  C  C184  1  0.252600  0.876400  0.635100  1.0  -0.0607
  C  C185  1  0.600100  0.776500  0.608900  1.0  -0.072
  C  C186  1  0.774200  0.726400  0.622600  1.0  -0.0688
  C  C187  1  0.575400  0.672600  0.601800  1.0  -0.067
  C  C188  1  0.287800  0.089800  0.796550  1.0  0.7237
  C  C189  1  0.446600  0.207600  0.674360  1.0  0.3054
  C  C190  1  0.329800  0.120800  0.764200  1.0  -0.1228
  C  C191  1  0.946100  0.292300  0.575520  1.0  0.3381
  C  C192  1  0.295700  0.069900  0.737500  1.0  -0.1035
  C  C193  1  0.727200  0.915200  0.624800  1.0  0.3383
  C  C194  1  0.831300  0.380300  0.485830  1.0  -0.1005
  C  C195  1  0.905200  0.322800  0.544640  1.0  -0.0177
  C  C196  1  0.228800  0.585000  0.626600  1.0  0.3603
  C  C197  1  0.404400  0.177600  0.706020  1.0  -0.028
  C  C198  1  0.198900  0.693100  0.632000  1.0  -0.0935
  C  C199  1  0.833000  0.400600  0.541500  1.0  -0.0899
  C  C200  1  0.699800  0.806000  0.618400  1.0  -0.0927
  C  C201  1  0.903600  0.302600  0.488100  1.0  -0.0561
  C  C202  1  0.074400  0.828200  0.647900  1.0  -0.0463
  C  C203  1  0.944700  0.276500  0.517700  1.0  -0.0873
  C  C204  1  0.099600  0.722600  0.641800  1.0  -0.0555
  C  C205  1  0.333333  0.098700  0.709100  1.0  -0.076
  C  C206  1  0.795000  0.428400  0.511850  1.0  -0.0362
  C  C207  1  0.788700  0.410500  0.453830  1.0  0.7145
  C  C208  1  0.442600  0.227000  0.732700  1.0  -0.1666
  C  C209  1  0.402000  0.200000  0.760700  1.0  -0.0364
  C  C210  1  0.276000  0.773800  0.628100  1.0  -0.1011
  C  C211  1  0.409000  0.433200  0.513500  1.0  0.0112
  C  C212  1  0.234400  0.422600  0.535700  1.0  0.1228
  C  C213  1  0.190100  0.445900  0.506300  1.0  -0.1375
  C  C214  1  0.365300  0.456700  0.483900  1.0  -0.166
  C  C215  1  0.251100  0.465300  0.477300  1.0  -0.0906
  C  C216  1  0.874900  0.981900  0.150500  1.0  0.731
  C  C217  1  0.374700  0.519700  0.099710  1.0  0.6966
  C  C218  1  0.248300  0.377500  0.116200  1.0  -0.0767
  C  C219  1  0.850300  0.094300  0.144600  1.0  -0.1505
  C  C220  1  0.349900  0.404500  0.105400  1.0  -0.1309
  C  C221  1  0.747400  0.123600  0.135100  1.0  -0.0602
  C  C222  1  0.399900  0.223500  0.108900  1.0  -0.0721
  C  C223  1  0.225800  0.273600  0.122600  1.0  -0.0678
  C  C224  1  0.424600  0.327400  0.101800  1.0  -0.0685
  C  C225  1  0.712200  0.910200  0.296550  1.0  0.7211
  C  C226  1  0.553400  0.792400  0.174360  1.0  0.3061
  C  C227  1  0.670200  0.879200  0.264200  1.0  -0.1205
  C  C228  1  0.053900  0.707700  0.075520  1.0  0.338
  C  C229  1  0.704300  0.930100  0.237500  1.0  -0.1019
  C  C230  1  0.272800  0.084800  0.124800  1.0  0.3383
  C  C231  1  0.168700  0.619700  0.985830  1.0  -0.0998
  C  C232  1  0.094800  0.677200  0.044640  1.0  -0.0178
  C  C233  1  0.771200  0.415000  0.126600  1.0  0.36
  C  C234  1  0.595600  0.822400  0.206020  1.0  -0.0279
  C  C235  1  0.801100  0.306900  0.132000  1.0  -0.0935
  C  C236  1  0.167000  0.599400  0.041500  1.0  -0.0899
  C  C237  1  0.300200  0.194000  0.118400  1.0  -0.0928
  C  C238  1  0.096400  0.697400  0.988100  1.0  -0.0551
  C  C239  1  0.925600  0.171800  0.147900  1.0  -0.0465
  C  C240  1  0.055300  0.723500  0.017700  1.0  -0.0886
  C  C241  1  0.900400  0.277400  0.141800  1.0  -0.0561
  C  C242  1  0.666667  0.901300  0.209100  1.0  -0.0744
  C  C243  1  0.205000  0.571600  0.011850  1.0  -0.0376
  C  C244  1  0.211300  0.589500  0.953830  1.0  0.7125
  C  C245  1  0.557400  0.773000  0.232700  1.0  -0.1663
  C  C246  1  0.598000  0.800000  0.260700  1.0  -0.0391
  C  C247  1  0.724000  0.226200  0.128100  1.0  -0.1013
  C  C248  1  0.591000  0.566800  0.013500  1.0  0.0126
  C  C249  1  0.765600  0.577400  0.035700  1.0  0.123
  C  C250  1  0.809900  0.554100  0.006300  1.0  -0.1286
  C  C251  1  0.634700  0.543300  0.983900  1.0  -0.1657
  C  C252  1  0.748900  0.534700  0.977300  1.0  -0.0885
  N  N253  1  0.265000  0.887400  0.899860  1.0  -0.2795
  N  N254  1  0.416700  0.231300  0.873770  1.0  -0.04
  N  N255  1  0.082300  0.731500  0.876020  1.0  0.0213
  N  N256  1  0.240400  0.957400  0.877080  1.0  -0.0129
  N  N257  1  0.451500  0.311500  0.891170  1.0  -0.0019
  N  N258  1  0.254800  0.053600  0.887580  1.0  -0.0092
  N  N259  1  0.049500  0.810100  0.859000  1.0  0.0092
  N  N260  1  0.234400  0.388400  0.850070  1.0  -0.2349
  N  N261  1  0.259300  0.457100  0.873090  1.0  -0.181
  N  N262  1  0.285600  0.050000  0.917690  1.0  -0.3114
  N  N263  1  0.214900  0.550300  0.832370  1.0  -0.3238
  N  N264  1  0.000000  0.677600  0.887100  1.0  -0.343
  N  N265  1  0.943500  0.809900  0.858100  1.0  -0.3279
  N  N266  1  0.245400  0.553000  0.861570  1.0  -0.0053
  N  N267  1  0.500300  0.176900  0.862900  1.0  -0.3321
  N  N268  1  0.556000  0.310200  0.892000  1.0  -0.3281
  N  N269  1  0.416700  0.342500  0.961600  1.0  -0.2609
  N  N270  1  0.735000  0.112600  0.399860  1.0  -0.2787
  N  N271  1  0.583300  0.768700  0.373770  1.0  -0.0398
  N  N272  1  0.917700  0.268500  0.376020  1.0  0.0214
  N  N273  1  0.759600  0.042600  0.377080  1.0  -0.0123
  N  N274  1  0.548500  0.688500  0.391170  1.0  -0.0006
  N  N275  1  0.745200  0.946400  0.387580  1.0  -0.007
  N  N276  1  0.950500  0.189900  0.359000  1.0  0.0087
  N  N277  1  0.765600  0.611600  0.350070  1.0  -0.2359
  N  N278  1  0.740700  0.542900  0.373090  1.0  -0.1802
  N  N279  1  0.714400  0.950000  0.417690  1.0  -0.31
  N  N280  1  0.785100  0.449700  0.332370  1.0  -0.3251
  N  N281  1  0.000000  0.322400  0.387100  1.0  -0.344
  N  N282  1  0.056500  0.190100  0.358100  1.0  -0.3275
  N  N283  1  0.754600  0.447000  0.361570  1.0  -0.0046
  N  N284  1  0.499700  0.823100  0.362900  1.0  -0.3338
  N  N285  1  0.444000  0.689800  0.392000  1.0  -0.328
  N  N286  1  0.583300  0.657500  0.461600  1.0  -0.2618
  N  N287  1  0.887400  0.265000  0.600140  1.0  -0.2723
  N  N288  1  0.231300  0.416700  0.626230  1.0  -0.0411
  N  N289  1  0.731500  0.082300  0.623980  1.0  0.0211
  N  N290  1  0.957400  0.240400  0.622920  1.0  -0.0127
  N  N291  1  0.311500  0.451500  0.608830  1.0  0.0002
  N  N292  1  0.053600  0.254800  0.612420  1.0  -0.0076
  N  N293  1  0.810100  0.049500  0.641000  1.0  0.0103
  N  N294  1  0.388400  0.234400  0.649930  1.0  -0.2348
  N  N295  1  0.457100  0.259300  0.626910  1.0  -0.1759
  N  N296  1  0.050000  0.285600  0.582310  1.0  -0.3116
  N  N297  1  0.550300  0.214900  0.667630  1.0  -0.324
  N  N298  1  0.677600  0.000000  0.612900  1.0  -0.3436
  N  N299  1  0.809900  0.943500  0.641900  1.0  -0.3264
  N  N300  1  0.553000  0.245400  0.638430  1.0  -0.0034
  N  N301  1  0.176900  0.500300  0.637100  1.0  -0.3306
  N  N302  1  0.310200  0.556000  0.608000  1.0  -0.327
  N  N303  1  0.342500  0.416700  0.538400  1.0  -0.2632
  N  N304  1  0.112600  0.735000  0.100140  1.0  -0.2719
  N  N305  1  0.768700  0.583300  0.126230  1.0  -0.0415
  N  N306  1  0.268500  0.917700  0.123980  1.0  0.0212
  N  N307  1  0.042600  0.759600  0.122920  1.0  -0.012
  N  N308  1  0.688500  0.548500  0.108830  1.0  -0.0009
  N  N309  1  0.946400  0.745200  0.112420  1.0  -0.0083
  N  N310  1  0.189900  0.950500  0.141000  1.0  0.01
  N  N311  1  0.611600  0.765600  0.149930  1.0  -0.2345
  N  N312  1  0.542900  0.740700  0.126910  1.0  -0.1771
  N  N313  1  0.950000  0.714400  0.082310  1.0  -0.31
  N  N314  1  0.449700  0.785100  0.167630  1.0  -0.3238
  N  N315  1  0.322400  0.000000  0.112900  1.0  -0.3452
  N  N316  1  0.190100  0.056500  0.141900  1.0  -0.3272
  N  N317  1  0.447000  0.754600  0.138430  1.0  -0.004
  N  N318  1  0.823100  0.499700  0.137100  1.0  -0.3303
  N  N319  1  0.689800  0.444000  0.108000  1.0  -0.3284
  N  N320  1  0.657500  0.583300  0.038400  1.0  -0.2633
  O  O321  1  0.415400  0.694000  0.891410  1.0  -0.6397
  O  O322  1  0.085700  0.192900  0.858380  1.0  -0.6628
  O  O323  1  0.040200  0.041200  0.836750  1.0  -0.6459
  O  O324  1  0.459500  0.540300  0.913350  1.0  -0.6288
  O  O325  1  0.158400  0.294600  0.682880  1.0  -0.6381
  O  O326  1  0.998700  0.251300  0.700280  1.0  -0.6483
  O  O327  1  0.341000  0.794800  0.067210  1.0  -0.6556
  O  O328  1  0.501200  0.750600  0.049240  1.0  -0.6269
  O  O329  1  0.086000  0.841000  0.788180  1.0  -0.6631
  O  O330  1  0.584600  0.306000  0.391410  1.0  -0.6388
  O  O331  1  0.914300  0.807100  0.358380  1.0  -0.6599
  O  O332  1  0.959800  0.958800  0.336750  1.0  -0.6463
  O  O333  1  0.540500  0.459700  0.413350  1.0  -0.6282
  O  O334  1  0.841600  0.705400  0.182880  1.0  -0.6375
  O  O335  1  0.001300  0.748700  0.200280  1.0  -0.6474
  O  O336  1  0.659000  0.205200  0.567210  1.0  -0.6601
  O  O337  1  0.498800  0.249400  0.549240  1.0  -0.6273
  O  O338  1  0.914000  0.159000  0.288180  1.0  -0.6603
  O  O339  1  0.694000  0.415400  0.608590  1.0  -0.6417
  O  O340  1  0.192900  0.085700  0.641620  1.0  -0.6617
  O  O341  1  0.041200  0.040200  0.663250  1.0  -0.6437
  O  O342  1  0.540300  0.459500  0.586650  1.0  -0.6269
  O  O343  1  0.294600  0.158400  0.817120  1.0  -0.6348
  O  O344  1  0.251300  0.998700  0.799720  1.0  -0.652
  O  O345  1  0.794800  0.341000  0.432790  1.0  -0.657
  O  O346  1  0.750600  0.501200  0.450760  1.0  -0.6302
  O  O347  1  0.841000  0.086000  0.711820  1.0  -0.6655
  O  O348  1  0.306000  0.584600  0.108590  1.0  -0.6435
  O  O349  1  0.807100  0.914300  0.141620  1.0  -0.661
  O  O350  1  0.958800  0.959800  0.163250  1.0  -0.6449
  O  O351  1  0.459700  0.540500  0.086650  1.0  -0.6262
  O  O352  1  0.705400  0.841600  0.317120  1.0  -0.6353
  O  O353  1  0.748700  0.001300  0.299720  1.0  -0.6538
  O  O354  1  0.205200  0.659000  0.932790  1.0  -0.6567
  O  O355  1  0.249400  0.498800  0.950760  1.0  -0.6314
  O  O356  1  0.159000  0.914000  0.211820  1.0  -0.665
