# generated using pymatgen
data_AgH14(C4N)3
_symmetry_space_group_name_H-M   'P 1'
_cell_length_a   15.93250000
_cell_length_b   15.93250000
_cell_length_c   25.30470000
_cell_angle_alpha   90.00000000
_cell_angle_beta   90.00000000
_cell_angle_gamma   90.00000000
_symmetry_Int_Tables_number   1
_chemical_formula_structural   AgH14(C4N)3
_chemical_formula_sum   'Ag16 H224 C192 N48'
_cell_volume   6423.46034254
_cell_formula_units_Z   16
loop_
 _symmetry_equiv_pos_site_id
 _symmetry_equiv_pos_as_xyz
  1  'x, y, z'
loop_
 _atom_site_type_symbol
 _atom_site_label
 _atom_site_symmetry_multiplicity
 _atom_site_fract_x
 _atom_site_fract_y
 _atom_site_fract_z
 _atom_site_occupancy
 _atom_site_charge
  Ag  Ag1  1  0.068080  0.181920  0.125000  1.0  0.159
  Ag  Ag2  1  0.568080  0.681920  0.625000  1.0  0.159
  Ag  Ag3  1  0.431920  0.818080  0.625000  1.0  0.1586
  Ag  Ag4  1  0.931920  0.318080  0.125000  1.0  0.1586
  Ag  Ag5  1  0.068080  0.818080  0.375000  1.0  0.1589
  Ag  Ag6  1  0.568080  0.318080  0.875000  1.0  0.1588
  Ag  Ag7  1  0.431920  0.181920  0.875000  1.0  0.1586
  Ag  Ag8  1  0.931920  0.681920  0.375000  1.0  0.1586
  Ag  Ag9  1  0.931920  0.818080  0.875000  1.0  0.1587
  Ag  Ag10  1  0.431920  0.318080  0.375000  1.0  0.1586
  Ag  Ag11  1  0.568080  0.181920  0.375000  1.0  0.159
  Ag  Ag12  1  0.068080  0.681920  0.875000  1.0  0.159
  Ag  Ag13  1  0.931920  0.181920  0.625000  1.0  0.1586
  Ag  Ag14  1  0.431920  0.681920  0.125000  1.0  0.1585
  Ag  Ag15  1  0.568080  0.818080  0.125000  1.0  0.1588
  Ag  Ag16  1  0.068080  0.318080  0.625000  1.0  0.1588
  H  H17  1  0.751600  0.110400  0.025300  1.0  0.1713
  H  H18  1  0.826500  0.984500  0.969700  1.0  0.0401
  H  H19  1  0.825800  0.985100  0.031700  1.0  0.0412
  H  H20  1  0.916700  0.079800  0.079400  1.0  0.0501
  H  H21  1  0.923400  0.078700  0.922000  1.0  0.0813
  H  H22  1  0.048200  0.154100  0.925600  1.0  0.082
  H  H23  1  0.101300  0.191600  0.006500  1.0  0.0405
  H  H24  1  0.251600  0.610400  0.525300  1.0  0.1713
  H  H25  1  0.326500  0.484500  0.469700  1.0  0.0401
  H  H26  1  0.325800  0.485100  0.531700  1.0  0.0412
  H  H27  1  0.416700  0.579800  0.579400  1.0  0.0501
  H  H28  1  0.423400  0.578700  0.422000  1.0  0.0813
  H  H29  1  0.548200  0.654100  0.425600  1.0  0.082
  H  H30  1  0.601300  0.691600  0.506500  1.0  0.0405
  H  H31  1  0.748400  0.889600  0.525300  1.0  0.1731
  H  H32  1  0.673500  0.015500  0.469700  1.0  0.0407
  H  H33  1  0.674200  0.014900  0.531700  1.0  0.0407
  H  H34  1  0.583300  0.920200  0.579400  1.0  0.0501
  H  H35  1  0.576600  0.921300  0.422000  1.0  0.0816
  H  H36  1  0.451800  0.845900  0.425600  1.0  0.0821
  H  H37  1  0.398700  0.808400  0.506500  1.0  0.0407
  H  H38  1  0.248400  0.389600  0.025300  1.0  0.1731
  H  H39  1  0.173500  0.515500  0.969700  1.0  0.0407
  H  H40  1  0.174200  0.514900  0.031700  1.0  0.0407
  H  H41  1  0.083300  0.420200  0.079400  1.0  0.0501
  H  H42  1  0.076600  0.421300  0.922000  1.0  0.0816
  H  H43  1  0.951800  0.345900  0.925600  1.0  0.0821
  H  H44  1  0.898700  0.308400  0.006500  1.0  0.0407
  H  H45  1  0.139600  0.501600  0.275300  1.0  0.1731
  H  H46  1  0.265500  0.576500  0.219700  1.0  0.041
  H  H47  1  0.264900  0.575800  0.281700  1.0  0.0411
  H  H48  1  0.170200  0.666667  0.329400  1.0  0.0502
  H  H49  1  0.171300  0.673400  0.172000  1.0  0.0817
  H  H50  1  0.095900  0.798200  0.175600  1.0  0.0806
  H  H51  1  0.058400  0.851300  0.256500  1.0  0.0404
  H  H52  1  0.639600  0.001600  0.775300  1.0  0.1731
  H  H53  1  0.765500  0.076500  0.719700  1.0  0.041
  H  H54  1  0.764900  0.075800  0.781700  1.0  0.0412
  H  H55  1  0.670200  0.166700  0.829400  1.0  0.05
  H  H56  1  0.671300  0.173400  0.672000  1.0  0.0817
  H  H57  1  0.595900  0.298200  0.675600  1.0  0.0806
  H  H58  1  0.558400  0.351300  0.756500  1.0  0.0404
  H  H59  1  0.360400  0.498400  0.775300  1.0  0.1724
  H  H60  1  0.234500  0.423500  0.719700  1.0  0.0404
  H  H61  1  0.235100  0.424200  0.781700  1.0  0.042
  H  H62  1  0.329800  0.333333  0.829400  1.0  0.05
  H  H63  1  0.328700  0.326600  0.672000  1.0  0.0813
  H  H64  1  0.404100  0.201800  0.675600  1.0  0.0805
  H  H65  1  0.441600  0.148700  0.756500  1.0  0.0399
  H  H66  1  0.860400  0.998400  0.275300  1.0  0.1724
  H  H67  1  0.734500  0.923500  0.219700  1.0  0.0404
  H  H68  1  0.735100  0.924200  0.281700  1.0  0.0421
  H  H69  1  0.829800  0.833300  0.329400  1.0  0.0499
  H  H70  1  0.828700  0.826600  0.172000  1.0  0.0813
  H  H71  1  0.904100  0.701800  0.175600  1.0  0.0805
  H  H72  1  0.941600  0.648700  0.256500  1.0  0.0399
  H  H73  1  0.748400  0.110400  0.974700  1.0  0.1699
  H  H74  1  0.673500  0.984500  0.030300  1.0  0.0404
  H  H75  1  0.674200  0.985100  0.968300  1.0  0.0414
  H  H76  1  0.583300  0.079800  0.920600  1.0  0.0504
  H  H77  1  0.576600  0.078700  0.078000  1.0  0.0812
  H  H78  1  0.451800  0.154100  0.074400  1.0  0.082
  H  H79  1  0.398700  0.191600  0.993500  1.0  0.0402
  H  H80  1  0.248400  0.610400  0.474700  1.0  0.1699
  H  H81  1  0.173500  0.484500  0.530300  1.0  0.0404
  H  H82  1  0.174200  0.485100  0.468300  1.0  0.0414
  H  H83  1  0.083300  0.579800  0.420600  1.0  0.0504
  H  H84  1  0.076600  0.578700  0.578000  1.0  0.0812
  H  H85  1  0.951800  0.654100  0.574400  1.0  0.082
  H  H86  1  0.898700  0.691600  0.493500  1.0  0.0402
  H  H87  1  0.751600  0.889600  0.474700  1.0  0.1707
  H  H88  1  0.826500  0.015500  0.530300  1.0  0.0399
  H  H89  1  0.825800  0.014900  0.468300  1.0  0.0417
  H  H90  1  0.916700  0.920200  0.420600  1.0  0.0502
  H  H91  1  0.923400  0.921300  0.578000  1.0  0.0812
  H  H92  1  0.048200  0.845900  0.574400  1.0  0.0821
  H  H93  1  0.101300  0.808400  0.493500  1.0  0.0409
  H  H94  1  0.251600  0.389600  0.974700  1.0  0.1707
  H  H95  1  0.326500  0.515500  0.030300  1.0  0.0399
  H  H96  1  0.325800  0.514900  0.968300  1.0  0.0417
  H  H97  1  0.416700  0.420200  0.920600  1.0  0.0502
  H  H98  1  0.423400  0.421300  0.078000  1.0  0.0812
  H  H99  1  0.548200  0.345900  0.074400  1.0  0.0821
  H  H100  1  0.601300  0.308400  0.993500  1.0  0.0409
  H  H101  1  0.360400  0.501600  0.724700  1.0  0.1707
  H  H102  1  0.234500  0.576500  0.780300  1.0  0.0406
  H  H103  1  0.235100  0.575800  0.718300  1.0  0.042
  H  H104  1  0.329800  0.666667  0.670600  1.0  0.0505
  H  H105  1  0.328700  0.673400  0.828000  1.0  0.0815
  H  H106  1  0.404100  0.798200  0.824400  1.0  0.0802
  H  H107  1  0.441600  0.851300  0.743500  1.0  0.0396
  H  H108  1  0.860400  0.001600  0.224700  1.0  0.1707
  H  H109  1  0.734500  0.076500  0.280300  1.0  0.0406
  H  H110  1  0.735100  0.075800  0.218300  1.0  0.0421
  H  H111  1  0.829800  0.166700  0.170600  1.0  0.0505
  H  H112  1  0.828700  0.173400  0.328000  1.0  0.0815
  H  H113  1  0.904100  0.298200  0.324400  1.0  0.0802
  H  H114  1  0.941600  0.351300  0.243500  1.0  0.0396
  H  H115  1  0.139600  0.498400  0.224700  1.0  0.1703
  H  H116  1  0.265500  0.423500  0.280300  1.0  0.0404
  H  H117  1  0.264900  0.424200  0.218300  1.0  0.0424
  H  H118  1  0.170200  0.333333  0.170600  1.0  0.0502
  H  H119  1  0.171300  0.326600  0.328000  1.0  0.0811
  H  H120  1  0.095900  0.201800  0.324400  1.0  0.0804
  H  H121  1  0.058400  0.148700  0.243500  1.0  0.0398
  H  H122  1  0.639600  0.998400  0.724700  1.0  0.1703
  H  H123  1  0.765500  0.923500  0.780300  1.0  0.0404
  H  H124  1  0.764900  0.924200  0.718300  1.0  0.0424
  H  H125  1  0.670200  0.833300  0.670600  1.0  0.0502
  H  H126  1  0.671300  0.826600  0.828000  1.0  0.0811
  H  H127  1  0.595900  0.701800  0.824400  1.0  0.0804
  H  H128  1  0.558400  0.648700  0.743500  1.0  0.0398
  H  H129  1  0.248400  0.889600  0.974700  1.0  0.1703
  H  H130  1  0.173500  0.015500  0.030300  1.0  0.04
  H  H131  1  0.174200  0.014900  0.968300  1.0  0.0419
  H  H132  1  0.083300  0.920200  0.920600  1.0  0.0503
  H  H133  1  0.076600  0.921300  0.078000  1.0  0.0811
  H  H134  1  0.951800  0.845900  0.074400  1.0  0.0826
  H  H135  1  0.898700  0.808400  0.993500  1.0  0.0403
  H  H136  1  0.748400  0.389600  0.474700  1.0  0.1703
  H  H137  1  0.673500  0.515500  0.530300  1.0  0.04
  H  H138  1  0.674200  0.514900  0.468300  1.0  0.0419
  H  H139  1  0.583300  0.420200  0.420600  1.0  0.0503
  H  H140  1  0.576600  0.421300  0.578000  1.0  0.0811
  H  H141  1  0.451800  0.345900  0.574400  1.0  0.0826
  H  H142  1  0.398700  0.308400  0.493500  1.0  0.0403
  H  H143  1  0.251600  0.110400  0.474700  1.0  0.1704
  H  H144  1  0.326500  0.984500  0.530300  1.0  0.0404
  H  H145  1  0.325800  0.985100  0.468300  1.0  0.0412
  H  H146  1  0.416700  0.079800  0.420600  1.0  0.0502
  H  H147  1  0.423400  0.078700  0.578000  1.0  0.0814
  H  H148  1  0.548200  0.154100  0.574400  1.0  0.0821
  H  H149  1  0.601300  0.191600  0.493500  1.0  0.0406
  H  H150  1  0.751600  0.610400  0.974700  1.0  0.1704
  H  H151  1  0.826500  0.484500  0.030300  1.0  0.0404
  H  H152  1  0.825800  0.485100  0.968300  1.0  0.0412
  H  H153  1  0.916700  0.579800  0.920600  1.0  0.0502
  H  H154  1  0.923400  0.578700  0.078000  1.0  0.0814
  H  H155  1  0.048200  0.654100  0.074400  1.0  0.0821
  H  H156  1  0.101300  0.691600  0.993500  1.0  0.0406
  H  H157  1  0.860400  0.498400  0.724700  1.0  0.1707
  H  H158  1  0.734500  0.423500  0.780300  1.0  0.0405
  H  H159  1  0.735100  0.424200  0.718300  1.0  0.0425
  H  H160  1  0.829800  0.333333  0.670600  1.0  0.0503
  H  H161  1  0.828700  0.326600  0.828000  1.0  0.0809
  H  H162  1  0.904100  0.201800  0.824400  1.0  0.0823
  H  H163  1  0.941600  0.148700  0.743500  1.0  0.0399
  H  H164  1  0.360400  0.998400  0.224700  1.0  0.1707
  H  H165  1  0.234500  0.923500  0.280300  1.0  0.0405
  H  H166  1  0.235100  0.924200  0.218300  1.0  0.0426
  H  H167  1  0.329800  0.833300  0.170600  1.0  0.0503
  H  H168  1  0.328700  0.826600  0.328000  1.0  0.0809
  H  H169  1  0.404100  0.701800  0.324400  1.0  0.0823
  H  H170  1  0.441600  0.648700  0.243500  1.0  0.0399
  H  H171  1  0.639600  0.501600  0.224700  1.0  0.1705
  H  H172  1  0.765500  0.576500  0.280300  1.0  0.0407
  H  H173  1  0.764900  0.575800  0.218300  1.0  0.0421
  H  H174  1  0.670200  0.666667  0.170600  1.0  0.0504
  H  H175  1  0.671300  0.673400  0.328000  1.0  0.0816
  H  H176  1  0.595900  0.798200  0.324400  1.0  0.0823
  H  H177  1  0.558400  0.851300  0.243500  1.0  0.0401
  H  H178  1  0.139600  0.001600  0.724700  1.0  0.1705
  H  H179  1  0.265500  0.076500  0.780300  1.0  0.0407
  H  H180  1  0.264900  0.075800  0.718300  1.0  0.0422
  H  H181  1  0.170200  0.166700  0.670600  1.0  0.0504
  H  H182  1  0.171300  0.173400  0.828000  1.0  0.0816
  H  H183  1  0.095900  0.298200  0.824400  1.0  0.0823
  H  H184  1  0.058400  0.351300  0.743500  1.0  0.0401
  H  H185  1  0.251600  0.889600  0.025300  1.0  0.1732
  H  H186  1  0.326500  0.015500  0.969700  1.0  0.0405
  H  H187  1  0.325800  0.014900  0.031700  1.0  0.0406
  H  H188  1  0.416700  0.920200  0.079400  1.0  0.05
  H  H189  1  0.423400  0.921300  0.922000  1.0  0.0813
  H  H190  1  0.548200  0.845900  0.925600  1.0  0.0825
  H  H191  1  0.601300  0.808400  0.006500  1.0  0.0408
  H  H192  1  0.751600  0.389600  0.525300  1.0  0.1732
  H  H193  1  0.826500  0.515500  0.469700  1.0  0.0405
  H  H194  1  0.825800  0.514900  0.531700  1.0  0.0406
  H  H195  1  0.916700  0.420200  0.579400  1.0  0.05
  H  H196  1  0.923400  0.421300  0.422000  1.0  0.0813
  H  H197  1  0.048200  0.345900  0.425600  1.0  0.0825
  H  H198  1  0.101300  0.308400  0.506500  1.0  0.0408
  H  H199  1  0.248400  0.110400  0.525300  1.0  0.171
  H  H200  1  0.173500  0.984500  0.469700  1.0  0.0402
  H  H201  1  0.174200  0.985100  0.531700  1.0  0.0413
  H  H202  1  0.083300  0.079800  0.579400  1.0  0.0503
  H  H203  1  0.076600  0.078700  0.422000  1.0  0.0815
  H  H204  1  0.951800  0.154100  0.425600  1.0  0.0824
  H  H205  1  0.898700  0.191600  0.506500  1.0  0.0404
  H  H206  1  0.748400  0.610400  0.025300  1.0  0.1709
  H  H207  1  0.673500  0.484500  0.969700  1.0  0.0402
  H  H208  1  0.674200  0.485100  0.031700  1.0  0.0413
  H  H209  1  0.583300  0.579800  0.079400  1.0  0.0503
  H  H210  1  0.576600  0.578700  0.922000  1.0  0.0815
  H  H211  1  0.451800  0.654100  0.925600  1.0  0.0824
  H  H212  1  0.398700  0.691600  0.006500  1.0  0.0404
  H  H213  1  0.639600  0.498400  0.275300  1.0  0.173
  H  H214  1  0.765500  0.423500  0.219700  1.0  0.041
  H  H215  1  0.764900  0.424200  0.281700  1.0  0.041
  H  H216  1  0.670200  0.333333  0.329400  1.0  0.05
  H  H217  1  0.671300  0.326600  0.172000  1.0  0.0815
  H  H218  1  0.595900  0.201800  0.175600  1.0  0.0825
  H  H219  1  0.558400  0.148700  0.256500  1.0  0.0401
  H  H220  1  0.139600  0.998400  0.775300  1.0  0.173
  H  H221  1  0.265500  0.923500  0.719700  1.0  0.0411
  H  H222  1  0.264900  0.924200  0.781700  1.0  0.0411
  H  H223  1  0.170200  0.833300  0.829400  1.0  0.0499
  H  H224  1  0.171300  0.826600  0.672000  1.0  0.0815
  H  H225  1  0.095900  0.701800  0.675600  1.0  0.0825
  H  H226  1  0.058400  0.648700  0.756500  1.0  0.0401
  H  H227  1  0.860400  0.501600  0.775300  1.0  0.1726
  H  H228  1  0.734500  0.576500  0.719700  1.0  0.0404
  H  H229  1  0.735100  0.575800  0.781700  1.0  0.0419
  H  H230  1  0.829800  0.666667  0.829400  1.0  0.0501
  H  H231  1  0.828700  0.673400  0.672000  1.0  0.0815
  H  H232  1  0.904100  0.798200  0.675600  1.0  0.0824
  H  H233  1  0.941600  0.851300  0.756500  1.0  0.0397
  H  H234  1  0.360400  0.001600  0.275300  1.0  0.1726
  H  H235  1  0.234500  0.076500  0.219700  1.0  0.0404
  H  H236  1  0.235100  0.075800  0.281700  1.0  0.0419
  H  H237  1  0.329800  0.166700  0.329400  1.0  0.05
  H  H238  1  0.328700  0.173400  0.172000  1.0  0.0815
  H  H239  1  0.404100  0.298200  0.175600  1.0  0.0824
  H  H240  1  0.441600  0.351300  0.256500  1.0  0.0397
  C  C241  1  0.826890  0.020680  0.000550  1.0  -0.09
  C  C242  1  0.942930  0.095270  0.048030  1.0  0.1116
  C  C243  1  0.906550  0.071630  0.000700  1.0  0.0514
  C  C244  1  0.946280  0.093880  0.954380  1.0  -0.0617
  C  C245  1  0.020310  0.138890  0.956460  1.0  -0.2221
  C  C246  1  0.051790  0.160730  0.005130  1.0  0.1279
  C  C247  1  0.326890  0.520680  0.500550  1.0  -0.09
  C  C248  1  0.442930  0.595270  0.548030  1.0  0.1116
  C  C249  1  0.406550  0.571630  0.500700  1.0  0.0514
  C  C250  1  0.446280  0.593880  0.454380  1.0  -0.0617
  C  C251  1  0.520310  0.638890  0.456460  1.0  -0.2221
  C  C252  1  0.551790  0.660730  0.505130  1.0  0.1279
  C  C253  1  0.673110  0.979320  0.500550  1.0  -0.0907
  C  C254  1  0.557070  0.904730  0.548030  1.0  0.1123
  C  C255  1  0.593450  0.928370  0.500700  1.0  0.0527
  C  C256  1  0.553720  0.906120  0.454380  1.0  -0.0642
  C  C257  1  0.479690  0.861110  0.456460  1.0  -0.2213
  C  C258  1  0.448210  0.839270  0.505130  1.0  0.1285
  C  C259  1  0.173110  0.479320  0.000550  1.0  -0.0907
  C  C260  1  0.057070  0.404730  0.048030  1.0  0.1123
  C  C261  1  0.093450  0.428370  0.000700  1.0  0.0527
  C  C262  1  0.053720  0.406120  0.954380  1.0  -0.0642
  C  C263  1  0.979690  0.361110  0.956460  1.0  -0.2213
  C  C264  1  0.948210  0.339270  0.005130  1.0  0.1285
  C  C265  1  0.229320  0.576890  0.250550  1.0  -0.0848
  C  C266  1  0.154730  0.692930  0.298030  1.0  0.1096
  C  C267  1  0.178370  0.656550  0.250700  1.0  0.0525
  C  C268  1  0.156120  0.696280  0.204380  1.0  -0.0643
  C  C269  1  0.111110  0.770310  0.206460  1.0  -0.222
  C  C270  1  0.089270  0.801790  0.255130  1.0  0.1269
  C  C271  1  0.729320  0.076890  0.750550  1.0  -0.0848
  C  C272  1  0.654730  0.192930  0.798030  1.0  0.111
  C  C273  1  0.678370  0.156550  0.750700  1.0  0.0525
  C  C274  1  0.656120  0.196280  0.704380  1.0  -0.0643
  C  C275  1  0.611110  0.270310  0.706460  1.0  -0.222
  C  C276  1  0.589270  0.301790  0.755130  1.0  0.1269
  C  C277  1  0.270680  0.423110  0.750550  1.0  -0.0875
  C  C278  1  0.345270  0.307070  0.798030  1.0  0.1085
  C  C279  1  0.321630  0.343450  0.750700  1.0  0.0528
  C  C280  1  0.343880  0.303720  0.704380  1.0  -0.0656
  C  C281  1  0.388890  0.229690  0.706460  1.0  -0.2211
  C  C282  1  0.410730  0.198210  0.755130  1.0  0.127
  C  C283  1  0.770680  0.923110  0.250550  1.0  -0.0875
  C  C284  1  0.845270  0.807070  0.298030  1.0  0.1098
  C  C285  1  0.821630  0.843450  0.250700  1.0  0.0528
  C  C286  1  0.843880  0.803720  0.204380  1.0  -0.0656
  C  C287  1  0.888890  0.729690  0.206460  1.0  -0.2211
  C  C288  1  0.910730  0.698210  0.255130  1.0  0.1271
  C  C289  1  0.673110  0.020680  0.999450  1.0  -0.0903
  C  C290  1  0.557070  0.095270  0.951970  1.0  0.1136
  C  C291  1  0.593450  0.071630  0.999300  1.0  0.0523
  C  C292  1  0.553720  0.093880  0.045620  1.0  -0.0661
  C  C293  1  0.479690  0.138890  0.043540  1.0  -0.2211
  C  C294  1  0.448210  0.160730  0.994870  1.0  0.1283
  C  C295  1  0.173110  0.520680  0.499450  1.0  -0.0903
  C  C296  1  0.057070  0.595270  0.451970  1.0  0.1136
  C  C297  1  0.093450  0.571630  0.499300  1.0  0.0523
  C  C298  1  0.053720  0.593880  0.545620  1.0  -0.0661
  C  C299  1  0.979690  0.638890  0.543540  1.0  -0.2211
  C  C300  1  0.948210  0.660730  0.494870  1.0  0.1283
  C  C301  1  0.826890  0.979320  0.499450  1.0  -0.0899
  C  C302  1  0.942930  0.904730  0.451970  1.0  0.1128
  C  C303  1  0.906550  0.928370  0.499300  1.0  0.0517
  C  C304  1  0.946280  0.906120  0.545620  1.0  -0.0647
  C  C305  1  0.020310  0.861110  0.543540  1.0  -0.2193
  C  C306  1  0.051790  0.839270  0.494870  1.0  0.128
  C  C307  1  0.326890  0.479320  0.999450  1.0  -0.0899
  C  C308  1  0.442930  0.404730  0.951970  1.0  0.1128
  C  C309  1  0.406550  0.428370  0.999300  1.0  0.0517
  C  C310  1  0.446280  0.406120  0.045620  1.0  -0.0647
  C  C311  1  0.520310  0.361110  0.043540  1.0  -0.2193
  C  C312  1  0.551790  0.339270  0.994870  1.0  0.128
  C  C313  1  0.270680  0.576890  0.749450  1.0  -0.0877
  C  C314  1  0.345270  0.692930  0.701970  1.0  0.1098
  C  C315  1  0.321630  0.656550  0.749300  1.0  0.0524
  C  C316  1  0.343880  0.696280  0.795620  1.0  -0.0676
  C  C317  1  0.388890  0.770310  0.793540  1.0  -0.22
  C  C318  1  0.410730  0.801790  0.744870  1.0  0.1268
  C  C319  1  0.770680  0.076890  0.249450  1.0  -0.0877
  C  C320  1  0.845270  0.192930  0.201970  1.0  0.1117
  C  C321  1  0.821630  0.156550  0.249300  1.0  0.0524
  C  C322  1  0.843880  0.196280  0.295620  1.0  -0.0676
  C  C323  1  0.888890  0.270310  0.293540  1.0  -0.22
  C  C324  1  0.910730  0.301790  0.244870  1.0  0.1268
  C  C325  1  0.229320  0.423110  0.249450  1.0  -0.0858
  C  C326  1  0.154730  0.307070  0.201970  1.0  0.1106
  C  C327  1  0.178370  0.343450  0.249300  1.0  0.0528
  C  C328  1  0.156120  0.303720  0.295620  1.0  -0.0675
  C  C329  1  0.111110  0.229690  0.293540  1.0  -0.2204
  C  C330  1  0.089270  0.198210  0.244870  1.0  0.1274
  C  C331  1  0.729320  0.923110  0.749450  1.0  -0.0858
  C  C332  1  0.654730  0.807070  0.701970  1.0  0.1126
  C  C333  1  0.678370  0.843450  0.749300  1.0  0.0528
  C  C334  1  0.656120  0.803720  0.795620  1.0  -0.0675
  C  C335  1  0.611110  0.729690  0.793540  1.0  -0.2204
  C  C336  1  0.589270  0.698210  0.744870  1.0  0.1274
  C  C337  1  0.173110  0.979320  0.999450  1.0  -0.0909
  C  C338  1  0.057070  0.904730  0.951970  1.0  0.1134
  C  C339  1  0.093450  0.928370  0.999300  1.0  0.0526
  C  C340  1  0.053720  0.906120  0.045620  1.0  -0.0657
  C  C341  1  0.979690  0.861110  0.043540  1.0  -0.2204
  C  C342  1  0.948210  0.839270  0.994870  1.0  0.1278
  C  C343  1  0.673110  0.479320  0.499450  1.0  -0.0909
  C  C344  1  0.557070  0.404730  0.451970  1.0  0.1134
  C  C345  1  0.593450  0.428370  0.499300  1.0  0.0526
  C  C346  1  0.553720  0.406120  0.545620  1.0  -0.0657
  C  C347  1  0.479690  0.361110  0.543540  1.0  -0.2204
  C  C348  1  0.448210  0.339270  0.494870  1.0  0.1278
  C  C349  1  0.326890  0.020680  0.499450  1.0  -0.0902
  C  C350  1  0.442930  0.095270  0.451970  1.0  0.1129
  C  C351  1  0.406550  0.071630  0.499300  1.0  0.0513
  C  C352  1  0.446280  0.093880  0.545620  1.0  -0.0653
  C  C353  1  0.520310  0.138890  0.543540  1.0  -0.2201
  C  C354  1  0.551790  0.160730  0.494870  1.0  0.1282
  C  C355  1  0.826890  0.520680  0.999450  1.0  -0.0902
  C  C356  1  0.942930  0.595270  0.951970  1.0  0.1129
  C  C357  1  0.906550  0.571630  0.999300  1.0  0.0513
  C  C358  1  0.946280  0.593880  0.045620  1.0  -0.0653
  C  C359  1  0.020310  0.638890  0.043540  1.0  -0.2201
  C  C360  1  0.051790  0.660730  0.994870  1.0  0.1282
  C  C361  1  0.770680  0.423110  0.749450  1.0  -0.0876
  C  C362  1  0.845270  0.307070  0.701970  1.0  0.1094
  C  C363  1  0.821630  0.343450  0.749300  1.0  0.0527
  C  C364  1  0.843880  0.303720  0.795620  1.0  -0.0677
  C  C365  1  0.888890  0.229690  0.793540  1.0  -0.2193
  C  C366  1  0.910730  0.198210  0.744870  1.0  0.1266
  C  C367  1  0.270680  0.923110  0.249450  1.0  -0.0876
  C  C368  1  0.345270  0.807070  0.201970  1.0  0.1113
  C  C369  1  0.321630  0.843450  0.249300  1.0  0.0527
  C  C370  1  0.343880  0.803720  0.295620  1.0  -0.0677
  C  C371  1  0.388890  0.729690  0.293540  1.0  -0.2193
  C  C372  1  0.410730  0.698210  0.244870  1.0  0.1266
  C  C373  1  0.729320  0.576890  0.249450  1.0  -0.085
  C  C374  1  0.654730  0.692930  0.201970  1.0  0.111
  C  C375  1  0.678370  0.656550  0.249300  1.0  0.0524
  C  C376  1  0.656120  0.696280  0.295620  1.0  -0.0672
  C  C377  1  0.611110  0.770310  0.293540  1.0  -0.221
  C  C378  1  0.589270  0.801790  0.244870  1.0  0.1271
  C  C379  1  0.229320  0.076890  0.749450  1.0  -0.085
  C  C380  1  0.154730  0.192930  0.701970  1.0  0.113
  C  C381  1  0.178370  0.156550  0.749300  1.0  0.0524
  C  C382  1  0.156120  0.196280  0.795620  1.0  -0.0672
  C  C383  1  0.111110  0.270310  0.793540  1.0  -0.221
  C  C384  1  0.089270  0.301790  0.744870  1.0  0.1271
  C  C385  1  0.326890  0.979320  0.000550  1.0  -0.0898
  C  C386  1  0.442930  0.904730  0.048030  1.0  0.1113
  C  C387  1  0.406550  0.928370  0.000700  1.0  0.0518
  C  C388  1  0.446280  0.906120  0.954380  1.0  -0.0617
  C  C389  1  0.520310  0.861110  0.956460  1.0  -0.2212
  C  C390  1  0.551790  0.839270  0.005130  1.0  0.1282
  C  C391  1  0.826890  0.479320  0.500550  1.0  -0.0898
  C  C392  1  0.942930  0.404730  0.548030  1.0  0.1113
  C  C393  1  0.906550  0.428370  0.500700  1.0  0.0518
  C  C394  1  0.946280  0.406120  0.454380  1.0  -0.0617
  C  C395  1  0.020310  0.361110  0.456460  1.0  -0.2212
  C  C396  1  0.051790  0.339270  0.505130  1.0  0.1282
  C  C397  1  0.173110  0.020680  0.500550  1.0  -0.0901
  C  C398  1  0.057070  0.095270  0.548030  1.0  0.1126
  C  C399  1  0.093450  0.071630  0.500700  1.0  0.0524
  C  C400  1  0.053720  0.093880  0.454380  1.0  -0.0639
  C  C401  1  0.979690  0.138890  0.456460  1.0  -0.2219
  C  C402  1  0.948210  0.160730  0.505130  1.0  0.1286
  C  C403  1  0.673110  0.520680  0.000550  1.0  -0.0901
  C  C404  1  0.557070  0.595270  0.048030  1.0  0.1126
  C  C405  1  0.593450  0.571630  0.000700  1.0  0.0524
  C  C406  1  0.553720  0.593880  0.954380  1.0  -0.0639
  C  C407  1  0.479690  0.638890  0.956460  1.0  -0.2219
  C  C408  1  0.448210  0.660730  0.005130  1.0  0.1286
  C  C409  1  0.729320  0.423110  0.250550  1.0  -0.0858
  C  C410  1  0.654730  0.307070  0.298030  1.0  0.1092
  C  C411  1  0.678370  0.343450  0.250700  1.0  0.0529
  C  C412  1  0.656120  0.303720  0.204380  1.0  -0.0648
  C  C413  1  0.611110  0.229690  0.206460  1.0  -0.2213
  C  C414  1  0.589270  0.198210  0.255130  1.0  0.128
  C  C415  1  0.229320  0.923110  0.750550  1.0  -0.0858
  C  C416  1  0.154730  0.807070  0.798030  1.0  0.1106
  C  C417  1  0.178370  0.843450  0.750700  1.0  0.0529
  C  C418  1  0.156120  0.803720  0.704380  1.0  -0.0648
  C  C419  1  0.111110  0.729690  0.706460  1.0  -0.2213
  C  C420  1  0.089270  0.698210  0.755130  1.0  0.128
  C  C421  1  0.770680  0.576890  0.750550  1.0  -0.0875
  C  C422  1  0.845270  0.692930  0.798030  1.0  0.1088
  C  C423  1  0.821630  0.656550  0.750700  1.0  0.0525
  C  C424  1  0.843880  0.696280  0.704380  1.0  -0.0651
  C  C425  1  0.888890  0.770310  0.706460  1.0  -0.2219
  C  C426  1  0.910730  0.801790  0.755130  1.0  0.1265
  C  C427  1  0.270680  0.076890  0.250550  1.0  -0.0875
  C  C428  1  0.345270  0.192930  0.298030  1.0  0.1101
  C  C429  1  0.321630  0.156550  0.250700  1.0  0.0525
  C  C430  1  0.343880  0.196280  0.204380  1.0  -0.0651
  C  C431  1  0.388890  0.270310  0.206460  1.0  -0.2219
  C  C432  1  0.410730  0.301790  0.255130  1.0  0.1265
  N  N433  1  0.014550  0.139600  0.050630  1.0  -0.3817
  N  N434  1  0.514550  0.639600  0.550630  1.0  -0.3817
  N  N435  1  0.485450  0.860400  0.550630  1.0  -0.3824
  N  N436  1  0.985450  0.360400  0.050630  1.0  -0.3824
  N  N437  1  0.110400  0.764550  0.300630  1.0  -0.3829
  N  N438  1  0.610400  0.264550  0.800630  1.0  -0.383
  N  N439  1  0.389600  0.235450  0.800630  1.0  -0.3799
  N  N440  1  0.889600  0.735450  0.300630  1.0  -0.3801
  N  N441  1  0.485450  0.139600  0.949370  1.0  -0.3812
  N  N442  1  0.985450  0.639600  0.449370  1.0  -0.3812
  N  N443  1  0.014550  0.860400  0.449370  1.0  -0.3826
  N  N444  1  0.514550  0.360400  0.949370  1.0  -0.3826
  N  N445  1  0.389600  0.764550  0.699370  1.0  -0.3804
  N  N446  1  0.889600  0.264550  0.199370  1.0  -0.3805
  N  N447  1  0.110400  0.235450  0.199370  1.0  -0.3822
  N  N448  1  0.610400  0.735450  0.699370  1.0  -0.3824
  N  N449  1  0.750000  0.074260  0.000000  1.0  -0.2438
  N  N450  1  0.250000  0.574260  0.500000  1.0  -0.2438
  N  N451  1  0.750000  0.925740  0.500000  1.0  -0.2423
  N  N452  1  0.250000  0.425740  0.000000  1.0  -0.2423
  N  N453  1  0.175740  0.500000  0.250000  1.0  -0.2447
  N  N454  1  0.675740  0.000000  0.750000  1.0  -0.2446
  N  N455  1  0.324260  0.500000  0.750000  1.0  -0.2433
  N  N456  1  0.824260  0.000000  0.250000  1.0  -0.2433
  N  N457  1  0.985450  0.860400  0.949370  1.0  -0.3828
  N  N458  1  0.485450  0.360400  0.449370  1.0  -0.3828
  N  N459  1  0.514550  0.139600  0.449370  1.0  -0.3813
  N  N460  1  0.014550  0.639600  0.949370  1.0  -0.3813
  N  N461  1  0.889600  0.235450  0.699370  1.0  -0.3811
  N  N462  1  0.389600  0.735450  0.199370  1.0  -0.3813
  N  N463  1  0.610400  0.764550  0.199370  1.0  -0.3808
  N  N464  1  0.110400  0.264550  0.699370  1.0  -0.3809
  N  N465  1  0.514550  0.860400  0.050630  1.0  -0.3807
  N  N466  1  0.014550  0.360400  0.550630  1.0  -0.3807
  N  N467  1  0.985450  0.139600  0.550630  1.0  -0.3835
  N  N468  1  0.485450  0.639600  0.050630  1.0  -0.3835
  N  N469  1  0.610400  0.235450  0.300630  1.0  -0.3815
  N  N470  1  0.110400  0.735450  0.800630  1.0  -0.3817
  N  N471  1  0.889600  0.764550  0.800630  1.0  -0.3816
  N  N472  1  0.389600  0.264550  0.300630  1.0  -0.3817
  N  N473  1  0.250000  0.925740  0.000000  1.0  -0.2423
  N  N474  1  0.750000  0.425740  0.500000  1.0  -0.2423
  N  N475  1  0.250000  0.074260  0.500000  1.0  -0.2438
  N  N476  1  0.750000  0.574260  0.000000  1.0  -0.2438
  N  N477  1  0.824260  0.500000  0.750000  1.0  -0.2433
  N  N478  1  0.324260  0.000000  0.250000  1.0  -0.2433
  N  N479  1  0.675740  0.500000  0.250000  1.0  -0.2447
  N  N480  1  0.175740  0.000000  0.750000  1.0  -0.2446
