# generated using pymatgen
data_La2Cu3H30C24(NO4)6
_symmetry_space_group_name_H-M   'P 1'
_cell_length_a   13.51360000
_cell_length_b   13.51360000
_cell_length_c   14.79500000
_cell_angle_alpha   90.00000000
_cell_angle_beta   90.00000000
_cell_angle_gamma   120.00000000
_symmetry_Int_Tables_number   1
_chemical_formula_structural   La2Cu3H30C24(NO4)6
_chemical_formula_sum   'La4 Cu6 H60 C48 N12 O48'
_cell_volume   2339.84840284
_cell_formula_units_Z   2
loop_
 _symmetry_equiv_pos_site_id
 _symmetry_equiv_pos_as_xyz
  1  'x, y, z'
loop_
 _atom_site_type_symbol
 _atom_site_label
 _atom_site_symmetry_multiplicity
 _atom_site_fract_x
 _atom_site_fract_y
 _atom_site_fract_z
 _atom_site_occupancy
 _atom_site_charge
  La  La1  1  0.666667  0.333333  0.333000  1.0  2.1488
  La  La2  1  0.333333  0.666667  0.167000  1.0  2.149
  La  La3  1  0.333333  0.666667  0.667000  1.0  2.149
  La  La4  1  0.666667  0.333333  0.833000  1.0  2.1488
  Cu  Cu5  1  0.500000  0.000000  0.500000  1.0  0.8003
  Cu  Cu6  1  0.500000  0.500000  0.500000  1.0  0.8003
  Cu  Cu7  1  0.000000  0.500000  0.500000  1.0  0.8003
  Cu  Cu8  1  0.500000  0.000000  0.000000  1.0  0.8003
  Cu  Cu9  1  0.000000  0.500000  0.000000  1.0  0.8003
  Cu  Cu10  1  0.500000  0.500000  0.000000  1.0  0.8003
  H  H11  1  0.799800  0.139900  0.534800  1.0  0.1071
  H  H12  1  0.753000  0.041900  0.455000  1.0  0.1422
  H  H13  1  0.725100  0.188600  0.621600  1.0  0.141
  H  H14  1  0.670500  0.068700  0.686100  1.0  0.1392
  H  H15  1  0.647000  0.975200  0.577500  1.0  0.261
  H  H16  1  0.340100  0.200200  0.534800  1.0  0.1074
  H  H17  1  0.288900  0.247000  0.455000  1.0  0.1426
  H  H18  1  0.463500  0.274900  0.621600  1.0  0.1412
  H  H19  1  0.398200  0.329500  0.686100  1.0  0.1394
  H  H20  1  0.328200  0.353000  0.577500  1.0  0.2616
  H  H21  1  0.860100  0.659900  0.534800  1.0  0.1059
  H  H22  1  0.958100  0.711100  0.455000  1.0  0.1429
  H  H23  1  0.811400  0.536500  0.621600  1.0  0.14
  H  H24  1  0.931300  0.601800  0.686100  1.0  0.1393
  H  H25  1  0.024800  0.671800  0.577500  1.0  0.2592
  H  H26  1  0.659900  0.860100  0.965200  1.0  0.1071
  H  H27  1  0.711100  0.958100  0.045000  1.0  0.1427
  H  H28  1  0.536500  0.811400  0.878400  1.0  0.1413
  H  H29  1  0.601800  0.931300  0.813900  1.0  0.14
  H  H30  1  0.671800  0.024800  0.922500  1.0  0.2605
  H  H31  1  0.139900  0.799800  0.965200  1.0  0.1072
  H  H32  1  0.041900  0.753000  0.045000  1.0  0.1432
  H  H33  1  0.188600  0.725100  0.878400  1.0  0.1412
  H  H34  1  0.068700  0.670500  0.813900  1.0  0.1403
  H  H35  1  0.975200  0.647000  0.922500  1.0  0.2612
  H  H36  1  0.200200  0.340100  0.965200  1.0  0.1061
  H  H37  1  0.247000  0.288900  0.045000  1.0  0.1438
  H  H38  1  0.274900  0.463500  0.878400  1.0  0.1396
  H  H39  1  0.329500  0.398200  0.813900  1.0  0.1401
  H  H40  1  0.353000  0.328200  0.922500  1.0  0.2598
  H  H41  1  0.200200  0.860100  0.465200  1.0  0.1062
  H  H42  1  0.247000  0.958100  0.545000  1.0  0.1429
  H  H43  1  0.274900  0.811400  0.378400  1.0  0.1411
  H  H44  1  0.329500  0.931300  0.313900  1.0  0.1398
  H  H45  1  0.353000  0.024800  0.422500  1.0  0.2604
  H  H46  1  0.659900  0.799800  0.465200  1.0  0.1074
  H  H47  1  0.711100  0.753000  0.545000  1.0  0.1429
  H  H48  1  0.536500  0.725100  0.378400  1.0  0.141
  H  H49  1  0.601800  0.670500  0.313900  1.0  0.1403
  H  H50  1  0.671800  0.647000  0.422500  1.0  0.2612
  H  H51  1  0.139900  0.340100  0.465200  1.0  0.1065
  H  H52  1  0.041900  0.288900  0.545000  1.0  0.1432
  H  H53  1  0.188600  0.463500  0.378400  1.0  0.141
  H  H54  1  0.068700  0.398200  0.313900  1.0  0.1401
  H  H55  1  0.975200  0.328200  0.422500  1.0  0.2596
  H  H56  1  0.340100  0.139900  0.034800  1.0  0.1059
  H  H57  1  0.288900  0.041900  0.955000  1.0  0.1418
  H  H58  1  0.463500  0.188600  0.121600  1.0  0.1412
  H  H59  1  0.398200  0.068700  0.186100  1.0  0.1393
  H  H60  1  0.328200  0.975200  0.077500  1.0  0.2606
  H  H61  1  0.860100  0.200200  0.034800  1.0  0.1076
  H  H62  1  0.958100  0.247000  0.955000  1.0  0.1423
  H  H63  1  0.811400  0.274900  0.121600  1.0  0.1403
  H  H64  1  0.931300  0.329500  0.186100  1.0  0.1395
  H  H65  1  0.024800  0.353000  0.077500  1.0  0.2617
  H  H66  1  0.799800  0.659900  0.034800  1.0  0.1069
  H  H67  1  0.753000  0.711100  0.955000  1.0  0.1425
  H  H68  1  0.725100  0.536500  0.121600  1.0  0.1405
  H  H69  1  0.670500  0.601800  0.186100  1.0  0.1393
  H  H70  1  0.647000  0.671800  0.077500  1.0  0.2596
  C  C71  1  0.726600  0.180200  0.435300  1.0  0.6906
  C  C72  1  0.743100  0.094700  0.491500  1.0  -0.192
  C  C73  1  0.666100  0.112900  0.637700  1.0  -0.2311
  C  C74  1  0.559100  0.120200  0.658500  1.0  0.7332
  C  C75  1  0.453600  0.273400  0.435300  1.0  0.6894
  C  C76  1  0.351600  0.256900  0.491500  1.0  -0.1925
  C  C77  1  0.446800  0.333900  0.637700  1.0  -0.2305
  C  C78  1  0.561100  0.440900  0.658500  1.0  0.7343
  C  C79  1  0.819800  0.546400  0.435300  1.0  0.691
  C  C80  1  0.905300  0.648400  0.491500  1.0  -0.193
  C  C81  1  0.887100  0.553200  0.637700  1.0  -0.2317
  C  C82  1  0.879800  0.438900  0.658500  1.0  0.7344
  C  C83  1  0.546400  0.819800  0.064700  1.0  0.6906
  C  C84  1  0.648400  0.905300  0.008500  1.0  -0.1925
  C  C85  1  0.553200  0.887100  0.862300  1.0  -0.231
  C  C86  1  0.438900  0.879800  0.841500  1.0  0.7323
  C  C87  1  0.180200  0.726600  0.064700  1.0  0.689
  C  C88  1  0.094700  0.743100  0.008500  1.0  -0.1923
  C  C89  1  0.112900  0.666100  0.862300  1.0  -0.23
  C  C90  1  0.120200  0.559100  0.841500  1.0  0.7334
  C  C91  1  0.273400  0.453600  0.064700  1.0  0.6906
  C  C92  1  0.256900  0.351600  0.008500  1.0  -0.1925
  C  C93  1  0.333900  0.446800  0.862300  1.0  -0.2309
  C  C94  1  0.440900  0.561100  0.841500  1.0  0.7337
  C  C95  1  0.273400  0.819800  0.564700  1.0  0.6899
  C  C96  1  0.256900  0.905300  0.508500  1.0  -0.1921
  C  C97  1  0.333900  0.887100  0.362300  1.0  -0.231
  C  C98  1  0.440900  0.879800  0.341500  1.0  0.7322
  C  C99  1  0.546400  0.726600  0.564700  1.0  0.6885
  C  C100  1  0.648400  0.743100  0.508500  1.0  -0.1918
  C  C101  1  0.553200  0.666100  0.362300  1.0  -0.2302
  C  C102  1  0.438900  0.559100  0.341500  1.0  0.7334
  C  C103  1  0.180200  0.453600  0.564700  1.0  0.6908
  C  C104  1  0.094700  0.351600  0.508500  1.0  -0.1935
  C  C105  1  0.112900  0.446800  0.362300  1.0  -0.2315
  C  C106  1  0.120200  0.561100  0.341500  1.0  0.7344
  C  C107  1  0.453600  0.180200  0.935300  1.0  0.6904
  C  C108  1  0.351600  0.094700  0.991500  1.0  -0.1932
  C  C109  1  0.446800  0.112900  0.137700  1.0  -0.2317
  C  C110  1  0.561100  0.120200  0.158500  1.0  0.7329
  C  C111  1  0.819800  0.273400  0.935300  1.0  0.689
  C  C112  1  0.905300  0.256900  0.991500  1.0  -0.1921
  C  C113  1  0.887100  0.333900  0.137700  1.0  -0.231
  C  C114  1  0.879800  0.440900  0.158500  1.0  0.7337
  C  C115  1  0.726600  0.546400  0.935300  1.0  0.6905
  C  C116  1  0.743100  0.648400  0.991500  1.0  -0.193
  C  C117  1  0.666100  0.553200  0.137700  1.0  -0.2321
  C  C118  1  0.559100  0.438900  0.158500  1.0  0.7342
  N  N119  1  0.649900  0.038800  0.558900  1.0  -0.2896
  N  N120  1  0.388900  0.350100  0.558900  1.0  -0.289
  N  N121  1  0.961200  0.611100  0.558900  1.0  -0.2893
  N  N122  1  0.611100  0.961200  0.941100  1.0  -0.2896
  N  N123  1  0.038800  0.649900  0.941100  1.0  -0.2882
  N  N124  1  0.350100  0.388900  0.941100  1.0  -0.2897
  N  N125  1  0.350100  0.961200  0.441100  1.0  -0.2894
  N  N126  1  0.611100  0.649900  0.441100  1.0  -0.2889
  N  N127  1  0.038800  0.388900  0.441100  1.0  -0.2906
  N  N128  1  0.388900  0.038800  0.058900  1.0  -0.2899
  N  N129  1  0.961200  0.350100  0.058900  1.0  -0.2889
  N  N130  1  0.649900  0.611100  0.058900  1.0  -0.2894
  O  O131  1  0.636200  0.184100  0.447300  1.0  -0.6996
  O  O132  1  0.800200  0.240600  0.378000  1.0  -0.6511
  O  O133  1  0.474500  0.070300  0.606800  1.0  -0.5658
  O  O134  1  0.562100  0.176100  0.726100  1.0  -0.6994
  O  O135  1  0.547900  0.363800  0.447300  1.0  -0.6994
  O  O136  1  0.440400  0.199800  0.378000  1.0  -0.6533
  O  O137  1  0.595800  0.525500  0.606800  1.0  -0.567
  O  O138  1  0.614000  0.437900  0.726100  1.0  -0.699
  O  O139  1  0.815900  0.452100  0.447300  1.0  -0.701
  O  O140  1  0.759400  0.559600  0.378000  1.0  -0.6509
  O  O141  1  0.929700  0.404200  0.606800  1.0  -0.5669
  O  O142  1  0.823900  0.386000  0.726100  1.0  -0.7003
  O  O143  1  0.452100  0.815900  0.052700  1.0  -0.6992
  O  O144  1  0.559600  0.759400  0.122000  1.0  -0.6517
  O  O145  1  0.404200  0.929700  0.893200  1.0  -0.5652
  O  O146  1  0.386000  0.823900  0.773900  1.0  -0.6993
  O  O147  1  0.184100  0.636200  0.052700  1.0  -0.6988
  O  O148  1  0.240600  0.800200  0.122000  1.0  -0.6535
  O  O149  1  0.070300  0.474500  0.893200  1.0  -0.5676
  O  O150  1  0.176100  0.562100  0.773900  1.0  -0.6985
  O  O151  1  0.363800  0.547900  0.052700  1.0  -0.7007
  O  O152  1  0.199800  0.440400  0.122000  1.0  -0.6516
  O  O153  1  0.525500  0.595800  0.893200  1.0  -0.5664
  O  O154  1  0.437900  0.614000  0.773900  1.0  -0.7006
  O  O155  1  0.363800  0.815900  0.552700  1.0  -0.6985
  O  O156  1  0.199800  0.759400  0.622000  1.0  -0.6522
  O  O157  1  0.525500  0.929700  0.393200  1.0  -0.5656
  O  O158  1  0.437900  0.823900  0.273900  1.0  -0.6992
  O  O159  1  0.452100  0.636200  0.552700  1.0  -0.699
  O  O160  1  0.559600  0.800200  0.622000  1.0  -0.6528
  O  O161  1  0.404200  0.474500  0.393200  1.0  -0.5671
  O  O162  1  0.386000  0.562100  0.273900  1.0  -0.6982
  O  O163  1  0.184100  0.547900  0.552700  1.0  -0.7001
  O  O164  1  0.240600  0.440400  0.622000  1.0  -0.6513
  O  O165  1  0.070300  0.595800  0.393200  1.0  -0.5661
  O  O166  1  0.176100  0.614000  0.273900  1.0  -0.7002
  O  O167  1  0.547900  0.184100  0.947300  1.0  -0.6997
  O  O168  1  0.440400  0.240600  0.878000  1.0  -0.6515
  O  O169  1  0.595800  0.070300  0.106800  1.0  -0.5663
  O  O170  1  0.614000  0.176100  0.226100  1.0  -0.6992
  O  O171  1  0.815900  0.363800  0.947300  1.0  -0.6998
  O  O172  1  0.759400  0.199800  0.878000  1.0  -0.6532
  O  O173  1  0.929700  0.525500  0.106800  1.0  -0.5667
  O  O174  1  0.823900  0.437900  0.226100  1.0  -0.6989
  O  O175  1  0.636200  0.452100  0.947300  1.0  -0.7007
  O  O176  1  0.800200  0.559600  0.878000  1.0  -0.6509
  O  O177  1  0.474500  0.404200  0.106800  1.0  -0.5668
  O  O178  1  0.562100  0.386000  0.226100  1.0  -0.6996
