# generated using pymatgen
data_La2Cu3H30C24(NO4)6
_symmetry_space_group_name_H-M   'P 1'
_cell_length_a   13.38190000
_cell_length_b   13.38190000
_cell_length_c   14.93300000
_cell_angle_alpha   90.00000000
_cell_angle_beta   90.00000000
_cell_angle_gamma   120.00000000
_symmetry_Int_Tables_number   1
_chemical_formula_structural   La2Cu3H30C24(NO4)6
_chemical_formula_sum   'La4 Cu6 H60 C48 N12 O48'
_cell_volume   2315.86509548
_cell_formula_units_Z   2
loop_
 _symmetry_equiv_pos_site_id
 _symmetry_equiv_pos_as_xyz
  1  'x, y, z'
loop_
 _atom_site_type_symbol
 _atom_site_label
 _atom_site_symmetry_multiplicity
 _atom_site_fract_x
 _atom_site_fract_y
 _atom_site_fract_z
 _atom_site_occupancy
 _atom_site_charge
  La  La1  1  0.333333  0.666667  0.670180  1.0  2.1426
  La  La2  1  0.666667  0.333333  0.829820  1.0  2.1427
  La  La3  1  0.666667  0.333333  0.329820  1.0  2.1427
  La  La4  1  0.333333  0.666667  0.170180  1.0  2.1426
  Cu  Cu5  1  0.500000  0.500000  0.500000  1.0  0.8079
  Cu  Cu6  1  0.000000  0.500000  0.500000  1.0  0.8079
  Cu  Cu7  1  0.500000  0.000000  0.500000  1.0  0.8079
  Cu  Cu8  1  0.000000  0.500000  0.000000  1.0  0.8079
  Cu  Cu9  1  0.500000  0.500000  0.000000  1.0  0.8079
  Cu  Cu10  1  0.500000  0.000000  0.000000  1.0  0.8079
  H  H11  1  0.199600  0.346000  0.463800  1.0  0.09
  H  H12  1  0.241700  0.283600  0.542600  1.0  0.1286
  H  H13  1  0.272200  0.459300  0.379800  1.0  0.1156
  H  H14  1  0.329500  0.394800  0.315800  1.0  0.1314
  H  H15  1  0.353100  0.327000  0.424600  1.0  0.2479
  H  H16  1  0.146400  0.800400  0.463800  1.0  0.0932
  H  H17  1  0.041900  0.758300  0.542600  1.0  0.1276
  H  H18  1  0.187100  0.727800  0.379800  1.0  0.1152
  H  H19  1  0.065300  0.670500  0.315800  1.0  0.1314
  H  H20  1  0.973900  0.646900  0.424600  1.0  0.2498
  H  H21  1  0.654000  0.853600  0.463800  1.0  0.0941
  H  H22  1  0.716400  0.958100  0.542600  1.0  0.1276
  H  H23  1  0.540700  0.812900  0.379800  1.0  0.1164
  H  H24  1  0.605200  0.934700  0.315800  1.0  0.1315
  H  H25  1  0.673000  0.026100  0.424600  1.0  0.2492
  H  H26  1  0.853600  0.654000  0.036200  1.0  0.0891
  H  H27  1  0.958100  0.716400  0.957400  1.0  0.1278
  H  H28  1  0.812900  0.540700  0.120200  1.0  0.1154
  H  H29  1  0.934700  0.605200  0.184200  1.0  0.1306
  H  H30  1  0.026100  0.673000  0.075400  1.0  0.2478
  H  H31  1  0.346000  0.199600  0.036200  1.0  0.0954
  H  H32  1  0.283600  0.241700  0.957400  1.0  0.128
  H  H33  1  0.459300  0.272200  0.120200  1.0  0.115
  H  H34  1  0.394800  0.329500  0.184200  1.0  0.1302
  H  H35  1  0.327000  0.353100  0.075400  1.0  0.2503
  H  H36  1  0.800400  0.146400  0.036200  1.0  0.0939
  H  H37  1  0.758300  0.041900  0.957400  1.0  0.1276
  H  H38  1  0.727800  0.187100  0.120200  1.0  0.1166
  H  H39  1  0.670500  0.065300  0.184200  1.0  0.1303
  H  H40  1  0.646900  0.973900  0.075400  1.0  0.2487
  H  H41  1  0.800400  0.654000  0.536200  1.0  0.0901
  H  H42  1  0.758300  0.716400  0.457400  1.0  0.1274
  H  H43  1  0.727800  0.540700  0.620200  1.0  0.1179
  H  H44  1  0.670500  0.605200  0.684200  1.0  0.1305
  H  H45  1  0.646900  0.673000  0.575400  1.0  0.2477
  H  H46  1  0.853600  0.199600  0.536200  1.0  0.0955
  H  H47  1  0.958100  0.241700  0.457400  1.0  0.1279
  H  H48  1  0.812900  0.272200  0.620200  1.0  0.1147
  H  H49  1  0.934700  0.329500  0.684200  1.0  0.1302
  H  H50  1  0.026100  0.353100  0.575400  1.0  0.2482
  H  H51  1  0.346000  0.146400  0.536200  1.0  0.0924
  H  H52  1  0.283600  0.041900  0.457400  1.0  0.1273
  H  H53  1  0.459300  0.187100  0.620200  1.0  0.1169
  H  H54  1  0.394800  0.065300  0.684200  1.0  0.1306
  H  H55  1  0.327000  0.973900  0.575400  1.0  0.2488
  H  H56  1  0.146400  0.346000  0.963800  1.0  0.0897
  H  H57  1  0.041900  0.283600  0.042600  1.0  0.1283
  H  H58  1  0.187100  0.459300  0.879800  1.0  0.1185
  H  H59  1  0.065300  0.394800  0.815800  1.0  0.1315
  H  H60  1  0.973900  0.327000  0.924600  1.0  0.2477
  H  H61  1  0.654000  0.800400  0.963800  1.0  0.0953
  H  H62  1  0.716400  0.758300  0.042600  1.0  0.1274
  H  H63  1  0.540700  0.727800  0.879800  1.0  0.1159
  H  H64  1  0.605200  0.670500  0.815800  1.0  0.1315
  H  H65  1  0.673000  0.646900  0.924600  1.0  0.2477
  H  H66  1  0.199600  0.853600  0.963800  1.0  0.0927
  H  H67  1  0.241700  0.958100  0.042600  1.0  0.1279
  H  H68  1  0.272200  0.812900  0.879800  1.0  0.116
  H  H69  1  0.329500  0.934700  0.815800  1.0  0.1313
  H  H70  1  0.353100  0.026100  0.924600  1.0  0.2486
  C  C71  1  0.270100  0.450000  0.567100  1.0  0.6871
  C  C72  1  0.253500  0.349300  0.508200  1.0  -0.1659
  C  C73  1  0.332800  0.444400  0.363300  1.0  -0.1661
  C  C74  1  0.438600  0.560000  0.343700  1.0  0.7306
  C  C75  1  0.179900  0.729900  0.567100  1.0  0.6856
  C  C76  1  0.095800  0.746500  0.508200  1.0  -0.1661
  C  C77  1  0.111600  0.667200  0.363300  1.0  -0.1655
  C  C78  1  0.121400  0.561400  0.343700  1.0  0.73
  C  C79  1  0.550000  0.820100  0.567100  1.0  0.6865
  C  C80  1  0.650700  0.904200  0.508200  1.0  -0.165
  C  C81  1  0.555600  0.888400  0.363300  1.0  -0.1664
  C  C82  1  0.440000  0.878600  0.343700  1.0  0.7298
  C  C83  1  0.820100  0.550000  0.932900  1.0  0.6869
  C  C84  1  0.904200  0.650700  0.991800  1.0  -0.1653
  C  C85  1  0.888400  0.555600  0.136700  1.0  -0.1674
  C  C86  1  0.878600  0.440000  0.156300  1.0  0.7303
  C  C87  1  0.450000  0.270100  0.932900  1.0  0.6859
  C  C88  1  0.349300  0.253500  0.991800  1.0  -0.1672
  C  C89  1  0.444400  0.332800  0.136700  1.0  -0.1648
  C  C90  1  0.560000  0.438600  0.156300  1.0  0.7304
  C  C91  1  0.729900  0.179900  0.932900  1.0  0.6865
  C  C92  1  0.746500  0.095800  0.991800  1.0  -0.1659
  C  C93  1  0.667200  0.111600  0.136700  1.0  -0.1643
  C  C94  1  0.561400  0.121400  0.156300  1.0  0.7295
  C  C95  1  0.729900  0.550000  0.432900  1.0  0.6865
  C  C96  1  0.746500  0.650700  0.491800  1.0  -0.1651
  C  C97  1  0.667200  0.555600  0.636700  1.0  -0.1675
  C  C98  1  0.561400  0.440000  0.656300  1.0  0.7303
  C  C99  1  0.820100  0.270100  0.432900  1.0  0.6843
  C  C100  1  0.904200  0.253500  0.491800  1.0  -0.1671
  C  C101  1  0.888400  0.332800  0.636700  1.0  -0.1652
  C  C102  1  0.878600  0.438600  0.656300  1.0  0.73
  C  C103  1  0.450000  0.179900  0.432900  1.0  0.6876
  C  C104  1  0.349300  0.095800  0.491800  1.0  -0.166
  C  C105  1  0.444400  0.111600  0.636700  1.0  -0.165
  C  C106  1  0.560000  0.121400  0.656300  1.0  0.7291
  C  C107  1  0.179900  0.450000  0.067100  1.0  0.6867
  C  C108  1  0.095800  0.349300  0.008200  1.0  -0.1665
  C  C109  1  0.111600  0.444400  0.863300  1.0  -0.1666
  C  C110  1  0.121400  0.560000  0.843700  1.0  0.7311
  C  C111  1  0.550000  0.729900  0.067100  1.0  0.6845
  C  C112  1  0.650700  0.746500  0.008200  1.0  -0.1656
  C  C113  1  0.555600  0.667200  0.863300  1.0  -0.1654
  C  C114  1  0.440000  0.561400  0.843700  1.0  0.7304
  C  C115  1  0.270100  0.820100  0.067100  1.0  0.6871
  C  C116  1  0.253500  0.904200  0.008200  1.0  -0.1652
  C  C117  1  0.332800  0.888400  0.863300  1.0  -0.1667
  C  C118  1  0.438600  0.878600  0.843700  1.0  0.7287
  N  N119  1  0.348900  0.387600  0.443000  1.0  -0.2855
  N  N120  1  0.038700  0.651100  0.443000  1.0  -0.2834
  N  N121  1  0.612400  0.961300  0.443000  1.0  -0.2854
  N  N122  1  0.961300  0.612400  0.057000  1.0  -0.2845
  N  N123  1  0.387600  0.348900  0.057000  1.0  -0.2844
  N  N124  1  0.651100  0.038700  0.057000  1.0  -0.2853
  N  N125  1  0.651100  0.612400  0.557000  1.0  -0.2851
  N  N126  1  0.961300  0.348900  0.557000  1.0  -0.2836
  N  N127  1  0.387600  0.038700  0.557000  1.0  -0.2854
  N  N128  1  0.038700  0.387600  0.943000  1.0  -0.2864
  N  N129  1  0.612400  0.651100  0.943000  1.0  -0.2836
  N  N130  1  0.348900  0.961300  0.943000  1.0  -0.2851
  O  O131  1  0.362300  0.544500  0.557800  1.0  -0.6997
  O  O132  1  0.194500  0.434400  0.623000  1.0  -0.6561
  O  O133  1  0.522500  0.598300  0.396400  1.0  -0.5715
  O  O134  1  0.437200  0.612900  0.275900  1.0  -0.7087
  O  O135  1  0.182200  0.637700  0.557800  1.0  -0.6976
  O  O136  1  0.239900  0.805500  0.623000  1.0  -0.6583
  O  O137  1  0.075800  0.477500  0.396400  1.0  -0.573
  O  O138  1  0.175700  0.562800  0.275900  1.0  -0.7065
  O  O139  1  0.455500  0.817800  0.557800  1.0  -0.6968
  O  O140  1  0.565600  0.760100  0.623000  1.0  -0.6567
  O  O141  1  0.401700  0.924200  0.396400  1.0  -0.5709
  O  O142  1  0.387100  0.824300  0.275900  1.0  -0.7078
  O  O143  1  0.817800  0.455500  0.942200  1.0  -0.7
  O  O144  1  0.760100  0.565600  0.877000  1.0  -0.6549
  O  O145  1  0.924200  0.401700  0.103600  1.0  -0.5719
  O  O146  1  0.824300  0.387100  0.224100  1.0  -0.7085
  O  O147  1  0.544500  0.362300  0.942200  1.0  -0.698
  O  O148  1  0.434400  0.194500  0.877000  1.0  -0.6565
  O  O149  1  0.598300  0.522500  0.103600  1.0  -0.5723
  O  O150  1  0.612900  0.437200  0.224100  1.0  -0.7067
  O  O151  1  0.637700  0.182200  0.942200  1.0  -0.6973
  O  O152  1  0.805500  0.239900  0.877000  1.0  -0.6555
  O  O153  1  0.477500  0.075800  0.103600  1.0  -0.5711
  O  O154  1  0.562800  0.175700  0.224100  1.0  -0.7078
  O  O155  1  0.637700  0.455500  0.442200  1.0  -0.6991
  O  O156  1  0.805500  0.565600  0.377000  1.0  -0.6549
  O  O157  1  0.477500  0.401700  0.603600  1.0  -0.5718
  O  O158  1  0.562800  0.387100  0.724100  1.0  -0.709
  O  O159  1  0.817800  0.362300  0.442200  1.0  -0.6984
  O  O160  1  0.760100  0.194500  0.377000  1.0  -0.6568
  O  O161  1  0.924200  0.522500  0.603600  1.0  -0.5719
  O  O162  1  0.824300  0.437200  0.724100  1.0  -0.7068
  O  O163  1  0.544500  0.182200  0.442200  1.0  -0.6976
  O  O164  1  0.434400  0.239900  0.377000  1.0  -0.6554
  O  O165  1  0.598300  0.075800  0.603600  1.0  -0.5712
  O  O166  1  0.612900  0.175700  0.724100  1.0  -0.7069
  O  O167  1  0.182200  0.544500  0.057800  1.0  -0.6986
  O  O168  1  0.239900  0.434400  0.123000  1.0  -0.6563
  O  O169  1  0.075800  0.598300  0.896400  1.0  -0.5713
  O  O170  1  0.175700  0.612900  0.775900  1.0  -0.7092
  O  O171  1  0.455500  0.637700  0.057800  1.0  -0.6979
  O  O172  1  0.565600  0.805500  0.123000  1.0  -0.6575
  O  O173  1  0.401700  0.477500  0.896400  1.0  -0.5726
  O  O174  1  0.387100  0.562800  0.775900  1.0  -0.7067
  O  O175  1  0.362300  0.817800  0.057800  1.0  -0.6969
  O  O176  1  0.194500  0.760100  0.123000  1.0  -0.6571
  O  O177  1  0.522500  0.924200  0.896400  1.0  -0.5708
  O  O178  1  0.437200  0.824300  0.775900  1.0  -0.7073
