# generated using pymatgen
data_La2Cu3H30C24(NO4)6
_symmetry_space_group_name_H-M   'P 1'
_cell_length_a   13.51560000
_cell_length_b   13.51560000
_cell_length_c   14.87200000
_cell_angle_alpha   90.00000000
_cell_angle_beta   90.00000000
_cell_angle_gamma   120.00000000
_symmetry_Int_Tables_number   1
_chemical_formula_structural   La2Cu3H30C24(NO4)6
_chemical_formula_sum   'La4 Cu6 H60 C48 N12 O48'
_cell_volume   2352.72229929
_cell_formula_units_Z   2
loop_
 _symmetry_equiv_pos_site_id
 _symmetry_equiv_pos_as_xyz
  1  'x, y, z'
loop_
 _atom_site_type_symbol
 _atom_site_label
 _atom_site_symmetry_multiplicity
 _atom_site_fract_x
 _atom_site_fract_y
 _atom_site_fract_z
 _atom_site_occupancy
 _atom_site_charge
  La  La1  1  0.666667  0.333333  0.331770  1.0  2.149
  La  La2  1  0.333333  0.666667  0.168230  1.0  2.1489
  La  La3  1  0.333333  0.666667  0.668230  1.0  2.1489
  La  La4  1  0.666667  0.333333  0.831770  1.0  2.149
  Cu  Cu5  1  0.500000  0.000000  0.500000  1.0  0.7966
  Cu  Cu6  1  0.500000  0.500000  0.500000  1.0  0.7966
  Cu  Cu7  1  0.000000  0.500000  0.500000  1.0  0.7966
  Cu  Cu8  1  0.500000  0.000000  0.000000  1.0  0.7966
  Cu  Cu9  1  0.000000  0.500000  0.000000  1.0  0.7966
  Cu  Cu10  1  0.500000  0.500000  0.000000  1.0  0.7966
  H  H11  1  0.756200  0.043900  0.457200  1.0  0.1433
  H  H12  1  0.647800  0.978100  0.576000  1.0  0.2588
  H  H13  1  0.797600  0.143300  0.535500  1.0  0.1067
  H  H14  1  0.724700  0.187700  0.619500  1.0  0.1451
  H  H15  1  0.669800  0.067300  0.685200  1.0  0.1451
  H  H16  1  0.287700  0.243800  0.457200  1.0  0.1431
  H  H17  1  0.330300  0.352200  0.576000  1.0  0.2606
  H  H18  1  0.345700  0.202400  0.535500  1.0  0.1083
  H  H19  1  0.463000  0.275300  0.619500  1.0  0.147
  H  H20  1  0.397500  0.330200  0.685200  1.0  0.1446
  H  H21  1  0.956100  0.712300  0.457200  1.0  0.1436
  H  H22  1  0.021900  0.669700  0.576000  1.0  0.258
  H  H23  1  0.856700  0.654300  0.535500  1.0  0.1059
  H  H24  1  0.812300  0.537000  0.619500  1.0  0.1454
  H  H25  1  0.932700  0.602500  0.685200  1.0  0.1453
  H  H26  1  0.712300  0.956100  0.042800  1.0  0.1434
  H  H27  1  0.669700  0.021900  0.924000  1.0  0.2589
  H  H28  1  0.654300  0.856700  0.964500  1.0  0.1066
  H  H29  1  0.537000  0.812300  0.880500  1.0  0.1452
  H  H30  1  0.602500  0.932700  0.814800  1.0  0.1458
  H  H31  1  0.043900  0.756200  0.042800  1.0  0.1434
  H  H32  1  0.978100  0.647800  0.924000  1.0  0.2598
  H  H33  1  0.143300  0.797600  0.964500  1.0  0.1069
  H  H34  1  0.187700  0.724700  0.880500  1.0  0.1471
  H  H35  1  0.067300  0.669800  0.814800  1.0  0.1453
  H  H36  1  0.243800  0.287700  0.042800  1.0  0.1442
  H  H37  1  0.352200  0.330300  0.924000  1.0  0.2584
  H  H38  1  0.202400  0.345700  0.964500  1.0  0.1061
  H  H39  1  0.275300  0.463000  0.880500  1.0  0.1456
  H  H40  1  0.330200  0.397500  0.814800  1.0  0.145
  H  H41  1  0.243800  0.956100  0.542800  1.0  0.1433
  H  H42  1  0.352200  0.021900  0.424000  1.0  0.2591
  H  H43  1  0.202400  0.856700  0.464500  1.0  0.1066
  H  H44  1  0.275300  0.812300  0.380500  1.0  0.1455
  H  H45  1  0.330200  0.932700  0.314800  1.0  0.1455
  H  H46  1  0.712300  0.756200  0.542800  1.0  0.1434
  H  H47  1  0.669700  0.647800  0.424000  1.0  0.259
  H  H48  1  0.654300  0.797600  0.464500  1.0  0.1081
  H  H49  1  0.537000  0.724700  0.380500  1.0  0.1469
  H  H50  1  0.602500  0.669800  0.314800  1.0  0.1457
  H  H51  1  0.043900  0.287700  0.542800  1.0  0.1438
  H  H52  1  0.978100  0.330300  0.424000  1.0  0.2587
  H  H53  1  0.143300  0.345700  0.464500  1.0  0.1058
  H  H54  1  0.187700  0.463000  0.380500  1.0  0.1478
  H  H55  1  0.067300  0.397500  0.314800  1.0  0.1448
  H  H56  1  0.287700  0.043900  0.957200  1.0  0.1427
  H  H57  1  0.330300  0.978100  0.076000  1.0  0.2592
  H  H58  1  0.345700  0.143300  0.035500  1.0  0.1064
  H  H59  1  0.463000  0.187700  0.119500  1.0  0.1458
  H  H60  1  0.397500  0.067300  0.185200  1.0  0.1449
  H  H61  1  0.956100  0.243800  0.957200  1.0  0.143
  H  H62  1  0.021900  0.352200  0.076000  1.0  0.2597
  H  H63  1  0.856700  0.202400  0.035500  1.0  0.1088
  H  H64  1  0.812300  0.275300  0.119500  1.0  0.1464
  H  H65  1  0.932700  0.330200  0.185200  1.0  0.1453
  H  H66  1  0.756200  0.712300  0.957200  1.0  0.1435
  H  H67  1  0.647800  0.669700  0.076000  1.0  0.2587
  H  H68  1  0.797600  0.654300  0.035500  1.0  0.1063
  H  H69  1  0.724700  0.537000  0.119500  1.0  0.1467
  H  H70  1  0.669800  0.602500  0.185200  1.0  0.1448
  C  C71  1  0.727500  0.180100  0.434100  1.0  0.695
  C  C72  1  0.743500  0.096400  0.491100  1.0  -0.1987
  C  C73  1  0.666500  0.112400  0.636600  1.0  -0.23
  C  C74  1  0.559900  0.121100  0.656600  1.0  0.7328
  C  C75  1  0.452600  0.272500  0.434100  1.0  0.6937
  C  C76  1  0.352900  0.256500  0.491100  1.0  -0.1992
  C  C77  1  0.445900  0.333500  0.636600  1.0  -0.2297
  C  C78  1  0.561200  0.440100  0.656600  1.0  0.7349
  C  C79  1  0.819900  0.547400  0.434100  1.0  0.6948
  C  C80  1  0.903600  0.647100  0.491100  1.0  -0.1988
  C  C81  1  0.887600  0.554100  0.636600  1.0  -0.2312
  C  C82  1  0.878900  0.438800  0.656600  1.0  0.7342
  C  C83  1  0.547400  0.819900  0.065900  1.0  0.6952
  C  C84  1  0.647100  0.903600  0.008900  1.0  -0.1993
  C  C85  1  0.554100  0.887600  0.863400  1.0  -0.2313
  C  C86  1  0.438800  0.878900  0.843400  1.0  0.7324
  C  C87  1  0.180100  0.727500  0.065900  1.0  0.6935
  C  C88  1  0.096400  0.743500  0.008900  1.0  -0.1995
  C  C89  1  0.112400  0.666500  0.863400  1.0  -0.2299
  C  C90  1  0.121100  0.559900  0.843400  1.0  0.7339
  C  C91  1  0.272500  0.452600  0.065900  1.0  0.6944
  C  C92  1  0.256500  0.352900  0.008900  1.0  -0.1996
  C  C93  1  0.333500  0.445900  0.863400  1.0  -0.2304
  C  C94  1  0.440100  0.561200  0.843400  1.0  0.7338
  C  C95  1  0.272500  0.819900  0.565900  1.0  0.6952
  C  C96  1  0.256500  0.903600  0.508900  1.0  -0.1988
  C  C97  1  0.333500  0.887600  0.363400  1.0  -0.2305
  C  C98  1  0.440100  0.878900  0.343400  1.0  0.7318
  C  C99  1  0.547400  0.727500  0.565900  1.0  0.6932
  C  C100  1  0.647100  0.743500  0.508900  1.0  -0.1993
  C  C101  1  0.554100  0.666500  0.363400  1.0  -0.2303
  C  C102  1  0.438800  0.559900  0.343400  1.0  0.7333
  C  C103  1  0.180100  0.452600  0.565900  1.0  0.6945
  C  C104  1  0.096400  0.352900  0.508900  1.0  -0.2009
  C  C105  1  0.112400  0.445900  0.363400  1.0  -0.2313
  C  C106  1  0.121100  0.561200  0.343400  1.0  0.734
  C  C107  1  0.452600  0.180100  0.934100  1.0  0.6958
  C  C108  1  0.352900  0.096400  0.991100  1.0  -0.1997
  C  C109  1  0.445900  0.112400  0.136600  1.0  -0.2307
  C  C110  1  0.561200  0.121100  0.156600  1.0  0.7327
  C  C111  1  0.819900  0.272500  0.934100  1.0  0.6931
  C  C112  1  0.903600  0.256500  0.991100  1.0  -0.1995
  C  C113  1  0.887600  0.333500  0.136600  1.0  -0.2298
  C  C114  1  0.878900  0.440100  0.156600  1.0  0.7339
  C  C115  1  0.727500  0.547400  0.934100  1.0  0.6938
  C  C116  1  0.743500  0.647100  0.991100  1.0  -0.1993
  C  C117  1  0.666500  0.554100  0.136600  1.0  -0.231
  C  C118  1  0.559900  0.438800  0.156600  1.0  0.7335
  N  N119  1  0.650900  0.041500  0.557000  1.0  -0.2821
  N  N120  1  0.390600  0.349100  0.557000  1.0  -0.2808
  N  N121  1  0.958500  0.609400  0.557000  1.0  -0.2812
  N  N122  1  0.609400  0.958500  0.943000  1.0  -0.282
  N  N123  1  0.041500  0.650900  0.943000  1.0  -0.2807
  N  N124  1  0.349100  0.390600  0.943000  1.0  -0.2821
  N  N125  1  0.349100  0.958500  0.443000  1.0  -0.2814
  N  N126  1  0.609400  0.650900  0.443000  1.0  -0.2813
  N  N127  1  0.041500  0.390600  0.443000  1.0  -0.2829
  N  N128  1  0.390600  0.041500  0.057000  1.0  -0.282
  N  N129  1  0.958500  0.349100  0.057000  1.0  -0.2807
  N  N130  1  0.650900  0.609400  0.057000  1.0  -0.2819
  O  O131  1  0.635000  0.182800  0.445000  1.0  -0.7205
  O  O132  1  0.800900  0.241100  0.377900  1.0  -0.6407
  O  O133  1  0.475400  0.072500  0.605600  1.0  -0.5598
  O  O134  1  0.563200  0.177000  0.724800  1.0  -0.7087
  O  O135  1  0.547800  0.365000  0.445000  1.0  -0.7204
  O  O136  1  0.440200  0.199100  0.377900  1.0  -0.6433
  O  O137  1  0.597100  0.524600  0.605600  1.0  -0.5611
  O  O138  1  0.613800  0.436800  0.724800  1.0  -0.7081
  O  O139  1  0.817200  0.452200  0.445000  1.0  -0.7221
  O  O140  1  0.758900  0.559800  0.377900  1.0  -0.641
  O  O141  1  0.927500  0.402900  0.605600  1.0  -0.56
  O  O142  1  0.823000  0.386200  0.724800  1.0  -0.7095
  O  O143  1  0.452200  0.817200  0.055000  1.0  -0.7202
  O  O144  1  0.559800  0.758900  0.122100  1.0  -0.6421
  O  O145  1  0.402900  0.927500  0.894400  1.0  -0.5593
  O  O146  1  0.386200  0.823000  0.775200  1.0  -0.7072
  O  O147  1  0.182800  0.635000  0.055000  1.0  -0.7207
  O  O148  1  0.241100  0.800900  0.122100  1.0  -0.6447
  O  O149  1  0.072500  0.475400  0.894400  1.0  -0.5615
  O  O150  1  0.177000  0.563200  0.775200  1.0  -0.707
  O  O151  1  0.365000  0.547800  0.055000  1.0  -0.7223
  O  O152  1  0.199100  0.440200  0.122100  1.0  -0.6422
  O  O153  1  0.524600  0.597100  0.894400  1.0  -0.5604
  O  O154  1  0.436800  0.613800  0.775200  1.0  -0.709
  O  O155  1  0.365000  0.817200  0.555000  1.0  -0.7198
  O  O156  1  0.199100  0.758900  0.622100  1.0  -0.6428
  O  O157  1  0.524600  0.927500  0.394400  1.0  -0.5593
  O  O158  1  0.436800  0.823000  0.275200  1.0  -0.7073
  O  O159  1  0.452200  0.635000  0.555000  1.0  -0.7204
  O  O160  1  0.559800  0.800900  0.622100  1.0  -0.6438
  O  O161  1  0.402900  0.475400  0.394400  1.0  -0.5612
  O  O162  1  0.386200  0.563200  0.275200  1.0  -0.7067
  O  O163  1  0.182800  0.547800  0.555000  1.0  -0.7215
  O  O164  1  0.241100  0.440200  0.622100  1.0  -0.6418
  O  O165  1  0.072500  0.597100  0.394400  1.0  -0.5605
  O  O166  1  0.177000  0.613800  0.275200  1.0  -0.7087
  O  O167  1  0.547800  0.182800  0.945000  1.0  -0.7203
  O  O168  1  0.440200  0.241100  0.877900  1.0  -0.641
  O  O169  1  0.597100  0.072500  0.105600  1.0  -0.5596
  O  O170  1  0.613800  0.177000  0.224800  1.0  -0.708
  O  O171  1  0.817200  0.365000  0.945000  1.0  -0.7206
  O  O172  1  0.758900  0.199100  0.877900  1.0  -0.6434
  O  O173  1  0.927500  0.524600  0.105600  1.0  -0.5609
  O  O174  1  0.823000  0.436800  0.224800  1.0  -0.7081
  O  O175  1  0.635000  0.452200  0.945000  1.0  -0.7217
  O  O176  1  0.800900  0.559800  0.877900  1.0  -0.641
  O  O177  1  0.475400  0.402900  0.105600  1.0  -0.5604
  O  O178  1  0.563200  0.386200  0.224800  1.0  -0.7087
