# generated using pymatgen
data_La2Cu3H30C24(NO4)6
_symmetry_space_group_name_H-M   'P 1'
_cell_length_a   13.50390000
_cell_length_b   13.50390000
_cell_length_c   14.89700000
_cell_angle_alpha   90.00000000
_cell_angle_beta   90.00000000
_cell_angle_gamma   120.00000000
_symmetry_Int_Tables_number   1
_chemical_formula_structural   La2Cu3H30C24(NO4)6
_chemical_formula_sum   'La4 Cu6 H60 C48 N12 O48'
_cell_volume   2352.59882575
_cell_formula_units_Z   2
loop_
 _symmetry_equiv_pos_site_id
 _symmetry_equiv_pos_as_xyz
  1  'x, y, z'
loop_
 _atom_site_type_symbol
 _atom_site_label
 _atom_site_symmetry_multiplicity
 _atom_site_fract_x
 _atom_site_fract_y
 _atom_site_fract_z
 _atom_site_occupancy
 _atom_site_charge
  La  La1  1  0.666667  0.333333  0.330900  1.0  2.1491
  La  La2  1  0.333333  0.666667  0.169100  1.0  2.1492
  La  La3  1  0.333333  0.666667  0.669100  1.0  2.1492
  La  La4  1  0.666667  0.333333  0.830900  1.0  2.1491
  Cu  Cu5  1  0.500000  0.000000  0.500000  1.0  0.7946
  Cu  Cu6  1  0.500000  0.500000  0.500000  1.0  0.7946
  Cu  Cu7  1  0.000000  0.500000  0.500000  1.0  0.7946
  Cu  Cu8  1  0.500000  0.000000  0.000000  1.0  0.7946
  Cu  Cu9  1  0.000000  0.500000  0.000000  1.0  0.7946
  Cu  Cu10  1  0.500000  0.500000  0.000000  1.0  0.7946
  H  H11  1  0.799400  0.142900  0.534000  1.0  0.1081
  H  H12  1  0.753700  0.042500  0.454500  1.0  0.1459
  H  H13  1  0.726200  0.189000  0.620100  1.0  0.1414
  H  H14  1  0.670300  0.067800  0.684100  1.0  0.1411
  H  H15  1  0.647900  0.976800  0.575800  1.0  0.2609
  H  H16  1  0.343500  0.200600  0.534000  1.0  0.1094
  H  H17  1  0.288800  0.246300  0.454500  1.0  0.1462
  H  H18  1  0.462800  0.273800  0.620100  1.0  0.1408
  H  H19  1  0.397500  0.329700  0.684100  1.0  0.1412
  H  H20  1  0.328900  0.352100  0.575800  1.0  0.2616
  H  H21  1  0.857100  0.656500  0.534000  1.0  0.1072
  H  H22  1  0.957500  0.711200  0.454500  1.0  0.1462
  H  H23  1  0.811000  0.537200  0.620100  1.0  0.1404
  H  H24  1  0.932200  0.602500  0.684100  1.0  0.1411
  H  H25  1  0.023200  0.671100  0.575800  1.0  0.2596
  H  H26  1  0.656500  0.857100  0.966000  1.0  0.1078
  H  H27  1  0.711200  0.957500  0.045500  1.0  0.1458
  H  H28  1  0.537200  0.811000  0.879900  1.0  0.1416
  H  H29  1  0.602500  0.932200  0.815900  1.0  0.142
  H  H30  1  0.671100  0.023200  0.924200  1.0  0.261
  H  H31  1  0.142900  0.799400  0.966000  1.0  0.1078
  H  H32  1  0.042500  0.753700  0.045500  1.0  0.1461
  H  H33  1  0.189000  0.726200  0.879900  1.0  0.1404
  H  H34  1  0.067800  0.670300  0.815900  1.0  0.1418
  H  H35  1  0.976800  0.647900  0.924200  1.0  0.2619
  H  H36  1  0.200600  0.343500  0.966000  1.0  0.1077
  H  H37  1  0.246300  0.288800  0.045500  1.0  0.1467
  H  H38  1  0.273800  0.462800  0.879900  1.0  0.1402
  H  H39  1  0.329700  0.397500  0.815900  1.0  0.1415
  H  H40  1  0.352100  0.328900  0.924200  1.0  0.26
  H  H41  1  0.200600  0.857100  0.466000  1.0  0.1079
  H  H42  1  0.246300  0.957500  0.545500  1.0  0.1462
  H  H43  1  0.273800  0.811000  0.379900  1.0  0.1414
  H  H44  1  0.329700  0.932200  0.315900  1.0  0.1415
  H  H45  1  0.352100  0.023200  0.424200  1.0  0.2611
  H  H46  1  0.656500  0.799400  0.466000  1.0  0.1089
  H  H47  1  0.711200  0.753700  0.545500  1.0  0.1457
  H  H48  1  0.537200  0.726200  0.379900  1.0  0.1405
  H  H49  1  0.602500  0.670300  0.315900  1.0  0.142
  H  H50  1  0.671100  0.647900  0.424200  1.0  0.2615
  H  H51  1  0.142900  0.343500  0.466000  1.0  0.1072
  H  H52  1  0.042500  0.288800  0.545500  1.0  0.1464
  H  H53  1  0.189000  0.462800  0.379900  1.0  0.1415
  H  H54  1  0.067800  0.397500  0.315900  1.0  0.1416
  H  H55  1  0.976800  0.328900  0.424200  1.0  0.2599
  H  H56  1  0.343500  0.142900  0.034000  1.0  0.1081
  H  H57  1  0.288800  0.042500  0.954500  1.0  0.1457
  H  H58  1  0.462800  0.189000  0.120100  1.0  0.1416
  H  H59  1  0.397500  0.067800  0.184100  1.0  0.1413
  H  H60  1  0.328900  0.976800  0.075800  1.0  0.2606
  H  H61  1  0.857100  0.200600  0.034000  1.0  0.1104
  H  H62  1  0.957500  0.246300  0.954500  1.0  0.1457
  H  H63  1  0.811000  0.273800  0.120100  1.0  0.14
  H  H64  1  0.932200  0.329700  0.184100  1.0  0.1413
  H  H65  1  0.023200  0.352100  0.075800  1.0  0.2615
  H  H66  1  0.799400  0.656500  0.034000  1.0  0.1075
  H  H67  1  0.753700  0.711200  0.954500  1.0  0.1461
  H  H68  1  0.726200  0.537200  0.120100  1.0  0.1413
  H  H69  1  0.670300  0.602500  0.184100  1.0  0.1408
  H  H70  1  0.647900  0.671100  0.075800  1.0  0.2598
  C  C71  1  0.727000  0.179900  0.433800  1.0  0.6937
  C  C72  1  0.743900  0.095900  0.491000  1.0  -0.2035
  C  C73  1  0.667000  0.112900  0.636200  1.0  -0.2324
  C  C74  1  0.560800  0.121200  0.656900  1.0  0.7367
  C  C75  1  0.452900  0.273000  0.433800  1.0  0.6927
  C  C76  1  0.352000  0.256100  0.491000  1.0  -0.2037
  C  C77  1  0.445900  0.333000  0.636200  1.0  -0.2313
  C  C78  1  0.560400  0.439200  0.656900  1.0  0.7383
  C  C79  1  0.820100  0.547100  0.433800  1.0  0.6939
  C  C80  1  0.904100  0.648000  0.491000  1.0  -0.2034
  C  C81  1  0.887100  0.554100  0.636200  1.0  -0.2326
  C  C82  1  0.878800  0.439600  0.656900  1.0  0.7386
  C  C83  1  0.547100  0.820100  0.066200  1.0  0.6935
  C  C84  1  0.648000  0.904100  0.009000  1.0  -0.2041
  C  C85  1  0.554100  0.887100  0.863800  1.0  -0.2325
  C  C86  1  0.439600  0.878800  0.843100  1.0  0.7361
  C  C87  1  0.179900  0.727000  0.066200  1.0  0.6921
  C  C88  1  0.095900  0.743900  0.009000  1.0  -0.2041
  C  C89  1  0.112900  0.667000  0.863800  1.0  -0.2312
  C  C90  1  0.121200  0.560800  0.843100  1.0  0.7371
  C  C91  1  0.273000  0.452900  0.066200  1.0  0.6934
  C  C92  1  0.256100  0.352000  0.009000  1.0  -0.2026
  C  C93  1  0.333000  0.445900  0.863800  1.0  -0.2317
  C  C94  1  0.439200  0.560400  0.843100  1.0  0.7381
  C  C95  1  0.273000  0.820100  0.566200  1.0  0.6934
  C  C96  1  0.256100  0.904100  0.509000  1.0  -0.2036
  C  C97  1  0.333000  0.887100  0.363800  1.0  -0.2319
  C  C98  1  0.439200  0.878800  0.343100  1.0  0.7357
  C  C99  1  0.547100  0.727000  0.566200  1.0  0.692
  C  C100  1  0.648000  0.743900  0.509000  1.0  -0.2041
  C  C101  1  0.554100  0.667000  0.363800  1.0  -0.2319
  C  C102  1  0.439600  0.560800  0.343100  1.0  0.7375
  C  C103  1  0.179900  0.452900  0.566200  1.0  0.6934
  C  C104  1  0.095900  0.352000  0.509000  1.0  -0.2041
  C  C105  1  0.112900  0.445900  0.363800  1.0  -0.2326
  C  C106  1  0.121200  0.560400  0.343100  1.0  0.7383
  C  C107  1  0.452900  0.179900  0.933800  1.0  0.6942
  C  C108  1  0.352000  0.095900  0.991000  1.0  -0.2046
  C  C109  1  0.445900  0.112900  0.136200  1.0  -0.2323
  C  C110  1  0.560400  0.121200  0.156900  1.0  0.737
  C  C111  1  0.820100  0.273000  0.933800  1.0  0.6922
  C  C112  1  0.904100  0.256100  0.991000  1.0  -0.2037
  C  C113  1  0.887100  0.333000  0.136200  1.0  -0.232
  C  C114  1  0.878800  0.439200  0.156900  1.0  0.7378
  C  C115  1  0.727000  0.547100  0.933800  1.0  0.6935
  C  C116  1  0.743900  0.648000  0.991000  1.0  -0.2037
  C  C117  1  0.667000  0.554100  0.136200  1.0  -0.2335
  C  C118  1  0.560800  0.439600  0.156900  1.0  0.7382
  N  N119  1  0.650800  0.040200  0.557300  1.0  -0.284
  N  N120  1  0.389400  0.349200  0.557300  1.0  -0.2832
  N  N121  1  0.959800  0.610600  0.557300  1.0  -0.2837
  N  N122  1  0.610600  0.959800  0.942700  1.0  -0.2837
  N  N123  1  0.040200  0.650800  0.942700  1.0  -0.2824
  N  N124  1  0.349200  0.389400  0.942700  1.0  -0.2844
  N  N125  1  0.349200  0.959800  0.442700  1.0  -0.2836
  N  N126  1  0.610600  0.650800  0.442700  1.0  -0.2827
  N  N127  1  0.040200  0.389400  0.442700  1.0  -0.2854
  N  N128  1  0.389400  0.040200  0.057300  1.0  -0.2846
  N  N129  1  0.959800  0.349200  0.057300  1.0  -0.2828
  N  N130  1  0.650800  0.610600  0.057300  1.0  -0.284
  O  O131  1  0.635800  0.183000  0.443800  1.0  -0.7014
  O  O132  1  0.801600  0.240900  0.377600  1.0  -0.6544
  O  O133  1  0.476700  0.074000  0.605100  1.0  -0.5631
  O  O134  1  0.563100  0.176300  0.724400  1.0  -0.7021
  O  O135  1  0.547200  0.364200  0.443800  1.0  -0.7014
  O  O136  1  0.439300  0.198400  0.377600  1.0  -0.6568
  O  O137  1  0.597300  0.523300  0.605100  1.0  -0.5641
  O  O138  1  0.613200  0.436900  0.724400  1.0  -0.7009
  O  O139  1  0.817000  0.452800  0.443800  1.0  -0.7026
  O  O140  1  0.759100  0.560700  0.377600  1.0  -0.6546
  O  O141  1  0.926000  0.402700  0.605100  1.0  -0.5636
  O  O142  1  0.823700  0.386800  0.724400  1.0  -0.7027
  O  O143  1  0.452800  0.817000  0.056200  1.0  -0.7009
  O  O144  1  0.560700  0.759100  0.122400  1.0  -0.6544
  O  O145  1  0.402700  0.926000  0.894900  1.0  -0.5626
  O  O146  1  0.386800  0.823700  0.775600  1.0  -0.7018
  O  O147  1  0.183000  0.635800  0.056200  1.0  -0.701
  O  O148  1  0.240900  0.801600  0.122400  1.0  -0.6568
  O  O149  1  0.074000  0.476700  0.894900  1.0  -0.5644
  O  O150  1  0.176300  0.563100  0.775600  1.0  -0.7004
  O  O151  1  0.364200  0.547200  0.056200  1.0  -0.7026
  O  O152  1  0.198400  0.439300  0.122400  1.0  -0.6548
  O  O153  1  0.523300  0.597300  0.894900  1.0  -0.5635
  O  O154  1  0.436900  0.613200  0.775600  1.0  -0.7025
  O  O155  1  0.364200  0.817000  0.556200  1.0  -0.7009
  O  O156  1  0.198400  0.759100  0.622400  1.0  -0.6552
  O  O157  1  0.523300  0.926000  0.394900  1.0  -0.5629
  O  O158  1  0.436900  0.823700  0.275600  1.0  -0.7014
  O  O159  1  0.452800  0.635800  0.556200  1.0  -0.7008
  O  O160  1  0.560700  0.801600  0.622400  1.0  -0.656
  O  O161  1  0.402700  0.476700  0.394900  1.0  -0.5641
  O  O162  1  0.386800  0.563100  0.275600  1.0  -0.7004
  O  O163  1  0.183000  0.547200  0.556200  1.0  -0.7022
  O  O164  1  0.240900  0.439300  0.622400  1.0  -0.6544
  O  O165  1  0.074000  0.597300  0.394900  1.0  -0.5633
  O  O166  1  0.176300  0.613200  0.275600  1.0  -0.7022
  O  O167  1  0.547200  0.183000  0.943800  1.0  -0.7018
  O  O168  1  0.439300  0.240900  0.877600  1.0  -0.6547
  O  O169  1  0.597300  0.074000  0.105100  1.0  -0.5635
  O  O170  1  0.613200  0.176300  0.224400  1.0  -0.7013
  O  O171  1  0.817000  0.364200  0.943800  1.0  -0.7015
  O  O172  1  0.759100  0.198400  0.877600  1.0  -0.6569
  O  O173  1  0.926000  0.523300  0.105100  1.0  -0.564
  O  O174  1  0.823700  0.436900  0.224400  1.0  -0.7009
  O  O175  1  0.635800  0.452800  0.943800  1.0  -0.7024
  O  O176  1  0.801600  0.560700  0.877600  1.0  -0.6546
  O  O177  1  0.476700  0.402700  0.105100  1.0  -0.5634
  O  O178  1  0.563100  0.386800  0.224400  1.0  -0.7023
