# generated using pymatgen
data_La2Cu3H30C24(NO4)6
_symmetry_space_group_name_H-M   'P 1'
_cell_length_a   13.50450000
_cell_length_b   13.50450000
_cell_length_c   14.83600000
_cell_angle_alpha   90.00000000
_cell_angle_beta   90.00000000
_cell_angle_gamma   120.00000000
_symmetry_Int_Tables_number   1
_chemical_formula_structural   La2Cu3H30C24(NO4)6
_chemical_formula_sum   'La4 Cu6 H60 C48 N12 O48'
_cell_volume   2343.17364936
_cell_formula_units_Z   2
loop_
 _symmetry_equiv_pos_site_id
 _symmetry_equiv_pos_as_xyz
  1  'x, y, z'
loop_
 _atom_site_type_symbol
 _atom_site_label
 _atom_site_symmetry_multiplicity
 _atom_site_fract_x
 _atom_site_fract_y
 _atom_site_fract_z
 _atom_site_occupancy
 _atom_site_charge
  La  La1  1  0.333333  0.666667  0.832400  1.0  2.1497
  La  La2  1  0.666667  0.333333  0.667600  1.0  2.1497
  La  La3  1  0.666667  0.333333  0.167600  1.0  2.1497
  La  La4  1  0.333333  0.666667  0.332400  1.0  2.1497
  Cu  Cu5  1  0.500000  0.000000  0.000000  1.0  0.7938
  Cu  Cu6  1  0.500000  0.500000  0.000000  1.0  0.7938
  Cu  Cu7  1  0.000000  0.500000  0.000000  1.0  0.7938
  Cu  Cu8  1  0.500000  0.000000  0.500000  1.0  0.7938
  Cu  Cu9  1  0.000000  0.500000  0.500000  1.0  0.7938
  Cu  Cu10  1  0.500000  0.500000  0.500000  1.0  0.7938
  H  H11  1  0.246400  0.957100  0.954500  1.0  0.1401
  H  H12  1  0.201900  0.856800  0.034200  1.0  0.0962
  H  H13  1  0.329100  0.932000  0.185700  1.0  0.137
  H  H14  1  0.274200  0.812100  0.120800  1.0  0.1413
  H  H15  1  0.352800  0.023800  0.077000  1.0  0.2598
  H  H16  1  0.710700  0.753600  0.954500  1.0  0.1398
  H  H17  1  0.654900  0.798100  0.034200  1.0  0.0965
  H  H18  1  0.602900  0.670900  0.185700  1.0  0.1374
  H  H19  1  0.537900  0.725800  0.120800  1.0  0.1417
  H  H20  1  0.671000  0.647200  0.077000  1.0  0.2605
  H  H21  1  0.042900  0.289300  0.954500  1.0  0.1399
  H  H22  1  0.143200  0.345100  0.034200  1.0  0.0978
  H  H23  1  0.068000  0.397100  0.185700  1.0  0.1371
  H  H24  1  0.187900  0.462100  0.120800  1.0  0.142
  H  H25  1  0.976200  0.329000  0.077000  1.0  0.2588
  H  H26  1  0.289300  0.042900  0.545500  1.0  0.1403
  H  H27  1  0.345100  0.143200  0.465800  1.0  0.096
  H  H28  1  0.397100  0.068000  0.314300  1.0  0.1371
  H  H29  1  0.462100  0.187900  0.379200  1.0  0.1423
  H  H30  1  0.329000  0.976200  0.423000  1.0  0.2594
  H  H31  1  0.957100  0.246400  0.545500  1.0  0.1403
  H  H32  1  0.856800  0.201900  0.465800  1.0  0.0983
  H  H33  1  0.932000  0.329100  0.314300  1.0  0.1376
  H  H34  1  0.812100  0.274200  0.379200  1.0  0.1422
  H  H35  1  0.023800  0.352800  0.423000  1.0  0.2609
  H  H36  1  0.753600  0.710700  0.545500  1.0  0.1398
  H  H37  1  0.798100  0.654900  0.465800  1.0  0.0971
  H  H38  1  0.670900  0.602900  0.314300  1.0  0.1378
  H  H39  1  0.725800  0.537900  0.379200  1.0  0.1429
  H  H40  1  0.647200  0.671000  0.423000  1.0  0.2588
  H  H41  1  0.753600  0.042900  0.045500  1.0  0.1398
  H  H42  1  0.798100  0.143200  0.965800  1.0  0.0976
  H  H43  1  0.670900  0.068000  0.814300  1.0  0.1379
  H  H44  1  0.725800  0.187900  0.879200  1.0  0.1423
  H  H45  1  0.647200  0.976200  0.923000  1.0  0.2597
  H  H46  1  0.289300  0.246400  0.045500  1.0  0.1405
  H  H47  1  0.345100  0.201900  0.965800  1.0  0.0975
  H  H48  1  0.397100  0.329100  0.814300  1.0  0.1369
  H  H49  1  0.462100  0.274200  0.879200  1.0  0.1424
  H  H50  1  0.329000  0.352800  0.923000  1.0  0.2609
  H  H51  1  0.957100  0.710700  0.045500  1.0  0.1397
  H  H52  1  0.856800  0.654900  0.965800  1.0  0.0948
  H  H53  1  0.932000  0.602900  0.814300  1.0  0.1374
  H  H54  1  0.812100  0.537900  0.879200  1.0  0.1417
  H  H55  1  0.023800  0.671000  0.923000  1.0  0.2584
  H  H56  1  0.710700  0.957100  0.454500  1.0  0.1395
  H  H57  1  0.654900  0.856800  0.534200  1.0  0.0973
  H  H58  1  0.602900  0.932000  0.685700  1.0  0.1372
  H  H59  1  0.537900  0.812100  0.620800  1.0  0.1415
  H  H60  1  0.671000  0.023800  0.577000  1.0  0.2595
  H  H61  1  0.042900  0.753600  0.454500  1.0  0.1399
  H  H62  1  0.143200  0.798100  0.534200  1.0  0.0967
  H  H63  1  0.068000  0.670900  0.685700  1.0  0.137
  H  H64  1  0.187900  0.725800  0.620800  1.0  0.1413
  H  H65  1  0.976200  0.647200  0.577000  1.0  0.261
  H  H66  1  0.246400  0.289300  0.454500  1.0  0.1398
  H  H67  1  0.201900  0.345100  0.534200  1.0  0.0959
  H  H68  1  0.329100  0.397100  0.685700  1.0  0.1373
  H  H69  1  0.274200  0.462100  0.620800  1.0  0.1404
  H  H70  1  0.352800  0.329000  0.577000  1.0  0.2588
  C  C71  1  0.273500  0.820500  0.934700  1.0  0.6867
  C  C72  1  0.256900  0.904800  0.991400  1.0  -0.1778
  C  C73  1  0.332900  0.887200  0.137600  1.0  -0.2073
  C  C74  1  0.439400  0.879200  0.157900  1.0  0.7294
  C  C75  1  0.547000  0.726500  0.934700  1.0  0.6847
  C  C76  1  0.647900  0.743100  0.991400  1.0  -0.1767
  C  C77  1  0.554300  0.667100  0.137600  1.0  -0.2071
  C  C78  1  0.439800  0.560600  0.157900  1.0  0.7308
  C  C79  1  0.179500  0.453000  0.934700  1.0  0.686
  C  C80  1  0.095200  0.352100  0.991400  1.0  -0.1783
  C  C81  1  0.112800  0.445700  0.137600  1.0  -0.2088
  C  C82  1  0.120800  0.560200  0.157900  1.0  0.7307
  C  C83  1  0.453000  0.179500  0.565300  1.0  0.6862
  C  C84  1  0.352100  0.095200  0.508600  1.0  -0.1774
  C  C85  1  0.445700  0.112800  0.362400  1.0  -0.207
  C  C86  1  0.560200  0.120800  0.342100  1.0  0.7292
  C  C87  1  0.820500  0.273500  0.565300  1.0  0.684
  C  C88  1  0.904800  0.256900  0.508600  1.0  -0.1778
  C  C89  1  0.887200  0.332900  0.362400  1.0  -0.2066
  C  C90  1  0.879200  0.439400  0.342100  1.0  0.7305
  C  C91  1  0.726500  0.547000  0.565300  1.0  0.6857
  C  C92  1  0.743100  0.647900  0.508600  1.0  -0.1767
  C  C93  1  0.667100  0.554300  0.362400  1.0  -0.2089
  C  C94  1  0.560600  0.439800  0.342100  1.0  0.7302
  C  C95  1  0.726500  0.179500  0.065300  1.0  0.6865
  C  C96  1  0.743100  0.095200  0.008600  1.0  -0.1782
  C  C97  1  0.667100  0.112800  0.862400  1.0  -0.2073
  C  C98  1  0.560600  0.120800  0.842100  1.0  0.73
  C  C99  1  0.453000  0.273500  0.065300  1.0  0.6843
  C  C100  1  0.352100  0.256900  0.008600  1.0  -0.1771
  C  C101  1  0.445700  0.332900  0.862400  1.0  -0.2071
  C  C102  1  0.560200  0.439400  0.842100  1.0  0.73
  C  C103  1  0.820500  0.547000  0.065300  1.0  0.6856
  C  C104  1  0.904800  0.647900  0.008600  1.0  -0.1761
  C  C105  1  0.887200  0.554300  0.862400  1.0  -0.2082
  C  C106  1  0.879200  0.439800  0.842100  1.0  0.7298
  C  C107  1  0.547000  0.820500  0.434700  1.0  0.6868
  C  C108  1  0.647900  0.904800  0.491400  1.0  -0.178
  C  C109  1  0.554300  0.887200  0.637600  1.0  -0.2073
  C  C110  1  0.439800  0.879200  0.657900  1.0  0.7299
  C  C111  1  0.179500  0.726500  0.434700  1.0  0.6844
  C  C112  1  0.095200  0.743100  0.491400  1.0  -0.1767
  C  C113  1  0.112800  0.667100  0.637600  1.0  -0.2072
  C  C114  1  0.120800  0.560600  0.657900  1.0  0.731
  C  C115  1  0.273500  0.453000  0.434700  1.0  0.6867
  C  C116  1  0.256900  0.352100  0.491400  1.0  -0.1772
  C  C117  1  0.332900  0.445700  0.637600  1.0  -0.2092
  C  C118  1  0.439400  0.560200  0.657900  1.0  0.7308
  N  N119  1  0.349600  0.960100  0.058300  1.0  -0.2937
  N  N120  1  0.610500  0.650400  0.058300  1.0  -0.2925
  N  N121  1  0.039900  0.389500  0.058300  1.0  -0.2949
  N  N122  1  0.389500  0.039900  0.441700  1.0  -0.2942
  N  N123  1  0.960100  0.349600  0.441700  1.0  -0.2937
  N  N124  1  0.650400  0.610500  0.441700  1.0  -0.2938
  N  N125  1  0.650400  0.039900  0.941700  1.0  -0.2943
  N  N126  1  0.389500  0.349600  0.941700  1.0  -0.2931
  N  N127  1  0.960100  0.610500  0.941700  1.0  -0.293
  N  N128  1  0.610500  0.960100  0.558300  1.0  -0.2935
  N  N129  1  0.039900  0.650400  0.558300  1.0  -0.2912
  N  N130  1  0.349600  0.389500  0.558300  1.0  -0.2942
  O  O131  1  0.199300  0.758600  0.878300  1.0  -0.6473
  O  O132  1  0.364600  0.816600  0.946300  1.0  -0.7081
  O  O133  1  0.437900  0.824000  0.225200  1.0  -0.7043
  O  O134  1  0.524700  0.928400  0.106300  1.0  -0.5654
  O  O135  1  0.559300  0.800700  0.878300  1.0  -0.6484
  O  O136  1  0.452000  0.635400  0.946300  1.0  -0.7083
  O  O137  1  0.386100  0.562100  0.225200  1.0  -0.7031
  O  O138  1  0.403700  0.475300  0.106300  1.0  -0.566
  O  O139  1  0.241400  0.440700  0.878300  1.0  -0.6471
  O  O140  1  0.183400  0.548000  0.946300  1.0  -0.7096
  O  O141  1  0.176000  0.613900  0.225200  1.0  -0.7061
  O  O142  1  0.071600  0.596300  0.106300  1.0  -0.5668
  O  O143  1  0.440700  0.241400  0.621700  1.0  -0.6473
  O  O144  1  0.548000  0.183400  0.553700  1.0  -0.7078
  O  O145  1  0.613900  0.176000  0.274800  1.0  -0.7039
  O  O146  1  0.596300  0.071600  0.393700  1.0  -0.5654
  O  O147  1  0.758600  0.199300  0.621700  1.0  -0.6484
  O  O148  1  0.816600  0.364600  0.553700  1.0  -0.7079
  O  O149  1  0.824000  0.437900  0.274800  1.0  -0.7032
  O  O150  1  0.928400  0.524700  0.393700  1.0  -0.5665
  O  O151  1  0.800700  0.559300  0.621700  1.0  -0.6464
  O  O152  1  0.635400  0.452000  0.553700  1.0  -0.7086
  O  O153  1  0.562100  0.386100  0.274800  1.0  -0.7048
  O  O154  1  0.475300  0.403700  0.393700  1.0  -0.5669
  O  O155  1  0.800700  0.241400  0.121700  1.0  -0.647
  O  O156  1  0.635400  0.183400  0.053700  1.0  -0.7077
  O  O157  1  0.562100  0.176000  0.774800  1.0  -0.7039
  O  O158  1  0.475300  0.071600  0.893700  1.0  -0.5655
  O  O159  1  0.440700  0.199300  0.121700  1.0  -0.6493
  O  O160  1  0.548000  0.364600  0.053700  1.0  -0.7074
  O  O161  1  0.613900  0.437900  0.774800  1.0  -0.7036
  O  O162  1  0.596300  0.524700  0.893700  1.0  -0.5665
  O  O163  1  0.758600  0.559300  0.121700  1.0  -0.6465
  O  O164  1  0.816600  0.452000  0.053700  1.0  -0.7091
  O  O165  1  0.824000  0.386100  0.774800  1.0  -0.7056
  O  O166  1  0.928400  0.403700  0.893700  1.0  -0.5659
  O  O167  1  0.559300  0.758600  0.378300  1.0  -0.6473
  O  O168  1  0.452000  0.816600  0.446300  1.0  -0.7083
  O  O169  1  0.386100  0.824000  0.725200  1.0  -0.7042
  O  O170  1  0.403700  0.928400  0.606300  1.0  -0.5653
  O  O171  1  0.241400  0.800700  0.378300  1.0  -0.6487
  O  O172  1  0.183400  0.635400  0.446300  1.0  -0.7076
  O  O173  1  0.176000  0.562100  0.725200  1.0  -0.7032
  O  O174  1  0.071600  0.475300  0.606300  1.0  -0.5663
  O  O175  1  0.199300  0.440700  0.378300  1.0  -0.6474
  O  O176  1  0.364600  0.548000  0.446300  1.0  -0.7101
  O  O177  1  0.437900  0.613900  0.725200  1.0  -0.7067
  O  O178  1  0.524700  0.596300  0.606300  1.0  -0.5666
