# generated using pymatgen
data_Ni3H8C28(NO4)4
_symmetry_space_group_name_H-M   'P 1'
_cell_length_a   13.85400000
_cell_length_b   11.41100000
_cell_length_c   17.71000000
_cell_angle_alpha   90.00000000
_cell_angle_beta   128.10900000
_cell_angle_gamma   90.00000000
_symmetry_Int_Tables_number   1
_chemical_formula_structural   Ni3H8C28(NO4)4
_chemical_formula_sum   'Ni6 H16 C56 N8 O32'
_cell_volume   2202.94079025
_cell_formula_units_Z   2
loop_
 _symmetry_equiv_pos_site_id
 _symmetry_equiv_pos_as_xyz
  1  'x, y, z'
loop_
 _atom_site_type_symbol
 _atom_site_label
 _atom_site_symmetry_multiplicity
 _atom_site_fract_x
 _atom_site_fract_y
 _atom_site_fract_z
 _atom_site_occupancy
 _atom_site_charge
  Ni  Ni1  1  0.878580  0.275980  0.698590  1.0  0.8312
  Ni  Ni2  1  0.121420  0.775980  0.801410  1.0  0.8278
  Ni  Ni3  1  0.121420  0.724020  0.301410  1.0  0.8273
  Ni  Ni4  1  0.878580  0.224020  0.198590  1.0  0.8308
  Ni  Ni5  1  0.000000  0.000000  0.000000  1.0  0.6442
  Ni  Ni6  1  0.000000  0.500000  0.500000  1.0  0.6447
  H  H7  1  0.294800  0.153700  0.301100  1.0  0.1462
  H  H8  1  0.281200  0.334800  0.493300  1.0  0.145
  H  H9  1  0.486400  0.096300  0.441200  1.0  0.1385
  H  H10  1  0.454900  0.408300  0.535500  1.0  0.1446
  H  H11  1  0.705200  0.653700  0.198900  1.0  0.1469
  H  H12  1  0.718800  0.834800  0.006700  1.0  0.1445
  H  H13  1  0.513600  0.596300  0.058800  1.0  0.139
  H  H14  1  0.545100  0.908300  0.964500  1.0  0.1434
  H  H15  1  0.705200  0.846300  0.698900  1.0  0.1467
  H  H16  1  0.718800  0.665200  0.506700  1.0  0.1446
  H  H17  1  0.513600  0.903700  0.558800  1.0  0.139
  H  H18  1  0.545100  0.591700  0.464500  1.0  0.1434
  H  H19  1  0.294800  0.346300  0.801100  1.0  0.1461
  H  H20  1  0.281200  0.165200  0.993300  1.0  0.1452
  H  H21  1  0.486400  0.403700  0.941200  1.0  0.1386
  H  H22  1  0.454900  0.091700  0.035500  1.0  0.1449
  C  C23  1  0.039700  0.128800  0.161700  1.0  0.702
  C  C24  1  0.028700  0.327300  0.388600  1.0  0.719
  C  C25  1  0.742500  0.088900  0.562700  1.0  0.7066
  C  C26  1  0.705400  0.444900  0.673500  1.0  0.7315
  C  C27  1  0.121700  0.179700  0.260500  1.0  0.1462
  C  C28  1  0.250200  0.185000  0.320900  1.0  -0.0656
  C  C29  1  0.311700  0.237900  0.411700  1.0  0.0775
  C  C30  1  0.242100  0.292200  0.435100  1.0  -0.1114
  C  C31  1  0.115100  0.282500  0.371500  1.0  0.126
  C  C32  1  0.647300  0.172300  0.547200  1.0  0.1175
  C  C33  1  0.522100  0.162400  0.482600  1.0  -0.0887
  C  C34  1  0.447000  0.248700  0.477300  1.0  0.068
  C  C35  1  0.503300  0.346600  0.538500  1.0  -0.1006
  C  C36  1  0.630700  0.351500  0.603400  1.0  0.1147
  C  C37  1  0.960300  0.628800  0.338300  1.0  0.7029
  C  C38  1  0.971300  0.827300  0.111400  1.0  0.7237
  C  C39  1  0.257500  0.588900  0.937300  1.0  0.7075
  C  C40  1  0.294600  0.944900  0.826500  1.0  0.7304
  C  C41  1  0.878300  0.679700  0.239500  1.0  0.1475
  C  C42  1  0.749800  0.685000  0.179100  1.0  -0.0678
  C  C43  1  0.688300  0.737900  0.088300  1.0  0.0781
  C  C44  1  0.757900  0.792200  0.064900  1.0  -0.1116
  C  C45  1  0.884900  0.782500  0.128500  1.0  0.1257
  C  C46  1  0.352700  0.672300  0.952800  1.0  0.1184
  C  C47  1  0.477900  0.662400  0.017400  1.0  -0.0893
  C  C48  1  0.553000  0.748700  0.022700  1.0  0.0691
  C  C49  1  0.496700  0.846600  0.961500  1.0  -0.1004
  C  C50  1  0.369300  0.851500  0.896600  1.0  0.1144
  C  C51  1  0.960300  0.871200  0.838300  1.0  0.7029
  C  C52  1  0.971300  0.672700  0.611400  1.0  0.7232
  C  C53  1  0.257500  0.911100  0.437300  1.0  0.7071
  C  C54  1  0.294600  0.555100  0.326500  1.0  0.7302
  C  C55  1  0.878300  0.820300  0.739500  1.0  0.1473
  C  C56  1  0.749800  0.815000  0.679100  1.0  -0.0682
  C  C57  1  0.688300  0.762100  0.588300  1.0  0.0782
  C  C58  1  0.757900  0.707800  0.564900  1.0  -0.1118
  C  C59  1  0.884900  0.717500  0.628500  1.0  0.1254
  C  C60  1  0.352700  0.827700  0.452800  1.0  0.1181
  C  C61  1  0.477900  0.837600  0.517400  1.0  -0.0893
  C  C62  1  0.553000  0.751300  0.522700  1.0  0.0691
  C  C63  1  0.496700  0.653400  0.461500  1.0  -0.1012
  C  C64  1  0.369300  0.648500  0.396600  1.0  0.1137
  C  C65  1  0.039700  0.371200  0.661700  1.0  0.702
  C  C66  1  0.028700  0.172700  0.888600  1.0  0.7183
  C  C67  1  0.742500  0.411100  0.062700  1.0  0.7075
  C  C68  1  0.705400  0.055100  0.173500  1.0  0.7317
  C  C69  1  0.121700  0.320300  0.760500  1.0  0.1466
  C  C70  1  0.250200  0.315000  0.820900  1.0  -0.0659
  C  C71  1  0.311700  0.262100  0.911700  1.0  0.0777
  C  C72  1  0.242100  0.207800  0.935100  1.0  -0.1117
  C  C73  1  0.115100  0.217500  0.871500  1.0  0.1263
  C  C74  1  0.647300  0.327700  0.047200  1.0  0.1177
  C  C75  1  0.522100  0.337600  0.982600  1.0  -0.0893
  C  C76  1  0.447000  0.251300  0.977300  1.0  0.0679
  C  C77  1  0.503300  0.153400  0.038500  1.0  -0.1021
  C  C78  1  0.630700  0.148500  0.103400  1.0  0.1151
  N  N79  1  0.060800  0.225000  0.289000  1.0  -0.2621
  N  N80  1  0.698500  0.266000  0.606000  1.0  -0.2899
  N  N81  1  0.939200  0.725000  0.211000  1.0  -0.2643
  N  N82  1  0.301500  0.766000  0.894000  1.0  -0.2901
  N  N83  1  0.939200  0.775000  0.711000  1.0  -0.2643
  N  N84  1  0.301500  0.734000  0.394000  1.0  -0.2901
  N  N85  1  0.060800  0.275000  0.789000  1.0  -0.262
  N  N86  1  0.698500  0.234000  0.106000  1.0  -0.2899
  O  O87  1  0.925300  0.138500  0.118000  1.0  -0.5471
  O  O88  1  0.088100  0.084800  0.128600  1.0  -0.5646
  O  O89  1  0.916900  0.306000  0.325100  1.0  -0.5332
  O  O90  1  0.075600  0.384800  0.463700  1.0  -0.5774
  O  O91  1  0.852900  0.118700  0.627500  1.0  -0.5578
  O  O92  1  0.708100  0.001900  0.511000  1.0  -0.477
  O  O93  1  0.821000  0.431600  0.725600  1.0  -0.5537
  O  O94  1  0.652700  0.530700  0.678300  1.0  -0.5067
  O  O95  1  0.074700  0.638500  0.382000  1.0  -0.5485
  O  O96  1  0.911900  0.584800  0.371400  1.0  -0.565
  O  O97  1  0.083100  0.806000  0.174900  1.0  -0.5336
  O  O98  1  0.924400  0.884800  0.036300  1.0  -0.5761
  O  O99  1  0.147100  0.618700  0.872500  1.0  -0.5588
  O  O100  1  0.291900  0.501900  0.989000  1.0  -0.4749
  O  O101  1  0.179000  0.931600  0.774400  1.0  -0.5526
  O  O102  1  0.347300  0.030700  0.821700  1.0  -0.5068
  O  O103  1  0.074700  0.861500  0.882000  1.0  -0.5491
  O  O104  1  0.911900  0.915200  0.871400  1.0  -0.5648
  O  O105  1  0.083100  0.694000  0.674900  1.0  -0.5332
  O  O106  1  0.924400  0.615200  0.536300  1.0  -0.5766
  O  O107  1  0.147100  0.881300  0.372500  1.0  -0.5594
  O  O108  1  0.291900  0.998100  0.489000  1.0  -0.474
  O  O109  1  0.179000  0.568400  0.274400  1.0  -0.5523
  O  O110  1  0.347300  0.469300  0.321700  1.0  -0.507
  O  O111  1  0.925300  0.361500  0.618000  1.0  -0.5472
  O  O112  1  0.088100  0.415200  0.628600  1.0  -0.564
  O  O113  1  0.916900  0.194000  0.825100  1.0  -0.5335
  O  O114  1  0.075600  0.115200  0.963700  1.0  -0.5779
  O  O115  1  0.852900  0.381300  0.127500  1.0  -0.5581
  O  O116  1  0.708100  0.498100  0.011000  1.0  -0.4755
  O  O117  1  0.821000  0.068400  0.225600  1.0  -0.5536
  O  O118  1  0.652700  0.969300  0.178300  1.0  -0.5077
