# generated using pymatgen
data_Gd2P2H10C9NO16
_symmetry_space_group_name_H-M   'P 1'
_cell_length_a   8.68390000
_cell_length_b   9.29220000
_cell_length_c   31.72900000
_cell_angle_alpha   90.00000000
_cell_angle_beta   90.00000000
_cell_angle_gamma   98.51400000
_symmetry_Int_Tables_number   1
_chemical_formula_structural   Gd2P2H10C9NO16
_chemical_formula_sum   'Gd8 P8 H40 C36 N4 O64'
_cell_volume   2532.07830338
_cell_formula_units_Z   4
loop_
 _symmetry_equiv_pos_site_id
 _symmetry_equiv_pos_as_xyz
  1  'x, y, z'
loop_
 _atom_site_type_symbol
 _atom_site_label
 _atom_site_symmetry_multiplicity
 _atom_site_fract_x
 _atom_site_fract_y
 _atom_site_fract_z
 _atom_site_occupancy
 _atom_site_charge
  Gd  Gd1  1  0.561980  0.200440  0.783100  1.0  2.1574
  Gd  Gd2  1  0.245320  0.686620  0.029800  1.0  2.1713
  Gd  Gd3  1  0.938020  0.299560  0.283100  1.0  2.1573
  Gd  Gd4  1  0.254680  0.813380  0.529800  1.0  2.1721
  Gd  Gd5  1  0.438020  0.799560  0.216900  1.0  2.1546
  Gd  Gd6  1  0.754680  0.313380  0.970200  1.0  2.1737
  Gd  Gd7  1  0.061980  0.700440  0.716900  1.0  2.1546
  Gd  Gd8  1  0.745320  0.186620  0.470200  1.0  2.1728
  P  P9  1  0.246000  0.435400  0.774530  1.0  1.4881
  P  P10  1  0.076300  0.562800  0.924890  1.0  1.553
  P  P11  1  0.254000  0.064600  0.274530  1.0  1.4867
  P  P12  1  0.423700  0.937200  0.424890  1.0  1.5505
  P  P13  1  0.754000  0.564600  0.225470  1.0  1.4871
  P  P14  1  0.923700  0.437200  0.075110  1.0  1.5492
  P  P15  1  0.746000  0.935400  0.725470  1.0  1.4888
  P  P16  1  0.576300  0.062800  0.575110  1.0  1.551
  H  H17  1  0.132200  0.739500  0.889700  1.0  0.4823
  H  H18  1  0.291000  0.353200  0.856900  1.0  0.2349
  H  H19  1  0.345400  0.582200  0.830200  1.0  0.1725
  H  H20  1  0.165700  0.585400  0.825900  1.0  0.1078
  H  H21  1  0.326200  0.536000  0.905300  1.0  0.1031
  H  H22  1  0.239800  0.388700  0.922400  1.0  0.1057
  H  H23  1  0.978500  0.364600  0.851500  1.0  0.0712
  H  H24  1  0.046200  0.241200  0.876100  1.0  0.0708
  H  H25  1  0.161100  0.172500  0.813300  1.0  0.0867
  H  H26  1  0.979500  0.156000  0.808800  1.0  0.0978
  H  H27  1  0.367800  0.760500  0.389700  1.0  0.4862
  H  H28  1  0.209000  0.146800  0.356900  1.0  0.2343
  H  H29  1  0.154600  0.917800  0.330200  1.0  0.1731
  H  H30  1  0.334300  0.914600  0.325900  1.0  0.1093
  H  H31  1  0.173800  0.964000  0.405300  1.0  0.1046
  H  H32  1  0.260200  0.111300  0.422400  1.0  0.1048
  H  H33  1  0.521500  0.135400  0.351500  1.0  0.0721
  H  H34  1  0.453800  0.258800  0.376100  1.0  0.0683
  H  H35  1  0.338900  0.327500  0.313300  1.0  0.0858
  H  H36  1  0.520500  0.344000  0.308800  1.0  0.0981
  H  H37  1  0.867800  0.260500  0.110300  1.0  0.4857
  H  H38  1  0.709000  0.646800  0.143100  1.0  0.2334
  H  H39  1  0.654600  0.417800  0.169800  1.0  0.1728
  H  H40  1  0.834300  0.414600  0.174100  1.0  0.1087
  H  H41  1  0.673800  0.464000  0.094700  1.0  0.1044
  H  H42  1  0.760200  0.611300  0.077600  1.0  0.1054
  H  H43  1  0.021500  0.635400  0.148500  1.0  0.0716
  H  H44  1  0.953800  0.758800  0.123900  1.0  0.0703
  H  H45  1  0.838900  0.827500  0.186700  1.0  0.0853
  H  H46  1  0.020500  0.844000  0.191200  1.0  0.0981
  H  H47  1  0.632200  0.239500  0.610300  1.0  0.4817
  H  H48  1  0.791000  0.853200  0.643100  1.0  0.2344
  H  H49  1  0.845400  0.082200  0.669800  1.0  0.1724
  H  H50  1  0.665700  0.085400  0.674100  1.0  0.1076
  H  H51  1  0.826200  0.036000  0.594700  1.0  0.103
  H  H52  1  0.739800  0.888700  0.577600  1.0  0.1054
  H  H53  1  0.478500  0.864600  0.648500  1.0  0.0706
  H  H54  1  0.546200  0.741200  0.623900  1.0  0.0707
  H  H55  1  0.661100  0.672500  0.686700  1.0  0.0861
  H  H56  1  0.479500  0.656000  0.691200  1.0  0.0982
  C  C57  1  0.245400  0.522500  0.825300  1.0  -0.4833
  C  C58  1  0.229300  0.469200  0.903700  1.0  -0.5102
  C  C59  1  0.064500  0.309000  0.852800  1.0  -0.0773
  C  C60  1  0.073400  0.226000  0.812000  1.0  0.0065
  C  C61  1  0.788400  0.429900  0.727100  1.0  0.5211
  C  C62  1  0.820600  0.483900  0.772800  1.0  0.5786
  C  C63  1  0.556500  0.261200  0.884300  1.0  0.6152
  C  C64  1  0.687800  0.169800  0.877800  1.0  0.6547
  C  C65  1  0.452500  0.430600  0.009800  1.0  0.5438
  C  C66  1  0.254600  0.977500  0.325300  1.0  -0.4829
  C  C67  1  0.270700  0.030800  0.403700  1.0  -0.5099
  C  C68  1  0.435500  0.191000  0.352800  1.0  -0.0778
  C  C69  1  0.426600  0.274000  0.312000  1.0  0.0055
  C  C70  1  0.711600  0.070100  0.227100  1.0  0.5218
  C  C71  1  0.679400  0.016100  0.272800  1.0  0.5794
  C  C72  1  0.943500  0.238800  0.384300  1.0  0.6158
  C  C73  1  0.812200  0.330200  0.377800  1.0  0.6533
  C  C74  1  0.047500  0.069400  0.509800  1.0  0.5429
  C  C75  1  0.754600  0.477500  0.174700  1.0  -0.4819
  C  C76  1  0.770700  0.530800  0.096300  1.0  -0.5099
  C  C77  1  0.935500  0.691000  0.147200  1.0  -0.077
  C  C78  1  0.926600  0.774000  0.188000  1.0  0.0053
  C  C79  1  0.211600  0.570100  0.272900  1.0  0.5212
  C  C80  1  0.179400  0.516100  0.227200  1.0  0.5777
  C  C81  1  0.443500  0.738800  0.115700  1.0  0.6154
  C  C82  1  0.312200  0.830200  0.122200  1.0  0.6552
  C  C83  1  0.547500  0.569400  0.990200  1.0  0.5436
  C  C84  1  0.745400  0.022500  0.674700  1.0  -0.4808
  C  C85  1  0.729300  0.969200  0.596300  1.0  -0.5091
  C  C86  1  0.564500  0.809000  0.647200  1.0  -0.0777
  C  C87  1  0.573400  0.726000  0.688000  1.0  0.0071
  C  C88  1  0.288400  0.929900  0.772900  1.0  0.5212
  C  C89  1  0.320600  0.983900  0.727200  1.0  0.5781
  C  C90  1  0.056500  0.761200  0.615700  1.0  0.6144
  C  C91  1  0.187800  0.669800  0.622200  1.0  0.655
  C  C92  1  0.952500  0.930600  0.490200  1.0  0.5434
  N  N93  1  0.214500  0.409800  0.859600  1.0  0.1224
  N  N94  1  0.285500  0.090200  0.359600  1.0  0.1228
  N  N95  1  0.785500  0.590200  0.140400  1.0  0.1214
  N  N96  1  0.714500  0.909800  0.640400  1.0  0.1214
  O  O97  1  0.383900  0.358900  0.772200  1.0  -0.8962
  O  O98  1  0.090900  0.321500  0.775200  1.0  -0.3741
  O  O99  1  0.227500  0.542100  0.740500  1.0  -0.9093
  O  O100  1  0.144200  0.629300  0.964400  1.0  -0.8973
  O  O101  1  0.051900  0.681300  0.891900  1.0  -0.7023
  O  O102  1  0.925800  0.462700  0.928000  1.0  -0.9089
  O  O103  1  0.684600  0.322900  0.722200  1.0  -0.6032
  O  O104  1  0.869600  0.500300  0.699100  1.0  -0.6158
  O  O105  1  0.746700  0.410000  0.801600  1.0  -0.6351
  O  O106  1  0.917800  0.597000  0.777900  1.0  -0.6149
  O  O107  1  0.542900  0.315900  0.919200  1.0  -0.6009
  O  O108  1  0.466800  0.267900  0.853200  1.0  -0.6284
  O  O109  1  0.773200  0.158600  0.909000  1.0  -0.6311
  O  O110  1  0.700800  0.115800  0.842200  1.0  -0.6161
  O  O111  1  0.322200  0.443800  0.025600  1.0  -0.6249
  O  O112  1  0.514900  0.315900  0.009200  1.0  -0.6158
  O  O113  1  0.116100  0.141100  0.272200  1.0  -0.8988
  O  O114  1  0.409100  0.178500  0.275200  1.0  -0.3743
  O  O115  1  0.272500  0.957900  0.240500  1.0  -0.9087
  O  O116  1  0.355800  0.870700  0.464400  1.0  -0.8958
  O  O117  1  0.448100  0.818700  0.391900  1.0  -0.7045
  O  O118  1  0.574200  0.037300  0.428000  1.0  -0.9118
  O  O119  1  0.815400  0.177100  0.222200  1.0  -0.6037
  O  O120  1  0.630400  0.999700  0.199100  1.0  -0.6163
  O  O121  1  0.753300  0.090000  0.301600  1.0  -0.6346
  O  O122  1  0.582200  0.903000  0.277900  1.0  -0.6125
  O  O123  1  0.957100  0.184100  0.419200  1.0  -0.6014
  O  O124  1  0.033200  0.232100  0.353200  1.0  -0.6301
  O  O125  1  0.726800  0.341400  0.409000  1.0  -0.628
  O  O126  1  0.799200  0.384200  0.342200  1.0  -0.6138
  O  O127  1  0.177800  0.056200  0.525600  1.0  -0.6276
  O  O128  1  0.985100  0.184100  0.509200  1.0  -0.6162
  O  O129  1  0.616100  0.641100  0.227800  1.0  -0.899
  O  O130  1  0.909100  0.678500  0.224800  1.0  -0.3731
  O  O131  1  0.772500  0.457900  0.259500  1.0  -0.9099
  O  O132  1  0.855800  0.370700  0.035600  1.0  -0.8957
  O  O133  1  0.948100  0.318700  0.108100  1.0  -0.7061
  O  O134  1  0.074200  0.537300  0.072000  1.0  -0.9109
  O  O135  1  0.315400  0.677100  0.277800  1.0  -0.6034
  O  O136  1  0.130400  0.499700  0.300900  1.0  -0.6142
  O  O137  1  0.253300  0.590000  0.198400  1.0  -0.6339
  O  O138  1  0.082200  0.403000  0.222100  1.0  -0.6136
  O  O139  1  0.457100  0.684100  0.080800  1.0  -0.5986
  O  O140  1  0.533200  0.732100  0.146800  1.0  -0.6283
  O  O141  1  0.226800  0.841400  0.091000  1.0  -0.6295
  O  O142  1  0.299200  0.884200  0.157800  1.0  -0.6137
  O  O143  1  0.677800  0.556200  0.974400  1.0  -0.6272
  O  O144  1  0.485100  0.684100  0.990800  1.0  -0.6154
  O  O145  1  0.883900  0.858900  0.727800  1.0  -0.8957
  O  O146  1  0.590900  0.821500  0.724800  1.0  -0.3726
  O  O147  1  0.727500  0.042100  0.759500  1.0  -0.91
  O  O148  1  0.644200  0.129300  0.535600  1.0  -0.899
  O  O149  1  0.551900  0.181300  0.608100  1.0  -0.7027
  O  O150  1  0.425800  0.962700  0.572000  1.0  -0.9086
  O  O151  1  0.184600  0.822900  0.777800  1.0  -0.6032
  O  O152  1  0.369600  0.000300  0.800900  1.0  -0.6132
  O  O153  1  0.246700  0.910000  0.698400  1.0  -0.6336
  O  O154  1  0.417800  0.097000  0.722100  1.0  -0.6148
  O  O155  1  0.042900  0.815900  0.580800  1.0  -0.5987
  O  O156  1  0.966800  0.767900  0.646800  1.0  -0.627
  O  O157  1  0.273200  0.658600  0.591000  1.0  -0.6308
  O  O158  1  0.200800  0.615800  0.657800  1.0  -0.6158
  O  O159  1  0.822200  0.943800  0.474400  1.0  -0.6246
  O  O160  1  0.014900  0.815900  0.490800  1.0  -0.6152
