# generated using pymatgen
data_Cu2H16C20N4Cl
_symmetry_space_group_name_H-M   'P 1'
_cell_length_a   15.08300000
_cell_length_b   20.53100000
_cell_length_c   3.66560000
_cell_angle_alpha   90.00000000
_cell_angle_beta   90.00000000
_cell_angle_gamma   90.00000000
_symmetry_Int_Tables_number   1
_chemical_formula_structural   Cu2H16C20N4Cl
_chemical_formula_sum   'Cu4 H32 C40 N8 Cl2'
_cell_volume   1135.12295399
_cell_formula_units_Z   2
loop_
 _symmetry_equiv_pos_site_id
 _symmetry_equiv_pos_as_xyz
  1  'x, y, z'
loop_
 _atom_site_type_symbol
 _atom_site_label
 _atom_site_symmetry_multiplicity
 _atom_site_fract_x
 _atom_site_fract_y
 _atom_site_fract_z
 _atom_site_occupancy
 _atom_site_charge
  Cu  Cu1  1  0.621780  0.500000  0.500000  1.0  0.3799
  Cu  Cu2  1  0.121780  0.000000  0.500000  1.0  0.3799
  Cu  Cu3  1  0.378220  0.500000  0.500000  1.0  0.3803
  Cu  Cu4  1  0.878220  0.000000  0.500000  1.0  0.3803
  H  H5  1  0.560400  0.629500  0.285700  1.0  0.0392
  H  H6  1  0.609500  0.734300  0.264900  1.0  0.098
  H  H7  1  0.844500  0.671300  0.636500  1.0  0.0975
  H  H8  1  0.786500  0.568400  0.658700  1.0  0.0479
  H  H9  1  0.060400  0.129500  0.285700  1.0  0.0392
  H  H10  1  0.109500  0.234300  0.264900  1.0  0.098
  H  H11  1  0.344500  0.171300  0.636500  1.0  0.0975
  H  H12  1  0.286500  0.068400  0.658700  1.0  0.0479
  H  H13  1  0.439600  0.370500  0.285700  1.0  0.0394
  H  H14  1  0.390500  0.265700  0.264900  1.0  0.0981
  H  H15  1  0.155500  0.328700  0.636500  1.0  0.097
  H  H16  1  0.213500  0.431600  0.658700  1.0  0.0483
  H  H17  1  0.939600  0.870500  0.285700  1.0  0.0394
  H  H18  1  0.890500  0.765700  0.264900  1.0  0.0981
  H  H19  1  0.655500  0.828700  0.636500  1.0  0.097
  H  H20  1  0.713500  0.931600  0.658700  1.0  0.0483
  H  H21  1  0.439600  0.629500  0.714300  1.0  0.0394
  H  H22  1  0.390500  0.734300  0.735100  1.0  0.0983
  H  H23  1  0.155500  0.671300  0.363500  1.0  0.0974
  H  H24  1  0.213500  0.568400  0.341300  1.0  0.0475
  H  H25  1  0.939600  0.129500  0.714300  1.0  0.0394
  H  H26  1  0.890500  0.234300  0.735100  1.0  0.0983
  H  H27  1  0.655500  0.171300  0.363500  1.0  0.0974
  H  H28  1  0.713500  0.068400  0.341300  1.0  0.0475
  H  H29  1  0.560400  0.370500  0.714300  1.0  0.0392
  H  H30  1  0.609500  0.265700  0.735100  1.0  0.0976
  H  H31  1  0.844500  0.328700  0.363500  1.0  0.0979
  H  H32  1  0.786500  0.431600  0.341300  1.0  0.0478
  H  H33  1  0.060400  0.870500  0.714300  1.0  0.0392
  H  H34  1  0.109500  0.765700  0.735100  1.0  0.0976
  H  H35  1  0.344500  0.828700  0.363500  1.0  0.0979
  H  H36  1  0.286500  0.931600  0.341300  1.0  0.0478
  C  C37  1  0.618300  0.638400  0.357400  1.0  0.1445
  C  C38  1  0.647100  0.701500  0.346300  1.0  -0.2157
  C  C39  1  0.731900  0.716300  0.456000  1.0  0.0662
  C  C40  1  0.785900  0.664000  0.567900  1.0  -0.2195
  C  C41  1  0.751200  0.602400  0.574500  1.0  0.1129
  C  C42  1  0.118300  0.138400  0.357400  1.0  0.1445
  C  C43  1  0.147100  0.201500  0.346300  1.0  -0.2157
  C  C44  1  0.231900  0.216300  0.456000  1.0  0.0662
  C  C45  1  0.285900  0.164000  0.567900  1.0  -0.2195
  C  C46  1  0.251200  0.102400  0.574500  1.0  0.1129
  C  C47  1  0.381700  0.361600  0.357400  1.0  0.142
  C  C48  1  0.352900  0.298500  0.346300  1.0  -0.2161
  C  C49  1  0.268100  0.283700  0.456000  1.0  0.0663
  C  C50  1  0.214100  0.336000  0.567900  1.0  -0.2192
  C  C51  1  0.248800  0.397600  0.574500  1.0  0.1146
  C  C52  1  0.881700  0.861600  0.357400  1.0  0.142
  C  C53  1  0.852900  0.798500  0.346300  1.0  -0.2161
  C  C54  1  0.768100  0.783700  0.456000  1.0  0.0663
  C  C55  1  0.714100  0.836000  0.567900  1.0  -0.2192
  C  C56  1  0.748800  0.897600  0.574500  1.0  0.1146
  C  C57  1  0.381700  0.638400  0.642600  1.0  0.1422
  C  C58  1  0.352900  0.701500  0.653700  1.0  -0.2174
  C  C59  1  0.268100  0.716300  0.544000  1.0  0.0661
  C  C60  1  0.214100  0.664000  0.432100  1.0  -0.2182
  C  C61  1  0.248800  0.602400  0.425500  1.0  0.1143
  C  C62  1  0.881700  0.138400  0.642600  1.0  0.1422
  C  C63  1  0.852900  0.201500  0.653700  1.0  -0.2174
  C  C64  1  0.768100  0.216300  0.544000  1.0  0.0661
  C  C65  1  0.714100  0.164000  0.432100  1.0  -0.2182
  C  C66  1  0.748800  0.102400  0.425500  1.0  0.1143
  C  C67  1  0.618300  0.361600  0.642600  1.0  0.1443
  C  C68  1  0.647100  0.298500  0.653700  1.0  -0.2152
  C  C69  1  0.731900  0.283700  0.544000  1.0  0.0658
  C  C70  1  0.785900  0.336000  0.432100  1.0  -0.22
  C  C71  1  0.751200  0.397600  0.425500  1.0  0.1138
  C  C72  1  0.118300  0.861600  0.642600  1.0  0.1443
  C  C73  1  0.147100  0.798500  0.653700  1.0  -0.2152
  C  C74  1  0.231900  0.783700  0.544000  1.0  0.0658
  C  C75  1  0.285900  0.836000  0.432100  1.0  -0.22
  C  C76  1  0.251200  0.897600  0.425500  1.0  0.1138
  N  N77  1  0.669100  0.588900  0.465800  1.0  -0.3463
  N  N78  1  0.169100  0.088900  0.465800  1.0  -0.3463
  N  N79  1  0.330900  0.411100  0.465800  1.0  -0.3491
  N  N80  1  0.830900  0.911100  0.465800  1.0  -0.3491
  N  N81  1  0.330900  0.588900  0.534200  1.0  -0.3469
  N  N82  1  0.830900  0.088900  0.534200  1.0  -0.3469
  N  N83  1  0.669100  0.411100  0.534200  1.0  -0.3475
  N  N84  1  0.169100  0.911100  0.534200  1.0  -0.3475
  Cl  Cl85  1  0.500000  0.500000  0.000000  1.0  -0.0523
  Cl  Cl86  1  0.000000  0.000000  0.000000  1.0  -0.0523
